data_PCOD9210948
_publ_section_title
;
Structure prediction by ZEFSAII (Michael W. Deem and Ramdas Pophale) SiO2 
 PCOD9210948
Probable space group: C 2/M
;
_chemical_formula_sum "Si O2"
_cell_formula_units_Z 40
_cell_length_a 9.566346
_cell_length_b 14.948894
_cell_length_c 26.574003
_cell_angle_alpha 90.000000
_cell_angle_beta 149.846252
_cell_angle_gamma 90.000000
_cell_volume 1908.949370
_symmetry_space_group_name_H-M "C 2/M"
_symmetry_group_IT_number 12
_symmetry_cell_setting 'monoclinic'
loop_
_space_group_symop_operation_xyz
x,y,z
-x,y,-z
-x,-y,-z
x,-y,z
1/2+x,1/2+y,z
1/2-x,1/2+y,-z
1/2-x,1/2-y,-z
1/2+x,1/2-y,z
loop_
_atom_site_type_symbol
_atom_site_label
_atom_site_fract_x
_atom_site_fract_y
_atom_site_fract_z
Si Si1 0.578168 0.107887 0.220305
Si Si2 0.296565 0.265987 0.072935
Si Si3 0.179343 0.393361 0.749631
Si Si4 0.302179 0.598194 0.582665
Si Si5 0.261638 0.663366 0.467328
O O1 0.382856 0.172899 0.127142
O O2 0.499618 0.121220 0.254679
O O3 0.898930 0.137016 0.308886
O O4 0.553063 0.000000 0.202785
O O5 0.537780 0.338006 0.157079
O O6 0.250000 0.250000 0.000000
O O7 0.000000 0.298738 0.000000
O O8 0.222841 0.500000 0.758599
O O9 0.015431 0.357568 0.649878
O O10 0.290514 0.500000 0.603170
O O11 0.320425 0.591009 0.528308
O O12 0.000000 0.640095 0.500000
O O13 0.500000 0.665562 0.500000
O O14 0.250000 0.750000 0.500000
#
# Coordination Sequence:
#
# PCOD9210948 Si02
#       5
#     8   8   8   8   8
#     4  10  22  44  73 103 136 183 234 283 347 427
#     4  12  26  46  71 100 136 177 231 299 363 414
#     4  11  25  44  71 103 138 184 239 288 343 416
#     4  10  21  39  64  97 137 174 217 273 334 406
#     4  12  24  39  65 100 140 184 227 272 340 414
#
# _framework density 20.953932999999999
#
# number of rings (size 3 to 8) (size 9 to 14) (size 15 to 20)
#    0.000    1.000    4.000    2.400    0.000    4.000 
#    0.000    2.000    0.000    0.000    0.000    0.000 
#    0.000    0.000    0.000    0.000    0.000    0.000 
#
# Total GULP energy -111620.765869 kJ/mol
# GULP energy per Si atom -5581.038293 kJ/mol
# Density = 2.090624 g / cm^3
# Si number density = 20.953933 Si / 1000 Ang^3
#
#
#
# Elastic Constant Matrix: (Units=GPa)
#
#
# Indices 1 2 3 4 5 6 
#
# 1 97.6143 20.0798 36.3105 -0.0003 11.7870 0.0000
# 2 20.0798 105.1044 40.9573 -0.0002 -3.0023 0.0000
# 3 36.3105 40.9573 156.3340 -0.0007 9.1618 -0.0002
# 4 -0.0003 -0.0002 -0.0007 8.6772 -0.0003 -11.2667
# 5 11.7870 -3.0023 9.1618 -0.0003 54.9399 0.0001
# 6 0.0000 0.0000 -0.0002 -11.2667 0.0001 15.9922
#
#
#
# Elastic Compliance Matrix: (Units=1/GPa)
#
#
# Indices 1 2 3 4 5 6 
#
# 1 0.011621 -0.001427 -0.002196 0.000001 -0.002205 0.000001
# 2 -0.001427 0.010832 -0.002584 0.000000 0.001329 0.000000
# 3 -0.002196 -0.002584 0.007639 0.000007 -0.000944 0.000005
# 4 0.000001 0.000000 0.000007 1.352059 0.000003 0.952547
# 5 -0.002205 0.001329 -0.000944 0.000003 0.018905 0.000002
# 6 0.000001 0.000000 0.000005 0.952547 0.000002 0.733615
#
#
# Mechanical properties :
#
#
# Convention : Reuss Voigt Hill
#
# Bulk Modulus (GPa) = 56.57087 61.52755 59.04921
# Shear Modulus (GPa) = 2.32236 33.36887 17.84562
#
# Velocity S-wave (km/s) = 1.05391 3.99493 2.92149
# Velocity P-wave (km/s) = 5.34203 7.12083 6.29458
#
# Compressibility (1/GPa) = 0.01767694
#
# Stress axis : x y z
#
# Youngs Moduli (GPa) = 86.05010 92.31879 130.90817
#
# Poissons Ratio (x) = 0.13178 0.28747
# Poissons Ratio (y) = 0.12283 0.33829
# Poissons Ratio (z) = 0.18896 0.23857
#
# Static dielectric constant tensor:
#      x y z
#    x 1.795680 -0.000010 0.041260 
#    y -0.000010 1.863980 0.000000 
#    z 0.041260 0.000000 1.737220 
# 
# From -- ./inp_files/356616.got.cif
#   From: 2010.05.17/outbox.cif.g08.bks.cpg/sg12_179_cif.got.tgz:356616.got - 2010.06.03 13:09:07.
