data_PCOD9210290
_publ_section_title
;
Structure prediction by ZEFSAII (Michael W. Deem and Ramdas Pophale) SiO2 
 PCOD9210290
Probable space group: C 2/M
;
_chemical_formula_sum "Si O2"
_cell_formula_units_Z 64
_cell_length_a 14.839367
_cell_length_b 9.214826
_cell_length_c 23.267218
_cell_angle_alpha 90.000000
_cell_angle_beta 84.743738
_cell_angle_gamma 90.000000
_cell_volume 3168.231303
_symmetry_space_group_name_H-M "C 2/M"
_symmetry_group_IT_number 12
_symmetry_cell_setting 'monoclinic'
loop_
_space_group_symop_operation_xyz
x,y,z
-x,y,-z
-x,-y,-z
x,-y,z
1/2+x,1/2+y,z
1/2-x,1/2+y,-z
1/2-x,1/2-y,-z
1/2+x,1/2-y,z
loop_
_atom_site_type_symbol
_atom_site_label
_atom_site_fract_x
_atom_site_fract_y
_atom_site_fract_z
Si Si1 0.705290 0.327243 0.359673
Si Si2 0.464988 0.325962 0.563569
Si Si3 0.615909 0.169774 0.778746
Si Si4 0.918034 0.328860 0.347155
Si Si5 0.808071 0.331536 0.043826
Si Si6 0.305313 0.172404 0.756983
Si Si7 0.143848 0.167793 0.135118
Si Si8 0.485736 0.171075 0.094092
O O1 0.698797 0.500000 0.348088
O O2 0.639988 0.293193 0.416662
O O3 0.811189 0.295299 0.362262
O O4 0.671266 0.239856 0.306081
O O5 0.500000 0.271750 0.500000
O O6 0.475012 0.500000 0.563621
O O7 0.522723 0.261144 0.612297
O O8 0.563960 0.196901 0.721758
O O9 0.701884 0.275218 0.773513
O O10 0.558524 0.184838 0.839756
O O11 0.647486 0.000000 0.774166
O O12 0.931695 0.500000 0.356891
O O13 0.815956 0.500000 0.026805
O O14 0.745728 0.325778 0.104550
O O15 0.908499 0.279328 0.054031
O O16 0.750000 0.250000 0.000000
O O17 0.360335 0.241778 0.806206
O O18 0.313832 0.000000 0.756474
O O19 0.076805 0.237553 0.092278
O O20 0.120792 0.000000 0.146181
O O21 0.503852 0.000000 0.083116
#
# Coordination Sequence:
#
# PCOD9210290 Si02
#       8
#     8   8   8   8   8   8   8   8
#     4   9  20  39  58  80 115 157 190 233 299 354
#     4  10  22  39  58  82 114 152 196 242 287 344
#     4   9  18  37  60  83 122 158 188 236 300 355
#     4   9  19  35  57  83 113 152 190 233 289 349
#     4  10  23  43  65  85 119 161 200 244 294 344
#     4  11  21  34  58  90 120 152 197 244 289 351
#     4  11  23  40  60  88 122 159 196 241 299 351
#     4  10  21  39  61  89 121 158 197 241 292 350
#
# _framework density 20.200545000000002
#
# number of rings (size 3 to 8) (size 9 to 14) (size 15 to 20)
#    0.000    2.125    1.250    2.250    1.750    5.750 
#    0.000    2.500    0.000    0.000    0.000    0.000 
#    0.000    0.000    0.000    0.000    0.000    0.000 
#
# Total GULP energy -178753.494414 kJ/mol
# GULP energy per Si atom -5586.046700 kJ/mol
# Density = 2.015457 g / cm^3
# Si number density = 20.200545 Si / 1000 Ang^3
#
#
#
# Elastic Constant Matrix: (Units=GPa)
#
#
# Indices 1 2 3 4 5 6 
#
# 1 68.5143 21.1761 8.7045 0.0000 7.9183 0.0000
# 2 21.1761 42.3334 9.9409 0.0000 2.4792 0.0000
# 3 8.7045 9.9409 59.7071 0.0000 -2.8938 0.0000
# 4 0.0000 0.0000 0.0000 28.1726 0.0000 9.8903
# 5 7.9183 2.4792 -2.8938 0.0000 31.5218 0.0000
# 6 0.0000 0.0000 0.0000 9.8903 0.0000 29.0156
#
#
#
# Elastic Compliance Matrix: (Units=1/GPa)
#
#
# Indices 1 2 3 4 5 6 
#
# 1 0.017810 -0.008350 -0.001397 0.000000 -0.003945 0.000000
# 2 -0.008350 0.028668 -0.003579 0.000000 -0.000486 0.000000
# 3 -0.001397 -0.003579 0.017657 0.000000 0.002254 0.000000
# 4 0.000000 0.000000 0.000000 0.040320 0.000000 -0.013744
# 5 -0.003945 -0.000486 0.002254 0.000000 0.032960 0.000000
# 6 0.000000 0.000000 0.000000 -0.013744 0.000000 0.039149
#
#
# Mechanical properties :
#
#
# Convention : Reuss Voigt Hill
#
# Bulk Modulus (GPa) = 26.67954 27.79976 27.23965
# Shear Modulus (GPa) = 23.17921 26.45757 24.81839
#
# Velocity S-wave (km/s) = 3.39109 3.62297 3.50894
# Velocity P-wave (km/s) = 5.34496 5.59401 5.47090
#
# Compressibility (1/GPa) = 0.03748191
#
# Stress axis : x y z
#
# Youngs Moduli (GPa) = 56.14927 34.88257 56.63379
#
# Poissons Ratio (x) = 0.29125 0.07914
# Poissons Ratio (y) = 0.46882 0.20271
# Poissons Ratio (z) = 0.07847 0.12485
#
# Static dielectric constant tensor:
#      x y z
#    x 1.742350 0.000000 -0.025830 
#    y 0.000000 1.670780 0.000000 
#    z -0.025830 0.000000 1.733220 
# 
# From -- ./inp_files/338809.got.cif
#   From: 2010.05.17/outbox.cif.g08.bks.cpg/sg12_170_cif.got.tgz:338809.got - 2010.06.03 13:09:07.
