data_PCOD9210414
_publ_section_title
;
Structure prediction by ZEFSAII (Michael W. Deem and Ramdas Pophale) SiO2 
 PCOD9210414
Probable space group: C 2/M
;
_chemical_formula_sum "Si O2"
_cell_formula_units_Z 56
_cell_length_a 27.454077
_cell_length_b 8.443022
_cell_length_c 12.206493
_cell_angle_alpha 90.000000
_cell_angle_beta 103.624374
_cell_angle_gamma 90.000000
_cell_volume 2749.791571
_symmetry_space_group_name_H-M "C 2/M"
_symmetry_group_IT_number 12
_symmetry_cell_setting 'monoclinic'
loop_
_space_group_symop_operation_xyz
x,y,z
-x,y,-z
-x,-y,-z
x,-y,z
1/2+x,1/2+y,z
1/2-x,1/2+y,-z
1/2-x,1/2-y,-z
1/2+x,1/2-y,z
loop_
_atom_site_type_symbol
_atom_site_label
_atom_site_fract_x
_atom_site_fract_y
_atom_site_fract_z
Si Si1 0.727593 0.809285 0.602992
Si Si2 0.990942 0.691452 0.119392
Si Si3 0.177660 0.807557 0.209019
Si Si4 0.614541 0.689175 0.564375
Si Si5 0.396413 0.188810 0.207062
Si Si6 0.084430 0.191976 0.308624
Si Si7 0.693346 0.689514 0.974803
O O1 0.750000 0.750000 0.500000
O O2 0.767994 0.760048 0.716318
O O3 0.672765 0.739161 0.590949
O O4 0.724376 0.000000 0.601012
O O5 0.990130 0.500000 0.116681
O O6 0.035818 0.746037 0.221125
O O7 0.938598 0.746766 0.144268
O O8 0.000000 0.748099 0.000000
O O9 0.133656 0.754667 0.266863
O O10 0.176874 0.000000 0.209795
O O11 0.171057 0.755994 0.080469
O O12 0.611589 0.500000 0.566329
O O13 0.591879 0.756595 0.663882
O O14 0.589356 0.743851 0.437419
O O15 0.342278 0.249525 0.139987
O O16 0.395460 0.000000 0.204229
O O17 0.083931 0.000000 0.307286
O O18 0.693851 0.500000 0.972736
O O19 0.750000 0.750000 0.000000
#
# Coordination Sequence:
#
# PCOD9210414 Si02
#       7
#     8   8   8   8   8   8   8
#     4  11  20  35  58  87 126 166 204 247 300 359
#     4  10  23  43  65  90 120 155 199 252 307 366
#     4   9  19  36  57  84 119 156 197 248 299 352
#     4  11  23  40  61  89 124 160 206 254 305 368
#     4  11  24  42  62  87 124 162 200 252 310 367
#     4  10  21  39  62  88 118 153 200 254 302 359
#     4  11  22  38  62  89 121 160 203 249 300 361
#
# _framework density 20.365179000000001
#
# number of rings (size 3 to 8) (size 9 to 14) (size 15 to 20)
#    0.000    1.571    1.429    3.429    0.000    4.286 
#    0.000    5.714    0.000    0.000    0.000    0.000 
#    0.000    0.000    0.000    0.000    0.000    0.000 
#
# Total GULP energy -156533.867142 kJ/mol
# GULP energy per Si atom -5590.495255 kJ/mol
# Density = 2.031883 g / cm^3
# Si number density = 20.365179 Si / 1000 Ang^3
#
#
#
# Elastic Constant Matrix: (Units=GPa)
#
#
# Indices 1 2 3 4 5 6 
#
# 1 107.3171 16.2594 59.0982 0.0000 -2.9156 0.0000
# 2 16.2594 30.9210 23.1576 0.0000 -4.4724 0.0000
# 3 59.0982 23.1576 156.9055 0.0000 -6.0077 0.0000
# 4 0.0000 0.0000 0.0000 29.2139 0.0000 1.6688
# 5 -2.9156 -4.4724 -6.0077 0.0000 41.7368 0.0000
# 6 0.0000 0.0000 0.0000 1.6688 0.0000 29.2388
#
#
#
# Elastic Compliance Matrix: (Units=1/GPa)
#
#
# Indices 1 2 3 4 5 6 
#
# 1 0.012050 -0.003315 -0.004053 0.000000 -0.000097 0.000000
# 2 -0.003315 0.037685 -0.004191 0.000000 0.003204 0.000000
# 3 -0.004053 -0.004191 0.008537 0.000000 0.000497 0.000000
# 4 0.000000 0.000000 0.000000 0.034342 0.000000 -0.001960
# 5 -0.000097 0.003204 0.000497 0.000000 0.024368 0.000000
# 6 0.000000 0.000000 0.000000 -0.001960 0.000000 0.034313
#
#
# Mechanical properties :
#
#
# Convention : Reuss Voigt Hill
#
# Bulk Modulus (GPa) = 28.44516 54.68598 41.56557
# Shear Modulus (GPa) = 26.86278 33.14645 30.00462
#
# Velocity S-wave (km/s) = 3.63582 4.03873 3.84256
# Velocity P-wave (km/s) = 5.62347 6.97564 6.33573
#
# Compressibility (1/GPa) = 0.03515536
#
# Stress axis : x y z
#
# Youngs Moduli (GPa) = 82.98964 26.53541 117.13245
#
# Poissons Ratio (x) = 0.08796 0.47473
# Poissons Ratio (y) = 0.27510 0.49088
# Poissons Ratio (z) = 0.33635 0.11120
#
# Static dielectric constant tensor:
#      x y z
#    x 1.706280 0.000000 -0.025160 
#    y 0.000000 1.695760 0.000000 
#    z -0.025160 0.000000 1.721160 
# 
# From -- ./inp_files/181033.got.cif
#   From: 2010.05.17/outbox.cif.g08.bks.cpg/sg12_91_cif.got.tgz:181033.got - 2010.06.03 13:09:07.
