data_PCOD9210609
_publ_section_title
;
Structure prediction by ZEFSAII (Michael W. Deem and Ramdas Pophale) SiO2 
 PCOD9210609
Probable space group: C 2/M
;
_chemical_formula_sum "Si O2"
_cell_formula_units_Z 40
_cell_length_a 8.174138
_cell_length_b 28.210425
_cell_length_c 13.565974
_cell_angle_alpha 90.000000
_cell_angle_beta 34.273340
_cell_angle_gamma 90.000000
_cell_volume 1761.652261
_symmetry_space_group_name_H-M "C 2/M"
_symmetry_group_IT_number 12
_symmetry_cell_setting 'monoclinic'
loop_
_space_group_symop_operation_xyz
x,y,z
-x,y,-z
-x,-y,-z
x,-y,z
1/2+x,1/2+y,z
1/2-x,1/2+y,-z
1/2-x,1/2-y,-z
1/2+x,1/2-y,z
loop_
_atom_site_type_symbol
_atom_site_label
_atom_site_fract_x
_atom_site_fract_y
_atom_site_fract_z
Si Si1 0.200136 0.591854 0.683497
Si Si2 0.686560 0.728544 0.700944
Si Si3 0.682239 0.128865 0.308692
Si Si4 0.706372 0.183675 0.807082
Si Si5 0.865818 0.948203 0.955946
O O1 0.500000 0.568247 0.500000
O O2 0.280886 0.638504 0.705252
O O3 0.015340 0.609198 0.680941
O O4 0.974837 0.561662 0.860506
O O5 0.726298 0.683395 0.753379
O O6 0.561054 0.775172 0.814011
O O7 0.487513 0.708451 0.713376
O O8 0.000000 0.741127 0.500000
O O9 0.500000 0.128195 0.500000
O O10 0.963127 0.095039 0.179125
O O11 0.500000 0.170137 0.000000
O O12 0.919076 0.000000 0.884177
O O13 0.000000 0.949460 0.000000
#
# Coordination Sequence:
#
# PCOD9210609 Si02
#       5
#     8   8   8   8   8
#     4  11  22  38  61  88 122 158 198 246 297 349
#     4  11  22  38  58  84 121 159 198 238 288 349
#     4  10  21  39  63  89 119 158 201 243 293 353
#     4  12  24  38  59  88 122 157 199 243 293 350
#     4   9  20  39  62  88 119 155 196 244 299 358
#
# _framework density 22.705957000000001
#
# number of rings (size 3 to 8) (size 9 to 14) (size 15 to 20)
#    0.000    1.400    0.000    6.600    0.000    3.200 
#    0.000    0.000    0.000   13.800    0.000    0.000 
#    0.000    0.000    0.000    0.000    0.000    0.000 
#
# Total GULP energy -111923.444417 kJ/mol
# GULP energy per Si atom -5596.172221 kJ/mol
# Density = 2.265428 g / cm^3
# Si number density = 22.705957 Si / 1000 Ang^3
#
#
#
# Elastic Constant Matrix: (Units=GPa)
#
#
# Indices 1 2 3 4 5 6 
#
# 1 59.5929 -14.5288 4.2206 0.0000 -8.9364 0.0000
# 2 -14.5288 63.6549 20.5553 0.0000 4.2721 0.0000
# 3 4.2206 20.5553 110.0770 0.0000 -10.6358 0.0000
# 4 0.0000 0.0000 0.0000 20.8259 0.0000 6.7999
# 5 -8.9364 4.2721 -10.6358 0.0000 30.5837 0.0000
# 6 0.0000 0.0000 0.0000 6.7999 0.0000 1.2469
#
#
#
# Elastic Compliance Matrix: (Units=1/GPa)
#
#
# Indices 1 2 3 4 5 6 
#
# 1 0.018570 0.004290 -0.001083 0.000000 0.004450 0.000000
# 2 0.004290 0.018087 -0.003792 0.000000 -0.002592 0.000000
# 3 -0.001083 -0.003792 0.010198 0.000000 0.003760 0.000000
# 4 0.000000 0.000000 0.000000 -0.061510 0.000000 0.335445
# 5 0.004450 -0.002592 0.003760 0.000000 0.035667 0.000000
# 6 0.000000 0.000000 0.000000 0.335445 0.000000 -1.027362
#
#
# Mechanical properties :
#
#
# Convention : Reuss Voigt Hill
#
# Bulk Modulus (GPa) = 21.88975 28.20212 25.04594
# Shear Modulus (GPa) = -5.05076 25.40314 10.17619
#
# Velocity S-wave (km/s) = -1.49307 3.34846 2.11931
# Velocity P-wave (km/s) = 2.58633 5.23422 4.12833
#
# Compressibility (1/GPa) = 0.04568349
#
# Stress axis : x y z
#
# Youngs Moduli (GPa) = 53.84913 55.28701 98.06293
#
# Poissons Ratio (x) = -0.23716 0.10621
# Poissons Ratio (y) = -0.23099 0.37190
# Poissons Ratio (z) = 0.05832 0.20968
#
# Static dielectric constant tensor:
#      x y z
#    x 1.882770 0.000000 -0.012190 
#    y 0.000000 1.832210 0.000000 
#    z -0.012190 0.000000 1.847730 
# 
# From -- ./inp_files/40324.got.cif
#   From: 2010.05.17/outbox.cif.g08.bks.cpg/sg12_21_cif.got.tgz:40324.got - 2010.06.03 13:09:07.
