data_PCOD9210243
_publ_section_title
;
Structure prediction by ZEFSAII (Michael W. Deem and Ramdas Pophale) SiO2 
 PCOD9210243
Probable space group: C 2/M
;
_chemical_formula_sum "Si O2"
_cell_formula_units_Z 56
_cell_length_a 16.764581
_cell_length_b 8.531347
_cell_length_c 24.980366
_cell_angle_alpha 90.000000
_cell_angle_beta 136.576513
_cell_angle_gamma 90.000000
_cell_volume 2455.892451
_symmetry_space_group_name_H-M "C 2/M"
_symmetry_group_IT_number 12
_symmetry_cell_setting 'monoclinic'
loop_
_space_group_symop_operation_xyz
x,y,z
-x,y,-z
-x,-y,-z
x,-y,z
1/2+x,1/2+y,z
1/2-x,1/2+y,-z
1/2-x,1/2-y,-z
1/2+x,1/2-y,z
loop_
_atom_site_type_symbol
_atom_site_label
_atom_site_fract_x
_atom_site_fract_y
_atom_site_fract_z
Si Si1 0.385287 0.683188 0.742788
Si Si2 0.704333 0.187119 0.033892
Si Si3 0.973084 0.313696 0.674122
Si Si4 0.459221 0.685192 0.893703
Si Si5 0.407544 0.815759 0.527851
Si Si6 0.714287 0.313439 0.812594
Si Si7 0.353183 0.680760 0.392914
O O1 0.353901 0.500000 0.726961
O O2 0.437592 0.729332 0.711365
O O3 0.468779 0.708185 0.834052
O O4 0.268181 0.781662 0.693430
O O5 0.781385 0.233136 0.122525
O O6 0.702521 0.000000 0.031481
O O7 0.750000 0.250000 0.000000
O O8 0.573500 0.248777 0.977111
O O9 0.958408 0.500000 0.672788
O O10 0.108847 0.273725 0.732473
O O11 0.901512 0.263286 0.586551
O O12 0.449423 0.500000 0.899336
O O13 0.340741 0.768259 0.852885
O O14 0.339831 0.719136 0.449717
O O15 0.542609 0.788243 0.577414
O O16 0.379594 0.000000 0.510179
O O17 0.696064 0.500000 0.799298
O O18 0.385955 0.500000 0.401546
#
# Coordination Sequence:
#
# PCOD9210243 Si02
#       7
#     8   8   8   8   8   8   8
#     4  11  24  41  60  85 120 157 194 242 298 350
#     4  11  24  41  62  90 123 158 196 240 294 350
#     4  11  24  40  61  89 118 154 199 243 292 350
#     4  11  24  41  63  90 118 155 201 244 291 347
#     4  10  21  39  61  86 119 155 193 241 295 348
#     4  11  24  41  62  89 121 157 196 241 294 349
#     4  11  22  37  61  90 117 152 199 242 288 350
#
# _framework density 22.802301
#
# number of rings (size 3 to 8) (size 9 to 14) (size 15 to 20)
#    0.000    1.143    0.000    6.857    0.000   16.000 
#    0.000    0.000    0.000    0.000    0.000    0.000 
#    0.000    0.000    0.000    0.000    0.000    0.000 
#
# Total GULP energy -156788.167762 kJ/mol
# GULP energy per Si atom -5599.577420 kJ/mol
# Density = 2.275040 g / cm^3
# Si number density = 22.802301 Si / 1000 Ang^3
#
#
#
# Elastic Constant Matrix: (Units=GPa)
#
#
# Indices 1 2 3 4 5 6 
#
# 1 49.3415 -13.2199 -11.6592 0.0000 -11.3331 0.0000
# 2 -13.2199 45.0422 18.3313 0.0000 -11.8092 0.0000
# 3 -11.6592 18.3313 93.1216 0.0000 -10.9147 0.0000
# 4 0.0000 0.0000 0.0000 30.2338 0.0000 1.3967
# 5 -11.3331 -11.8092 -10.9147 0.0000 42.3094 0.0000
# 6 0.0000 0.0000 0.0000 1.3967 0.0000 35.1163
#
#
#
# Elastic Compliance Matrix: (Units=1/GPa)
#
#
# Indices 1 2 3 4 5 6 
#
# 1 0.025637 0.009110 0.002598 0.000000 0.010080 0.000000
# 2 0.009110 0.028774 -0.003399 0.000000 0.009595 0.000000
# 3 0.002598 -0.003399 0.012068 0.000000 0.002860 0.000000
# 4 0.000000 0.000000 0.000000 0.033136 0.000000 -0.001318
# 5 0.010080 0.009595 0.002860 0.000000 0.029751 0.000000
# 6 0.000000 0.000000 0.000000 -0.001318 0.000000 0.028529
#
#
# Mechanical properties :
#
#
# Convention : Reuss Voigt Hill
#
# Bulk Modulus (GPa) = 12.03416 19.37885 15.70651
# Shear Modulus (GPa) = 29.58971 34.46878 32.02925
#
# Velocity S-wave (km/s) = 3.60622 3.89219 3.75193
# Velocity P-wave (km/s) = 4.75697 5.35873 5.06679
#
# Compressibility (1/GPa) = 0.08309679
#
# Stress axis : x y z
#
# Youngs Moduli (GPa) = 39.00637 34.75353 82.86149
#
# Poissons Ratio (x) = -0.31660 -0.21528
# Poissons Ratio (y) = -0.35534 0.28165
# Poissons Ratio (z) = -0.10134 0.11813
#
# Static dielectric constant tensor:
#      x y z
#    x 1.882370 0.000000 -0.040530 
#    y 0.000000 1.761680 0.000000 
#    z -0.040530 0.000000 1.842100 
# 
# From -- ./inp_files/342557.got.cif
#   From: 2010.05.17/outbox.cif.g08.bks.cpg/sg12_172_cif.got.tgz:342557.got - 2010.06.03 13:09:07.
