data_PCOD9210819
_publ_section_title
;
Structure prediction by ZEFSAII (Michael W. Deem and Ramdas Pophale) SiO2 
 PCOD9210819
Probable space group: C 2/M
;
_chemical_formula_sum "Si O2"
_cell_formula_units_Z 64
_cell_length_a 19.371327
_cell_length_b 8.680105
_cell_length_c 31.040874
_cell_angle_alpha 90.000000
_cell_angle_beta 39.277689
_cell_angle_gamma 90.000000
_cell_volume 3304.277677
_symmetry_space_group_name_H-M "C 2/M"
_symmetry_group_IT_number 12
_symmetry_cell_setting 'monoclinic'
loop_
_space_group_symop_operation_xyz
x,y,z
-x,y,-z
-x,-y,-z
x,-y,z
1/2+x,1/2+y,z
1/2-x,1/2+y,-z
1/2-x,1/2-y,-z
1/2+x,1/2-y,z
loop_
_atom_site_type_symbol
_atom_site_label
_atom_site_fract_x
_atom_site_fract_y
_atom_site_fract_z
Si Si1 0.607355 0.820681 0.920417
Si Si2 0.549777 0.313383 0.694596
Si Si3 0.424210 0.823165 0.166365
Si Si4 0.714969 0.684690 0.692254
Si Si5 0.156037 0.819219 0.074539
Si Si6 0.372482 0.186515 0.435152
Si Si7 0.035186 0.687773 0.434869
Si Si8 0.329004 0.819017 0.839924
O O1 0.587548 0.816611 0.879102
O O2 0.711036 0.712489 0.876921
O O3 0.632431 0.000000 0.920242
O O4 0.500000 0.776781 0.000000
O O5 0.545245 0.500000 0.696394
O O6 0.637427 0.265726 0.689570
O O7 0.584213 0.251300 0.631234
O O8 0.431501 0.245432 0.763727
O O9 0.339216 0.730923 0.236509
O O10 0.542337 0.757869 0.118697
O O11 0.416386 0.000000 0.184056
O O12 0.718529 0.500000 0.687511
O O13 0.839815 0.740784 0.631201
O O14 0.176511 0.777530 0.113762
O O15 0.149797 0.000000 0.070910
O O16 0.250000 0.750000 0.000000
O O17 0.250000 0.250000 0.500000
O O18 0.451927 0.233768 0.436782
O O19 0.370307 0.000000 0.435128
O O20 0.035002 0.500000 0.434302
O O21 0.000000 0.735124 0.500000
O O22 0.345163 0.000000 0.840357
#
# Coordination Sequence:
#
# PCOD9210819 Si02
#       8
#     8   8   8   8   8   8   8   8
#     4  10  23  43  64  88 124 168 212 265 327 386
#     4  11  23  41  65  92 127 170 212 262 321 381
#     4  11  23  39  62  93 126 165 212 266 322 381
#     4  10  21  39  64  90 121 167 213 261 317 377
#     4  12  24  41  65  93 126 166 213 266 323 384
#     4  11  23  40  65  97 131 168 210 263 315 378
#     4   9  19  38  64  93 123 162 212 257 306 369
#     4  12  25  41  64  94 128 168 216 267 321 386
#
# _framework density 19.368831
#
# number of rings (size 3 to 8) (size 9 to 14) (size 15 to 20)
#    0.000    1.250    1.250    4.875    1.750    4.750 
#    0.000    0.625    0.000    2.625    0.000    0.000 
#    0.000    0.000    0.000    0.000    0.000    0.000 
#
# Total GULP energy -178768.408682 kJ/mol
# GULP energy per Si atom -5586.512771 kJ/mol
# Density = 1.932475 g / cm^3
# Si number density = 19.368831 Si / 1000 Ang^3
#
#
#
# Elastic Constant Matrix: (Units=GPa)
#
#
# Indices 1 2 3 4 5 6 
#
# 1 140.9929 262.9709 204.3856 0.0002 -9.6363 -0.0011
# 2 262.9709 1573.5139 911.6341 0.0009 -13.0635 -0.0038
# 3 204.3856 911.6341 713.3421 0.0003 -12.0836 0.0001
# 4 0.0002 0.0009 0.0003 29.1804 0.0001 8.6483
# 5 -9.6363 -13.0635 -12.0836 0.0001 36.5272 0.0001
# 6 -0.0011 -0.0038 0.0001 8.6483 0.0001 20.1872
#
#
#
# Elastic Compliance Matrix: (Units=1/GPa)
#
#
# Indices 1 2 3 4 5 6 
#
# 1 0.012289 -0.000065 -0.003402 0.000000 0.002093 0.000001
# 2 -0.000065 0.002449 -0.003114 0.000000 -0.000172 0.000001
# 3 -0.003402 -0.003114 0.006358 0.000000 0.000092 -0.000001
# 4 0.000000 0.000000 0.000000 0.039253 0.000000 -0.016816
# 5 0.002093 -0.000172 0.000092 0.000000 0.027898 0.000000
# 6 0.000001 0.000001 -0.000001 -0.016816 0.000000 0.056741
#
#
# Mechanical properties :
#
#
# Convention : Reuss Voigt Hill
#
# Bulk Modulus (GPa) = 126.05169 576.20335 351.12752
# Shear Modulus (GPa) = 31.09495 87.10286 59.09890
#
# Velocity S-wave (km/s) = 4.01111 6.71329 5.52979
# Velocity P-wave (km/s) = 9.30983 18.92688 14.91475
#
# Compressibility (1/GPa) = 0.00793325
#
# Stress axis : x y z
#
# Youngs Moduli (GPa) = 81.37160 408.25325 157.27235
#
# Poissons Ratio (x) = 0.02673 0.53504
# Poissons Ratio (y) = 0.00533 0.48982
# Poissons Ratio (z) = 0.27682 1.27150
#
# Static dielectric constant tensor:
#      x y z
#    x 1.664810 0.000000 0.036740 
#    y 0.000000 1.662480 0.000000 
#    z 0.036740 0.000000 1.682580 
# 
# From -- ./inp_files/378237.got.cif
#   From: 2010.05.17/outbox.cif.g08.bks.cpg/sg12_190_cif.got.tgz:378237.got - 2010.06.03 13:09:07.
