data_PCOD9210815
_publ_section_title
;
Structure prediction by ZEFSAII (Michael W. Deem and Ramdas Pophale) SiO2 
 PCOD9210815
Probable space group: C 2/M
;
_chemical_formula_sum "Si O2"
_cell_formula_units_Z 64
_cell_length_a 15.595420
_cell_length_b 16.569226
_cell_length_c 17.636994
_cell_angle_alpha 90.000000
_cell_angle_beta 135.448629
_cell_angle_gamma 90.000000
_cell_volume 3197.286477
_symmetry_space_group_name_H-M "C 2/M"
_symmetry_group_IT_number 12
_symmetry_cell_setting 'monoclinic'
loop_
_space_group_symop_operation_xyz
x,y,z
-x,y,-z
-x,-y,-z
x,-y,z
1/2+x,1/2+y,z
1/2-x,1/2+y,-z
1/2-x,1/2-y,-z
1/2+x,1/2-y,z
loop_
_atom_site_type_symbol
_atom_site_label
_atom_site_fract_x
_atom_site_fract_y
_atom_site_fract_z
Si Si1 0.583374 0.332475 0.766711
Si Si2 0.586640 0.138906 0.769928
Si Si3 0.217842 0.404306 0.993509
Si Si4 0.192766 0.836767 0.377315
Si Si5 0.621780 0.095015 0.618375
Si Si6 0.531379 0.091785 0.107174
Si Si7 0.799312 0.904114 0.306104
Si Si8 0.195645 0.357210 0.393432
O O1 0.588389 0.235791 0.771106
O O2 0.678900 0.365521 0.889377
O O3 0.448412 0.360231 0.705364
O O4 0.612689 0.361945 0.699226
O O5 0.605975 0.109254 0.697014
O O6 0.446275 0.114588 0.706096
O O7 0.699531 0.106918 0.892251
O O8 0.218861 0.500000 0.011823
O O9 0.086785 0.365879 0.934032
O O10 0.261106 0.863201 0.344723
O O11 0.197604 0.739616 0.385684
O O12 0.263109 0.873332 0.494570
O O13 0.500000 0.127299 0.500000
O O14 0.630736 0.000000 0.608371
O O15 0.663795 0.128604 0.199565
O O16 0.539873 0.000000 0.143542
O O17 0.500000 0.084840 0.000000
O O18 0.792550 0.890764 0.392580
O O19 0.807635 0.000000 0.296784
#
# Coordination Sequence:
#
# PCOD9210815 Si02
#       8
#     8   8   8   8   8   8   8   8
#     4  11  24  39  60  90 128 171 196 236 310 387
#     4  11  22  40  64  93 122 156 213 263 297 353
#     4  11  21  37  62  90 124 160 204 256 307 356
#     4  10  23  43  60  85 123 165 202 244 307 374
#     4  11  23  40  66  93 118 155 208 264 308 349
#     4   9  16  29  53  83 115 150 186 235 290 343
#     4  11  21  35  59  93 124 152 197 248 304 362
#     4  10  21  39  64  90 120 158 202 254 307 361
#
# _framework density 20.016974000000001
#
# number of rings (size 3 to 8) (size 9 to 14) (size 15 to 20)
#    0.000    1.500    3.750    1.875    0.000    2.500 
#    0.000    1.250    0.000    1.500    0.000    0.000 
#    0.000    0.000    0.000    0.000    0.000    0.000 
#
# Total GULP energy -178438.301204 kJ/mol
# GULP energy per Si atom -5576.196913 kJ/mol
# Density = 1.997141 g / cm^3
# Si number density = 20.016974 Si / 1000 Ang^3
#
#
#
# Elastic Constant Matrix: (Units=GPa)
#
#
# Indices 1 2 3 4 5 6 
#
# 1 122.4185 8.6375 17.5626 0.0000 6.4406 0.0000
# 2 8.6375 28.0890 -2.4348 0.0000 8.4797 0.0000
# 3 17.5626 -2.4348 46.8805 0.0000 1.7177 0.0000
# 4 0.0000 0.0000 0.0000 512.3131 0.0000 97.4720
# 5 6.4406 8.4797 1.7177 0.0000 34.9175 0.0000
# 6 0.0000 0.0000 0.0000 97.4720 0.0000 47.6060
#
#
#
# Elastic Compliance Matrix: (Units=1/GPa)
#
#
# Indices 1 2 3 4 5 6 
#
# 1 0.008903 -0.002797 -0.003452 0.000000 -0.000793 0.000000
# 2 -0.002797 0.039555 0.003442 0.000000 -0.009259 0.000000
# 3 -0.003452 0.003442 0.022851 0.000000 -0.001323 0.000000
# 4 0.000000 0.000000 0.000000 0.003198 0.000000 -0.006547
# 5 -0.000793 -0.009259 -0.001323 0.000000 0.031099 0.000000
# 6 0.000000 0.000000 0.000000 -0.006547 0.000000 0.034410
#
#
# Mechanical properties :
#
#
# Convention : Reuss Voigt Hill
#
# Bulk Modulus (GPa) = 15.22204 27.21315 21.21760
# Shear Modulus (GPa) = 29.84569 130.54219 80.19394
#
# Velocity S-wave (km/s) = 3.86556 8.08439 6.33640
# Velocity P-wave (km/s) = 5.24828 10.03831 8.00975
#
# Compressibility (1/GPa) = 0.06569421
#
# Stress axis : x y z
#
# Youngs Moduli (GPa) = 112.32210 25.28134 43.76158
#
# Poissons Ratio (x) = 0.07072 0.15104
# Poissons Ratio (y) = 0.31422 -0.15061
# Poissons Ratio (z) = 0.38768 -0.08701
#
# Static dielectric constant tensor:
#      x y z
#    x 1.756110 0.000000 -0.031760 
#    y 0.000000 1.701340 0.000000 
#    z -0.031760 0.000000 1.763560 
# 
# From -- ./inp_files/271768.got.cif
#   From: 2010.05.17/outbox.cif.g08.bks.cpg/sg12_136_cif.got.tgz:271768.got - 2010.06.03 13:09:07.
