data_PCOD9210905
_publ_section_title
;
Structure prediction by ZEFSAII (Michael W. Deem and Ramdas Pophale) SiO2 
 PCOD9210905
Probable space group: C 2/M
;
_chemical_formula_sum "Si O2"
_cell_formula_units_Z 64
_cell_length_a 30.786370
_cell_length_b 8.859105
_cell_length_c 16.943967
_cell_angle_alpha 90.000000
_cell_angle_beta 136.075651
_cell_angle_gamma 90.000000
_cell_volume 3205.827278
_symmetry_space_group_name_H-M "C 2/M"
_symmetry_group_IT_number 12
_symmetry_cell_setting 'monoclinic'
loop_
_space_group_symop_operation_xyz
x,y,z
-x,y,-z
-x,-y,-z
x,-y,z
1/2+x,1/2+y,z
1/2-x,1/2+y,-z
1/2-x,1/2-y,-z
1/2+x,1/2-y,z
loop_
_atom_site_type_symbol
_atom_site_label
_atom_site_fract_x
_atom_site_fract_y
_atom_site_fract_z
Si Si1 0.586604 0.676724 0.183032
Si Si2 0.863173 0.318408 0.189023
Si Si3 0.629089 0.318638 0.504856
Si Si4 0.166342 0.320907 0.022277
Si Si5 0.787830 0.680939 0.248259
Si Si6 0.181723 0.678129 0.415451
Si Si7 0.495153 0.681600 0.401469
Si Si8 0.948045 0.823191 0.046459
O O1 0.600355 0.500000 0.217111
O O2 0.642360 0.778548 0.286599
O O3 0.573703 0.690495 0.073116
O O4 0.521556 0.715023 0.142291
O O5 0.867022 0.500000 0.193487
O O6 0.825925 0.273368 0.218984
O O7 0.932841 0.252353 0.283894
O O8 0.829307 0.272390 0.063652
O O9 0.632404 0.500000 0.506445
O O10 0.678491 0.256801 0.633454
O O11 0.645614 0.250224 0.442160
O O12 0.559278 0.275210 0.441801
O O13 0.176566 0.500000 0.041356
O O14 0.217167 0.235488 0.141780
O O15 0.096921 0.277891 0.960030
O O16 0.789788 0.500000 0.258887
O O17 0.186557 0.500000 0.431351
O O18 0.250000 0.750000 0.500000
O O19 0.500000 0.725993 0.500000
O O20 0.489727 0.500000 0.391256
O O21 0.941799 0.000000 0.060806
#
# Coordination Sequence:
#
# PCOD9210905 Si02
#       8
#     8   8   8   8   8   8   8   8
#     4   9  20  42  67  91 123 159 203 255 309 368
#     4  10  23  40  60  89 126 165 208 257 310 365
#     4  11  24  43  66  94 127 165 211 261 316 378
#     4  11  24  39  59  90 126 162 206 260 309 364
#     4  11  23  41  63  88 121 167 213 256 311 371
#     4  12  27  45  67  95 129 168 210 260 317 376
#     4  10  21  39  64  94 125 164 210 257 313 375
#     4   9  20  40  66  92 120 160 204 252 309 369
#
# _framework density 19.963646000000001
#
# number of rings (size 3 to 8) (size 9 to 14) (size 15 to 20)
#    0.000    1.625    1.250    3.375    3.500    3.750 
#    0.000    1.250    0.000    0.000    0.000    0.000 
#    0.000    0.000    0.000    0.000    0.000    0.000 
#
# Total GULP energy -178939.528404 kJ/mol
# GULP energy per Si atom -5591.860263 kJ/mol
# Density = 1.991821 g / cm^3
# Si number density = 19.963646 Si / 1000 Ang^3
#
#
#
# Elastic Constant Matrix: (Units=GPa)
#
#
# Indices 1 2 3 4 5 6 
#
# 1 49.8997 16.2805 -10.8060 0.0000 8.6965 0.0000
# 2 16.2805 50.8959 17.8349 0.0000 5.3086 0.0000
# 3 -10.8060 17.8349 59.0000 0.0000 13.7589 0.0000
# 4 0.0000 0.0000 0.0000 30.2626 0.0000 -1.2963
# 5 8.6965 5.3086 13.7589 0.0000 22.4343 0.0000
# 6 0.0000 0.0000 0.0000 -1.2963 0.0000 29.5062
#
#
#
# Elastic Compliance Matrix: (Units=1/GPa)
#
#
# Indices 1 2 3 4 5 6 
#
# 1 0.029820 -0.012389 0.013091 0.000000 -0.016657 0.000000
# 2 -0.012389 0.027156 -0.011785 0.000000 0.005604 0.000000
# 3 0.013091 -0.011785 0.027355 0.000000 -0.019062 0.000000
# 4 0.000000 0.000000 0.000000 0.033106 0.000000 0.001454
# 5 -0.016657 0.005604 -0.019062 0.000000 0.061396 0.000000
# 6 0.000000 0.000000 0.000000 0.001454 0.000000 0.033955
#
#
# Mechanical properties :
#
#
# Convention : Reuss Voigt Hill
#
# Bulk Modulus (GPa) = 16.08617 22.93494 19.51055
# Shear Modulus (GPa) = 19.55604 25.53968 22.54786
#
# Velocity S-wave (km/s) = 3.13322 3.58062 3.36437
# Velocity P-wave (km/s) = 4.60051 5.34862 4.98861
#
# Compressibility (1/GPa) = 0.06216520
#
# Stress axis : x y z
#
# Youngs Moduli (GPa) = 33.53450 36.82432 36.55695
#
# Poissons Ratio (x) = 0.45621 -0.47856
# Poissons Ratio (y) = 0.41545 0.43082
# Poissons Ratio (z) = -0.43900 0.43397
#
# Static dielectric constant tensor:
#      x y z
#    x 1.709370 0.000000 -0.017960 
#    y 0.000000 1.668650 0.000000 
#    z -0.017960 0.000000 1.696710 
# 
# From -- ./inp_files/295877.got.cif
#   From: 2010.05.17/outbox.cif.g08.bks.cpg/sg12_148_cif.got.tgz:295877.got - 2010.06.03 13:09:07.
