data_PCOD9210382
_publ_section_title
;
Structure prediction by ZEFSAII (Michael W. Deem and Ramdas Pophale) SiO2 
 PCOD9210382
Probable space group: C 2/M
;
_chemical_formula_sum "Si O2"
_cell_formula_units_Z 56
_cell_length_a 9.378430
_cell_length_b 15.824076
_cell_length_c 20.024296
_cell_angle_alpha 90.000000
_cell_angle_beta 97.486563
_cell_angle_gamma 90.000000
_cell_volume 2946.372963
_symmetry_space_group_name_H-M "C 2/M"
_symmetry_group_IT_number 12
_symmetry_cell_setting 'monoclinic'
loop_
_space_group_symop_operation_xyz
x,y,z
-x,y,-z
-x,-y,-z
x,-y,z
1/2+x,1/2+y,z
1/2-x,1/2+y,-z
1/2-x,1/2-y,-z
1/2+x,1/2-y,z
loop_
_atom_site_type_symbol
_atom_site_label
_atom_site_fract_x
_atom_site_fract_y
_atom_site_fract_z
Si Si1 0.637624 0.161814 0.211114
Si Si2 0.988591 0.093750 0.640944
Si Si3 0.443999 0.345218 0.064573
Si Si4 0.477752 0.340382 0.213479
Si Si5 0.665792 0.093055 0.354113
Si Si6 0.099829 0.661289 0.063182
Si Si7 0.390382 0.245543 0.552493
O O1 0.560353 0.251417 0.217127
O O2 0.614223 0.105902 0.274895
O O3 0.591596 0.123210 0.137026
O O4 0.808588 0.177189 0.214852
O O5 0.160138 0.098492 0.637438
O O6 0.969864 0.107567 0.719334
O O7 0.916577 0.168738 0.595420
O O8 0.938605 0.000000 0.618729
O O9 0.485081 0.381526 0.139972
O O10 0.269347 0.334641 0.053339
O O11 0.528509 0.254783 0.068152
O O12 0.500000 0.388657 0.000000
O O13 0.609694 0.168528 0.395888
O O14 0.625496 0.000000 0.376100
O O15 0.000000 0.620583 0.000000
O O16 0.500000 0.232894 0.500000
O O17 0.250000 0.250000 0.500000
#
# Coordination Sequence:
#
# PCOD9210382 Si02
#       7
#     8   8   8   8   8   8   8
#     4   9  17  30  52  76 105 144 188 229 274 325
#     4  10  21  39  63  87 114 152 193 228 275 340
#     4   9  15  23  39  68 102 137 178 225 273 319
#     4   9  17  30  52  77 105 143 187 231 273 324
#     4  10  21  39  62  87 116 151 190 231 279 335
#     4   9  15  23  39  68 101 137 180 226 269 319
#     4  12  24  40  65  91 117 146 184 231 282 341
#
# _framework density 19.006419000000001
#
# number of rings (size 3 to 8) (size 9 to 14) (size 15 to 20)
#    0.000    2.286    2.857    1.714    0.000    2.286 
#    0.000    0.000    0.000    0.857    0.000    0.000 
#    0.000    0.000    0.000    0.000    0.000    7.714 
#
# Total GULP energy -155929.279031 kJ/mol
# GULP energy per Si atom -5568.902823 kJ/mol
# Density = 1.896316 g / cm^3
# Si number density = 19.006419 Si / 1000 Ang^3
#
#
#
# Elastic Constant Matrix: (Units=GPa)
#
#
# Indices 1 2 3 4 5 6 
#
# 1 66.7832 24.1759 46.3110 0.0000 -6.6243 0.0000
# 2 24.1759 110.5073 71.2974 0.0000 0.4189 0.0000
# 3 46.3110 71.2974 163.9758 0.0000 -6.6458 0.0000
# 4 0.0000 0.0000 0.0000 -7.8518 0.0000 0.9290
# 5 -6.6243 0.4189 -6.6458 0.0000 23.1341 0.0000
# 6 0.0000 0.0000 0.0000 0.9290 0.0000 12.6857
#
#
#
# Elastic Compliance Matrix: (Units=1/GPa)
#
#
# Indices 1 2 3 4 5 6 
#
# 1 0.019071 -0.001141 -0.004723 0.000000 0.004125 0.000000
# 2 -0.001141 0.012722 -0.005294 0.000000 -0.002078 0.000000
# 3 -0.004723 -0.005294 0.009797 0.000000 0.001558 0.000000
# 4 0.000000 0.000000 0.000000 -0.126265 0.000000 0.009246
# 5 0.004125 -0.002078 0.001558 0.000000 0.044893 0.000000
# 6 0.000000 0.000000 0.000000 0.009246 0.000000 0.078152
#
#
# Mechanical properties :
#
#
# Convention : Reuss Voigt Hill
#
# Bulk Modulus (GPa) = 51.87896 69.42611 60.65253
# Shear Modulus (GPa) = 74.50510 18.89239 46.69875
#
# Velocity S-wave (km/s) = 6.26778 3.15620 4.96219
# Velocity P-wave (km/s) = 8.92944 7.06322 8.05059
#
# Compressibility (1/GPa) = 0.01927564
#
# Stress axis : x y z
#
# Youngs Moduli (GPa) = 52.43539 78.60437 102.07004
#
# Poissons Ratio (x) = 0.08966 0.48208
# Poissons Ratio (y) = 0.05981 0.54032
# Poissons Ratio (z) = 0.24765 0.41610
#
# Static dielectric constant tensor:
#      x y z
#    x 1.638390 0.000000 0.015330 
#    y 0.000000 1.662630 0.000000 
#    z 0.015330 0.000000 1.726060 
# 
# From -- ./inp_files/300174.got.cif
#   From: 2010.05.17/outbox.cif.g08.bks.cpg/sg12_151_cif.got.tgz:300174.got - 2010.06.03 13:09:07.
