data_PCOD9210475
_publ_section_title
;
Structure prediction by ZEFSAII (Michael W. Deem and Ramdas Pophale) SiO2 
 PCOD9210475
Probable space group: C 2/M
;
_chemical_formula_sum "Si O2"
_cell_formula_units_Z 48
_cell_length_a 18.732208
_cell_length_b 15.514707
_cell_length_c 17.224841
_cell_angle_alpha 90.000000
_cell_angle_beta 152.742758
_cell_angle_gamma 90.000000
_cell_volume 2292.663092
_symmetry_space_group_name_H-M "C 2/M"
_symmetry_group_IT_number 12
_symmetry_cell_setting 'monoclinic'
loop_
_space_group_symop_operation_xyz
x,y,z
-x,y,-z
-x,-y,-z
x,-y,z
1/2+x,1/2+y,z
1/2-x,1/2+y,-z
1/2-x,1/2-y,-z
1/2+x,1/2-y,z
loop_
_atom_site_type_symbol
_atom_site_label
_atom_site_fract_x
_atom_site_fract_y
_atom_site_fract_z
Si Si1 0.898048 0.169424 0.977625
Si Si2 0.410132 0.000000 0.495930
Si Si3 0.204507 0.849004 0.363333
Si Si4 0.847433 0.165409 0.510180
Si Si5 0.283161 0.693002 0.109075
Si Si6 0.919209 0.000000 0.505067
Si Si7 0.705189 0.500000 0.902930
Si Si8 0.237903 0.500000 0.865035
O O1 0.023865 0.149355 0.166251
O O2 0.799142 0.253216 0.902796
O O3 0.000000 0.179652 0.000000
O O4 0.789321 0.085498 0.869630
O O5 0.500000 0.000000 0.500000
O O6 0.302711 0.082475 0.409313
O O7 0.552467 0.000000 0.694748
O O8 0.216880 0.863233 0.467709
O O9 0.264255 0.752849 0.405252
O O10 0.031221 0.187120 0.697886
O O11 0.827320 0.087969 0.430565
O O12 0.221765 0.594456 0.043298
O O13 0.250000 0.750000 0.000000
O O14 0.000000 0.000000 0.500000
O O15 0.048800 0.000000 0.699488
O O16 0.683383 0.500000 0.974366
#
# Coordination Sequence:
#
# PCOD9210475 Si02
#       8
#     8   4   8   8   8   4   4   4
#     4  12  24  39  63  94 130 170 213 273 332 388
#     4  12  26  40  60  96 136 168 203 268 338 394
#     4  11  23  40  62  91 128 159 216 266 316 387
#     4  10  22  40  66  91 120 167 216 263 318 380
#     4  11  20  41  65  91 127 167 223 265 320 394
#     4  10  21  39  62  90 124 162 208 264 320 372
#     4  10  22  36  67  95 115 167 225 267 304 392
#     4  12  22  41  67  89 128 173 223 263 328 406
#
# _framework density 20.936350999999998
#
# number of rings (size 3 to 8) (size 9 to 14) (size 15 to 20)
#    0.000    1.000    3.333    4.250    0.000    3.333 
#    0.000    1.250    0.000    0.000    0.000    0.000 
#    0.000    0.000    0.000    0.000    0.000    0.000 
#
# Total GULP energy -134125.703634 kJ/mol
# GULP energy per Si atom -5588.570985 kJ/mol
# Density = 2.088870 g / cm^3
# Si number density = 20.936351 Si / 1000 Ang^3
#
#
#
# Elastic Constant Matrix: (Units=GPa)
#
#
# Indices 1 2 3 4 5 6 
#
# 1 95.4862 65.4612 -8.3677 0.0004 15.3111 0.0001
# 2 65.4612 184.1560 17.4239 0.0009 22.5070 0.0006
# 3 -8.3677 17.4239 56.4710 0.0008 11.4257 0.0006
# 4 0.0004 0.0009 0.0008 19.0888 0.0007 15.2072
# 5 15.3111 22.5070 11.4257 0.0007 26.7258 0.0006
# 6 0.0001 0.0006 0.0006 15.2072 0.0006 24.2346
#
#
#
# Elastic Compliance Matrix: (Units=1/GPa)
#
#
# Indices 1 2 3 4 5 6 
#
# 1 0.015606 -0.005216 0.005300 0.000000 -0.006814 0.000000
# 2 -0.005216 0.007840 -0.002694 0.000000 -0.002463 0.000000
# 3 0.005300 -0.002694 0.021325 -0.000001 -0.009885 0.000000
# 4 0.000000 0.000000 -0.000001 0.104754 -0.000001 -0.065733
# 5 -0.006814 -0.002463 -0.009885 -0.000001 0.047621 0.000000
# 6 0.000000 0.000000 0.000000 -0.065733 0.000000 0.082511
#
#
# Mechanical properties :
#
#
# Convention : Reuss Voigt Hill
#
# Bulk Modulus (GPa) = 25.28318 53.90530 39.59424
# Shear Modulus (GPa) = 16.77525 31.44956 24.11240
#
# Velocity S-wave (km/s) = 2.83371 3.87996 3.39735
# Velocity P-wave (km/s) = 4.77587 6.77313 5.86021
#
# Compressibility (1/GPa) = 0.03955199
#
# Stress axis : x y z
#
# Youngs Moduli (GPa) = 64.07927 127.54875 46.89399
#
# Poissons Ratio (x) = 0.66530 -0.24856
# Poissons Ratio (y) = 0.33424 0.12632
# Poissons Ratio (z) = -0.33965 0.34357
#
# Static dielectric constant tensor:
#      x y z
#    x 1.766300 0.000000 -0.050740 
#    y 0.000000 1.736440 0.000000 
#    z -0.050740 0.000000 1.780480 
# 
# From -- ./inp_files/278285.got.cif
#   From: 2010.05.17/outbox.cif.g08.bks.cpg/sg12_140_cif.got.tgz:278285.got - 2010.06.03 13:09:07.
