data_PCOD9210022
_publ_section_title
;
Structure prediction by ZEFSAII (Michael W. Deem and Ramdas Pophale) SiO2 
 PCOD9210022
Probable space group: C 2/M
;
_chemical_formula_sum "Si O2"
_cell_formula_units_Z 56
_cell_length_a 15.110331
_cell_length_b 28.099665
_cell_length_c 9.020693
_cell_angle_alpha 90.000000
_cell_angle_beta 49.151574
_cell_angle_gamma 90.000000
_cell_volume 2897.283246
_symmetry_space_group_name_H-M "C 2/M"
_symmetry_group_IT_number 12
_symmetry_cell_setting 'monoclinic'
loop_
_space_group_symop_operation_xyz
x,y,z
-x,y,-z
-x,-y,-z
x,-y,z
1/2+x,1/2+y,z
1/2-x,1/2+y,-z
1/2-x,1/2-y,-z
1/2+x,1/2-y,z
loop_
_atom_site_type_symbol
_atom_site_label
_atom_site_fract_x
_atom_site_fract_y
_atom_site_fract_z
Si Si1 0.126515 0.946454 0.183348
Si Si2 0.681493 0.206861 0.906401
Si Si3 0.495666 0.815773 0.665379
Si Si4 0.365429 0.697694 0.191725
Si Si5 0.226932 0.349391 0.569324
Si Si6 0.745439 0.142754 0.079517
Si Si7 0.856954 0.054216 0.476969
O O1 0.136932 0.945187 0.350353
O O2 0.992034 0.936712 0.284233
O O3 0.155571 0.000000 0.103202
O O4 0.209815 0.906295 0.031032
O O5 0.699800 0.255118 0.796676
O O6 0.684397 0.165671 0.779777
O O7 0.560647 0.212058 0.132924
O O8 0.768210 0.186965 0.938867
O O9 0.500000 0.790402 0.500000
O O10 0.617688 0.836923 0.583669
O O11 0.605453 0.855327 0.248283
O O12 0.332307 0.684949 0.396376
O O13 0.311504 0.654654 0.156596
O O14 0.500000 0.701337 0.000000
O O15 0.272899 0.403353 0.517744
O O16 0.824896 0.000000 0.467339
#
# Coordination Sequence:
#
# PCOD9210022 Si02
#       7
#     8   8   8   8   8   8   8
#     4   9  17  35  61  88 119 153 190 244 301 352
#     4  10  23  38  60  87 115 156 209 241 294 346
#     4  10  21  39  61  81 116 163 193 244 301 345
#     4  12  24  38  56  87 122 159 200 247 292 354
#     4  12  20  39  62  85 121 157 198 249 293 349
#     4  10  21  39  59  82 120 152 198 241 297 349
#     4   9  18  33  59  92 120 149 193 244 298 353
#
# _framework density 19.328451999999999
#
# number of rings (size 3 to 8) (size 9 to 14) (size 15 to 20)
#    0.857    0.857    2.857    3.857    0.000    0.000 
#    0.000    1.429    3.143    6.000    0.000    0.000 
#    0.000    0.000    0.000    0.000    0.000    0.000 
#
# Total GULP energy -155948.209095 kJ/mol
# GULP energy per Si atom -5569.578896 kJ/mol
# Density = 1.928446 g / cm^3
# Si number density = 19.328452 Si / 1000 Ang^3
#
#
#
# Elastic Constant Matrix: (Units=GPa)
#
#
# Indices 1 2 3 4 5 6 
#
# 1 48.5400 2.9482 11.9607 0.0000 1.9242 0.0000
# 2 2.9482 72.1746 28.3331 0.0000 -6.6316 0.0000
# 3 11.9607 28.3331 84.6118 0.0000 3.0101 0.0000
# 4 0.0000 0.0000 0.0000 24.7511 0.0000 -1.3570
# 5 1.9242 -6.6316 3.0101 0.0000 21.2081 0.0000
# 6 0.0000 0.0000 0.0000 -1.3570 0.0000 18.5654
#
#
#
# Elastic Compliance Matrix: (Units=1/GPa)
#
#
# Indices 1 2 3 4 5 6 
#
# 1 0.021396 0.000184 -0.003034 0.000000 -0.001453 0.000000
# 2 0.000184 0.016690 -0.005829 0.000000 0.006030 0.000000
# 3 -0.003034 -0.005829 0.014327 0.000000 -0.003581 0.000000
# 4 0.000000 0.000000 0.000000 0.040565 0.000000 0.002965
# 5 -0.001453 0.006030 -0.003581 0.000000 0.049677 0.000000
# 6 0.000000 0.000000 0.000000 0.002965 0.000000 0.054080
#
#
# Mechanical properties :
#
#
# Convention : Reuss Voigt Hill
#
# Bulk Modulus (GPa) = 28.52827 32.42338 30.47582
# Shear Modulus (GPa) = 22.14550 23.71056 22.92803
#
# Velocity S-wave (km/s) = 3.38856 3.50625 3.44791
# Velocity P-wave (km/s) = 5.48649 5.76221 5.62604
#
# Compressibility (1/GPa) = 0.03505295
#
# Stress axis : x y z
#
# Youngs Moduli (GPa) = 46.73835 59.91553 69.79821
#
# Poissons Ratio (x) = -0.01100 0.21179
# Poissons Ratio (y) = -0.00858 0.40688
# Poissons Ratio (z) = 0.14182 0.34927
#
# Static dielectric constant tensor:
#      x y z
#    x 1.679250 0.000000 0.021370 
#    y 0.000000 1.652130 0.000000 
#    z 0.021370 0.000000 1.760680 
# 
# From -- ./inp_files/79997.got.cif
#   From: 2010.05.17/outbox.cif.g08.bks.cpg/sg12_40_cif.got.tgz:79997.got - 2010.06.03 13:09:07.
