data_PCOD9210080
_publ_section_title
;
Structure prediction by ZEFSAII (Michael W. Deem and Ramdas Pophale) SiO2 
 PCOD9210080
Probable space group: C 2/M
;
_chemical_formula_sum "Si O2"
_cell_formula_units_Z 64
_cell_length_a 19.426336
_cell_length_b 7.801421
_cell_length_c 29.970085
_cell_angle_alpha 90.000000
_cell_angle_beta 145.175824
_cell_angle_gamma 90.000000
_cell_volume 2593.787111
_symmetry_space_group_name_H-M "C 2/M"
_symmetry_group_IT_number 12
_symmetry_cell_setting 'monoclinic'
loop_
_space_group_symop_operation_xyz
x,y,z
-x,y,-z
-x,-y,-z
x,-y,z
1/2+x,1/2+y,z
1/2-x,1/2+y,-z
1/2-x,1/2-y,-z
1/2+x,1/2-y,z
loop_
_atom_site_type_symbol
_atom_site_label
_atom_site_fract_x
_atom_site_fract_y
_atom_site_fract_z
Si Si1 0.129470 0.695513 0.892906
Si Si2 0.714807 0.194496 0.787460
Si Si3 0.054988 0.790477 0.460180
Si Si4 0.163750 0.697078 0.056760
Si Si5 0.682632 0.292909 0.619729
Si Si6 0.054360 0.803208 0.364191
Si Si7 0.033994 0.292555 0.112956
Si Si8 0.430535 0.700420 0.724051
O O1 0.164361 0.500000 0.921663
O O2 0.246505 0.794147 0.938193
O O3 0.046602 0.769127 0.888389
O O4 0.040021 0.698856 0.803300
O O5 0.771411 0.214368 0.867221
O O6 0.592211 0.300700 0.716328
O O7 0.827103 0.240606 0.815407
O O8 0.678130 0.000000 0.760734
O O9 0.131222 0.738988 0.543809
O O10 0.916946 0.740448 0.397363
O O11 0.092509 0.725043 0.431710
O O12 0.056879 0.000000 0.460427
O O13 0.147968 0.500000 0.062194
O O14 0.037290 0.762811 0.969800
O O15 0.690431 0.500000 0.624784
O O16 0.814755 0.218911 0.693498
O O17 0.097781 0.728598 0.340394
O O18 0.095818 0.000000 0.386719
O O19 0.030988 0.500000 0.112928
O O20 0.464741 0.500000 0.738612
#
# Coordination Sequence:
#
# PCOD9210080 Si02
#       8
#     8   8   8   8   8   8   8   8
#     4  11  23  40  62  88 118 155 199 246 295 351
#     4  12  25  39  59  89 121 155 200 248 292 346
#     4   8  17  36  62  88 113 151 197 239 292 347
#     4  11  22  41  65  87 117 155 194 243 301 359
#     4   9  18  36  62  89 116 148 194 247 289 343
#     4  10  21  39  60  81 115 161 201 239 290 353
#     4  10  24  42  62  87 116 155 198 242 302 361
#     4  11  23  37  56  84 120 160 196 238 293 348
#
# _framework density 24.674347000000001
#
# number of rings (size 3 to 8) (size 9 to 14) (size 15 to 20)
#    0.000    1.750    1.250    3.750    1.750    4.500 
#    0.000    1.875    0.000    0.000    0.000    0.000 
#    0.000    0.000    0.000    0.000    0.000    0.000 
#
# Total GULP energy -179000.833345 kJ/mol
# GULP energy per Si atom -5593.776042 kJ/mol
# Density = 2.461819 g / cm^3
# Si number density = 24.674347 Si / 1000 Ang^3
#
#
#
# Elastic Constant Matrix: (Units=GPa)
#
#
# Indices 1 2 3 4 5 6 
#
# 1 99.5262 -2.7736 3.4267 0.0000 -3.6974 -0.0004
# 2 -2.7736 51.8536 -1.7785 0.0001 -5.8531 -0.0008
# 3 3.4267 -1.7785 23.5617 0.0000 7.2687 -0.0002
# 4 0.0000 0.0001 0.0000 11.8309 0.0000 0.5493
# 5 -3.6974 -5.8531 7.2687 0.0000 46.8265 0.0001
# 6 -0.0004 -0.0008 -0.0002 0.5493 0.0001 21.8170
#
#
#
# Elastic Compliance Matrix: (Units=1/GPa)
#
#
# Indices 1 2 3 4 5 6 
#
# 1 0.010169 0.000613 -0.001790 0.000000 0.001157 0.000000
# 2 0.000613 0.019611 0.000651 0.000000 0.002399 0.000001
# 3 -0.001790 0.000651 0.044921 0.000000 -0.007033 0.000000
# 4 0.000000 0.000000 0.000000 0.084624 0.000000 -0.002131
# 5 0.001157 0.002399 -0.007033 0.000000 0.022838 0.000000
# 6 0.000000 0.000001 0.000000 -0.002131 0.000000 0.045889
#
#
# Mechanical properties :
#
#
# Convention : Reuss Voigt Hill
#
# Bulk Modulus (GPa) = 13.57769 19.18785 16.38277
# Shear Modulus (GPa) = 19.71195 27.83267 23.77231
#
# Velocity S-wave (km/s) = 2.82952 3.36222 3.10730
# Velocity P-wave (km/s) = 4.02363 4.78184 4.41903
#
# Compressibility (1/GPa) = 0.07365023
#
# Stress axis : x y z
#
# Youngs Moduli (GPa) = 98.33503 50.99193 22.26141
#
# Poissons Ratio (x) = -0.03127 0.03984
# Poissons Ratio (y) = -0.06030 -0.01449
# Poissons Ratio (z) = 0.17599 -0.03320
#
# Static dielectric constant tensor:
#      x y z
#    x 1.983070 0.000000 -0.048640 
#    y 0.000000 1.891090 0.000000 
#    z -0.048640 0.000000 1.944560 
# 
# From -- ./inp_files/378257.got.cif
#   From: 2010.05.17/outbox.cif.g08.bks.cpg/sg12_190_cif.got.tgz:378257.got - 2010.06.03 13:09:07.
