data_PCOD9210664
_publ_section_title
;
Structure prediction by ZEFSAII (Michael W. Deem and Ramdas Pophale) SiO2 
 PCOD9210664
Probable space group: C 2/M
;
_chemical_formula_sum "Si O2"
_cell_formula_units_Z 56
_cell_length_a 29.857774
_cell_length_b 8.280341
_cell_length_c 12.879785
_cell_angle_alpha 90.000000
_cell_angle_beta 122.229841
_cell_angle_gamma 90.000000
_cell_volume 2693.650550
_symmetry_space_group_name_H-M "C 2/M"
_symmetry_group_IT_number 12
_symmetry_cell_setting 'monoclinic'
loop_
_space_group_symop_operation_xyz
x,y,z
-x,y,-z
-x,-y,-z
x,-y,z
1/2+x,1/2+y,z
1/2-x,1/2+y,-z
1/2-x,1/2-y,-z
1/2+x,1/2-y,z
loop_
_atom_site_type_symbol
_atom_site_label
_atom_site_fract_x
_atom_site_fract_y
_atom_site_fract_z
Si Si1 0.283524 0.806354 0.943056
Si Si2 0.052561 0.302535 0.006028
Si Si3 0.255042 0.186631 0.326252
Si Si4 0.631833 0.689319 0.476268
Si Si5 0.903429 0.305799 0.151728
Si Si6 0.560299 0.305810 0.579498
Si Si7 0.646761 0.810078 0.272712
O O1 0.262224 0.724387 0.812719
O O2 0.279952 0.000000 0.925900
O O3 0.250000 0.750000 0.000000
O O4 0.344453 0.764279 0.040821
O O5 0.052361 0.500000 0.006677
O O6 0.104721 0.252829 0.134660
O O7 0.057461 0.251568 0.892333
O O8 0.000000 0.247564 0.000000
O O9 0.306647 0.288797 0.418013
O O10 0.203442 0.225696 0.330921
O O11 0.269501 0.000000 0.356782
O O12 0.620723 0.500000 0.446545
O O13 0.595916 0.751683 0.526964
O O14 0.623371 0.779965 0.357540
O O15 0.906270 0.500000 0.162334
O O16 0.915465 0.237625 0.279380
O O17 0.500000 0.244941 0.500000
O O18 0.559157 0.500000 0.570574
O O19 0.655650 0.000000 0.266568
#
# Coordination Sequence:
#
# PCOD9210664 Si02
#       7
#     8   8   8   8   8   8   8
#     4  11  22  38  60  90 126 163 204 253 305 361
#     4   9  19  37  62  92 124 158 197 249 310 364
#     4  12  24  40  62  91 125 163 208 252 308 373
#     4  11  24  42  63  88 124 165 208 256 308 367
#     4  10  21  39  63  91 122 155 201 253 299 360
#     4  10  24  44  63  87 124 165 203 251 309 364
#     4  11  22  40  65  93 127 162 203 254 310 369
#
# _framework density 20.789632000000001
#
# number of rings (size 3 to 8) (size 9 to 14) (size 15 to 20)
#    0.000    1.429    1.429    3.857    2.000    4.857 
#    0.000    0.000    0.000    2.143    0.000    0.000 
#    0.000    0.000    0.000    0.000    0.000    0.000 
#
# Total GULP energy -156588.558420 kJ/mol
# GULP energy per Si atom -5592.448515 kJ/mol
# Density = 2.074231 g / cm^3
# Si number density = 20.789632 Si / 1000 Ang^3
#
#
#
# Elastic Constant Matrix: (Units=GPa)
#
#
# Indices 1 2 3 4 5 6 
#
# 1 124.7434 0.1433 19.1630 0.0000 -27.7510 0.0000
# 2 0.1433 16.7670 -8.1685 0.0000 0.5461 0.0000
# 3 19.1630 -8.1685 74.1589 0.0000 -24.9326 0.0000
# 4 0.0000 0.0000 0.0000 19.5552 0.0000 -11.2552
# 5 -27.7510 0.5461 -24.9326 0.0000 39.1154 0.0000
# 6 0.0000 0.0000 0.0000 -11.2552 0.0000 16.8393
#
#
#
# Elastic Compliance Matrix: (Units=1/GPa)
#
#
# Indices 1 2 3 4 5 6 
#
# 1 0.009525 -0.000442 -0.000300 0.000000 0.006573 0.000000
# 2 -0.000442 0.063675 0.008557 0.000000 0.004252 0.000000
# 3 -0.000300 0.008557 0.018319 0.000000 0.011344 0.000000
# 4 0.000000 0.000000 0.000000 0.083109 0.000000 0.055549
# 5 0.006573 0.004252 0.011344 0.000000 0.037400 0.000000
# 6 0.000000 0.000000 0.000000 0.055549 0.000000 0.096513
#
#
# Mechanical properties :
#
#
# Convention : Reuss Voigt Hill
#
# Bulk Modulus (GPa) = 9.33270 26.43831 17.88550
# Shear Modulus (GPa) = 15.21478 28.73741 21.97610
#
# Velocity S-wave (km/s) = 2.70820 3.72196 3.25479
# Velocity P-wave (km/s) = 3.77862 5.58706 4.76934
#
# Compressibility (1/GPa) = 0.10715017
#
# Stress axis : x y z
#
# Youngs Moduli (GPa) = 104.98396 15.70466 54.58915
#
# Poissons Ratio (x) = 0.00694 0.01639
# Poissons Ratio (y) = 0.04638 -0.46715
# Poissons Ratio (z) = 0.03153 -0.13439
#
# Static dielectric constant tensor:
#      x y z
#    x 1.750540 0.000000 -0.007190 
#    y 0.000000 1.724470 0.000000 
#    z -0.007190 0.000000 1.709250 
# 
# From -- ./inp_files/187717.got.cif
#   From: 2010.05.17/outbox.cif.g08.bks.cpg/sg12_94_cif.got.tgz:187717.got - 2010.06.03 13:09:07.
