data_PCOD9210982
_publ_section_title
;
Structure prediction by ZEFSAII (Michael W. Deem and Ramdas Pophale) SiO2 
 PCOD9210982
Probable space group: C 2/M
;
_chemical_formula_sum "Si O2"
_cell_formula_units_Z 48
_cell_length_a 24.088663
_cell_length_b 14.989513
_cell_length_c 8.128480
_cell_angle_alpha 90.000000
_cell_angle_beta 45.374464
_cell_angle_gamma 90.000000
_cell_volume 2088.884754
_symmetry_space_group_name_H-M "C 2/M"
_symmetry_group_IT_number 12
_symmetry_cell_setting 'monoclinic'
loop_
_space_group_symop_operation_xyz
x,y,z
-x,y,-z
-x,-y,-z
x,-y,z
1/2+x,1/2+y,z
1/2-x,1/2+y,-z
1/2-x,1/2-y,-z
1/2+x,1/2-y,z
loop_
_atom_site_type_symbol
_atom_site_label
_atom_site_fract_x
_atom_site_fract_y
_atom_site_fract_z
Si Si1 0.717608 0.184550 0.422723
Si Si2 0.159408 0.097870 0.043512
Si Si3 0.529762 0.750088 0.267394
Si Si4 0.557799 0.402373 0.723269
Si Si5 0.218794 0.137139 0.278992
Si Si6 0.116298 0.602400 0.889170
O O1 0.750000 0.250000 0.500000
O O2 0.777622 0.112474 0.230834
O O3 0.710018 0.255715 0.292491
O O4 0.642622 0.137660 0.655165
O O5 0.122566 0.000000 0.100389
O O6 0.100668 0.180567 0.149003
O O7 0.198870 0.101102 0.140742
O O8 0.500000 0.789468 0.500000
O O9 0.464446 0.683303 0.335486
O O10 0.556360 0.827111 0.089576
O O11 0.545153 0.500000 0.672387
O O12 0.651119 0.394996 0.546883
O O13 0.500000 0.398282 0.000000
O O14 0.303882 0.109743 0.167019
O O15 0.090651 0.500000 0.940172
#
# Coordination Sequence:
#
# PCOD9210982 Si02
#       6
#     8   8   8   8   8   8
#     4  10  21  39  65  91 126 170 210 265 319 371
#     4  12  23  38  63  97 133 168 208 261 323 389
#     4  12  25  42  63  92 130 180 208 263 323 383
#     4  11  24  39  61  95 132 169 209 260 324 389
#     4  11  22  41  65  95 131 165 212 269 322 377
#     4  11  24  44  68  96 125 169 226 269 315 375
#
# _framework density 22.978767999999999
#
# number of rings (size 3 to 8) (size 9 to 14) (size 15 to 20)
#    0.000    0.833    5.000    4.000    2.333    1.000 
#    0.000    0.000    0.000    5.500    0.000    0.000 
#    0.000    0.000    0.000    0.000    0.000    0.000 
#
# Total GULP energy -134170.406270 kJ/mol
# GULP energy per Si atom -5590.433595 kJ/mol
# Density = 2.292647 g / cm^3
# Si number density = 22.978768 Si / 1000 Ang^3
#
#
#
# Elastic Constant Matrix: (Units=GPa)
#
#
# Indices 1 2 3 4 5 6 
#
# 1 41.5147 11.2439 1.9054 0.0000 -3.4901 0.0000
# 2 11.2439 156.1250 23.3393 0.0000 5.2759 0.0000
# 3 1.9054 23.3393 116.2241 0.0000 10.8843 0.0000
# 4 0.0000 0.0000 0.0000 31.2734 0.0000 0.7149
# 5 -3.4901 5.2759 10.8843 0.0000 25.2803 0.0000
# 6 0.0000 0.0000 0.0000 0.7149 0.0000 9.8815
#
#
#
# Elastic Compliance Matrix: (Units=1/GPa)
#
#
# Indices 1 2 3 4 5 6 
#
# 1 0.024951 -0.001871 -0.000409 0.000000 0.004011 0.000000
# 2 -0.001871 0.006761 -0.001220 0.000000 -0.001144 0.000000
# 3 -0.000409 -0.001220 0.009208 0.000000 -0.003767 0.000000
# 4 0.000000 0.000000 0.000000 0.032029 0.000000 -0.002317
# 5 0.004011 -0.001144 -0.003767 0.000000 0.041971 0.000000
# 6 0.000000 0.000000 0.000000 -0.002317 0.000000 0.101367
#
#
# Mechanical properties :
#
#
# Convention : Reuss Voigt Hill
#
# Bulk Modulus (GPa) = 29.48123 42.98231 36.23177
# Shear Modulus (GPa) = 21.31344 31.77872 26.54608
#
# Velocity S-wave (km/s) = 3.04884 3.72285 3.40257
# Velocity P-wave (km/s) = 5.02509 6.10126 5.58913
#
# Compressibility (1/GPa) = 0.03391989
#
# Stress axis : x y z
#
# Youngs Moduli (GPa) = 40.07910 147.90895 108.59571
#
# Poissons Ratio (x) = 0.27679 0.04440
# Poissons Ratio (y) = 0.07500 0.13247
# Poissons Ratio (z) = 0.01639 0.18043
#
# Static dielectric constant tensor:
#      x y z
#    x 1.922370 0.000000 -0.001810 
#    y 0.000000 1.865820 0.000000 
#    z -0.001810 0.000000 1.855330 
# 
# From -- ./inp_files/104936.got.cif
#   From: 2010.05.17/outbox.cif.g08.bks.cpg/sg12_53_cif.got.tgz:104936.got - 2010.06.03 13:09:07.
