data_PCOD9210429
_publ_section_title
;
Structure prediction by ZEFSAII (Michael W. Deem and Ramdas Pophale) SiO2 
 PCOD9210429
Probable space group: C 2/M
;
_chemical_formula_sum "Si O2"
_cell_formula_units_Z 64
_cell_length_a 25.175076
_cell_length_b 8.681980
_cell_length_c 16.563226
_cell_angle_alpha 90.000000
_cell_angle_beta 116.598462
_cell_angle_gamma 90.000000
_cell_volume 3237.075102
_symmetry_space_group_name_H-M "C 2/M"
_symmetry_group_IT_number 12
_symmetry_cell_setting 'monoclinic'
loop_
_space_group_symop_operation_xyz
x,y,z
-x,y,-z
-x,-y,-z
x,-y,z
1/2+x,1/2+y,z
1/2-x,1/2+y,-z
1/2-x,1/2-y,-z
1/2+x,1/2-y,z
loop_
_atom_site_type_symbol
_atom_site_label
_atom_site_fract_x
_atom_site_fract_y
_atom_site_fract_z
Si Si1 0.131390 0.185534 0.682764
Si Si2 0.645342 0.323925 0.241193
Si Si3 0.566858 0.169869 0.071433
Si Si4 0.565067 0.316391 0.795986
Si Si5 0.655891 0.175395 0.981463
Si Si6 0.940407 0.685732 0.505702
Si Si7 0.061036 0.684074 0.309493
Si Si8 0.237237 0.313695 0.176063
O O1 0.083186 0.231187 0.717474
O O2 0.113988 0.255876 0.585429
O O3 0.195768 0.233132 0.759635
O O4 0.131232 0.000000 0.677036
O O5 0.661056 0.500000 0.266379
O O6 0.589226 0.304708 0.143136
O O7 0.619508 0.245025 0.303605
O O8 0.696511 0.242415 0.223001
O O9 0.574272 0.000000 0.116779
O O10 0.500000 0.186970 0.000000
O O11 0.607294 0.166990 0.019989
O O12 0.558399 0.500000 0.795444
O O13 0.621418 0.268658 0.889377
O O14 0.501501 0.240188 0.772163
O O15 0.668270 0.000000 0.962074
O O16 0.712155 0.239412 0.071135
O O17 0.940596 0.500000 0.506027
O O18 0.938743 0.738374 0.597160
O O19 0.000000 0.739050 0.500000
O O20 0.060976 0.500000 0.308325
O O21 0.233642 0.500000 0.170649
#
# Coordination Sequence:
#
# PCOD9210429 Si02
#       8
#     8   8   8   8   8   8   8   8
#     4  10  22  39  61  86 115 151 188 234 288 340
#     4  11  22  35  55  84 113 144 187 238 286 329
#     4   9  17  31  51  74 105 148 192 229 278 339
#     4  11  22  34  53  87 122 148 186 239 289 333
#     4   9  18  32  52  77 110 154 196 231 272 332
#     4  10  21  39  62  89 115 144 187 233 280 340
#     4  11  22  38  60  84 116 153 187 228 284 346
#     4   9  20  41  61  79 111 157 200 230 274 339
#
# _framework density 19.770934
#
# number of rings (size 3 to 8) (size 9 to 14) (size 15 to 20)
#    0.000    2.000    1.250    3.375    0.000    6.000 
#    0.000    0.625    0.000    0.000    0.000    0.000 
#    0.000    0.000    0.000    0.000    0.000    0.000 
#
# Total GULP energy -178505.983779 kJ/mol
# GULP energy per Si atom -5578.311993 kJ/mol
# Density = 1.972593 g / cm^3
# Si number density = 19.770934 Si / 1000 Ang^3
#
#
#
# Elastic Constant Matrix: (Units=GPa)
#
#
# Indices 1 2 3 4 5 6 
#
# 1 47.3169 4.2131 11.7924 0.0000 1.9560 0.0000
# 2 4.2131 31.6383 8.5563 0.0000 -4.5414 0.0000
# 3 11.7924 8.5563 89.9845 0.0000 -0.3287 0.0000
# 4 0.0000 0.0000 0.0000 22.5442 0.0000 5.7425
# 5 1.9560 -4.5414 -0.3287 0.0000 34.3053 0.0000
# 6 0.0000 0.0000 0.0000 5.7425 0.0000 19.0224
#
#
#
# Elastic Compliance Matrix: (Units=1/GPa)
#
#
# Indices 1 2 3 4 5 6 
#
# 1 0.022083 -0.002450 -0.002667 0.000000 -0.001609 0.000000
# 2 -0.002450 0.033350 -0.002833 0.000000 0.004528 0.000000
# 3 -0.002667 -0.002833 0.011732 0.000000 -0.000111 0.000000
# 4 0.000000 0.000000 0.000000 0.048052 0.000000 -0.014506
# 5 -0.001609 0.004528 -0.000111 0.000000 0.029840 0.000000
# 6 0.000000 0.000000 0.000000 -0.014506 0.000000 0.056949
#
#
# Mechanical properties :
#
#
# Convention : Reuss Voigt Hill
#
# Bulk Modulus (GPa) = 19.50719 24.22926 21.86823
# Shear Modulus (GPa) = 21.27702 24.79957 23.03829
#
# Velocity S-wave (km/s) = 3.28407 3.54552 3.41729
# Velocity P-wave (km/s) = 4.92628 5.38911 5.16288
#
# Compressibility (1/GPa) = 0.05126315
#
# Stress axis : x y z
#
# Youngs Moduli (GPa) = 45.28273 29.98519 85.24035
#
# Poissons Ratio (x) = 0.07348 0.22733
# Poissons Ratio (y) = 0.11097 0.24152
# Poissons Ratio (z) = 0.12076 0.08496
#
# Static dielectric constant tensor:
#      x y z
#    x 1.706880 0.000000 -0.000510 
#    y 0.000000 1.702340 0.000000 
#    z -0.000510 0.000000 1.730900 
# 
# From -- ./inp_files/244257.got.cif
#   From: 2010.05.17/outbox.cif.g08.bks.cpg/sg12_123_cif.got.tgz:244257.got - 2010.06.03 13:09:07.
