data_PCOD9210079
_publ_section_title
;
Structure prediction by ZEFSAII (Michael W. Deem and Ramdas Pophale) SiO2 
 PCOD9210079
Probable space group: C 2/M
;
_chemical_formula_sum "Si O2"
_cell_formula_units_Z 40
_cell_length_a 9.696045
_cell_length_b 28.969594
_cell_length_c 8.249619
_cell_angle_alpha 90.000000
_cell_angle_beta 133.923816
_cell_angle_gamma 90.000000
_cell_volume 1669.021467
_symmetry_space_group_name_H-M "C 2/M"
_symmetry_group_IT_number 12
_symmetry_cell_setting 'monoclinic'
loop_
_space_group_symop_operation_xyz
x,y,z
-x,y,-z
-x,-y,-z
x,-y,z
1/2+x,1/2+y,z
1/2-x,1/2+y,-z
1/2-x,1/2-y,-z
1/2+x,1/2-y,z
loop_
_atom_site_type_symbol
_atom_site_label
_atom_site_fract_x
_atom_site_fract_y
_atom_site_fract_z
Si Si1 0.780482 0.451209 0.263418
Si Si2 0.778980 0.550315 0.873542
Si Si3 0.787229 0.150089 0.808685
Si Si4 0.198741 0.153309 0.814269
Si Si5 0.229452 0.196139 0.516453
O O1 0.698879 0.500000 0.260395
O O2 0.686860 0.402923 0.230261
O O3 0.000000 0.448859 0.500000
O O4 0.774901 0.452332 0.064942
O O5 0.709177 0.500000 0.754412
O O6 0.683712 0.599164 0.753305
O O7 0.000000 0.554195 0.000000
O O8 0.684135 0.173049 0.573556
O O9 0.710768 0.153121 0.930419
O O10 0.000000 0.170829 0.000000
O O11 0.302217 0.179746 0.751445
O O12 0.991196 0.177734 0.659981
O O13 0.250000 0.250000 0.500000
#
# Coordination Sequence:
#
# PCOD9210079 Si02
#       5
#     8   8   8   8   8
#     4   9  18  32  52  84 118 149 190 229 275 348
#     4   9  18  34  58  87 121 156 187 230 289 351
#     4   9  19  37  59  81 113 150 185 237 293 344
#     4   9  20  40  59  86 117 147 192 242 287 352
#     4  10  21  39  60  81 112 147 197 248 296 342
#
# _framework density 23.966139999999999
#
# number of rings (size 3 to 8) (size 9 to 14) (size 15 to 20)
#    0.000    2.800    0.000    0.000    2.800    1.200 
#    3.600    8.000    0.000    0.000    0.000    0.000 
#    0.000    0.000    0.000    0.000    0.000    0.000 
#
# Total GULP energy -111481.453601 kJ/mol
# GULP energy per Si atom -5574.072680 kJ/mol
# Density = 2.391159 g / cm^3
# Si number density = 23.966140 Si / 1000 Ang^3
#
#
#
# Elastic Constant Matrix: (Units=GPa)
#
#
# Indices 1 2 3 4 5 6 
#
# 1 87.1718 48.5090 38.4139 0.0000 -11.4144 0.0000
# 2 48.5090 227.3890 59.0935 0.0000 -25.0214 0.0000
# 3 38.4139 59.0935 117.4810 0.0000 -21.8160 0.0000
# 4 0.0000 0.0000 0.0000 43.5537 0.0000 12.8584
# 5 -11.4144 -25.0214 -21.8160 0.0000 47.8813 0.0000
# 6 0.0000 0.0000 0.0000 12.8584 0.0000 60.3021
#
#
#
# Elastic Compliance Matrix: (Units=1/GPa)
#
#
# Indices 1 2 3 4 5 6 
#
# 1 0.014247 -0.002052 -0.003490 0.000000 0.000734 0.000000
# 2 -0.002052 0.005472 -0.001793 0.000000 0.001554 0.000000
# 3 -0.003490 -0.001793 0.011172 0.000000 0.003321 0.000000
# 4 0.000000 0.000000 0.000000 0.024503 0.000000 -0.005225
# 5 0.000734 0.001554 0.003321 0.000000 0.023385 0.000000
# 6 0.000000 0.000000 0.000000 -0.005225 0.000000 0.017697
#
#
# Mechanical properties :
#
#
# Convention : Reuss Voigt Hill
#
# Bulk Modulus (GPa) = 61.64693 80.45271 71.04982
# Shear Modulus (GPa) = 42.89836 49.41579 46.15708
#
# Velocity S-wave (km/s) = 4.23538 4.54574 4.39330
# Velocity P-wave (km/s) = 7.04956 7.82265 7.44614
#
# Compressibility (1/GPa) = 0.01622141
#
# Stress axis : x y z
#
# Youngs Moduli (GPa) = 70.18790 182.73475 89.50897
#
# Poissons Ratio (x) = 0.37489 0.31242
# Poissons Ratio (y) = 0.14400 0.16052
# Poissons Ratio (z) = 0.24498 0.32770
#
# Static dielectric constant tensor:
#      x y z
#    x 1.894990 0.000000 -0.088950 
#    y 0.000000 1.935850 0.000000 
#    z -0.088950 0.000000 1.913970 
# 
# From -- ./inp_files/50952.got.cif
#   From: 2010.05.17/outbox.cif.g08.bks.cpg/sg12_26_cif.got.tgz:50952.got - 2010.06.03 13:09:07.
