data_PCOD9210256
_publ_section_title
;
Structure prediction by ZEFSAII (Michael W. Deem and Ramdas Pophale) SiO2 
 PCOD9210256
Probable space group: C 2/M
;
_chemical_formula_sum "Si O2"
_cell_formula_units_Z 64
_cell_length_a 9.298898
_cell_length_b 16.121758
_cell_length_c 20.879177
_cell_angle_alpha 90.000000
_cell_angle_beta 91.685376
_cell_angle_gamma 90.000000
_cell_volume 3128.739038
_symmetry_space_group_name_H-M "C 2/M"
_symmetry_group_IT_number 12
_symmetry_cell_setting 'monoclinic'
loop_
_space_group_symop_operation_xyz
x,y,z
-x,y,-z
-x,-y,-z
x,-y,z
1/2+x,1/2+y,z
1/2-x,1/2+y,-z
1/2-x,1/2-y,-z
1/2+x,1/2-y,z
loop_
_atom_site_type_symbol
_atom_site_label
_atom_site_fract_x
_atom_site_fract_y
_atom_site_fract_z
Si Si1 0.428447 0.667595 0.134038
Si Si2 0.487885 0.773541 0.660853
Si Si3 0.782823 0.595029 0.970462
Si Si4 0.355568 0.313748 0.538361
Si Si5 0.739701 0.726083 0.745972
Si Si6 0.214621 0.094125 0.198082
Si Si7 0.566845 0.146725 0.905377
Si Si8 0.093982 0.406351 0.563223
O O1 0.350388 0.626894 0.072518
O O2 0.312392 0.683082 0.189510
O O3 0.563371 0.614687 0.160661
O O4 0.476498 0.760668 0.116106
O O5 0.395329 0.722941 0.608040
O O6 0.610650 0.717527 0.693899
O O7 0.386526 0.805446 0.716760
O O8 0.557680 0.846743 0.621078
O O9 0.761783 0.500000 0.990813
O O10 0.924977 0.600581 0.927807
O O11 0.823166 0.649151 0.033009
O O12 0.500000 0.325384 0.500000
O O13 0.250000 0.250000 0.500000
O O14 0.259601 0.394823 0.546641
O O15 0.762523 0.825423 0.756467
O O16 0.345866 0.102393 0.149694
O O17 0.211175 0.000000 0.224337
O O18 0.057351 0.500000 0.578511
O O19 0.000000 0.381340 0.500000
#
# Coordination Sequence:
#
# PCOD9210256 Si02
#       8
#     8   8   8   8   8   8   8   8
#     4  11  23  40  60  88 119 161 207 254 307 368
#     4  12  21  41  67  90 122 167 215 247 296 375
#     4  11  22  38  60  89 121 155 202 259 315 368
#     4  12  20  38  69 100 125 172 210 255 310 373
#     4  11  24  40  63  89 118 166 215 251 297 372
#     4  11  23  41  61  87 123 158 201 262 318 360
#     4  10  21  39  61  87 118 159 202 248 311 384
#     4  11  24  41  64  98 134 161 204 264 317 362
#
# _framework density 20.455525000000002
#
# number of rings (size 3 to 8) (size 9 to 14) (size 15 to 20)
#    0.000    0.875    5.000    3.750    1.750    2.250 
#    0.000    2.500    0.000    0.000    0.000    0.000 
#    0.000    0.000    0.000    0.000    0.000    0.000 
#
# Total GULP energy -178859.280006 kJ/mol
# GULP energy per Si atom -5589.352500 kJ/mol
# Density = 2.040897 g / cm^3
# Si number density = 20.455525 Si / 1000 Ang^3
#
#
#
# Elastic Constant Matrix: (Units=GPa)
#
#
# Indices 1 2 3 4 5 6 
#
# 1 64.1570 -3.7008 -2.6679 0.0000 -0.2368 0.0000
# 2 -3.7008 47.4460 1.9590 0.0000 -1.6224 0.0000
# 3 -2.6679 1.9590 47.5770 0.0000 1.2671 0.0000
# 4 0.0000 0.0000 0.0000 15.9844 0.0000 4.0807
# 5 -0.2368 -1.6224 1.2671 0.0000 43.4630 0.0000
# 6 0.0000 0.0000 0.0000 4.0807 0.0000 17.3363
#
#
#
# Elastic Compliance Matrix: (Units=1/GPa)
#
#
# Indices 1 2 3 4 5 6 
#
# 1 0.015690 0.001193 0.000828 0.000000 0.000106 0.000000
# 2 0.001193 0.021232 -0.000829 0.000000 0.000823 0.000000
# 3 0.000828 -0.000829 0.021116 0.000000 -0.000642 0.000000
# 4 0.000000 0.000000 0.000000 0.066561 0.000000 -0.015668
# 5 0.000106 0.000823 -0.000642 0.000000 0.023058 0.000000
# 6 0.000000 0.000000 0.000000 -0.015668 0.000000 0.061370
#
#
# Mechanical properties :
#
#
# Convention : Reuss Voigt Hill
#
# Bulk Modulus (GPa) = 16.55012 16.70675 16.62844
# Shear Modulus (GPa) = 22.04730 26.26270 24.15500
#
# Velocity S-wave (km/s) = 3.28657 3.58703 3.44008
# Velocity P-wave (km/s) = 4.74452 5.03397 4.89138
#
# Compressibility (1/GPa) = 0.06042252
#
# Stress axis : x y z
#
# Youngs Moduli (GPa) = 63.73323 47.09857 47.35694
#
# Poissons Ratio (x) = -0.05620 -0.03921
# Poissons Ratio (y) = -0.07605 0.03927
# Poissons Ratio (z) = -0.05276 0.03906
#
# Static dielectric constant tensor:
#      x y z
#    x 1.744900 0.000000 -0.002740 
#    y 0.000000 1.705780 0.000000 
#    z -0.002740 0.000000 1.741250 
# 
# From -- ./inp_files/300790.got.cif
#   From: 2010.05.17/outbox.cif.g08.bks.cpg/sg12_151_cif.got.tgz:300790.got - 2010.06.03 13:09:07.
