data_PCOD9210764
_publ_section_title
;
Structure prediction by ZEFSAII (Michael W. Deem and Ramdas Pophale) SiO2 
 PCOD9210764
Probable space group: C 2/M
;
_chemical_formula_sum "Si O2"
_cell_formula_units_Z 40
_cell_length_a 14.845629
_cell_length_b 17.239235
_cell_length_c 14.792041
_cell_angle_alpha 90.000000
_cell_angle_beta 28.139537
_cell_angle_gamma 90.000000
_cell_volume 1785.407489
_symmetry_space_group_name_H-M "C 2/M"
_symmetry_group_IT_number 12
_symmetry_cell_setting 'monoclinic'
loop_
_space_group_symop_operation_xyz
x,y,z
-x,y,-z
-x,-y,-z
x,-y,z
1/2+x,1/2+y,z
1/2-x,1/2+y,-z
1/2-x,1/2-y,-z
1/2+x,1/2-y,z
loop_
_atom_site_type_symbol
_atom_site_label
_atom_site_fract_x
_atom_site_fract_y
_atom_site_fract_z
Si Si1 0.387262 0.411956 0.696278
Si Si2 0.325320 0.749429 0.082332
Si Si3 0.157425 0.745150 0.681363
Si Si4 0.210116 0.416689 0.591047
Si Si5 0.969846 0.360477 0.432971
O O1 0.500000 0.404197 0.500000
O O2 0.302884 0.500000 0.772403
O O3 0.260741 0.336046 0.828069
O O4 0.560493 0.411768 0.616106
O O5 0.156675 0.687017 0.238546
O O6 0.500000 0.740649 0.000000
O O7 0.440898 0.731328 0.887320
O O8 0.250000 0.750000 0.500000
O O9 0.152455 0.654020 0.705715
O O10 0.309185 0.795924 0.600609
O O11 0.158223 0.500000 0.675088
O O12 0.113446 0.405992 0.578906
O O13 0.000000 0.405195 0.500000
#
# Coordination Sequence:
#
# PCOD9210764 Si02
#       5
#     8   8   8   8   8
#     4  10  21  39  63  95 137 173 212 269 327 393
#     4  12  22  36  68  95 124 171 219 265 328 393
#     4  10  22  39  61  92 123 163 217 269 321 374
#     4  10  22  41  64  91 130 172 210 261 329 387
#     4  11  22  42  65  93 130 167 219 272 319 379
#
# _framework density 22.403848
#
# number of rings (size 3 to 8) (size 9 to 14) (size 15 to 20)
#    0.000    1.400    4.000    1.800    0.000    4.800 
#    0.000    0.000    0.000    0.600    0.000    0.000 
#    0.000    0.000    0.000    0.000    0.000    0.000 
#
# Total GULP energy -111523.397524 kJ/mol
# GULP energy per Si atom -5576.169876 kJ/mol
# Density = 2.235286 g / cm^3
# Si number density = 22.403848 Si / 1000 Ang^3
#
#
#
# Elastic Constant Matrix: (Units=GPa)
#
#
# Indices 1 2 3 4 5 6 
#
# 1 106.1970 7.4678 28.4713 -0.0037 -17.2168 -0.0008
# 2 7.4678 91.5658 35.1227 -0.0192 -9.1916 0.0074
# 3 28.4713 35.1227 154.2533 -0.0293 -4.9429 0.0134
# 4 -0.0037 -0.0192 -0.0293 16.4060 0.0104 -6.4301
# 5 -17.2168 -9.1916 -4.9429 0.0104 34.7799 -0.0026
# 6 -0.0008 0.0074 0.0134 -6.4301 -0.0026 17.9076
#
#
#
# Elastic Compliance Matrix: (Units=1/GPa)
#
#
# Indices 1 2 3 4 5 6 
#
# 1 0.010733 0.000370 -0.001901 -0.000003 0.005141 0.000001
# 2 0.000370 0.012254 -0.002761 0.000008 0.003029 0.000000
# 3 -0.001901 -0.002761 0.007443 0.000010 -0.000613 -0.000001
# 4 -0.000003 0.000008 0.000010 0.070936 -0.000018 0.025471
# 5 0.005141 0.003029 -0.000613 -0.000018 0.032011 -0.000002
# 6 0.000001 0.000000 -0.000001 0.025471 -0.000002 0.064988
#
#
# Mechanical properties :
#
#
# Convention : Reuss Voigt Hill
#
# Bulk Modulus (GPa) = 45.77518 54.90443 50.33981
# Shear Modulus (GPa) = 23.33916 32.54897 27.94407
#
# Velocity S-wave (km/s) = 3.23111 3.81573 3.53553
# Velocity P-wave (km/s) = 5.86484 6.63121 6.25977
#
# Compressibility (1/GPa) = 0.02184590
#
# Stress axis : x y z
#
# Youngs Moduli (GPa) = 93.16665 81.60439 134.35874
#
# Poissons Ratio (x) = -0.03017 0.25536
# Poissons Ratio (y) = -0.03444 0.37102
# Poissons Ratio (z) = 0.17707 0.22534
#
# Static dielectric constant tensor:
#      x y z
#    x 2.008430 -0.000010 0.057340 
#    y -0.000010 1.874750 0.000010 
#    z 0.057340 0.000010 1.856920 
# 
# From -- ./inp_files/278964.got.cif
#   From: 2010.05.17/outbox.cif.g08.bks.cpg/sg12_140_cif.got.tgz:278964.got - 2010.06.03 13:09:07.
