data_PCOD9210988
_publ_section_title
;
Structure prediction by ZEFSAII (Michael W. Deem and Ramdas Pophale) SiO2 
 PCOD9210988
Probable space group: C 2/M
;
_chemical_formula_sum "Si O2"
_cell_formula_units_Z 40
_cell_length_a 9.079403
_cell_length_b 10.140364
_cell_length_c 20.673079
_cell_angle_alpha 90.000000
_cell_angle_beta 86.477226
_cell_angle_gamma 90.000000
_cell_volume 1899.741922
_symmetry_space_group_name_H-M "C 2/M"
_symmetry_group_IT_number 12
_symmetry_cell_setting 'monoclinic'
loop_
_space_group_symop_operation_xyz
x,y,z
-x,y,-z
-x,-y,-z
x,-y,z
1/2+x,1/2+y,z
1/2-x,1/2+y,-z
1/2-x,1/2-y,-z
1/2+x,1/2-y,z
loop_
_atom_site_type_symbol
_atom_site_label
_atom_site_fract_x
_atom_site_fract_y
_atom_site_fract_z
Si Si1 0.655842 0.349588 0.960221
Si Si2 0.235293 0.000000 0.454062
Si Si3 0.097310 0.000000 0.594693
Si Si4 0.130955 0.296854 0.641247
Si Si5 0.908792 0.146623 0.180760
Si Si6 0.361172 0.778860 0.729531
O O1 0.717782 0.500000 0.954330
O O2 0.631888 0.296256 0.888056
O O3 0.500000 0.358595 0.000000
O O4 0.750000 0.250000 0.000000
O O5 0.322995 0.126744 0.424476
O O6 0.209198 0.000000 0.531031
O O7 0.070340 0.000000 0.427907
O O8 0.120344 0.861811 0.631447
O O9 0.261118 0.320928 0.689764
O O10 0.974943 0.341698 0.675170
O O11 0.761919 0.142021 0.228206
O O12 0.031845 0.218732 0.219320
O O13 0.964567 0.000000 0.165856
#
# Coordination Sequence:
#
# PCOD9210988 Si02
#       6
#     8   4   4   8   8   8
#     4  10  21  39  65  92 126 165 209 254 309 364
#     4  11  24  43  67  93 123 165 209 255 314 373
#     4  11  24  45  63  93 131 157 205 266 312 370
#     4  11  23  41  67  92 121 169 205 257 315 370
#     4  10  22  40  61  89 124 165 206 257 306 362
#     4  10  23  37  61  87 124 159 207 254 302 368
#
# _framework density 21.055492999999998
#
# number of rings (size 3 to 8) (size 9 to 14) (size 15 to 20)
#    0.000    1.600    2.000    1.800    8.400    0.400 
#    0.000    2.000    0.000    0.000    0.000    0.000 
#    0.000    0.000    0.000    0.000    0.000    0.000 
#
# Total GULP energy -111610.921540 kJ/mol
# GULP energy per Si atom -5580.546077 kJ/mol
# Density = 2.100757 g / cm^3
# Si number density = 21.055493 Si / 1000 Ang^3
#
#
#
# Elastic Constant Matrix: (Units=GPa)
#
#
# Indices 1 2 3 4 5 6 
#
# 1 91.8674 12.7223 16.1497 0.0000 -3.1044 0.0000
# 2 12.7223 83.9915 14.8905 0.0000 11.1838 0.0000
# 3 16.1497 14.8905 104.6644 0.0000 -9.5940 0.0000
# 4 0.0000 0.0000 0.0000 374.8022 0.0000 123.9180
# 5 -3.1044 11.1838 -9.5940 0.0000 38.0343 0.0000
# 6 0.0000 0.0000 0.0000 123.9180 0.0000 58.5849
#
#
#
# Elastic Compliance Matrix: (Units=1/GPa)
#
#
# Indices 1 2 3 4 5 6 
#
# 1 0.011396 -0.001611 -0.001434 0.000000 0.001042 0.000000
# 2 -0.001611 0.013108 -0.002029 0.000000 -0.004498 0.000000
# 3 -0.001434 -0.002029 0.010347 0.000000 0.003090 0.000000
# 4 0.000000 0.000000 0.000000 0.008874 0.000000 -0.018770
# 5 0.001042 -0.004498 0.003090 0.000000 0.028479 0.000000
# 6 0.000000 0.000000 0.000000 -0.018770 0.000000 0.056770
#
#
# Mechanical properties :
#
#
# Convention : Reuss Voigt Hill
#
# Bulk Modulus (GPa) = 40.47704 40.89426 40.68565
# Shear Modulus (GPa) = 33.93153 110.06834 71.99994
#
# Velocity S-wave (km/s) = 4.01874 7.23801 5.85402
# Velocity P-wave (km/s) = 6.38744 9.45072 8.06584
#
# Compressibility (1/GPa) = 0.02470536
#
# Stress axis : x y z
#
# Youngs Moduli (GPa) = 87.75353 76.28658 96.64280
#
# Poissons Ratio (x) = 0.12287 0.13855
# Poissons Ratio (y) = 0.14134 0.19606
# Poissons Ratio (z) = 0.12581 0.15476
#
# Static dielectric constant tensor:
#      x y z
#    x 1.740240 0.000000 -0.003070 
#    y 0.000000 1.765740 0.000000 
#    z -0.003070 0.000000 1.764370 
# 
# From -- ./inp_files/254706.got.cif
#   From: 2010.05.17/outbox.cif.g08.bks.cpg/sg12_128_cif.got.tgz:254706.got - 2010.06.03 13:09:07.
