data_PCOD9210640
_publ_section_title
;
Structure prediction by ZEFSAII (Michael W. Deem and Ramdas Pophale) SiO2 
 PCOD9210640
Probable space group: C 2/M
;
_chemical_formula_sum "Si O2"
_cell_formula_units_Z 48
_cell_length_a 34.747541
_cell_length_b 9.003444
_cell_length_c 6.953262
_cell_angle_alpha 90.000000
_cell_angle_beta 85.791206
_cell_angle_gamma 90.000000
_cell_volume 2169.444583
_symmetry_space_group_name_H-M "C 2/M"
_symmetry_group_IT_number 12
_symmetry_cell_setting 'monoclinic'
loop_
_space_group_symop_operation_xyz
x,y,z
-x,y,-z
-x,-y,-z
x,-y,z
1/2+x,1/2+y,z
1/2-x,1/2+y,-z
1/2-x,1/2-y,-z
1/2+x,1/2-y,z
loop_
_atom_site_type_symbol
_atom_site_label
_atom_site_fract_x
_atom_site_fract_y
_atom_site_fract_z
Si Si1 0.855921 0.674660 0.647300
Si Si2 0.434652 0.670302 0.700240
Si Si3 0.210413 0.176413 0.582278
Si Si4 0.988922 0.669908 0.232468
Si Si5 0.836253 0.328493 0.104901
Si Si6 0.586667 0.331454 0.836146
O O1 0.858604 0.500000 0.597957
O O2 0.897566 0.752697 0.619445
O O3 0.823804 0.758355 0.536615
O O4 0.842676 0.684649 0.875102
O O5 0.440078 0.500000 0.636766
O O6 0.473830 0.764110 0.675155
O O7 0.424797 0.665844 0.933160
O O8 0.250000 0.250000 0.500000
O O9 0.197924 0.228065 0.800072
O O10 0.212577 0.000000 0.568407
O O11 0.980926 0.500000 0.289870
O O12 0.950834 0.770331 0.258769
O O13 0.000000 0.668738 0.000000
O O14 0.828777 0.500000 0.154660
O O15 0.876343 0.274367 0.186077
O O16 0.596684 0.500000 0.776704
#
# Coordination Sequence:
#
# PCOD9210640 Si02
#       6
#     8   8   8   8   8   8
#     4  10  21  39  63  90 121 157 197 242 293 350
#     4   9  16  27  46  75 111 151 195 241 289 341
#     4  12  26  44  66  91 120 153 192 240 294 354
#     4   9  15  23  39  68 107 150 196 243 288 336
#     4  10  21  39  63  90 121 157 197 242 293 350
#     4   9  16  27  46  75 111 151 195 241 289 341
#
# _framework density 22.12548
#
# number of rings (size 3 to 8) (size 9 to 14) (size 15 to 20)
#    0.000    2.167    0.000    4.000    0.000    8.667 
#    0.000    0.000    0.000    1.000    0.000    7.000 
#    0.000    0.000    0.000    0.000    0.000    0.000 
#
# Total GULP energy -134383.389280 kJ/mol
# GULP energy per Si atom -5599.307887 kJ/mol
# Density = 2.207512 g / cm^3
# Si number density = 22.125480 Si / 1000 Ang^3
#
#
#
# Elastic Constant Matrix: (Units=GPa)
#
#
# Indices 1 2 3 4 5 6 
#
# 1 107.3812 61.8999 22.1440 0.0000 -8.6161 0.0000
# 2 61.8999 193.3646 18.3986 0.0000 -0.7081 0.0000
# 3 22.1440 18.3986 69.2513 0.0000 3.4486 0.0000
# 4 0.0000 0.0000 0.0000 25.6824 0.0000 -0.0726
# 5 -8.6161 -0.7081 3.4486 0.0000 28.7871 0.0000
# 6 0.0000 0.0000 0.0000 -0.0726 0.0000 42.3083
#
#
#
# Elastic Compliance Matrix: (Units=1/GPa)
#
#
# Indices 1 2 3 4 5 6 
#
# 1 0.012396 -0.003650 -0.003194 0.000000 0.004003 0.000000
# 2 -0.003650 0.006383 -0.000485 0.000000 -0.000877 0.000000
# 3 -0.003194 -0.000485 0.015732 0.000000 -0.002852 0.000000
# 4 0.000000 0.000000 0.000000 0.038937 0.000000 0.000067
# 5 0.004003 -0.000877 -0.002852 0.000000 0.036256 0.000000
# 6 0.000000 0.000000 0.000000 0.000067 0.000000 0.023636
#
#
# Mechanical properties :
#
#
# Convention : Reuss Voigt Hill
#
# Bulk Modulus (GPa) = 50.36597 63.87579 57.12088
# Shear Modulus (GPa) = 32.33818 37.19254 34.76536
#
# Velocity S-wave (km/s) = 3.82721 4.10443 3.96824
# Velocity P-wave (km/s) = 6.50717 7.16898 6.84607
#
# Compressibility (1/GPa) = 0.01985468
#
# Stress axis : x y z
#
# Youngs Moduli (GPa) = 80.66923 156.66896 63.56366
#
# Poissons Ratio (x) = 0.57181 0.20299
# Poissons Ratio (y) = 0.29442 0.03083
# Poissons Ratio (z) = 0.25762 0.07599
#
# Static dielectric constant tensor:
#      x y z
#    x 1.734110 0.000000 -0.016270 
#    y 0.000000 1.737740 0.000000 
#    z -0.016270 0.000000 1.922370 
# 
# From -- ./inp_files/108735.got.cif
#   From: 2010.05.17/outbox.cif.g08.bks.cpg/sg12_55_cif.got.tgz:108735.got - 2010.06.03 13:09:07.
