data_PCOD9210387
_publ_section_title
;
Structure prediction by ZEFSAII (Michael W. Deem and Ramdas Pophale) SiO2 
 PCOD9210387
Probable space group: C 2/M
;
_chemical_formula_sum "Si O2"
_cell_formula_units_Z 56
_cell_length_a 14.534791
_cell_length_b 8.623207
_cell_length_c 28.468806
_cell_angle_alpha 90.000000
_cell_angle_beta 56.585504
_cell_angle_gamma 90.000000
_cell_volume 2978.391095
_symmetry_space_group_name_H-M "C 2/M"
_symmetry_group_IT_number 12
_symmetry_cell_setting 'monoclinic'
loop_
_space_group_symop_operation_xyz
x,y,z
-x,y,-z
-x,-y,-z
x,-y,z
1/2+x,1/2+y,z
1/2-x,1/2+y,-z
1/2-x,1/2-y,-z
1/2+x,1/2-y,z
loop_
_atom_site_type_symbol
_atom_site_label
_atom_site_fract_x
_atom_site_fract_y
_atom_site_fract_z
Si Si1 0.671862 0.684126 0.453890
Si Si2 0.686981 0.684948 0.062800
Si Si3 0.946093 0.313876 0.151137
Si Si4 0.246085 0.314620 0.146146
Si Si5 0.504937 0.814449 0.756794
Si Si6 0.998170 0.316284 0.571783
Si Si7 0.088440 0.816241 0.636683
O O1 0.673610 0.500000 0.461595
O O2 0.612742 0.769103 0.514113
O O3 0.594558 0.725319 0.431192
O O4 0.792042 0.748009 0.409254
O O5 0.685735 0.500000 0.062022
O O6 0.561812 0.747705 0.099772
O O7 0.744844 0.742317 0.094493
O O8 0.750000 0.750000 0.000000
O O9 0.949706 0.500000 0.146949
O O10 0.843641 0.249727 0.150792
O O11 0.941834 0.273307 0.207800
O O12 0.255184 0.500000 0.139394
O O13 0.125456 0.280242 0.201796
O O14 0.556877 0.726641 0.698506
O O15 0.517505 0.000000 0.746394
O O16 0.981113 0.500000 0.572133
O O17 0.005090 0.263631 0.623442
O O18 0.087946 0.000000 0.629744
#
# Coordination Sequence:
#
# PCOD9210387 Si02
#       7
#     8   8   8   8   8   8   8
#     4  11  22  39  60  84 114 147 186 232 285 343
#     4  11  22  38  60  88 122 155 193 238 285 334
#     4  10  21  39  62  87 117 153 193 235 285 339
#     4  10  21  39  62  87 117 153 193 235 285 339
#     4   9  21  40  58  81 115 151 191 240 285 333
#     4  11  22  39  60  84 114 147 186 232 285 343
#     4  12  24  38  58  85 115 150 191 234 284 339
#
# _framework density 18.802095999999999
#
# number of rings (size 3 to 8) (size 9 to 14) (size 15 to 20)
#    0.000    1.429    0.000    8.143    0.000    5.143 
#    0.000    5.714    0.000    0.000    0.000    0.000 
#    0.000    0.000    0.000    0.000    0.000    0.000 
#
# Total GULP energy -156566.303101 kJ/mol
# GULP energy per Si atom -5591.653682 kJ/mol
# Density = 1.875930 g / cm^3
# Si number density = 18.802096 Si / 1000 Ang^3
#
#
#
# Elastic Constant Matrix: (Units=GPa)
#
#
# Indices 1 2 3 4 5 6 
#
# 1 114.8125 23.5629 38.2852 0.0000 19.5492 0.0000
# 2 23.5629 84.0409 19.3048 0.0000 5.8515 0.0000
# 3 38.2852 19.3048 59.8772 0.0000 17.1741 0.0000
# 4 0.0000 0.0000 0.0000 35.6085 0.0000 2.0496
# 5 19.5492 5.8515 17.1741 0.0000 11.7740 0.0000
# 6 0.0000 0.0000 0.0000 2.0496 0.0000 34.0294
#
#
#
# Elastic Compliance Matrix: (Units=1/GPa)
#
#
# Indices 1 2 3 4 5 6 
#
# 1 0.012803 -0.001782 -0.003041 0.000000 -0.015937 0.000000
# 2 -0.001782 0.013101 -0.003552 0.000000 0.001627 0.000000
# 3 -0.003041 -0.003552 0.030665 0.000000 -0.037916 0.000000
# 4 0.000000 0.000000 0.000000 0.028181 0.000000 -0.001697
# 5 -0.015937 0.001627 -0.037916 0.000000 0.165890 0.000000
# 6 0.000000 0.000000 0.000000 -0.001697 0.000000 0.029489
#
#
# Mechanical properties :
#
#
# Convention : Reuss Voigt Hill
#
# Bulk Modulus (GPa) = 25.11208 46.78183 35.94696
# Shear Modulus (GPa) = 16.12122 28.12090 22.12106
#
# Velocity S-wave (km/s) = 2.93134 3.87153 3.43377
# Velocity P-wave (km/s) = 4.98418 6.70225 5.90602
#
# Compressibility (1/GPa) = 0.03982147
#
# Stress axis : x y z
#
# Youngs Moduli (GPa) = 78.10650 76.33035 32.61034
#
# Poissons Ratio (x) = 0.13598 0.09916
# Poissons Ratio (y) = 0.13915 0.11582
# Poissons Ratio (z) = 0.23751 0.27109
#
# Static dielectric constant tensor:
#      x y z
#    x 1.655860 0.000000 0.010220 
#    y 0.000000 1.625180 0.000000 
#    z 0.010220 0.000000 1.630220 
# 
# From -- ./inp_files/338553.got.cif
#   From: 2010.05.17/outbox.cif.g08.bks.cpg/sg12_170_cif.got.tgz:338553.got - 2010.06.03 13:09:07.
