data_PCOD9210869
_publ_section_title
;
Structure prediction by ZEFSAII (Michael W. Deem and Ramdas Pophale) SiO2 
 PCOD9210869
Probable space group: C 2/M
;
_chemical_formula_sum "Si O2"
_cell_formula_units_Z 48
_cell_length_a 28.460886
_cell_length_b 8.724198
_cell_length_c 10.307907
_cell_angle_alpha 90.000000
_cell_angle_beta 89.517129
_cell_angle_gamma 90.000000
_cell_volume 2559.345971
_symmetry_space_group_name_H-M "C 2/M"
_symmetry_group_IT_number 12
_symmetry_cell_setting 'monoclinic'
loop_
_space_group_symop_operation_xyz
x,y,z
-x,y,-z
-x,-y,-z
x,-y,z
1/2+x,1/2+y,z
1/2-x,1/2+y,-z
1/2-x,1/2-y,-z
1/2+x,1/2-y,z
loop_
_atom_site_type_symbol
_atom_site_label
_atom_site_fract_x
_atom_site_fract_y
_atom_site_fract_z
Si Si1 0.372514 0.315424 0.717115
Si Si2 0.224763 0.682749 0.374250
Si Si3 0.223620 0.318158 0.876307
Si Si4 0.629851 0.681457 0.976142
Si Si5 0.521631 0.315193 0.359403
Si Si6 0.035470 0.322467 0.878188
O O1 0.368210 0.500000 0.708288
O O2 0.328562 0.241179 0.644853
O O3 0.423546 0.271552 0.659388
O O4 0.370601 0.275520 0.870770
O O5 0.224945 0.500000 0.379472
O O6 0.250000 0.750000 0.500000
O O7 0.254112 0.741454 0.250192
O O8 0.230233 0.500000 0.869799
O O9 0.169682 0.273928 0.899591
O O10 0.250000 0.250000 0.000000
O O11 0.639660 0.500000 0.968437
O O12 0.580082 0.720626 0.914246
O O13 0.500000 0.276962 0.500000
O O14 0.519225 0.500000 0.343469
O O15 0.491266 0.237452 0.247663
O O16 0.049632 0.500000 0.861549
O O17 0.000000 0.313870 0.000000
#
# Coordination Sequence:
#
# PCOD9210869 Si02
#       6
#     8   8   8   8   8   8
#     4  10  21  39  64  92 125 166 214 265 322 384
#     4  12  26  44  67  94 130 172 214 265 321 383
#     4  12  24  41  65  95 128 163 210 263 318 381
#     4  11  22  38  65  95 127 168 213 264 319 376
#     4  10  22  41  65  92 125 166 211 262 318 380
#     4  11  23  38  60  91 127 165 211 263 313 373
#
# _framework density 18.75479
#
# number of rings (size 3 to 8) (size 9 to 14) (size 15 to 20)
#    0.000    1.000    3.333    4.000    0.000    3.667 
#    0.000    5.000    0.000    0.000    0.000    0.000 
#    0.000    0.000    0.000    0.000    0.000    0.000 
#
# Total GULP energy -134220.298411 kJ/mol
# GULP energy per Si atom -5592.512434 kJ/mol
# Density = 1.871210 g / cm^3
# Si number density = 18.754790 Si / 1000 Ang^3
#
#
#
# Elastic Constant Matrix: (Units=GPa)
#
#
# Indices 1 2 3 4 5 6 
#
# 1 126.0131 42.3087 61.9042 0.0000 12.5656 0.0000
# 2 42.3087 78.9233 50.1749 0.0000 10.2673 0.0000
# 3 61.9042 50.1749 149.2412 0.0000 13.8570 0.0000
# 4 0.0000 0.0000 0.0000 26.8994 0.0000 3.3328
# 5 12.5656 10.2673 13.8570 0.0000 31.6468 0.0000
# 6 0.0000 0.0000 0.0000 3.3328 0.0000 37.2121
#
#
#
# Elastic Compliance Matrix: (Units=1/GPa)
#
#
# Indices 1 2 3 4 5 6 
#
# 1 0.010859 -0.003601 -0.003129 0.000000 -0.001773 0.000000
# 2 -0.003601 0.017583 -0.004191 0.000000 -0.002439 0.000000
# 3 -0.003129 -0.004191 0.009554 0.000000 -0.001581 0.000000
# 4 0.000000 0.000000 0.000000 0.037593 0.000000 -0.003367
# 5 -0.001773 -0.002439 -0.001581 0.000000 0.033787 0.000000
# 6 0.000000 0.000000 0.000000 -0.003367 0.000000 0.027175
#
#
# Mechanical properties :
#
#
# Convention : Reuss Voigt Hill
#
# Bulk Modulus (GPa) = 61.90577 73.66147 67.78362
# Shear Modulus (GPa) = 30.52948 32.47100 31.50024
#
# Velocity S-wave (km/s) = 4.03901 4.16546 4.10272
# Velocity P-wave (km/s) = 7.40480 7.90544 7.65921
#
# Compressibility (1/GPa) = 0.01615358
#
# Stress axis : x y z
#
# Youngs Moduli (GPa) = 92.09296 56.87352 104.66613
#
# Poissons Ratio (x) = 0.20482 0.32747
# Poissons Ratio (y) = 0.33165 0.43866
# Poissons Ratio (z) = 0.28813 0.23836
#
# Static dielectric constant tensor:
#      x y z
#    x 1.635610 0.000000 -0.008050 
#    y 0.000000 1.631760 0.000000 
#    z -0.008050 0.000000 1.606660 
# 
# From -- ./inp_files/108730.got.cif
#   From: 2010.05.17/outbox.cif.g08.bks.cpg/sg12_55_cif.got.tgz:108730.got - 2010.06.03 13:09:07.
