data_PCOD9210246
_publ_section_title
;
Structure prediction by ZEFSAII (Michael W. Deem and Ramdas Pophale) SiO2 
 PCOD9210246
Probable space group: C 2/M
;
_chemical_formula_sum "Si O2"
_cell_formula_units_Z 36
_cell_length_a 9.694357
_cell_length_b 16.607347
_cell_length_c 11.114455
_cell_angle_alpha 90.000000
_cell_angle_beta 116.577126
_cell_angle_gamma 90.000000
_cell_volume 1600.319361
_symmetry_space_group_name_H-M "C 2/M"
_symmetry_group_IT_number 12
_symmetry_cell_setting 'monoclinic'
loop_
_space_group_symop_operation_xyz
x,y,z
-x,y,-z
-x,-y,-z
x,-y,z
1/2+x,1/2+y,z
1/2-x,1/2+y,-z
1/2-x,1/2-y,-z
1/2+x,1/2-y,z
loop_
_atom_site_type_symbol
_atom_site_label
_atom_site_fract_x
_atom_site_fract_y
_atom_site_fract_z
Si Si1 0.493438 0.590428 0.699632
Si Si2 0.000000 0.661967 0.000000
Si Si3 0.242897 0.868397 0.603895
Si Si4 0.588175 0.910221 0.786493
Si Si5 0.677966 0.283494 0.231908
O O1 0.483427 0.500000 0.745068
O O2 0.355253 0.605850 0.549680
O O3 0.648258 0.598500 0.682012
O O4 0.466960 0.662082 0.783241
O O5 0.876742 0.720558 0.889390
O O6 0.073178 0.609496 0.922235
O O7 0.414903 0.902215 0.667974
O O8 0.258271 0.772998 0.636137
O O9 0.693774 0.843852 0.765650
O O10 0.647310 0.000000 0.789728
#
# Coordination Sequence:
#
# PCOD9210246 Si02
#       5
#     8   4   8   8   8
#     4  11  22  39  60  88 121 156 191 233 286 347
#     4  10  23  42  59  80 116 160 194 232 293 360
#     4  10  21  39  61  86 120 158 190 226 286 358
#     4  11  22  39  62  90 115 147 195 248 289 333
#     4  11  23  40  61  87 116 152 196 243 288 338
#
# _framework density 22.495509999999999
#
# number of rings (size 3 to 8) (size 9 to 14) (size 15 to 20)
#    0.000    1.333    0.000    7.667    0.000    4.444 
#    0.000    8.889    0.000    0.000    0.000    0.000 
#    0.000    0.000    0.000    0.000    0.000    0.000 
#
# Total GULP energy -100746.021648 kJ/mol
# GULP energy per Si atom -5597.001203 kJ/mol
# Density = 2.244431 g / cm^3
# Si number density = 22.495510 Si / 1000 Ang^3
#
#
#
# Elastic Constant Matrix: (Units=GPa)
#
#
# Indices 1 2 3 4 5 6 
#
# 1 47.0193 2.5851 -5.2334 0.0000 7.5096 0.0000
# 2 2.5851 142.5250 2.0842 0.0000 -1.2815 0.0000
# 3 -5.2334 2.0842 46.6802 0.0000 9.3488 0.0000
# 4 0.0000 0.0000 0.0000 5.1204 0.0000 6.6465
# 5 7.5096 -1.2815 9.3488 0.0000 18.5646 0.0000
# 6 0.0000 0.0000 0.0000 6.6465 0.0000 13.0993
#
#
#
# Elastic Compliance Matrix: (Units=1/GPa)
#
#
# Indices 1 2 3 4 5 6 
#
# 1 0.023838 -0.000618 0.005160 0.000000 -0.012284 0.000000
# 2 -0.000618 0.007045 -0.000591 0.000000 0.001034 0.000000
# 3 0.005160 -0.000591 0.024972 0.000000 -0.014704 0.000000
# 4 0.000000 0.000000 0.000000 0.572070 0.000000 -0.290265
# 5 -0.012284 0.001034 -0.014704 0.000000 0.066311 0.000000
# 6 0.000000 0.000000 0.000000 -0.290265 0.000000 0.223619
#
#
# Mechanical properties :
#
#
# Convention : Reuss Voigt Hill
#
# Bulk Modulus (GPa) = 15.68438 26.12181 20.90309
# Shear Modulus (GPa) = 5.36939 23.14279 14.25609
#
# Velocity S-wave (km/s) = 1.54663 3.21093 2.52013
# Velocity P-wave (km/s) = 3.19010 5.03825 4.21668
#
# Compressibility (1/GPa) = 0.06375771
#
# Stress axis : x y z
#
# Youngs Moduli (GPa) = 41.94954 141.93519 40.04486
#
# Poissons Ratio (x) = 0.08776 -0.20664
# Poissons Ratio (y) = 0.02594 0.02367
# Poissons Ratio (z) = -0.21647 0.08388
#
# Static dielectric constant tensor:
#      x y z
#    x 1.812350 0.000000 -0.009120 
#    y 0.000000 1.828070 0.000000 
#    z -0.009120 0.000000 1.853480 
# 
# From -- ./inp_files/118756.got.cif
#   From: 2010.05.17/outbox.cif.g08.bks.cpg/sg12_60_cif.got.tgz:118756.got - 2010.06.03 13:09:07.
