data_PCOD9210946
_publ_section_title
;
Structure prediction by ZEFSAII (Michael W. Deem and Ramdas Pophale) SiO2 
 PCOD9210946
Probable space group: C 2/M
;
_chemical_formula_sum "Si O2"
_cell_formula_units_Z 28
_cell_length_a 13.816402
_cell_length_b 23.054073
_cell_length_c 5.172623
_cell_angle_alpha 90.000000
_cell_angle_beta 52.528400
_cell_angle_gamma 90.000000
_cell_volume 1307.630984
_symmetry_space_group_name_H-M "C 2/M"
_symmetry_group_IT_number 12
_symmetry_cell_setting 'monoclinic'
loop_
_space_group_symop_operation_xyz
x,y,z
-x,y,-z
-x,-y,-z
x,-y,z
1/2+x,1/2+y,z
1/2-x,1/2+y,-z
1/2-x,1/2-y,-z
1/2+x,1/2-y,z
loop_
_atom_site_type_symbol
_atom_site_label
_atom_site_fract_x
_atom_site_fract_y
_atom_site_fract_z
Si Si1 0.584948 0.000000 0.612267
Si Si2 0.888781 0.740232 0.372282
Si Si3 0.711646 0.122087 0.473010
Si Si4 0.135406 0.849273 0.270281
O O1 0.500000 0.000000 0.500000
O O2 0.664059 0.058234 0.495506
O O3 0.500000 0.000000 0.000000
O O4 0.750000 0.750000 0.500000
O O5 0.893665 0.670832 0.392798
O O6 0.881785 0.781022 0.634663
O O7 0.000000 0.758022 0.000000
O O8 0.774671 0.127014 0.652168
O O9 0.809502 0.139461 0.097397
O O10 0.000000 0.875444 0.500000
#
# Coordination Sequence:
#
# PCOD9210946 Si02
#       4
#     4   8   8   8
#     4  12  26  46  67  92 127 170 218 272 320 384
#     4  10  21  39  64  97 132 170 213 268 331 393
#     4  11  24  42  64  95 129 171 218 265 323 390
#     4  11  22  41  65  95 131 168 210 269 328 392
#
# _framework density 21.412766999999999
#
# number of rings (size 3 to 8) (size 9 to 14) (size 15 to 20)
#    0.000    1.143    0.000    7.714    0.000    5.714 
#    0.000    4.286    0.000    0.000    0.000    0.000 
#    0.000    0.000    0.000    0.000    0.000    0.000 
#
# Total GULP energy -78204.753563 kJ/mol
# GULP energy per Si atom -5586.053826 kJ/mol
# Density = 2.136403 g / cm^3
# Si number density = 21.412767 Si / 1000 Ang^3
#
#
#
# Elastic Constant Matrix: (Units=GPa)
#
#
# Indices 1 2 3 4 5 6 
#
# 1 80.7031 19.0883 -13.7910 0.0000 -0.4940 0.0000
# 2 19.0883 157.2303 6.9170 0.0000 -14.3553 0.0000
# 3 -13.7910 6.9170 135.6371 0.0000 -16.4529 0.0000
# 4 0.0000 0.0000 0.0000 20.0044 0.0000 6.7740
# 5 -0.4940 -14.3553 -16.4529 0.0000 32.5054 0.0000
# 6 0.0000 0.0000 0.0000 6.7740 0.0000 22.9601
#
#
#
# Elastic Compliance Matrix: (Units=1/GPa)
#
#
# Indices 1 2 3 4 5 6 
#
# 1 0.013021 -0.001625 0.001432 0.000000 0.000205 0.000000
# 2 -0.001625 0.006830 -0.000161 0.000000 0.002910 0.000000
# 3 0.001432 -0.000161 0.008012 0.000000 0.004006 0.000000
# 4 0.000000 0.000000 0.000000 0.055538 0.000000 -0.016386
# 5 0.000205 0.002910 0.004006 0.000000 0.034080 0.000000
# 6 0.000000 0.000000 0.000000 -0.016386 0.000000 0.048388
#
#
# Mechanical properties :
#
#
# Convention : Reuss Voigt Hill
#
# Bulk Modulus (GPa) = 36.82422 44.22210 40.52316
# Shear Modulus (GPa) = 28.46895 39.18439 33.82667
#
# Velocity S-wave (km/s) = 3.65023 4.28244 3.97891
# Velocity P-wave (km/s) = 5.91610 6.71933 6.33047
#
# Compressibility (1/GPa) = 0.02715604
#
# Stress axis : x y z
#
# Youngs Moduli (GPa) = 76.79674 146.40892 124.80737
#
# Poissons Ratio (x) = 0.23793 -0.17869
# Poissons Ratio (y) = 0.12480 0.02003
# Poissons Ratio (z) = -0.10995 0.02350
#
# Static dielectric constant tensor:
#      x y z
#    x 1.867700 0.000000 -0.008880 
#    y 0.000000 1.848480 0.000000 
#    z -0.008880 0.000000 1.763880 
# 
# From -- ./inp_files/10627.got.cif
#   From: 2010.05.17/outbox.cif.g08.bks.cpg/sg12_6_cif.got.tgz:10627.got - 2010.06.03 13:09:07.
