data_PCOD9210889
_publ_section_title
;
Structure prediction by ZEFSAII (Michael W. Deem and Ramdas Pophale) SiO2 
 PCOD9210889
Probable space group: C 2/M
;
_chemical_formula_sum "Si O2"
_cell_formula_units_Z 56
_cell_length_a 16.780878
_cell_length_b 14.409324
_cell_length_c 12.743190
_cell_angle_alpha 90.000000
_cell_angle_beta 126.076038
_cell_angle_gamma 90.000000
_cell_volume 2490.432392
_symmetry_space_group_name_H-M "C 2/M"
_symmetry_group_IT_number 12
_symmetry_cell_setting 'monoclinic'
loop_
_space_group_symop_operation_xyz
x,y,z
-x,y,-z
-x,-y,-z
x,-y,z
1/2+x,1/2+y,z
1/2-x,1/2+y,-z
1/2-x,1/2-y,-z
1/2+x,1/2-y,z
loop_
_atom_site_type_symbol
_atom_site_label
_atom_site_fract_x
_atom_site_fract_y
_atom_site_fract_z
Si Si1 0.240411 0.210083 0.162095
Si Si2 0.655271 0.695951 0.472439
Si Si3 0.513256 0.107102 0.131314
Si Si4 0.892408 0.895589 0.779623
Si Si5 0.264437 0.894665 0.744438
Si Si6 0.048218 0.727802 0.718986
Si Si7 0.111394 0.108272 0.897807
O O1 0.174486 0.173387 0.206550
O O2 0.225389 0.320927 0.154106
O O3 0.356189 0.186998 0.264328
O O4 0.197176 0.160339 0.026629
O O5 0.750000 0.750000 0.500000
O O6 0.626929 0.624479 0.357873
O O7 0.684140 0.644427 0.601367
O O8 0.559844 0.761986 0.414339
O O9 0.631370 0.106256 0.236637
O O10 0.466684 0.172655 0.182794
O O11 0.477237 0.000000 0.111039
O O12 0.500000 0.137364 0.000000
O O13 0.009567 0.885146 0.885986
O O14 0.864542 0.000000 0.786793
O O15 0.246051 0.000000 0.763325
O O16 0.083085 0.832127 0.774477
O O17 0.131078 0.000000 0.896226
#
# Coordination Sequence:
#
# PCOD9210889 Si02
#       7
#     8   8   8   8   8   8   8
#     4  12  23  38  60  95 133 160 197 258 326 378
#     4  11  20  42  65  87 119 168 217 264 302 363
#     4  10  21  39  64  93 124 166 214 256 307 377
#     4  10  21  39  67  95 123 166 216 260 309 371
#     4  11  23  41  65  90 121 168 218 258 305 372
#     4  11  24  39  64  95 130 163 206 261 327 371
#     4  10  22  41  65  90 122 167 215 256 304 375
#
# _framework density 22.486056999999999
#
# number of rings (size 3 to 8) (size 9 to 14) (size 15 to 20)
#    0.000    1.286    2.857    3.429    0.000    4.000 
#    0.000    2.143    0.000    0.857    0.000    0.000 
#    0.000    0.000    0.000    0.000    0.000    0.000 
#
# Total GULP energy -156527.227566 kJ/mol
# GULP energy per Si atom -5590.258127 kJ/mol
# Density = 2.243488 g / cm^3
# Si number density = 22.486057 Si / 1000 Ang^3
#
#
#
# Elastic Constant Matrix: (Units=GPa)
#
#
# Indices 1 2 3 4 5 6 
#
# 1 99.9983 41.3520 24.4091 0.0000 24.5772 0.0000
# 2 41.3520 137.0231 31.1012 0.0000 7.4601 0.0000
# 3 24.4091 31.1012 99.6280 0.0000 17.7391 0.0000
# 4 0.0000 0.0000 0.0000 30.5005 0.0000 5.5454
# 5 24.5772 7.4601 17.7391 0.0000 36.2629 0.0000
# 6 0.0000 0.0000 0.0000 5.5454 0.0000 5.2021
#
#
#
# Elastic Compliance Matrix: (Units=1/GPa)
#
#
# Indices 1 2 3 4 5 6 
#
# 1 0.013639 -0.003491 -0.000804 0.000000 -0.008132 0.000000
# 2 -0.003491 0.008755 -0.002167 0.000000 0.001625 0.000000
# 3 -0.000804 -0.002167 0.011759 0.000000 -0.004761 0.000000
# 4 0.000000 0.000000 0.000000 0.040668 0.000000 -0.043352
# 5 -0.008132 0.001625 -0.004761 0.000000 0.035083 0.000000
# 6 0.000000 0.000000 0.000000 -0.043352 0.000000 0.238442
#
#
# Mechanical properties :
#
#
# Convention : Reuss Voigt Hill
#
# Bulk Modulus (GPa) = 47.10596 58.93043 53.01819
# Shear Modulus (GPa) = 13.57422 30.37893 21.97657
#
# Velocity S-wave (km/s) = 2.45964 3.67960 3.12964
# Velocity P-wave (km/s) = 5.39081 6.65710 6.05714
#
# Compressibility (1/GPa) = 0.02122874
#
# Stress axis : x y z
#
# Youngs Moduli (GPa) = 73.32117 114.22127 85.04428
#
# Poissons Ratio (x) = 0.39872 0.06836
# Poissons Ratio (y) = 0.25595 0.18430
# Poissons Ratio (z) = 0.05894 0.24753
#
# Static dielectric constant tensor:
#      x y z
#    x 1.876290 0.000000 0.017690 
#    y 0.000000 1.822840 0.000000 
#    z 0.017690 0.000000 1.867360 
# 
# From -- ./inp_files/225403.got.cif
#   From: 2010.05.17/outbox.cif.g08.bks.cpg/sg12_113_cif.got.tgz:225403.got - 2010.06.03 13:09:07.
