data_PCOD9210560
_publ_section_title
;
Structure prediction by ZEFSAII (Michael W. Deem and Ramdas Pophale) SiO2 
 PCOD9210560
Probable space group: C 2/M
;
_chemical_formula_sum "Si O2"
_cell_formula_units_Z 56
_cell_length_a 18.652181
_cell_length_b 8.090531
_cell_length_c 25.851035
_cell_angle_alpha 90.000000
_cell_angle_beta 44.739420
_cell_angle_gamma 90.000000
_cell_volume 2745.904399
_symmetry_space_group_name_H-M "C 2/M"
_symmetry_group_IT_number 12
_symmetry_cell_setting 'monoclinic'
loop_
_space_group_symop_operation_xyz
x,y,z
-x,y,-z
-x,-y,-z
x,-y,z
1/2+x,1/2+y,z
1/2-x,1/2+y,-z
1/2-x,1/2-y,-z
1/2+x,1/2-y,z
loop_
_atom_site_type_symbol
_atom_site_label
_atom_site_fract_x
_atom_site_fract_y
_atom_site_fract_z
Si Si1 0.057121 0.694444 0.858986
Si Si2 0.835531 0.808208 0.996131
Si Si3 0.488842 0.701131 0.588448
Si Si4 0.060285 0.797315 0.270480
Si Si5 0.165421 0.200112 0.422797
Si Si6 0.289013 0.804650 0.133286
Si Si7 0.114316 0.195689 0.718820
O O1 0.039229 0.500000 0.877367
O O2 0.129715 0.762716 0.867193
O O3 0.110150 0.718254 0.776593
O O4 0.947373 0.779443 0.915746
O O5 0.825447 0.718059 0.056174
O O6 0.819843 0.000000 0.014499
O O7 0.750000 0.750000 0.000000
O O8 0.489147 0.500000 0.588623
O O9 0.471512 0.756800 0.655705
O O10 0.594613 0.752082 0.507279
O O11 0.397379 0.749291 0.596660
O O12 0.174421 0.739473 0.199178
O O13 0.978281 0.744918 0.269849
O O14 0.059800 0.000000 0.270423
O O15 0.277946 0.271280 0.363499
O O16 0.171725 0.000000 0.419846
O O17 0.282591 0.000000 0.147753
O O18 0.102023 0.000000 0.733502
#
# Coordination Sequence:
#
# PCOD9210560 Si02
#       7
#     8   8   8   8   8   8   8
#     4  11  23  40  63  87 112 147 194 241 285 338
#     4  12  25  41  62  88 121 155 188 230 281 336
#     4   8  15  31  55  79 102 138 189 235 278 335
#     4   9  18  33  53  78 109 145 184 228 279 336
#     4   9  17  32  56  80 103 138 187 238 283 335
#     4  10  21  39  63  87 112 147 192 238 286 341
#     4  11  22  34  52  80 115 151 185 227 285 346
#
# _framework density 20.394010000000002
#
# number of rings (size 3 to 8) (size 9 to 14) (size 15 to 20)
#    0.000    2.000    0.000    5.143    0.000    6.857 
#    0.000    2.143    0.000    3.429    0.000    0.000 
#    0.000    0.000    0.000    0.000    0.000    0.000 
#
# Total GULP energy -156447.146187 kJ/mol
# GULP energy per Si atom -5587.398078 kJ/mol
# Density = 2.034759 g / cm^3
# Si number density = 20.394010 Si / 1000 Ang^3
#
#
#
# Elastic Constant Matrix: (Units=GPa)
#
#
# Indices 1 2 3 4 5 6 
#
# 1 -3.4800 47.0785 -33.6376 -0.0007 -36.1411 0.0004
# 2 47.0785 -4.5981 15.2028 0.0002 0.7230 -0.0005
# 3 -33.6376 15.2028 41.7554 -0.0004 -27.1177 0.0002
# 4 -0.0007 0.0002 -0.0004 22.5650 -0.0001 -11.0439
# 5 -36.1411 0.7230 -27.1177 -0.0001 36.7172 0.0000
# 6 0.0004 -0.0005 0.0002 -11.0439 0.0000 6.7459
#
#
#
# Elastic Compliance Matrix: (Units=1/GPa)
#
#
# Indices 1 2 3 4 5 6 
#
# 1 0.003163 0.018071 -0.004308 0.000002 -0.000424 0.000005
# 2 0.018071 0.040804 0.020625 0.000007 0.032217 0.000012
# 3 -0.004308 0.020625 0.019126 0.000003 0.009480 0.000006
# 4 0.000002 0.000007 0.000003 0.222986 0.000005 0.365059
# 5 -0.000424 0.032217 0.009480 0.000005 0.033184 0.000010
# 6 0.000005 0.000012 0.000006 0.365059 0.000010 0.745889
#
#
# Mechanical properties :
#
#
# Convention : Reuss Voigt Hill
#
# Bulk Modulus (GPa) = 7.58325 10.10720 8.84522
# Shear Modulus (GPa) = 4.80616 13.54119 9.17367
#
# Velocity S-wave (km/s) = 1.53680 2.57957 2.12320
# Velocity P-wave (km/s) = 2.62211 3.72008 3.21827
#
# Compressibility (1/GPa) = 0.13186959
#
# Stress axis : x y z
#
# Youngs Moduli (GPa) = 316.20289 24.50735 52.28447
#
# Poissons Ratio (x) = -0.44288 0.22522
# Poissons Ratio (y) = -5.71424 -1.07834
# Poissons Ratio (z) = 1.36205 -0.50545
#
# Static dielectric constant tensor:
#      x y z
#    x 1.687890 0.000000 -0.017380 
#    y 0.000000 1.741350 0.000000 
#    z -0.017380 0.000000 1.675450 
# 
# From -- ./inp_files/362896.got.cif
#   From: 2010.05.17/outbox.cif.g08.bks.cpg/sg12_182_cif.got.tgz:362896.got - 2010.06.03 13:09:07.
