data_PCOD9210518
_publ_section_title
;
Structure prediction by ZEFSAII (Michael W. Deem and Ramdas Pophale) SiO2 
 PCOD9210518
Probable space group: C 2/M
;
_chemical_formula_sum "Si O2"
_cell_formula_units_Z 48
_cell_length_a 16.186186
_cell_length_b 18.513239
_cell_length_c 13.226206
_cell_angle_alpha 90.000000
_cell_angle_beta 36.546675
_cell_angle_gamma 90.000000
_cell_volume 2360.084364
_symmetry_space_group_name_H-M "C 2/M"
_symmetry_group_IT_number 12
_symmetry_cell_setting 'monoclinic'
loop_
_space_group_symop_operation_xyz
x,y,z
-x,y,-z
-x,-y,-z
x,-y,z
1/2+x,1/2+y,z
1/2-x,1/2+y,-z
1/2-x,1/2-y,-z
1/2+x,1/2-y,z
loop_
_atom_site_type_symbol
_atom_site_label
_atom_site_fract_x
_atom_site_fract_y
_atom_site_fract_z
Si Si1 0.752795 0.663501 0.990252
Si Si2 0.347593 0.649310 0.693758
Si Si3 0.569312 0.192217 0.702177
Si Si4 0.338944 0.584356 0.124581
Si Si5 0.379878 0.080512 0.193544
Si Si6 0.240754 0.217499 0.672102
O O1 0.693861 0.622687 0.950635
O O2 0.919121 0.656070 0.837535
O O3 0.750000 0.750000 0.000000
O O4 0.665872 0.641108 0.173738
O O5 0.500000 0.650706 0.500000
O O6 0.259298 0.584848 0.733279
O O7 0.273829 0.723696 0.726653
O O8 0.650513 0.128037 0.678409
O O9 0.636947 0.217973 0.531561
O O10 0.599306 0.257506 0.752680
O O11 0.295168 0.500000 0.166682
O O12 0.266354 0.637836 0.275779
O O13 0.500000 0.585799 0.000000
O O14 0.422621 0.000000 0.178417
O O15 0.500000 0.111013 0.000000
#
# Coordination Sequence:
#
# PCOD9210518 Si02
#       6
#     8   8   8   8   8   8
#     4  12  22  39  68  92 123 169 222 264 323 383
#     4  11  23  39  65  98 128 163 217 277 321 383
#     4  10  22  39  66  98 121 171 217 267 318 390
#     4  11  26  44  64  93 133 176 216 266 332 401
#     4  10  21  39  62  92 130 170 213 260 323 388
#     4  10  22  41  64  95 135 160 218 269 328 385
#
# _framework density 20.338256999999999
#
# number of rings (size 3 to 8) (size 9 to 14) (size 15 to 20)
#    0.000    1.333    3.333    2.000    0.000    5.000 
#    0.000    2.500    0.000    0.000    0.000    0.000 
#    0.000    0.000    0.000    0.000    0.000    0.000 
#
# Total GULP energy -133775.701618 kJ/mol
# GULP energy per Si atom -5573.987567 kJ/mol
# Density = 2.029197 g / cm^3
# Si number density = 20.338257 Si / 1000 Ang^3
#
#
#
# Elastic Constant Matrix: (Units=GPa)
#
#
# Indices 1 2 3 4 5 6 
#
# 1 112.3849 38.9593 47.5279 0.0003 13.0049 0.0000
# 2 38.9593 109.8131 24.6556 0.0002 16.1552 0.0001
# 3 47.5279 24.6556 68.7352 0.0002 5.7788 0.0001
# 4 0.0003 0.0002 0.0002 19.1412 -0.0003 -0.6637
# 5 13.0049 16.1552 5.7788 -0.0003 37.5756 0.0000
# 6 0.0000 0.0001 0.0001 -0.6637 0.0000 19.5239
#
#
#
# Elastic Compliance Matrix: (Units=1/GPa)
#
#
# Indices 1 2 3 4 5 6 
#
# 1 0.013558 -0.002622 -0.008241 0.000000 -0.002298 0.000000
# 2 -0.002622 0.010965 -0.001824 0.000000 -0.003526 0.000000
# 3 -0.008241 -0.001824 0.020865 0.000000 0.000428 0.000000
# 4 0.000000 0.000000 0.000000 0.052305 0.000001 0.001778
# 5 -0.002298 -0.003526 0.000428 0.000001 0.028859 0.000000
# 6 0.000000 0.000000 0.000000 0.001778 0.000000 0.051280
#
#
# Mechanical properties :
#
#
# Convention : Reuss Voigt Hill
#
# Bulk Modulus (GPa) = 49.96360 57.02431 53.49395
# Shear Modulus (GPa) = 23.82353 27.23417 25.52885
#
# Velocity S-wave (km/s) = 3.42623 3.66329 3.54674
# Velocity P-wave (km/s) = 6.34600 6.78172 6.56748
#
# Compressibility (1/GPa) = 0.02001457
#
# Stress axis : x y z
#
# Youngs Moduli (GPa) = 73.75736 91.20126 47.92628
#
# Poissons Ratio (x) = 0.23910 0.39497
# Poissons Ratio (y) = 0.19337 0.08741
# Poissons Ratio (z) = 0.60785 0.16634
#
# Static dielectric constant tensor:
#      x y z
#    x 1.809310 0.000000 0.105820 
#    y 0.000000 1.751370 0.000000 
#    z 0.105820 0.000000 1.658230 
# 
# From -- ./inp_files/147907.got.cif
#   From: 2010.05.17/outbox.cif.g08.bks.cpg/sg12_74_cif.got.tgz:147907.got - 2010.06.03 13:09:07.
