data_PCOD9210210
_publ_section_title
;
Structure prediction by ZEFSAII (Michael W. Deem and Ramdas Pophale) SiO2 
 PCOD9210210
Probable space group: C 2/M
;
_chemical_formula_sum "Si O2"
_cell_formula_units_Z 64
_cell_length_a 14.613847
_cell_length_b 8.978257
_cell_length_c 29.414936
_cell_angle_alpha 90.000000
_cell_angle_beta 52.521019
_cell_angle_gamma 90.000000
_cell_volume 3062.762750
_symmetry_space_group_name_H-M "C 2/M"
_symmetry_group_IT_number 12
_symmetry_cell_setting 'monoclinic'
loop_
_space_group_symop_operation_xyz
x,y,z
-x,y,-z
-x,-y,-z
x,-y,z
1/2+x,1/2+y,z
1/2-x,1/2+y,-z
1/2-x,1/2-y,-z
1/2+x,1/2-y,z
loop_
_atom_site_type_symbol
_atom_site_label
_atom_site_fract_x
_atom_site_fract_y
_atom_site_fract_z
Si Si1 0.140472 0.677069 0.009180
Si Si2 0.345115 0.175609 0.362118
Si Si3 0.881659 0.321720 0.092472
Si Si4 0.402980 0.672693 0.588894
Si Si5 0.627710 0.172651 0.543100
Si Si6 0.932126 0.176843 0.245312
Si Si7 0.158353 0.676472 0.200962
Si Si8 0.207339 0.825004 0.277268
O O1 0.147148 0.500000 0.014207
O O2 0.012821 0.724777 0.064511
O O3 0.250000 0.750000 0.000000
O O4 0.138308 0.701963 0.955456
O O5 0.208658 0.211752 0.407176
O O6 0.400099 0.190218 0.394704
O O7 0.396712 0.279442 0.307722
O O8 0.352653 0.000000 0.345320
O O9 0.870775 0.500000 0.104201
O O10 0.783823 0.231730 0.147852
O O11 0.430103 0.500000 0.573193
O O12 0.519760 0.762432 0.548792
O O13 0.354191 0.689128 0.655249
O O14 0.750000 0.250000 0.500000
O O15 0.641469 0.000000 0.528856
O O16 0.836470 0.261146 0.244357
O O17 0.060150 0.241640 0.201197
O O18 0.927769 0.000000 0.239852
O O19 0.145525 0.500000 0.201428
O O20 0.146455 0.730614 0.256569
O O21 0.208950 0.000000 0.264649
#
# Coordination Sequence:
#
# PCOD9210210 Si02
#       8
#     8   8   8   8   8   8   8   8
#     4   9  19  37  62  84 108 145 188 234 283 334
#     4   9  20  39  59  79 108 147 184 224 276 336
#     4   9  20  39  57  80 114 151 188 229 282 339
#     4   9  19  37  59  80 105 139 180 223 273 330
#     4  11  23  37  55  79 108 141 180 226 277 331
#     4  11  22  37  59  86 115 150 189 232 280 337
#     4  12  24  37  56  85 120 156 191 234 283 333
#     4  10  21  39  61  85 114 150 189 232 280 337
#
# _framework density 20.896167999999999
#
# number of rings (size 3 to 8) (size 9 to 14) (size 15 to 20)
#    0.000    2.000    0.000    5.250    0.000    8.000 
#    0.000    6.250    0.000    0.000    0.000    0.000 
#    0.000    0.000    0.000    0.000    0.000    0.000 
#
# Total GULP energy -178858.770839 kJ/mol
# GULP energy per Si atom -5589.336589 kJ/mol
# Density = 2.084861 g / cm^3
# Si number density = 20.896168 Si / 1000 Ang^3
#
#
#
# Elastic Constant Matrix: (Units=GPa)
#
#
# Indices 1 2 3 4 5 6 
#
# 1 122.8415 35.3059 14.1764 0.0000 -32.4798 0.0000
# 2 35.3059 74.0752 21.0631 0.0000 -16.8990 0.0000
# 3 14.1764 21.0631 46.5998 0.0000 -22.9090 0.0000
# 4 0.0000 0.0000 0.0000 28.1567 0.0000 -5.5503
# 5 -32.4798 -16.8990 -22.9090 0.0000 27.2972 0.0000
# 6 0.0000 0.0000 0.0000 -5.5503 0.0000 33.8703
#
#
#
# Elastic Compliance Matrix: (Units=1/GPa)
#
#
# Indices 1 2 3 4 5 6 
#
# 1 0.013808 -0.004125 0.007636 0.000000 0.020285 0.000000
# 2 -0.004125 0.017392 -0.006343 0.000000 0.000535 0.000000
# 3 0.007636 -0.006343 0.041775 0.000000 0.040219 0.000000
# 4 0.000000 0.000000 0.000000 0.036701 0.000000 0.006014
# 5 0.020285 0.000535 0.040219 0.000000 0.094854 0.000000
# 6 0.000000 0.000000 0.000000 0.006014 0.000000 0.030510
#
#
# Mechanical properties :
#
#
# Convention : Reuss Voigt Hill
#
# Bulk Modulus (GPa) = 14.85638 42.73415 28.79527
# Shear Modulus (GPa) = 19.00117 29.39624 24.19871
#
# Velocity S-wave (km/s) = 3.01875 3.75477 3.40670
# Velocity P-wave (km/s) = 4.39039 6.26840 5.41149
#
# Compressibility (1/GPa) = 0.06731113
#
# Stress axis : x y z
#
# Youngs Moduli (GPa) = 72.42035 57.49909 23.93759
#
# Poissons Ratio (x) = 0.23718 -0.18279
# Poissons Ratio (y) = 0.29873 0.15184
# Poissons Ratio (z) = -0.55300 0.36472
#
# Static dielectric constant tensor:
#      x y z
#    x 1.778890 0.000000 0.007450 
#    y 0.000000 1.698390 0.000000 
#    z 0.007450 0.000000 1.798890 
# 
# From -- ./inp_files/375439.got.cif
#   From: 2010.05.17/outbox.cif.g08.bks.cpg/sg12_188_cif.got.tgz:375439.got - 2010.06.03 13:09:07.
