data_PCOD9210792
_publ_section_title
;
Structure prediction by ZEFSAII (Michael W. Deem and Ramdas Pophale) SiO2 
 PCOD9210792
Probable space group: C 2/M
;
_chemical_formula_sum "Si O2"
_cell_formula_units_Z 58
_cell_length_a 17.672696
_cell_length_b 20.864646
_cell_length_c 9.081684
_cell_angle_alpha 90.000000
_cell_angle_beta 113.741980
_cell_angle_gamma 90.000000
_cell_volume 3065.320336
_symmetry_space_group_name_H-M "C 2/M"
_symmetry_group_IT_number 12
_symmetry_cell_setting 'monoclinic'
loop_
_space_group_symop_operation_xyz
x,y,z
-x,y,-z
-x,-y,-z
x,-y,z
1/2+x,1/2+y,z
1/2-x,1/2+y,-z
1/2-x,1/2-y,-z
1/2+x,1/2-y,z
loop_
_atom_site_type_symbol
_atom_site_label
_atom_site_fract_x
_atom_site_fract_y
_atom_site_fract_z
Si Si1 0.853816 0.893922 0.403624
Si Si2 0.284971 0.830304 0.892106
Si Si3 0.044358 0.426416 0.382749
Si Si4 0.000000 0.000000 0.500000
Si Si5 0.559894 0.176990 0.171508
Si Si6 0.414812 0.745788 0.519156
Si Si7 0.226843 0.311955 0.782309
Si Si8 0.258294 0.927954 0.407923
O O1 0.796726 0.868791 0.223267
O O2 0.926644 0.943832 0.427771
O O3 0.891778 0.828425 0.497302
O O4 0.792889 0.920968 0.481804
O O5 0.360463 0.850913 0.848909
O O6 0.277517 0.753567 0.852735
O O7 0.299266 0.836620 0.077029
O O8 0.023451 0.500000 0.334936
O O9 0.018454 0.380034 0.231565
O O10 0.143497 0.421660 0.482640
O O11 0.000000 0.408318 0.500000
O O12 0.582600 0.228351 0.313288
O O13 0.500000 0.203837 0.000000
O O14 0.500000 0.754238 0.500000
O O15 0.347480 0.786061 0.376159
O O16 0.265894 0.370709 0.722158
O O17 0.244720 0.000000 0.337488
#
# Coordination Sequence:
#
# PCOD9210792 Si02
#       8
#     8   8   8   2   8   8   8   8
#     4  11  22  42  69  92 124 165 215 265 321 377
#     4  10  22  40  61  95 126 160 210 273 319 367
#     4  10  22  39  58  85 124 167 206 248 302 375
#     4  12  24  44  72 102 124 164 212 272 314 384
#     4  12  23  35  61  94 130 163 208 264 311 373
#     4  11  21  37  62  93 125 168 213 260 320 381
#     4  10  21  39  64  87 127 167 213 258 319 385
#     4  11  21  38  64  89 122 171 209 245 309 386
#
# _framework density 18.921351000000001
#
# number of rings (size 3 to 8) (size 9 to 14) (size 15 to 20)
#    0.000    1.241    4.138    2.069    1.931    2.483 
#    1.241    0.000    0.000    0.828    0.000    0.000 
#    0.000    0.000    0.000    0.000    0.000    0.000 
#
# Total GULP energy -161602.836172 kJ/mol
# GULP energy per Si atom -5572.511592 kJ/mol
# Density = 1.887829 g / cm^3
# Si number density = 18.921351 Si / 1000 Ang^3
#
#
#
# Elastic Constant Matrix: (Units=GPa)
#
#
# Indices 1 2 3 4 5 6 
#
# 1 65.5923 20.7091 24.2978 0.0000 -6.6327 0.0000
# 2 20.7091 124.0934 44.0348 0.0000 -2.7506 0.0000
# 3 24.2978 44.0348 125.4718 0.0000 -9.7423 0.0000
# 4 0.0000 0.0000 0.0000 7.0073 0.0000 -17.2991
# 5 -6.6327 -2.7506 -9.7423 0.0000 22.8725 0.0000
# 6 0.0000 0.0000 0.0000 -17.2991 0.0000 3.3746
#
#
#
# Elastic Compliance Matrix: (Units=1/GPa)
#
#
# Indices 1 2 3 4 5 6 
#
# 1 0.017103 -0.001941 -0.002341 0.000000 0.003729 0.000000
# 2 -0.001941 0.009427 -0.002987 0.000000 -0.000701 0.000000
# 3 -0.002341 -0.002987 0.009712 0.000000 0.003099 0.000000
# 4 0.000000 0.000000 0.000000 -0.012244 0.000000 -0.062766
# 5 0.003729 -0.000701 0.003099 0.000000 0.046037 0.000000
# 6 0.000000 0.000000 0.000000 -0.062766 0.000000 -0.025424
#
#
# Mechanical properties :
#
#
# Convention : Reuss Voigt Hill
#
# Bulk Modulus (GPa) = 46.07518 54.80455 50.43987
# Shear Modulus (GPa) = 75.32031 21.72528 48.52280
#
# Velocity S-wave (km/s) = 6.31613 3.39217 5.06953
# Velocity P-wave (km/s) = 8.80880 6.66106 7.80912
#
# Compressibility (1/GPa) = 0.02170366
#
# Stress axis : x y z
#
# Youngs Moduli (GPa) = 58.46999 106.08159 102.96317
#
# Poissons Ratio (x) = 0.20587 0.24107
# Poissons Ratio (y) = 0.11347 0.30755
# Poissons Ratio (z) = 0.13690 0.31686
#
# Static dielectric constant tensor:
#      x y z
#    x 1.676520 0.000000 0.017340 
#    y 0.000000 1.681830 0.000000 
#    z 0.017340 0.000000 1.644160 
# 
# From -- ./inp_files/77582.got.cif
#   From: 2010.05.17/outbox.cif.g08.bks.cpg/sg12_39_cif.got.tgz:77582.got - 2010.06.03 13:09:07.
