data_PCOD9210909
_publ_section_title
;
Structure prediction by ZEFSAII (Michael W. Deem and Ramdas Pophale) SiO2 
 PCOD9210909
Probable space group: C 2/M
;
_chemical_formula_sum "Si O2"
_cell_formula_units_Z 48
_cell_length_a 15.151036
_cell_length_b 8.683023
_cell_length_c 27.216595
_cell_angle_alpha 90.000000
_cell_angle_beta 137.993835
_cell_angle_gamma 90.000000
_cell_volume 2396.127153
_symmetry_space_group_name_H-M "C 2/M"
_symmetry_group_IT_number 12
_symmetry_cell_setting 'monoclinic'
loop_
_space_group_symop_operation_xyz
x,y,z
-x,y,-z
-x,-y,-z
x,-y,z
1/2+x,1/2+y,z
1/2-x,1/2+y,-z
1/2-x,1/2-y,-z
1/2+x,1/2-y,z
loop_
_atom_site_type_symbol
_atom_site_label
_atom_site_fract_x
_atom_site_fract_y
_atom_site_fract_z
Si Si1 0.542835 0.318654 0.933315
Si Si2 0.733622 0.817786 0.166726
Si Si3 0.880636 0.316669 0.319291
Si Si4 0.177919 0.682537 0.896592
Si Si5 0.644719 0.316684 0.582934
Si Si6 0.667560 0.316587 0.420110
O O1 0.511892 0.500000 0.921522
O O2 0.419622 0.225814 0.903292
O O3 0.577645 0.263579 0.892609
O O4 0.676044 0.294269 0.019704
O O5 0.779953 0.738475 0.236075
O O6 0.816641 0.752144 0.155352
O O7 0.750430 0.000000 0.176856
O O8 0.877625 0.500000 0.323369
O O9 0.853161 0.237984 0.360203
O O10 0.024993 0.261190 0.362117
O O11 0.151982 0.500000 0.884472
O O12 0.500000 0.285207 0.500000
O O13 0.667178 0.500000 0.588916
O O14 0.752289 0.228036 0.595309
O O15 0.654343 0.500000 0.419668
O O16 0.750000 0.250000 0.500000
#
# Coordination Sequence:
#
# PCOD9210909 Si02
#       6
#     8   8   8   8   8   8
#     4  10  21  39  64  94 127 165 211 259 310 368
#     4  12  25  41  62  90 128 168 210 258 313 374
#     4  12  26  44  65  92 126 165 210 259 315 374
#     4  10  21  39  64  94 127 165 211 260 309 367
#     4  11  23  41  67  95 125 159 202 255 308 368
#     4  12  24  41  66  95 125 160 204 253 308 368
#
# _framework density 20.032326000000001
#
# number of rings (size 3 to 8) (size 9 to 14) (size 15 to 20)
#    0.000    0.833    1.667    6.500    0.000    6.000 
#    0.000    6.667    0.000    0.000    0.000    0.000 
#    0.000    0.000    0.000    0.000    0.000    0.000 
#
# Total GULP energy -134361.494438 kJ/mol
# GULP energy per Si atom -5598.395602 kJ/mol
# Density = 1.998673 g / cm^3
# Si number density = 20.032326 Si / 1000 Ang^3
#
#
#
# Elastic Constant Matrix: (Units=GPa)
#
#
# Indices 1 2 3 4 5 6 
#
# 1 72.6196 -13.2011 0.3906 0.0000 -20.9404 0.0000
# 2 -13.2011 59.6076 14.8065 0.0000 -6.2686 0.0000
# 3 0.3906 14.8065 30.2206 0.0000 -16.7859 0.0000
# 4 0.0000 0.0000 0.0000 29.2892 0.0000 -0.2346
# 5 -20.9404 -6.2686 -16.7859 0.0000 35.4819 0.0000
# 6 0.0000 0.0000 0.0000 -0.2346 0.0000 39.0361
#
#
#
# Elastic Compliance Matrix: (Units=1/GPa)
#
#
# Indices 1 2 3 4 5 6 
#
# 1 0.018688 0.004239 0.005729 0.000000 0.014488 0.000000
# 2 0.004239 0.020116 -0.008881 0.000000 0.001855 0.000000
# 3 0.005729 -0.008881 0.052051 0.000000 0.026437 0.000000
# 4 0.000000 0.000000 0.000000 0.034144 0.000000 0.000205
# 5 0.014488 0.001855 0.026437 0.000000 0.049569 0.000000
# 6 0.000000 0.000000 0.000000 0.000205 0.000000 0.025619
#
#
# Mechanical properties :
#
#
# Convention : Reuss Voigt Hill
#
# Bulk Modulus (GPa) = 10.74911 18.49332 14.62122
# Shear Modulus (GPa) = 21.83204 31.45822 26.64513
#
# Velocity S-wave (km/s) = 3.30485 3.96709 3.65102
# Velocity P-wave (km/s) = 4.46545 5.49869 5.00878
#
# Compressibility (1/GPa) = 0.09303100
#
# Stress axis : x y z
#
# Youngs Moduli (GPa) = 53.51005 49.71114 19.21189
#
# Poissons Ratio (x) = -0.21074 -0.11006
# Poissons Ratio (y) = -0.22685 0.17061
# Poissons Ratio (z) = -0.30656 0.44146
#
# Static dielectric constant tensor:
#      x y z
#    x 1.683650 0.000000 0.006850 
#    y 0.000000 1.662040 0.000000 
#    z 0.006850 0.000000 1.720200 
# 
# From -- ./inp_files/267593.got.cif
#   From: 2010.05.17/outbox.cif.g08.bks.cpg/sg12_134_cif.got.tgz:267593.got - 2010.06.03 13:09:07.
