data_PCOD9210353
_publ_section_title
;
Structure prediction by ZEFSAII (Michael W. Deem and Ramdas Pophale) SiO2 
 PCOD9210353
Probable space group: C 2/M
;
_chemical_formula_sum "Si O2"
_cell_formula_units_Z 56
_cell_length_a 21.573348
_cell_length_b 8.696048
_cell_length_c 30.344392
_cell_angle_alpha 90.000000
_cell_angle_beta 149.580401
_cell_angle_gamma 90.000000
_cell_volume 2882.375279
_symmetry_space_group_name_H-M "C 2/M"
_symmetry_group_IT_number 12
_symmetry_cell_setting 'monoclinic'
loop_
_space_group_symop_operation_xyz
x,y,z
-x,y,-z
-x,-y,-z
x,-y,z
1/2+x,1/2+y,z
1/2-x,1/2+y,-z
1/2-x,1/2-y,-z
1/2+x,1/2-y,z
loop_
_atom_site_type_symbol
_atom_site_label
_atom_site_fract_x
_atom_site_fract_y
_atom_site_fract_z
Si Si1 0.409145 0.813921 0.404039
Si Si2 0.146446 0.683026 0.219397
Si Si3 0.004471 0.815904 0.795370
Si Si4 0.503971 0.685813 0.053907
Si Si5 0.742470 0.684417 0.044931
Si Si6 0.421948 0.184905 0.573040
Si Si7 0.351214 0.315630 0.617948
O O1 0.500000 0.768976 0.500000
O O2 0.273803 0.744668 0.317865
O O3 0.477094 0.769960 0.400391
O O4 0.397264 0.000000 0.399334
O O5 0.147090 0.500000 0.219336
O O6 0.039053 0.745124 0.185363
O O7 0.114139 0.746053 0.150869
O O8 0.902940 0.775268 0.697011
O O9 0.132742 0.748258 0.857866
O O10 0.013002 0.000000 0.805183
O O11 0.513612 0.500000 0.061303
O O12 0.500000 0.731732 0.000000
O O13 0.377278 0.730504 0.000832
O O14 0.743963 0.500000 0.043640
O O15 0.750000 0.750000 0.000000
O O16 0.432955 0.249213 0.628745
O O17 0.288133 0.237955 0.474124
O O18 0.420800 0.000000 0.574003
O O19 0.351537 0.500000 0.614689
#
# Coordination Sequence:
#
# PCOD9210353 Si02
#       7
#     8   8   8   8   8   8   8
#     4  10  21  39  62  85 117 162 205 244 295 364
#     4  12  25  39  60  90 123 157 199 255 311 364
#     4  11  22  38  61  86 117 156 201 247 296 360
#     4  10  23  44  67  90 122 166 209 251 305 371
#     4  11  22  38  63  91 120 154 196 247 300 355
#     4   9  18  34  56  81 112 152 196 241 291 350
#     4   9  19  35  56  83 114 151 193 241 295 348
#
# _framework density 19.428421
#
# number of rings (size 3 to 8) (size 9 to 14) (size 15 to 20)
#    0.000    1.714    1.429    3.000    0.000    6.286 
#    0.000    7.143    0.000    0.000    0.000    0.000 
#    0.000    0.000    0.000    0.000    0.000    0.000 
#
# Total GULP energy -156336.516582 kJ/mol
# GULP energy per Si atom -5583.447021 kJ/mol
# Density = 1.938420 g / cm^3
# Si number density = 19.428421 Si / 1000 Ang^3
#
#
#
# Elastic Constant Matrix: (Units=GPa)
#
#
# Indices 1 2 3 4 5 6 
#
# 1 111.8515 28.2489 48.9912 0.0000 -5.2058 0.0000
# 2 28.2489 31.7931 33.6554 0.0001 -5.0909 0.0001
# 3 48.9912 33.6554 104.1570 -0.0001 -4.5522 0.0000
# 4 0.0000 0.0001 -0.0001 31.4399 0.0000 0.8662
# 5 -5.2058 -5.0909 -4.5522 0.0000 32.7844 0.0001
# 6 0.0000 0.0001 0.0000 0.8662 0.0001 23.9165
#
#
#
# Elastic Compliance Matrix: (Units=1/GPa)
#
#
# Indices 1 2 3 4 5 6 
#
# 1 0.012284 -0.007232 -0.003426 0.000000 0.000352 0.000000
# 2 -0.007232 0.052999 -0.013496 0.000000 0.005208 0.000000
# 3 -0.003426 -0.013496 0.015552 0.000000 -0.000480 0.000000
# 4 0.000000 0.000000 0.000000 0.031838 0.000000 -0.001153
# 5 0.000352 0.005208 -0.000480 0.000000 0.031300 0.000000
# 6 0.000000 0.000000 0.000000 -0.001153 0.000000 0.041854
#
#
# Mechanical properties :
#
#
# Convention : Reuss Voigt Hill
#
# Bulk Modulus (GPa) = 30.74252 52.17693 41.45972
# Shear Modulus (GPa) = 20.41003 26.75523 23.58263
#
# Velocity S-wave (km/s) = 3.24470 3.71498 3.48777
# Velocity P-wave (km/s) = 5.46765 6.73170 6.13233
#
# Compressibility (1/GPa) = 0.03252824
#
# Stress axis : x y z
#
# Youngs Moduli (GPa) = 81.40901 18.86810 64.30009
#
# Poissons Ratio (x) = 0.13645 0.22027
# Poissons Ratio (y) = 0.58872 0.86781
# Poissons Ratio (z) = 0.27888 0.25465
#
# Static dielectric constant tensor:
#      x y z
#    x 1.679070 0.000000 0.011600 
#    y 0.000000 1.654990 0.000000 
#    z 0.011600 0.000000 1.743580 
# 
# From -- ./inp_files/380792.got.cif
#   From: 2010.05.17/outbox.cif.g08.bks.cpg/sg12_191_cif.got.tgz:380792.got - 2010.06.03 13:09:07.
