data_PCOD9210413
_publ_section_title
;
Structure prediction by ZEFSAII (Michael W. Deem and Ramdas Pophale) SiO2 
 PCOD9210413
Probable space group: C 2/M
;
_chemical_formula_sum "Si O2"
_cell_formula_units_Z 64
_cell_length_a 26.736453
_cell_length_b 9.344779
_cell_length_c 14.460672
_cell_angle_alpha 90.000000
_cell_angle_beta 114.253788
_cell_angle_gamma 90.000000
_cell_volume 3294.047632
_symmetry_space_group_name_H-M "C 2/M"
_symmetry_group_IT_number 12
_symmetry_cell_setting 'monoclinic'
loop_
_space_group_symop_operation_xyz
x,y,z
-x,y,-z
-x,-y,-z
x,-y,z
1/2+x,1/2+y,z
1/2-x,1/2+y,-z
1/2-x,1/2-y,-z
1/2+x,1/2-y,z
loop_
_atom_site_type_symbol
_atom_site_label
_atom_site_fract_x
_atom_site_fract_y
_atom_site_fract_z
Si Si1 0.483098 0.170479 0.883898
Si Si2 0.899684 0.831454 0.555760
Si Si3 0.189960 0.335466 0.855177
Si Si4 0.697710 0.171455 0.416730
Si Si5 0.518422 0.330413 0.735044
Si Si6 0.178022 0.165184 0.029225
Si Si7 0.643273 0.170227 0.185269
Si Si8 0.617157 0.330897 0.673444
O O1 0.517146 0.248329 0.830623
O O2 0.418124 0.199983 0.824315
O O3 0.491298 0.000000 0.882517
O O4 0.500000 0.214517 0.000000
O O5 0.855343 0.731139 0.570330
O O6 0.960193 0.804181 0.640886
O O7 0.897783 0.808827 0.444351
O O8 0.886579 0.000000 0.563252
O O9 0.172415 0.500000 0.846271
O O10 0.255852 0.331521 0.909375
O O11 0.168552 0.259935 0.746765
O O12 0.166886 0.248634 0.925665
O O13 0.750000 0.250000 0.500000
O O14 0.686499 0.203245 0.299607
O O15 0.702547 0.000000 0.429678
O O16 0.522836 0.500000 0.755546
O O17 0.566796 0.290040 0.701890
O O18 0.153298 0.242486 0.099672
O O19 0.160440 0.000000 0.009166
O O20 0.646245 0.000000 0.167624
O O21 0.628334 0.500000 0.694494
#
# Coordination Sequence:
#
# PCOD9210413 Si02
#       8
#     8   8   8   8   8   8   8   8
#     4  10  22  40  61  87 121 159 197 242 299 358
#     4  10  21  40  63  87 119 158 196 242 299 352
#     4  10  22  40  59  86 119 155 195 242 295 350
#     4  11  24  41  62  89 123 159 203 249 298 356
#     4  10  21  39  62  88 118 153 196 245 294 350
#     4  10  22  39  61  86 117 155 196 243 293 350
#     4  10  22  40  61  88 121 160 198 243 300 357
#     4  10  22  38  60  89 119 153 196 244 295 350
#
# _framework density 19.428985000000001
#
# number of rings (size 3 to 8) (size 9 to 14) (size 15 to 20)
#    0.000    1.875    1.250    1.500    3.500    5.750 
#    0.000    0.000    0.000    2.250    0.000    0.000 
#    0.000    0.000    0.000    0.000    0.000    0.000 
#
# Total GULP energy -178830.148704 kJ/mol
# GULP energy per Si atom -5588.442147 kJ/mol
# Density = 1.938476 g / cm^3
# Si number density = 19.428985 Si / 1000 Ang^3
#
#
#
# Elastic Constant Matrix: (Units=GPa)
#
#
# Indices 1 2 3 4 5 6 
#
# 1 25.2608 16.5551 -1.7000 0.0000 -9.0440 0.0000
# 2 16.5551 42.0019 27.5373 0.0000 -8.0810 0.0000
# 3 -1.7000 27.5373 82.3541 0.0000 -2.0239 0.0000
# 4 0.0000 0.0000 0.0000 30.5553 0.0000 -3.3152
# 5 -9.0440 -8.0810 -2.0239 0.0000 34.2486 0.0000
# 6 0.0000 0.0000 0.0000 -3.3152 0.0000 22.3225
#
#
#
# Elastic Compliance Matrix: (Units=1/GPa)
#
#
# Indices 1 2 3 4 5 6 
#
# 1 0.064738 -0.031458 0.012110 0.000000 0.010388 0.000000
# 2 -0.031458 0.047347 -0.016434 0.000000 0.001893 0.000000
# 3 0.012110 -0.016434 0.017897 0.000000 0.000378 0.000000
# 4 0.000000 0.000000 0.000000 0.033264 0.000000 0.004940
# 5 0.010388 0.001893 0.000378 0.000000 0.032411 0.000000
# 6 0.000000 0.000000 0.000000 0.004940 0.000000 0.045532
#
#
# Mechanical properties :
#
#
# Convention : Reuss Voigt Hill
#
# Bulk Modulus (GPa) = 17.11796 26.04462 21.58129
# Shear Modulus (GPa) = 15.05012 24.57358 19.81185
#
# Velocity S-wave (km/s) = 2.78622 3.56025 3.19675
# Velocity P-wave (km/s) = 4.37954 5.50769 4.97569
#
# Compressibility (1/GPa) = 0.05841817
#
# Stress axis : x y z
#
# Youngs Moduli (GPa) = 15.44694 21.12086 55.87452
#
# Poissons Ratio (x) = 0.66441 -0.67666
# Poissons Ratio (y) = 0.48592 0.91827
# Poissons Ratio (z) = -0.18707 0.34711
#
# Static dielectric constant tensor:
#      x y z
#    x 1.668850 0.000000 0.021110 
#    y 0.000000 1.650420 0.000000 
#    z 0.021110 0.000000 1.667890 
# 
# From -- ./inp_files/244186.got.cif
#   From: 2010.05.17/outbox.cif.g08.bks.cpg/sg12_123_cif.got.tgz:244186.got - 2010.06.03 13:09:07.
