data_PCOD9210068
_publ_section_title
;
Structure prediction by ZEFSAII (Michael W. Deem and Ramdas Pophale) SiO2 
 PCOD9210068
Probable space group: C 2/M
;
_chemical_formula_sum "Si O2"
_cell_formula_units_Z 56
_cell_length_a 22.785554
_cell_length_b 18.015279
_cell_length_c 23.585740
_cell_angle_alpha 90.000000
_cell_angle_beta 17.074397
_cell_angle_gamma 90.000000
_cell_volume 2842.664841
_symmetry_space_group_name_H-M "C 2/M"
_symmetry_group_IT_number 12
_symmetry_cell_setting 'monoclinic'
loop_
_space_group_symop_operation_xyz
x,y,z
-x,y,-z
-x,-y,-z
x,-y,z
1/2+x,1/2+y,z
1/2-x,1/2+y,-z
1/2-x,1/2-y,-z
1/2+x,1/2-y,z
loop_
_atom_site_type_symbol
_atom_site_label
_atom_site_fract_x
_atom_site_fract_y
_atom_site_fract_z
Si Si1 0.449817 0.088143 0.772478
Si Si2 0.172440 0.911976 0.920519
Si Si3 0.724053 0.588958 0.096039
Si Si4 0.143955 0.827230 0.612680
Si Si5 0.598048 0.178479 0.970197
Si Si6 0.126239 0.805526 0.754765
Si Si7 0.072189 0.296030 0.369951
O O1 0.304530 0.107469 0.854430
O O2 0.671600 0.116271 0.556819
O O3 0.453803 0.000000 0.769873
O O4 0.362335 0.110880 0.914374
O O5 0.290234 0.869112 0.762443
O O6 0.160207 0.000000 0.924376
O O7 0.960061 0.873559 0.128546
O O8 0.683562 0.500000 0.130631
O O9 0.524062 0.638329 0.273070
O O10 0.834185 0.611325 0.052350
O O11 0.250000 0.750000 0.500000
O O12 0.048664 0.815398 0.762612
O O13 0.791083 0.229643 0.778965
O O14 0.500000 0.159430 0.000000
O O15 0.450764 0.231628 0.142768
O O16 0.364509 0.805268 0.529049
O O17 0.000000 0.281974 0.500000
#
# Coordination Sequence:
#
# PCOD9210068 Si02
#       7
#     8   8   8   8   8   8   8
#     4  10  21  39  59  89 130 165 202 249 308 377
#     4  10  22  37  60  91 125 167 208 251 312 380
#     4  11  25  43  64  94 131 166 207 260 320 380
#     4  12  23  36  64  97 126 162 207 258 313 380
#     4  11  24  43  67  90 121 164 216 267 313 373
#     4  11  22  38  62  92 125 163 207 260 318 370
#     4  11  22  41  64  91 122 166 214 268 312 367
#
# _framework density 19.699824
#
# number of rings (size 3 to 8) (size 9 to 14) (size 15 to 20)
#    0.000    1.143    4.286    2.143    2.000    2.857 
#    0.000    0.714    0.000    0.429    0.000    0.000 
#    0.000    0.000    0.000    0.000    0.000    0.000 
#
# Total GULP energy -156350.838619 kJ/mol
# GULP energy per Si atom -5583.958522 kJ/mol
# Density = 1.965499 g / cm^3
# Si number density = 19.699824 Si / 1000 Ang^3
#
#
#
# Elastic Constant Matrix: (Units=GPa)
#
#
# Indices 1 2 3 4 5 6 
#
# 1 99.8177 25.1771 29.9521 0.0175 -9.5749 -0.0102
# 2 25.1771 43.6193 27.4366 0.0074 6.6813 -0.0109
# 3 29.9521 27.4366 86.4291 0.0098 10.4724 -0.0210
# 4 0.0175 0.0074 0.0098 16.5747 0.0220 1.9824
# 5 -9.5749 6.6813 10.4724 0.0220 25.1880 0.0019
# 6 -0.0102 -0.0109 -0.0210 1.9824 0.0019 20.3883
#
#
#
# Elastic Compliance Matrix: (Units=1/GPa)
#
#
# Indices 1 2 3 4 5 6 
#
# 1 0.013655 -0.006948 -0.003558 -0.000021 0.008513 0.000001
# 2 -0.006948 0.032572 -0.006914 0.000007 -0.008407 0.000007
# 3 -0.003558 -0.006914 0.015732 0.000004 -0.006060 0.000011
# 4 -0.000021 0.000007 0.000004 0.061043 -0.000064 -0.005935
# 5 0.008513 -0.008407 -0.006060 -0.000064 0.047687 -0.000005
# 6 0.000001 0.000007 0.000011 -0.005935 -0.000005 0.049625
#
#
# Mechanical properties :
#
#
# Convention : Reuss Voigt Hill
#
# Bulk Modulus (GPa) = 36.87235 43.88866 40.38050
# Shear Modulus (GPa) = 18.92556 22.25021 20.58788
#
# Velocity S-wave (km/s) = 3.10287 3.36439 3.23628
# Velocity P-wave (km/s) = 5.62093 6.11713 5.87427
#
# Compressibility (1/GPa) = 0.02712060
#
# Stress axis : x y z
#
# Youngs Moduli (GPa) = 73.23353 30.70114 63.56382
#
# Poissons Ratio (x) = 0.21330 0.22617
# Poissons Ratio (y) = 0.50879 0.43946
# Poissons Ratio (z) = 0.26058 0.21226
#
# Static dielectric constant tensor:
#      x y z
#    x 1.745600 0.000050 0.016320 
#    y 0.000050 1.691870 0.000030 
#    z 0.016320 0.000030 1.669560 
# 
# From -- ./inp_files/322662.got.cif
#   From: 2010.05.17/outbox.cif.g08.bks.cpg/sg12_162_cif.got.tgz:322662.got - 2010.06.03 13:09:07.
