data_PCOD9210497
_publ_section_title
;
Structure prediction by ZEFSAII (Michael W. Deem and Ramdas Pophale) SiO2 
 PCOD9210497
Probable space group: C 2/M
;
_chemical_formula_sum "Si O2"
_cell_formula_units_Z 58
_cell_length_a 11.365579
_cell_length_b 21.544925
_cell_length_c 16.740018
_cell_angle_alpha 90.000000
_cell_angle_beta 43.392033
_cell_angle_gamma 90.000000
_cell_volume 2816.051925
_symmetry_space_group_name_H-M "C 2/M"
_symmetry_group_IT_number 12
_symmetry_cell_setting 'monoclinic'
loop_
_space_group_symop_operation_xyz
x,y,z
-x,y,-z
-x,-y,-z
x,-y,z
1/2+x,1/2+y,z
1/2-x,1/2+y,-z
1/2-x,1/2-y,-z
1/2+x,1/2-y,z
loop_
_atom_site_type_symbol
_atom_site_label
_atom_site_fract_x
_atom_site_fract_y
_atom_site_fract_z
Si Si1 0.529149 0.148223 0.198301
Si Si2 0.084310 0.927308 0.757549
Si Si3 0.500000 0.000000 0.000000
Si Si4 0.693912 0.292380 0.415005
Si Si5 0.716597 0.115135 0.943338
Si Si6 0.560811 0.928795 0.334308
Si Si7 0.304698 0.252049 0.068649
Si Si8 0.215468 0.342745 0.454882
O O1 0.342394 0.179304 0.286645
O O2 0.525467 0.091160 0.261255
O O3 0.663532 0.198935 0.168548
O O4 0.598070 0.126111 0.079272
O O5 0.240242 0.921577 0.742645
O O6 0.142984 0.887950 0.651914
O O7 0.908629 0.899437 0.876432
O O8 0.065249 0.000000 0.748355
O O9 0.353555 0.055431 0.067523
O O10 0.500000 0.313452 0.500000
O O11 0.739242 0.314711 0.481486
O O12 0.697982 0.217669 0.407862
O O13 0.717313 0.180200 0.895425
O O14 0.450936 0.883623 0.444038
O O15 0.511989 0.000000 0.373481
O O16 0.500000 0.268966 0.000000
O O17 0.250000 0.250000 0.000000
#
# Coordination Sequence:
#
# PCOD9210497 Si02
#       8
#     8   8   2   8   8   8   8   8
#     4  10  24  41  64  95 127 172 211 280 328 395
#     4  11  22  37  61  91 120 164 210 254 313 387
#     4  12  24  44  60  86 132 176 224 264 328 400
#     4  10  21  41  63  92 120 162 214 258 327 379
#     4  11  24  42  61  91 129 171 221 268 327 397
#     4  10  22  38  63  93 128 166 207 263 327 383
#     4  10  22  41  63  93 128 171 218 271 332 391
#     4  10  21  39  62  91 125 159 203 266 313 382
#
# _framework density 20.596211
#
# number of rings (size 3 to 8) (size 9 to 14) (size 15 to 20)
#    0.000    1.655    1.379    2.483    4.828    2.207 
#   12.414    1.379    0.000    2.069    0.000    0.000 
#    0.000    0.000    0.000    0.000    0.000    0.000 
#
# Total GULP energy -161581.973338 kJ/mol
# GULP energy per Si atom -5571.792184 kJ/mol
# Density = 2.054933 g / cm^3
# Si number density = 20.596211 Si / 1000 Ang^3
#
#
#
# Elastic Constant Matrix: (Units=GPa)
#
#
# Indices 1 2 3 4 5 6 
#
# 1 66.8560 35.8001 33.5779 0.0003 -31.5091 0.0000
# 2 35.8001 97.1755 19.7273 0.0009 -22.4486 0.0000
# 3 33.5779 19.7273 100.0335 0.0019 -32.2722 0.0000
# 4 0.0003 0.0009 0.0019 77.5505 -0.0007 -14.6016
# 5 -31.5091 -22.4486 -32.2722 -0.0007 42.3957 0.0000
# 6 0.0000 0.0000 0.0000 -14.6016 0.0000 22.0284
#
#
#
# Elastic Compliance Matrix: (Units=1/GPa)
#
#
# Indices 1 2 3 4 5 6 
#
# 1 0.026261 -0.005789 -0.003136 0.000000 0.014066 0.000000
# 2 -0.005789 0.013014 0.000281 0.000000 0.002802 0.000000
# 3 -0.003136 0.000281 0.013640 0.000000 0.008201 0.000000
# 4 0.000000 0.000000 0.000000 0.014734 0.000000 0.009766
# 5 0.014066 0.002802 0.008201 0.000000 0.041767 0.000000
# 6 0.000000 0.000000 0.000000 0.009766 0.000000 0.051870
#
#
# Mechanical properties :
#
#
# Convention : Reuss Voigt Hill
#
# Bulk Modulus (GPa) = 28.06880 49.14174 38.60527
# Shear Modulus (GPa) = 26.25381 40.05890 33.15636
#
# Velocity S-wave (km/s) = 3.57416 4.41496 4.01662
# Velocity P-wave (km/s) = 5.53990 7.06403 6.34788
#
# Compressibility (1/GPa) = 0.03562675
#
# Stress axis : x y z
#
# Youngs Moduli (GPa) = 38.07870 76.84231 73.31641
#
# Poissons Ratio (x) = 0.44484 0.22990
# Poissons Ratio (y) = 0.22044 -0.02058
# Poissons Ratio (z) = 0.11940 -0.02157
#
# Static dielectric constant tensor:
#      x y z
#    x 1.805290 0.000000 -0.021010 
#    y 0.000000 1.735690 0.000000 
#    z -0.021010 0.000000 1.743580 
# 
# From -- ./inp_files/265232.got.cif
#   From: 2010.05.17/outbox.cif.g08.bks.cpg/sg12_133_cif.got.tgz:265232.got - 2010.06.03 13:09:07.
