data_PCOD9210370
_publ_section_title
;
Structure prediction by ZEFSAII (Michael W. Deem and Ramdas Pophale) SiO2 
 PCOD9210370
Probable space group: C 2/M
;
_chemical_formula_sum "Si O2"
_cell_formula_units_Z 64
_cell_length_a 20.187647
_cell_length_b 8.355282
_cell_length_c 32.180196
_cell_angle_alpha 90.000000
_cell_angle_beta 144.146445
_cell_angle_gamma 90.000000
_cell_volume 3179.232127
_symmetry_space_group_name_H-M "C 2/M"
_symmetry_group_IT_number 12
_symmetry_cell_setting 'monoclinic'
loop_
_space_group_symop_operation_xyz
x,y,z
-x,y,-z
-x,-y,-z
x,-y,z
1/2+x,1/2+y,z
1/2-x,1/2+y,-z
1/2-x,1/2-y,-z
1/2+x,1/2-y,z
loop_
_atom_site_type_symbol
_atom_site_label
_atom_site_fract_x
_atom_site_fract_y
_atom_site_fract_z
Si Si1 0.029190 0.194037 0.216663
Si Si2 0.225826 0.804621 0.761087
Si Si3 0.102583 0.190435 0.022461
Si Si4 0.485712 0.808883 0.882432
Si Si5 0.188889 0.808487 0.510727
Si Si6 0.736575 0.191339 0.624565
Si Si7 0.834787 0.808002 0.179029
Si Si8 0.568576 0.693345 0.605053
O O1 0.991331 0.260104 0.153083
O O2 0.155641 0.246157 0.293367
O O3 0.942290 0.249146 0.207835
O O4 0.028342 0.000000 0.214364
O O5 0.356539 0.754216 0.825580
O O6 0.173302 0.748768 0.777845
O O7 0.152899 0.751635 0.684619
O O8 0.225517 0.000000 0.760419
O O9 0.219402 0.265778 0.096786
O O10 0.111332 0.000000 0.031377
O O11 0.000000 0.248101 0.000000
O O12 0.068643 0.233618 0.958375
O O13 0.490162 0.000000 0.889045
O O14 0.250000 0.750000 0.500000
O O15 0.247368 0.752396 0.583075
O O16 0.058367 0.751892 0.449152
O O17 0.187588 0.000000 0.508917
O O18 0.623120 0.250712 0.589571
O O19 0.736213 0.000000 0.623688
O O20 0.843300 0.000000 0.185560
O O21 0.567371 0.500000 0.603885
#
# Coordination Sequence:
#
# PCOD9210370 Si02
#       8
#     8   8   8   8   8   8   8   8
#     4  10  23  40  61  90 124 159 196 248 305 353
#     4   9  18  34  61  90 113 148 202 252 291 346
#     4  11  23  38  58  86 122 155 192 249 309 359
#     4  11  21  37  64  89 116 155 202 250 294 358
#     4  11  25  42  64  92 127 164 204 251 303 361
#     4  11  23  40  64  91 126 164 203 250 303 362
#     4  10  21  39  62  86 116 157 204 246 295 359
#     4  10  21  40  65  91 121 162 208 251 299 358
#
# _framework density 20.130645999999999
#
# number of rings (size 3 to 8) (size 9 to 14) (size 15 to 20)
#    0.000    1.625    2.500    1.875    1.750    4.500 
#    0.000    0.625    0.000    0.000    0.000    0.000 
#    0.000    0.000    0.000    0.000    0.000    0.000 
#
# Total GULP energy -178837.544563 kJ/mol
# GULP energy per Si atom -5588.673268 kJ/mol
# Density = 2.008483 g / cm^3
# Si number density = 20.130646 Si / 1000 Ang^3
#
#
#
# Elastic Constant Matrix: (Units=GPa)
#
#
# Indices 1 2 3 4 5 6 
#
# 1 135.3468 10.8880 22.8816 -0.0001 -12.0973 0.0000
# 2 10.8880 7.5965 -5.5767 -0.0002 2.0104 -0.0003
# 3 22.8816 -5.5767 63.5910 0.0000 -13.9520 0.0000
# 4 -0.0001 -0.0002 0.0000 19.7727 0.0000 -4.8708
# 5 -12.0973 2.0104 -13.9520 0.0000 39.1320 0.0000
# 6 0.0000 -0.0003 0.0000 -4.8708 0.0000 29.0481
#
#
#
# Elastic Compliance Matrix: (Units=1/GPa)
#
#
# Indices 1 2 3 4 5 6 
#
# 1 0.009832 -0.018095 -0.004615 0.000000 0.002324 0.000000
# 2 -0.018095 0.174340 0.020187 0.000002 -0.007353 0.000002
# 3 -0.004615 0.020187 0.020196 0.000000 0.004737 0.000000
# 4 0.000000 0.000002 0.000000 0.052754 0.000000 0.008846
# 5 0.002324 -0.007353 0.004737 0.000000 0.028339 0.000000
# 6 0.000000 0.000002 0.000000 0.008846 0.000000 0.035909
#
#
# Mechanical properties :
#
#
# Convention : Reuss Voigt Hill
#
# Bulk Modulus (GPa) = 5.01701 29.21335 17.11518
# Shear Modulus (GPa) = 12.72730 29.48000 21.10365
#
# Velocity S-wave (km/s) = 2.51716 3.83094 3.24131
# Velocity P-wave (km/s) = 3.30843 5.84051 4.74644
#
# Compressibility (1/GPa) = 0.19932191
#
# Stress axis : x y z
#
# Youngs Moduli (GPa) = 101.70958 5.73591 49.51585
#
# Poissons Ratio (x) = 0.10379 0.22850
# Poissons Ratio (y) = 1.84041 -0.99956
# Poissons Ratio (z) = 0.46937 -0.11579
#
# Static dielectric constant tensor:
#      x y z
#    x 1.705610 0.000000 0.008060 
#    y 0.000000 1.694300 0.000000 
#    z 0.008060 0.000000 1.689960 
# 
# From -- ./inp_files/378399.got.cif
#   From: 2010.05.17/outbox.cif.g08.bks.cpg/sg12_190_cif.got.tgz:378399.got - 2010.06.03 13:09:07.
