data_PCOD9210231
_publ_section_title
;
Structure prediction by ZEFSAII (Michael W. Deem and Ramdas Pophale) SiO2 
 PCOD9210231
Probable space group: C 2/M
;
_chemical_formula_sum "Si O2"
_cell_formula_units_Z 56
_cell_length_a 15.528149
_cell_length_b 7.756043
_cell_length_c 18.411940
_cell_angle_alpha 90.000000
_cell_angle_beta 84.275569
_cell_angle_gamma 90.000000
_cell_volume 2206.420380
_symmetry_space_group_name_H-M "C 2/M"
_symmetry_group_IT_number 12
_symmetry_cell_setting 'monoclinic'
loop_
_space_group_symop_operation_xyz
x,y,z
-x,y,-z
-x,-y,-z
x,-y,z
1/2+x,1/2+y,z
1/2-x,1/2+y,-z
1/2-x,1/2-y,-z
1/2+x,1/2-y,z
loop_
_atom_site_type_symbol
_atom_site_label
_atom_site_fract_x
_atom_site_fract_y
_atom_site_fract_z
Si Si1 0.394523 0.198224 0.750418
Si Si2 0.425890 0.801228 0.180781
Si Si3 0.380497 0.198655 0.033872
Si Si4 0.986190 0.198031 0.601008
Si Si5 0.192453 0.288009 0.103609
Si Si6 0.814100 0.798937 0.559888
Si Si7 0.157777 0.798538 0.664011
O O1 0.477982 0.193641 0.795927
O O2 0.427527 0.302177 0.679037
O O3 0.323264 0.264626 0.812113
O O4 0.375255 0.000000 0.729251
O O5 0.425455 0.720568 0.100596
O O6 0.368343 0.721907 0.249897
O O7 0.396990 0.000000 0.175918
O O8 0.281440 0.210469 0.068427
O O9 0.408429 0.000000 0.025144
O O10 0.377258 0.266637 0.951935
O O11 0.912467 0.277441 0.553531
O O12 0.077797 0.276172 0.621251
O O13 0.004856 0.000000 0.579186
O O14 0.195833 0.500000 0.102591
O O15 0.750000 0.750000 0.500000
O O16 0.752009 0.769221 0.634673
O O17 0.829796 0.000000 0.552002
O O18 0.160846 0.000000 0.647354
#
# Coordination Sequence:
#
# PCOD9210231 Si02
#       7
#     8   8   8   8   8   8   8
#     4   9  18  32  52  77 104 135 180 231 275 321
#     4   9  18  33  52  76 104 139 181 226 276 329
#     4   9  18  31  47  68 100 140 179 221 274 329
#     4   9  21  40  60  83 116 153 187 225 277 336
#     4   9  18  31  46  70 101 136 179 227 274 321
#     4  11  24  42  63  90 119 150 187 225 271 333
#     4  10  21  39  61  86 116 151 188 231 278 328
#
# _framework density 25.380476000000002
#
# number of rings (size 3 to 8) (size 9 to 14) (size 15 to 20)
#    0.000    2.571    0.000    0.857    2.000    4.000 
#    0.000    5.714    0.000    0.000    0.000    8.000 
#    0.000    0.000    0.000    0.000    0.000    0.000 
#
# Total GULP energy -156205.086231 kJ/mol
# GULP energy per Si atom -5578.753080 kJ/mol
# Density = 2.532271 g / cm^3
# Si number density = 25.380476 Si / 1000 Ang^3
#
#
#
# Elastic Constant Matrix: (Units=GPa)
#
#
# Indices 1 2 3 4 5 6 
#
# 1 139.4535 6.0311 9.4763 0.0000 9.9135 0.0000
# 2 6.0311 49.1807 2.2450 0.0000 -1.2965 0.0000
# 3 9.4763 2.2450 53.3938 0.0000 3.0464 0.0000
# 4 0.0000 0.0000 0.0000 13.0992 0.0000 6.3845
# 5 9.9135 -1.2965 3.0464 0.0000 52.0669 0.0000
# 6 0.0000 0.0000 0.0000 6.3845 0.0000 7.5873
#
#
#
# Elastic Compliance Matrix: (Units=1/GPa)
#
#
# Indices 1 2 3 4 5 6 
#
# 1 0.007387 -0.000887 -0.001196 0.000000 -0.001359 0.000000
# 2 -0.000887 0.020495 -0.000746 0.000000 0.000723 0.000000
# 3 -0.001196 -0.000746 0.019024 0.000000 -0.000904 0.000000
# 4 0.000000 0.000000 0.000000 0.129420 0.000000 -0.108904
# 5 -0.001359 0.000723 -0.000904 0.000000 0.019536 0.000000
# 6 0.000000 0.000000 0.000000 -0.108904 0.000000 0.223440
#
#
# Mechanical properties :
#
#
# Convention : Reuss Voigt Hill
#
# Bulk Modulus (GPa) = 24.24337 30.83697 27.54017
# Shear Modulus (GPa) = 11.39706 29.50238 20.44972
#
# Velocity S-wave (km/s) = 2.12137 3.41310 2.84161
# Velocity P-wave (km/s) = 3.94627 5.26390 4.65197
#
# Compressibility (1/GPa) = 0.04124839
#
# Stress axis : x y z
#
# Youngs Moduli (GPa) = 135.37142 48.79228 52.56519
#
# Poissons Ratio (x) = 0.04328 0.06288
# Poissons Ratio (y) = 0.12009 0.03919
# Poissons Ratio (z) = 0.16194 0.03638
#
# Static dielectric constant tensor:
#      x y z
#    x 2.076510 0.000000 0.056790 
#    y 0.000000 1.955530 0.000000 
#    z 0.056790 0.000000 2.134630 
# 
# From -- ./inp_files/308930.got.cif
#   From: 2010.05.17/outbox.cif.g08.bks.cpg/sg12_155_cif.got.tgz:308930.got - 2010.06.03 13:09:07.
