data_PCOD9210062
_publ_section_title
;
Structure prediction by ZEFSAII (Michael W. Deem and Ramdas Pophale) SiO2 
 PCOD9210062
Probable space group: C 2/M
;
_chemical_formula_sum "Si O2"
_cell_formula_units_Z 56
_cell_length_a 19.819223
_cell_length_b 17.919903
_cell_length_c 8.852189
_cell_angle_alpha 90.000000
_cell_angle_beta 58.827037
_cell_angle_gamma 90.000000
_cell_volume 2689.974139
_symmetry_space_group_name_H-M "C 2/M"
_symmetry_group_IT_number 12
_symmetry_cell_setting 'monoclinic'
loop_
_space_group_symop_operation_xyz
x,y,z
-x,y,-z
-x,-y,-z
x,-y,z
1/2+x,1/2+y,z
1/2-x,1/2+y,-z
1/2-x,1/2-y,-z
1/2+x,1/2-y,z
loop_
_atom_site_type_symbol
_atom_site_label
_atom_site_fract_x
_atom_site_fract_y
_atom_site_fract_z
Si Si1 0.941768 0.778502 0.213621
Si Si2 0.632931 0.916608 0.015988
Si Si3 0.174123 0.085481 0.706721
Si Si4 0.698180 0.157711 0.640454
Si Si5 0.043343 0.693199 0.314915
Si Si6 0.280334 0.367873 0.029841
Si Si7 0.195151 0.228999 0.256266
O O1 0.893722 0.856328 0.264823
O O2 0.876803 0.711672 0.293035
O O3 0.994952 0.761675 0.298960
O O4 0.000000 0.775429 0.000000
O O5 0.568151 0.857768 0.145890
O O6 0.700873 0.907721 0.065336
O O7 0.602322 0.000000 0.047463
O O8 0.670764 0.895018 0.811377
O O9 0.260196 0.113690 0.544876
O O10 0.177457 0.089676 0.885432
O O11 0.161373 0.000000 0.672800
O O12 0.771417 0.205108 0.623066
O O13 0.118744 0.723456 0.316469
O O14 0.000000 0.650119 0.500000
O O15 0.264006 0.284727 0.116987
O O16 0.319385 0.345010 0.826635
#
# Coordination Sequence:
#
# PCOD9210062 Si02
#       7
#     8   8   8   8   8   8   8
#     4  12  24  43  65  94 128 169 212 262 318 382
#     4  10  21  39  59  87 128 163 202 256 319 380
#     4  12  25  39  64  99 131 164 210 273 324 365
#     4  11  22  41  67  91 123 169 221 259 307 379
#     4  11  23  37  60  91 125 167 215 256 314 378
#     4   9  18  34  61  89 117 154 208 259 307 359
#     4   9  18  38  63  88 114 166 220 259 289 374
#
# _framework density 20.818044
#
# number of rings (size 3 to 8) (size 9 to 14) (size 15 to 20)
#    0.000    1.429    2.857    3.857    4.000    0.571 
#    0.000    2.143    0.000    4.714    0.000    0.000 
#    0.000    0.000    0.000    0.000    0.000    0.000 
#
# Total GULP energy -156043.676083 kJ/mol
# GULP energy per Si atom -5572.988432 kJ/mol
# Density = 2.077066 g / cm^3
# Si number density = 20.818044 Si / 1000 Ang^3
#
#
#
# Elastic Constant Matrix: (Units=GPa)
#
#
# Indices 1 2 3 4 5 6 
#
# 1 51.1636 13.2571 -4.8593 0.0000 -6.2727 0.0000
# 2 13.2571 94.3062 11.3116 0.0000 -15.7474 0.0000
# 3 -4.8593 11.3116 82.0083 0.0000 -16.3819 0.0000
# 4 0.0000 0.0000 0.0000 17.1249 0.0000 1.3051
# 5 -6.2727 -15.7474 -16.3819 0.0000 25.1079 0.0000
# 6 0.0000 0.0000 0.0000 1.3051 0.0000 19.2082
#
#
#
# Elastic Compliance Matrix: (Units=1/GPa)
#
#
# Indices 1 2 3 4 5 6 
#
# 1 0.021091 -0.002362 0.002682 0.000000 0.005537 0.000000
# 2 -0.002362 0.012111 -0.000473 0.000000 0.006697 0.000000
# 3 0.002682 -0.000473 0.014365 0.000000 0.009746 0.000000
# 4 0.000000 0.000000 0.000000 0.058698 0.000000 -0.003988
# 5 0.005537 0.006697 0.009746 0.000000 0.051771 0.000000
# 6 0.000000 0.000000 0.000000 -0.003988 0.000000 0.052332
#
#
# Mechanical properties :
#
#
# Convention : Reuss Voigt Hill
#
# Bulk Modulus (GPa) = 21.15921 29.65522 25.40722
# Shear Modulus (GPa) = 22.08220 26.13946 24.11083
#
# Velocity S-wave (km/s) = 3.26041 3.54731 3.40688
# Velocity P-wave (km/s) = 4.93555 5.57259 5.26372
#
# Compressibility (1/GPa) = 0.04726074
#
# Stress axis : x y z
#
# Youngs Moduli (GPa) = 47.41429 82.57111 69.61450
#
# Poissons Ratio (x) = 0.19502 -0.18668
# Poissons Ratio (y) = 0.11198 0.03290
# Poissons Ratio (z) = -0.12715 0.03902
#
# Static dielectric constant tensor:
#      x y z
#    x 1.759900 0.000000 -0.006320 
#    y 0.000000 1.765350 0.000000 
#    z -0.006320 0.000000 1.862010 
# 
# From -- ./inp_files/87843.got.cif
#   From: 2010.05.17/outbox.cif.g08.bks.cpg/sg12_44_cif.got.tgz:87843.got - 2010.06.03 13:09:07.
