data_PCOD9210809
_publ_section_title
;
Structure prediction by ZEFSAII (Michael W. Deem and Ramdas Pophale) SiO2 
 PCOD9210809
Probable space group: C 2/M
;
_chemical_formula_sum "Si O2"
_cell_formula_units_Z 48
_cell_length_a 21.879893
_cell_length_b 14.161431
_cell_length_c 10.664476
_cell_angle_alpha 90.000000
_cell_angle_beta 134.503997
_cell_angle_gamma 90.000000
_cell_volume 2356.699094
_symmetry_space_group_name_H-M "C 2/M"
_symmetry_group_IT_number 12
_symmetry_cell_setting 'monoclinic'
loop_
_space_group_symop_operation_xyz
x,y,z
-x,y,-z
-x,-y,-z
x,-y,z
1/2+x,1/2+y,z
1/2-x,1/2+y,-z
1/2-x,1/2-y,-z
1/2+x,1/2-y,z
loop_
_atom_site_type_symbol
_atom_site_label
_atom_site_fract_x
_atom_site_fract_y
_atom_site_fract_z
Si Si1 0.576141 0.104242 0.939001
Si Si2 0.321086 0.254572 0.493233
Si Si3 0.434238 0.386855 0.292095
Si Si4 0.730535 0.389850 0.802893
Si Si5 0.503417 0.298161 0.874616
Si Si6 0.936196 0.392725 0.518725
O O1 0.555394 0.201107 0.980057
O O2 0.501525 0.101247 0.729324
O O3 0.577170 0.000000 0.005313
O O4 0.670498 0.116308 0.016575
O O5 0.250000 0.250000 0.500000
O O6 0.287062 0.332363 0.347891
O O7 0.407455 0.281369 0.689901
O O8 0.355349 0.167950 0.452775
O O9 0.500000 0.360766 0.500000
O O10 0.439587 0.500000 0.288611
O O11 0.339089 0.357900 0.196572
O O12 0.454226 0.343348 0.186673
O O13 0.712038 0.500000 0.751352
O O14 0.500000 0.354153 0.000000
O O15 0.910037 0.500000 0.445577
O O16 0.000000 0.355820 0.500000
#
# Coordination Sequence:
#
# PCOD9210809 Si02
#       6
#     8   8   8   8   8   8
#     4   9  20  38  61  89 120 159 206 256 308 368
#     4  11  23  37  60  91 126 162 207 257 318 374
#     4  10  21  40  64  87 117 167 214 248 300 378
#     4  10  21  39  64  90 118 159 215 261 299 370
#     4  11  23  38  59  90 128 162 202 258 317 370
#     4   9  20  40  64  89 124 167 211 260 321 381
#
# _framework density 20.367470999999998
#
# number of rings (size 3 to 8) (size 9 to 14) (size 15 to 20)
#    0.000    2.000    1.667    1.000    4.667    2.000 
#    3.000    3.333    0.000    0.000    0.000    0.000 
#    0.000    0.000    0.000    0.000    0.000    0.000 
#
# Total GULP energy -133707.958379 kJ/mol
# GULP energy per Si atom -5571.164932 kJ/mol
# Density = 2.032111 g / cm^3
# Si number density = 20.367471 Si / 1000 Ang^3
#
#
#
# Elastic Constant Matrix: (Units=GPa)
#
#
# Indices 1 2 3 4 5 6 
#
# 1 201.1346 54.9052 19.9850 0.0000 9.8411 0.0000
# 2 54.9052 58.7491 12.6625 0.0000 4.0683 0.0000
# 3 19.9850 12.6625 25.0550 0.0000 12.3185 0.0000
# 4 0.0000 0.0000 0.0000 11.2060 0.0000 47.0473
# 5 9.8411 4.0683 12.3185 0.0000 43.3491 0.0000
# 6 0.0000 0.0000 0.0000 47.0473 0.0000 158.9862
#
#
#
# Elastic Compliance Matrix: (Units=1/GPa)
#
#
# Indices 1 2 3 4 5 6 
#
# 1 0.006814 -0.005846 -0.002313 0.000000 -0.000341 0.000000
# 2 -0.005846 0.024164 -0.008237 0.000000 0.001400 0.000000
# 3 -0.002313 -0.008237 0.052636 0.000000 -0.013659 0.000000
# 4 0.000000 0.000000 0.000000 -0.368157 0.000000 0.108945
# 5 -0.000341 0.001400 -0.013659 0.000000 0.026896 0.000000
# 6 0.000000 0.000000 0.000000 0.108945 0.000000 -0.025949
#
#
# Mechanical properties :
#
#
# Convention : Reuss Voigt Hill
#
# Bulk Modulus (GPa) = 19.67700 51.11603 35.39651
# Shear Modulus (GPa) = -21.38004 55.86731 17.24363
#
# Velocity S-wave (km/s) = -3.24345 5.24302 2.91284
# Velocity P-wave (km/s) = 2.08438 7.86153 5.35999
#
# Compressibility (1/GPa) = 0.05082076
#
# Stress axis : x y z
#
# Youngs Moduli (GPa) = 146.75268 41.38443 18.99838
#
# Poissons Ratio (x) = 0.24194 0.04394
# Poissons Ratio (y) = 0.85794 0.15650
# Poissons Ratio (z) = 0.33945 0.34090
#
# Static dielectric constant tensor:
#      x y z
#    x 1.804100 0.000000 0.004950 
#    y 0.000000 1.806890 0.000000 
#    z 0.004950 0.000000 1.686190 
# 
# From -- ./inp_files/167634.got.cif
#   From: 2010.05.17/outbox.cif.g08.bks.cpg/sg12_84_cif.got.tgz:167634.got - 2010.06.03 13:09:07.
