data_PCOD9210731
_publ_section_title
;
Structure prediction by ZEFSAII (Michael W. Deem and Ramdas Pophale) SiO2 
 PCOD9210731
Probable space group: C 2/M
;
_chemical_formula_sum "Si O2"
_cell_formula_units_Z 56
_cell_length_a 13.570277
_cell_length_b 15.152582
_cell_length_c 16.971681
_cell_angle_alpha 90.000000
_cell_angle_beta 52.063903
_cell_angle_gamma 90.000000
_cell_volume 2752.392473
_symmetry_space_group_name_H-M "C 2/M"
_symmetry_group_IT_number 12
_symmetry_cell_setting 'monoclinic'
loop_
_space_group_symop_operation_xyz
x,y,z
-x,y,-z
-x,-y,-z
x,-y,z
1/2+x,1/2+y,z
1/2-x,1/2+y,-z
1/2-x,1/2-y,-z
1/2+x,1/2-y,z
loop_
_atom_site_type_symbol
_atom_site_label
_atom_site_fract_x
_atom_site_fract_y
_atom_site_fract_z
Si Si1 0.874104 0.165852 0.260689
Si Si2 0.126135 0.900847 0.906137
Si Si3 0.684904 0.896297 0.916747
Si Si4 0.059852 0.102829 0.292979
Si Si5 0.092593 0.270421 0.381778
Si Si6 0.399235 0.101463 0.764040
Si Si7 0.500632 0.837872 0.869137
O O1 0.878052 0.097688 0.186281
O O2 0.733505 0.202572 0.336460
O O3 0.931735 0.127045 0.311550
O O4 0.959925 0.244588 0.185480
O O5 0.261831 0.861153 0.856473
O O6 0.128160 0.000000 0.939370
O O7 0.000000 0.856434 0.000000
O O8 0.829383 0.883543 0.825593
O O9 0.607198 0.871636 0.876413
O O10 0.663974 0.000000 0.945010
O O11 0.625208 0.841560 0.017175
O O12 0.085708 0.171781 0.349876
O O13 0.062768 0.000000 0.315063
O O14 0.055648 0.336419 0.328470
O O15 0.000000 0.279750 0.500000
O O16 0.482732 0.103611 0.800384
O O17 0.383383 0.000000 0.745353
#
# Coordination Sequence:
#
# PCOD9210731 Si02
#       7
#     8   8   8   8   8   8   8
#     4  11  23  39  63  92 126 165 213 272 322 379
#     4   9  20  35  54  84 124 166 204 249 309 382
#     4  10  22  37  59  94 135 177 213 259 315 385
#     4  11  24  44  67  96 133 175 217 265 326 392
#     4  11  25  47  70  92 125 164 221 282 341 385
#     4  10  21  39  63  93 126 164 212 265 326 391
#     4  11  20  35  62  92 131 172 212 257 310 382
#
# _framework density 20.345935999999998
#
# number of rings (size 3 to 8) (size 9 to 14) (size 15 to 20)
#    0.000    1.571    2.857    2.143    4.000    2.286 
#    0.000    0.000    0.000    0.000    0.000    0.000 
#    0.000    0.000    0.000    0.000    0.000    0.000 
#
# Total GULP energy -156342.396074 kJ/mol
# GULP energy per Si atom -5583.657003 kJ/mol
# Density = 2.029963 g / cm^3
# Si number density = 20.345936 Si / 1000 Ang^3
#
#
#
# Elastic Constant Matrix: (Units=GPa)
#
#
# Indices 1 2 3 4 5 6 
#
# 1 77.3596 28.5727 38.5232 0.0000 2.7760 0.0000
# 2 28.5727 105.6221 55.8099 0.0000 -2.2364 0.0000
# 3 38.5232 55.8099 122.2573 0.0000 0.5371 0.0000
# 4 0.0000 0.0000 0.0000 10.3886 0.0000 -3.5058
# 5 2.7760 -2.2364 0.5371 0.0000 9.1353 0.0000
# 6 0.0000 0.0000 0.0000 -3.5058 0.0000 19.4484
#
#
#
# Elastic Compliance Matrix: (Units=1/GPa)
#
#
# Indices 1 2 3 4 5 6 
#
# 1 0.015935 -0.002345 -0.003928 0.000000 -0.005185 0.000000
# 2 -0.002345 0.012928 -0.005181 0.000000 0.004182 0.000000
# 3 -0.003928 -0.005181 0.011786 0.000000 -0.000768 0.000000
# 4 0.000000 0.000000 0.000000 0.102494 0.000000 0.018476
# 5 -0.005185 0.004182 -0.000768 0.000000 0.112110 0.000000
# 6 0.000000 0.000000 0.000000 0.018476 0.000000 0.054749
#
#
# Mechanical properties :
#
#
# Convention : Reuss Voigt Hill
#
# Bulk Modulus (GPa) = 56.36718 61.22785 58.79751
# Shear Modulus (GPa) = 14.75696 19.95001 17.35349
#
# Velocity S-wave (km/s) = 2.69607 3.13476 2.92365
# Velocity P-wave (km/s) = 6.12015 6.57731 6.35284
#
# Compressibility (1/GPa) = 0.01774082
#
# Stress axis : x y z
#
# Youngs Moduli (GPa) = 62.75579 77.34944 84.84887
#
# Poissons Ratio (x) = 0.18139 0.33327
# Poissons Ratio (y) = 0.14717 0.43962
# Poissons Ratio (z) = 0.24649 0.40076
#
# Static dielectric constant tensor:
#      x y z
#    x 1.757970 0.000000 -0.018060 
#    y 0.000000 1.760980 0.000000 
#    z -0.018060 0.000000 1.689090 
# 
# From -- ./inp_files/270202.got.cif
#   From: 2010.05.17/outbox.cif.g08.bks.cpg/sg12_136_cif.got.tgz:270202.got - 2010.06.03 13:09:07.
