data_PCOD9210563
_publ_section_title
;
Structure prediction by ZEFSAII (Michael W. Deem and Ramdas Pophale) SiO2 
 PCOD9210563
Probable space group: C 2/M
;
_chemical_formula_sum "Si O2"
_cell_formula_units_Z 56
_cell_length_a 30.810568
_cell_length_b 8.078991
_cell_length_c 11.826774
_cell_angle_alpha 90.000000
_cell_angle_beta 125.215282
_cell_angle_gamma 90.000000
_cell_volume 2405.140572
_symmetry_space_group_name_H-M "C 2/M"
_symmetry_group_IT_number 12
_symmetry_cell_setting 'monoclinic'
loop_
_space_group_symop_operation_xyz
x,y,z
-x,y,-z
-x,-y,-z
x,-y,z
1/2+x,1/2+y,z
1/2-x,1/2+y,-z
1/2-x,1/2-y,-z
1/2+x,1/2-y,z
loop_
_atom_site_type_symbol
_atom_site_label
_atom_site_fract_x
_atom_site_fract_y
_atom_site_fract_z
Si Si1 0.169923 0.296985 0.065610
Si Si2 0.390900 0.812941 0.800549
Si Si3 0.303015 0.312488 0.522896
Si Si4 0.403442 0.695852 0.416046
Si Si5 0.070059 0.305061 0.773913
Si Si6 0.033260 0.803836 0.266980
Si Si7 0.711953 0.689416 0.767653
O O1 0.173956 0.500000 0.077652
O O2 0.143362 0.243494 0.145341
O O3 0.229321 0.236608 0.124053
O O4 0.126214 0.248364 0.908731
O O5 0.349147 0.805127 0.634761
O O6 0.441792 0.731127 0.818293
O O7 0.405178 0.000000 0.852911
O O8 0.317456 0.500000 0.579140
O O9 0.250000 0.250000 0.500000
O O10 0.292140 0.316784 0.374453
O O11 0.394200 0.500000 0.420517
O O12 0.439832 0.720208 0.361209
O O13 0.429891 0.758188 0.571878
O O14 0.345530 0.769473 0.294087
O O15 0.072344 0.500000 0.757577
O O16 0.024429 0.270186 0.796478
O O17 0.029381 0.000000 0.274431
O O18 0.712724 0.500000 0.814249
#
# Coordination Sequence:
#
# PCOD9210563 Si02
#       7
#     8   8   8   8   8   8   8
#     4   9  20  38  59  85 121 162 194 229 291 359
#     4  11  21  36  61  90 120 154 195 243 295 353
#     4  11  19  32  55  87 122 158 194 239 296 351
#     4  10  21  39  63  87 114 152 194 242 302 355
#     4  11  24  41  60  84 116 156 203 248 287 343
#     4  11  23  41  63  88 117 152 195 246 304 356
#     4   9  17  34  59  85 116 155 191 227 287 357
#
# _framework density 23.283463999999999
#
# number of rings (size 3 to 8) (size 9 to 14) (size 15 to 20)
#    0.000    1.714    2.857    2.143    0.000    4.000 
#    0.000    5.714    0.000    0.000    0.000    0.000 
#    0.000    0.000    0.000    0.000    0.000    0.000 
#
# Total GULP energy -156257.322060 kJ/mol
# GULP energy per Si atom -5580.618645 kJ/mol
# Density = 2.323047 g / cm^3
# Si number density = 23.283464 Si / 1000 Ang^3
#
#
#
# Elastic Constant Matrix: (Units=GPa)
#
#
# Indices 1 2 3 4 5 6 
#
# 1 47.8483 -0.0707 0.7459 0.0000 15.2941 0.0000
# 2 -0.0707 27.0265 5.7282 0.0000 1.7139 0.0000
# 3 0.7459 5.7282 53.4754 0.0000 21.5129 0.0000
# 4 0.0000 0.0000 0.0000 14.9377 0.0000 -0.2559
# 5 15.2941 1.7139 21.5129 0.0000 27.1253 0.0000
# 6 0.0000 0.0000 0.0000 -0.2559 0.0000 23.4462
#
#
#
# Elastic Compliance Matrix: (Units=1/GPa)
#
#
# Indices 1 2 3 4 5 6 
#
# 1 0.028041 -0.000349 0.008808 0.000000 -0.022774 0.000000
# 2 -0.000349 0.037892 -0.004655 0.000000 0.001495 0.000000
# 3 0.008808 -0.004655 0.030775 0.000000 -0.029079 0.000000
# 4 0.000000 0.000000 0.000000 0.066957 0.000000 0.000731
# 5 -0.022774 0.001495 -0.029079 0.000000 0.072675 0.000000
# 6 0.000000 0.000000 0.000000 0.000731 0.000000 0.042659
#
#
# Mechanical properties :
#
#
# Convention : Reuss Voigt Hill
#
# Bulk Modulus (GPa) = 9.58642 15.68411 12.63526
# Shear Modulus (GPa) = 16.33120 21.23163 18.78142
#
# Velocity S-wave (km/s) = 2.65128 3.02300 2.84323
# Velocity P-wave (km/s) = 3.67405 4.35150 4.02704
#
# Compressibility (1/GPa) = 0.10431424
#
# Stress axis : x y z
#
# Youngs Moduli (GPa) = 35.66205 26.39104 32.49442
#
# Poissons Ratio (x) = 0.00922 -0.28622
# Poissons Ratio (y) = 0.01245 0.15128
# Poissons Ratio (z) = -0.31412 0.12286
#
# Static dielectric constant tensor:
#      x y z
#    x 1.923420 0.000000 0.030040 
#    y 0.000000 1.847750 0.000000 
#    z 0.030040 0.000000 1.869140 
# 
# From -- ./inp_files/181068.got.cif
#   From: 2010.05.17/outbox.cif.g08.bks.cpg/sg12_91_cif.got.tgz:181068.got - 2010.06.03 13:09:07.
