data_PCOD9210785
_publ_section_title
;
Structure prediction by ZEFSAII (Michael W. Deem and Ramdas Pophale) SiO2 
 PCOD9210785
Probable space group: C 2/M
;
_chemical_formula_sum "Si O2"
_cell_formula_units_Z 44
_cell_length_a 10.314790
_cell_length_b 22.636646
_cell_length_c 9.671489
_cell_angle_alpha 90.000000
_cell_angle_beta 61.474299
_cell_angle_gamma 90.000000
_cell_volume 1984.076838
_symmetry_space_group_name_H-M "C 2/M"
_symmetry_group_IT_number 12
_symmetry_cell_setting 'monoclinic'
loop_
_space_group_symop_operation_xyz
x,y,z
-x,y,-z
-x,-y,-z
x,-y,z
1/2+x,1/2+y,z
1/2-x,1/2+y,-z
1/2-x,1/2-y,-z
1/2+x,1/2-y,z
loop_
_atom_site_type_symbol
_atom_site_label
_atom_site_fract_x
_atom_site_fract_y
_atom_site_fract_z
Si Si1 0.418256 0.000000 0.789372
Si Si2 0.225476 0.000000 0.376074
Si Si3 0.000000 0.096859 0.000000
Si Si4 0.274665 0.626739 0.715438
Si Si5 0.000000 0.216014 0.500000
Si Si6 0.648674 0.500000 0.731242
Si Si7 0.951343 0.670214 0.381468
Si Si8 0.687513 0.127450 0.056797
O O1 0.595540 0.000000 0.694368
O O2 0.318161 0.000000 0.701726
O O3 0.366837 0.940137 0.891987
O O4 0.182498 0.941562 0.313317
O O5 0.153492 0.000000 0.564226
O O6 0.065658 0.055602 0.843981
O O7 0.858771 0.131323 0.014137
O O8 0.405641 0.673051 0.642588
O O9 0.182432 0.638396 0.623510
O O10 0.178898 0.639535 0.899145
O O11 0.084013 0.263094 0.554431
O O12 0.000000 0.639504 0.500000
O O13 0.087283 0.667246 0.206524
#
# Coordination Sequence:
#
# PCOD9210785 Si02
#       8
#     4   4   4   8   4   4   8   8
#     4  10  21  39  64 110 142 182 231 282 351 431
#     4  12  25  35  75 106 147 182 224 288 367 426
#     4   9  22  40  60 100 146 188 228 275 350 420
#     4  12  26  45  71 110 142 182 231 295 360 417
#     4  10  28  49  70  97 144 188 246 294 328 430
#     4   9  21  37  60  95 149 192 224 270 339 439
#     4  10  25  46  73  98 134 186 243 292 335 413
#     4  11  23  42  72 101 147 182 234 291 355 418
#
# _framework density 22.176559999999998
#
# number of rings (size 3 to 8) (size 9 to 14) (size 15 to 20)
#    0.545    0.909    1.818    2.455    7.636    1.818 
#    0.000    0.000    0.000    0.000    0.000    0.000 
#    0.000    0.000    0.000    0.000    0.000    0.000 
#
# Total GULP energy -122958.266396 kJ/mol
# GULP energy per Si atom -5589.012109 kJ/mol
# Density = 2.212609 g / cm^3
# Si number density = 22.176560 Si / 1000 Ang^3
#
#
#
# Elastic Constant Matrix: (Units=GPa)
#
#
# Indices 1 2 3 4 5 6 
#
# 1 47.0649 7.4886 -12.4029 0.0000 -4.6557 0.0000
# 2 7.4886 87.4097 12.3546 0.0000 -6.3609 0.0000
# 3 -12.4029 12.3546 119.2281 0.0000 7.4417 0.0000
# 4 0.0000 0.0000 0.0000 440.8199 0.0000 236.9496
# 5 -4.6557 -6.3609 7.4417 0.0000 32.5683 0.0000
# 6 0.0000 0.0000 0.0000 236.9496 0.0000 135.7390
#
#
#
# Elastic Compliance Matrix: (Units=1/GPa)
#
#
# Indices 1 2 3 4 5 6 
#
# 1 0.022439 -0.002100 0.002412 0.000000 0.002247 0.000000
# 2 -0.002100 0.012025 -0.001615 0.000000 0.002417 0.000000
# 3 0.002412 -0.001615 0.008931 0.000000 -0.002011 0.000000
# 4 0.000000 0.000000 0.000000 0.036772 0.000000 -0.064190
# 5 0.002247 0.002417 -0.002011 0.000000 0.031958 0.000000
# 6 0.000000 0.000000 0.000000 -0.064190 0.000000 0.119419
#
#
# Mechanical properties :
#
#
# Convention : Reuss Voigt Hill
#
# Bulk Modulus (GPa) = 24.51718 29.84260 27.17989
# Shear Modulus (GPa) = 20.18189 138.24293 79.21241
#
# Velocity S-wave (km/s) = 3.01998 7.90397 5.98302
# Velocity P-wave (km/s) = 4.82077 9.83784 7.74670
#
# Compressibility (1/GPa) = 0.04078772
#
# Stress axis : x y z
#
# Youngs Moduli (GPa) = 44.56503 83.16347 111.96849
#
# Poissons Ratio (x) = 0.17463 -0.27003
# Poissons Ratio (y) = 0.09358 0.18086
# Poissons Ratio (z) = -0.10747 0.13434
#
# Static dielectric constant tensor:
#      x y z
#    x 1.860590 0.000000 -0.004130 
#    y 0.000000 1.792400 0.000000 
#    z -0.004130 0.000000 1.786320 
# 
# From -- ./inp_files/51279.got.cif
#   From: 2010.05.17/outbox.cif.g08.bks.cpg/sg12_26_cif.got.tgz:51279.got - 2010.06.03 13:09:07.
