data_PCOD9210763
_publ_section_title
;
Structure prediction by ZEFSAII (Michael W. Deem and Ramdas Pophale) SiO2 
 PCOD9210763
Probable space group: C 2/M
;
_chemical_formula_sum "Si O2"
_cell_formula_units_Z 32
_cell_length_a 11.331885
_cell_length_b 11.963170
_cell_length_c 15.040658
_cell_angle_alpha 90.000000
_cell_angle_beta 143.270341
_cell_angle_gamma 90.000000
_cell_volume 1219.398277
_symmetry_space_group_name_H-M "C 2/M"
_symmetry_group_IT_number 12
_symmetry_cell_setting 'monoclinic'
loop_
_space_group_symop_operation_xyz
x,y,z
-x,y,-z
-x,-y,-z
x,-y,z
1/2+x,1/2+y,z
1/2-x,1/2+y,-z
1/2-x,1/2-y,-z
1/2+x,1/2-y,z
loop_
_atom_site_type_symbol
_atom_site_label
_atom_site_fract_x
_atom_site_fract_y
_atom_site_fract_z
Si Si1 0.238572 0.845067 0.218112
Si Si2 0.665014 0.123658 0.438457
Si Si3 0.287492 0.379130 0.323272
Si Si4 0.672550 0.622775 0.972756
O O1 0.462640 0.878915 0.370783
O O2 0.242769 0.711547 0.223909
O O3 0.196476 0.883420 0.093725
O O4 0.067161 0.876449 0.183199
O O5 0.750000 0.250000 0.500000
O O6 0.635252 0.122841 0.313241
O O7 0.763788 0.000000 0.513993
O O8 0.500000 0.360897 0.500000
O O9 0.290486 0.500000 0.284182
O O10 0.744182 0.500000 0.980033
O O11 0.750000 0.750000 0.000000
#
# Coordination Sequence:
#
# PCOD9210763 Si02
#       4
#     8   8   8   8
#     4  11  22  41  69  95 128 173 220 267 326 385
#     4  11  22  39  62  92 131 172 213 259 318 381
#     4  10  21  39  63  95 136 175 215 265 321 384
#     4  11  25  46  70  96 130 170 220 277 331 389
#
# _framework density 26.242450999999999
#
# number of rings (size 3 to 8) (size 9 to 14) (size 15 to 20)
#    0.000    1.250    2.500    4.500    0.000    4.000 
#    0.000   10.000    0.000    0.000    0.000    0.000 
#    0.000    0.000    0.000    0.000    0.000    0.000 
#
# Total GULP energy -89150.167921 kJ/mol
# GULP energy per Si atom -5571.885495 kJ/mol
# Density = 2.618272 g / cm^3
# Si number density = 26.242451 Si / 1000 Ang^3
#
#
#
# Elastic Constant Matrix: (Units=GPa)
#
#
# Indices 1 2 3 4 5 6 
#
# 1 81.8983 45.8054 23.9845 0.0004 31.1652 0.0000
# 2 45.8054 334.8870 48.1089 0.0009 4.5594 0.0003
# 3 23.9845 48.1089 36.3476 0.0019 21.6527 0.0007
# 4 0.0004 0.0009 0.0019 25.3635 0.0007 -12.0261
# 5 31.1652 4.5594 21.6527 0.0007 48.4764 0.0001
# 6 0.0000 0.0003 0.0007 -12.0261 0.0001 27.0824
#
#
#
# Elastic Compliance Matrix: (Units=1/GPa)
#
#
# Indices 1 2 3 4 5 6 
#
# 1 0.018013 -0.001802 -0.003684 0.000001 -0.009765 0.000000
# 2 -0.001802 0.004103 -0.006407 0.000000 0.003634 0.000000
# 3 -0.003684 -0.006407 0.049943 -0.000004 -0.019337 -0.000003
# 4 0.000001 0.000000 -0.000004 0.049942 0.000001 0.022177
# 5 -0.009765 0.003634 -0.019337 0.000001 0.035202 0.000001
# 6 0.000000 0.000000 -0.000003 0.022177 0.000001 0.046772
#
#
# Mechanical properties :
#
#
# Convention : Reuss Voigt Hill
#
# Bulk Modulus (GPa) = 20.71556 76.54784 48.63170
# Shear Modulus (GPa) = 20.50417 42.53341 31.51879
#
# Velocity S-wave (km/s) = 2.79827 4.03027 3.46939
# Velocity P-wave (km/s) = 4.28386 7.13374 5.88395
#
# Compressibility (1/GPa) = 0.04827290
#
# Stress axis : x y z
#
# Youngs Moduli (GPa) = 55.51585 243.69443 20.02275
#
# Poissons Ratio (x) = 0.43903 0.07377
# Poissons Ratio (y) = 0.10001 0.12830
# Poissons Ratio (z) = 0.20454 1.56147
#
# Static dielectric constant tensor:
#      x y z
#    x 2.084090 0.000000 0.148550 
#    y 0.000000 2.099640 0.000000 
#    z 0.148550 0.000000 2.198270 
# 
# From -- ./inp_files/138804.got.cif
#   From: 2010.05.17/outbox.cif.g08.bks.cpg/sg12_70_cif.got.tgz:138804.got - 2010.06.03 13:09:07.
