data_PCOD9210938
_publ_section_title
;
Structure prediction by ZEFSAII (Michael W. Deem and Ramdas Pophale) SiO2 
 PCOD9210938
Probable space group: C 2/M
;
_chemical_formula_sum "Si O2"
_cell_formula_units_Z 64
_cell_length_a 11.077206
_cell_length_b 22.072712
_cell_length_c 21.941614
_cell_angle_alpha 90.000000
_cell_angle_beta 144.629066
_cell_angle_gamma 90.000000
_cell_volume 3105.515713
_symmetry_space_group_name_H-M "C 2/M"
_symmetry_group_IT_number 12
_symmetry_cell_setting 'monoclinic'
loop_
_space_group_symop_operation_xyz
x,y,z
-x,y,-z
-x,-y,-z
x,-y,z
1/2+x,1/2+y,z
1/2-x,1/2+y,-z
1/2-x,1/2-y,-z
1/2+x,1/2-y,z
loop_
_atom_site_type_symbol
_atom_site_label
_atom_site_fract_x
_atom_site_fract_y
_atom_site_fract_z
Si Si1 0.210889 0.927282 0.619028
Si Si2 0.718990 0.676760 0.117444
Si Si3 0.834203 0.567662 0.985840
Si Si4 0.417341 0.856320 0.813584
Si Si5 0.595452 0.428654 0.255807
Si Si6 0.772278 0.304261 0.379151
Si Si7 0.114644 0.754315 0.706726
Si Si8 0.348434 0.931890 0.237470
O O1 0.284491 0.898654 0.713056
O O2 0.411143 0.911522 0.660272
O O3 0.000000 0.904421 0.500000
O O4 0.189246 0.000000 0.616694
O O5 0.778108 0.705959 0.205426
O O6 0.718913 0.606272 0.135481
O O7 0.916402 0.684904 0.154698
O O8 0.500000 0.696815 0.000000
O O9 0.793713 0.500000 0.993396
O O10 0.937421 0.607300 0.080484
O O11 0.622251 0.588176 0.866426
O O12 0.000000 0.564511 0.000000
O O13 0.244898 0.815082 0.773151
O O14 0.579285 0.500000 0.273105
O O15 0.667523 0.370861 0.325124
O O16 0.756080 0.430876 0.266187
O O17 0.829120 0.267647 0.339216
O O18 0.619098 0.267177 0.362933
O O19 0.000000 0.314773 0.500000
O O20 0.353117 0.000000 0.216379
#
# Coordination Sequence:
#
# PCOD9210938 Si02
#       8
#     8   8   8   8   8   8   8   8
#     4   9  19  36  60  93 131 167 210 268 326 389
#     4  11  23  40  63  93 130 172 219 274 329 398
#     4  10  21  39  64  96 135 172 212 268 332 404
#     4  11  23  39  65  95 128 176 223 268 331 402
#     4  10  21  40  68  99 133 170 215 274 338 400
#     4  12  27  48  73  97 132 180 231 282 339 403
#     4  12  26  47  65  99 133 175 230 281 332 390
#     4   9  18  35  60  91 127 164 210 267 331 393
#
# _framework density 20.608492999999999
#
# number of rings (size 3 to 8) (size 9 to 14) (size 15 to 20)
#    0.000    1.500    2.500    2.250    0.000    4.500 
#    0.000    0.625    0.000    0.000    0.000    0.000 
#    0.000    0.000    0.000    0.000    0.000    0.000 
#
# Total GULP energy -178331.007262 kJ/mol
# GULP energy per Si atom -5572.843977 kJ/mol
# Density = 2.056159 g / cm^3
# Si number density = 20.608493 Si / 1000 Ang^3
#
#
#
# Elastic Constant Matrix: (Units=GPa)
#
#
# Indices 1 2 3 4 5 6 
#
# 1 67.8295 24.3155 19.3505 0.0017 6.7663 -0.0011
# 2 24.3155 53.2288 60.8558 0.0004 7.6715 -0.0001
# 3 19.3505 60.8558 133.3284 0.0013 8.4458 -0.0010
# 4 0.0017 0.0004 0.0013 32.1351 0.0007 -7.1960
# 5 6.7663 7.6715 8.4458 0.0007 14.5090 -0.0002
# 6 -0.0011 -0.0001 -0.0010 -7.1960 -0.0002 44.9239
#
#
#
# Elastic Compliance Matrix: (Units=1/GPa)
#
#
# Indices 1 2 3 4 5 6 
#
# 1 0.018238 -0.010438 0.002395 -0.000001 -0.004380 0.000000
# 2 -0.010438 0.046941 -0.019361 0.000001 -0.008682 0.000000
# 3 0.002395 -0.019361 0.016002 0.000000 -0.000195 0.000000
# 4 -0.000001 0.000001 0.000000 0.032276 -0.000001 0.005170
# 5 -0.004380 -0.008682 -0.000195 -0.000001 0.075669 0.000000
# 6 0.000000 0.000000 0.000000 0.005170 0.000000 0.023088
#
#
# Mechanical properties :
#
#
# Convention : Reuss Voigt Hill
#
# Bulk Modulus (GPa) = 37.91683 51.49228 44.70455
# Shear Modulus (GPa) = 18.12810 28.30462 23.21636
#
# Velocity S-wave (km/s) = 2.96909 3.71002 3.36004
# Velocity P-wave (km/s) = 5.49478 6.58730 6.06569
#
# Compressibility (1/GPa) = 0.02637351
#
# Stress axis : x y z
#
# Youngs Moduli (GPa) = 54.82910 21.30320 62.49221
#
# Poissons Ratio (x) = 0.22237 -0.14966
# Poissons Ratio (y) = 0.57232 1.20990
# Poissons Ratio (z) = -0.13131 0.41245
#
# Static dielectric constant tensor:
#      x y z
#    x 1.743270 0.000000 -0.019020 
#    y 0.000000 1.856280 0.000000 
#    z -0.019020 0.000000 1.722940 
# 
# From -- ./inp_files/337129.got.cif
#   From: 2010.05.17/outbox.cif.g08.bks.cpg/sg12_169_cif.got.tgz:337129.got - 2010.06.03 13:09:07.
