data_PCOD9210135
_publ_section_title
;
Structure prediction by ZEFSAII (Michael W. Deem and Ramdas Pophale) SiO2 
 PCOD9210135
Probable space group: C 2/M
;
_chemical_formula_sum "Si O2"
_cell_formula_units_Z 58
_cell_length_a 29.647815
_cell_length_b 16.883753
_cell_length_c 12.115218
_cell_angle_alpha 90.000000
_cell_angle_beta 27.421072
_cell_angle_gamma 90.000000
_cell_volume 2792.848159
_symmetry_space_group_name_H-M "C 2/M"
_symmetry_group_IT_number 12
_symmetry_cell_setting 'monoclinic'
loop_
_space_group_symop_operation_xyz
x,y,z
-x,y,-z
-x,-y,-z
x,-y,z
1/2+x,1/2+y,z
1/2-x,1/2+y,-z
1/2-x,1/2-y,-z
1/2+x,1/2-y,z
loop_
_atom_site_type_symbol
_atom_site_label
_atom_site_fract_x
_atom_site_fract_y
_atom_site_fract_z
Si Si1 0.441156 0.203057 0.237622
Si Si2 0.411955 0.377505 0.349577
Si Si3 0.754963 0.410522 0.120012
Si Si4 0.636410 0.178644 0.933893
Si Si5 0.500000 0.500000 0.000000
Si Si6 0.112925 0.093762 0.241290
Si Si7 0.795403 0.590497 0.430704
Si Si8 0.632886 0.634488 0.949267
O O1 0.389551 0.284129 0.385687
O O2 0.371001 0.134177 0.348814
O O3 0.500000 0.228948 0.000000
O O4 0.521772 0.172656 0.149131
O O5 0.332016 0.414264 0.601899
O O6 0.427662 0.430479 0.208501
O O7 0.518970 0.380884 0.173098
O O8 0.790236 0.500000 0.019100
O O9 0.836153 0.359761 0.008588
O O10 0.697298 0.374447 0.140078
O O11 0.696672 0.137795 0.702195
O O12 0.654908 0.272309 0.894735
O O13 0.000000 0.124786 0.500000
O O14 0.107002 0.000000 0.280052
O O15 0.148703 0.104939 0.038716
O O16 0.822655 0.500000 0.349388
O O17 0.696137 0.593977 0.716768
#
# Coordination Sequence:
#
# PCOD9210135 Si02
#       8
#     8   8   8   8   2   8   8   8
#     4   9  20  40  55  78 120 159 197 244 288 350
#     4  11  22  34  54  88 122 158 191 237 306 359
#     4  11  22  36  58  86 117 154 195 249 297 348
#     4  10  23  38  59  86 120 156 198 247 302 349
#     4  12  24  28  56  90 130 158 188 240 306 388
#     4  10  21  39  60  86 120 155 195 239 292 361
#     4  11  23  37  62  88 119 162 203 242 293 357
#     4  11  23  39  60  87 121 160 195 244 297 357
#
# _framework density 20.767330000000001
#
# number of rings (size 3 to 8) (size 9 to 14) (size 15 to 20)
#    0.000    1.517    2.759    2.069    3.862    3.586 
#    0.000    0.000    0.000    0.000    0.000    2.897 
#    0.000    0.000    0.000    0.000    0.000    0.000 
#
# Total GULP energy -161687.942071 kJ/mol
# GULP energy per Si atom -5575.446278 kJ/mol
# Density = 2.072006 g / cm^3
# Si number density = 20.767330 Si / 1000 Ang^3
#
#
#
# Elastic Constant Matrix: (Units=GPa)
#
#
# Indices 1 2 3 4 5 6 
#
# 1 167.4080 37.3549 12.6482 0.0000 -12.9012 0.0000
# 2 37.3549 66.8076 1.0149 0.0000 -12.7449 0.0000
# 3 12.6482 1.0149 19.1395 0.0000 0.0280 0.0000
# 4 0.0000 0.0000 0.0000 -14.9522 0.0000 24.7032
# 5 -12.9012 -12.7449 0.0280 0.0000 24.2094 0.0000
# 6 0.0000 0.0000 0.0000 24.7032 0.0000 -16.5286
#
#
#
# Elastic Compliance Matrix: (Units=1/GPa)
#
#
# Indices 1 2 3 4 5 6 
#
# 1 0.007284 -0.003625 -0.004624 0.000000 0.001979 0.000000
# 2 -0.003625 0.018459 0.001406 0.000000 0.007784 0.000000
# 3 -0.004624 0.001406 0.055232 0.000000 -0.001788 0.000000
# 4 0.000000 0.000000 0.000000 0.045519 0.000000 0.068032
# 5 0.001979 0.007784 -0.001788 0.000000 0.046461 0.000000
# 6 0.000000 0.000000 0.000000 0.068032 0.000000 0.041178
#
#
# Mechanical properties :
#
#
# Convention : Reuss Voigt Hill
#
# Bulk Modulus (GPa) = 14.86169 39.48790 27.17479
# Shear Modulus (GPa) = 19.97998 12.03486 16.00742
#
# Velocity S-wave (km/s) = 3.10512 2.40991 2.77934
# Velocity P-wave (km/s) = 4.47521 5.17680 4.83874
#
# Compressibility (1/GPa) = 0.06728708
#
# Stress axis : x y z
#
# Youngs Moduli (GPa) = 137.28314 54.17417 18.10544
#
# Poissons Ratio (x) = 0.19639 0.08373
# Poissons Ratio (y) = 0.49768 -0.02545
# Poissons Ratio (z) = 0.63485 -0.07614
#
# Static dielectric constant tensor:
#      x y z
#    x 1.817650 0.000000 -0.051890 
#    y 0.000000 1.716580 0.000000 
#    z -0.051890 0.000000 1.743660 
# 
# From -- ./inp_files/189917.got.cif
#   From: 2010.05.17/outbox.cif.g08.bks.cpg/sg12_95_cif.got.tgz:189917.got - 2010.06.03 13:09:07.
