data_PCOD9210350
_publ_section_title
;
Structure prediction by ZEFSAII (Michael W. Deem and Ramdas Pophale) SiO2 
 PCOD9210350
Probable space group: C 2/M
;
_chemical_formula_sum "Si O2"
_cell_formula_units_Z 48
_cell_length_a 25.562793
_cell_length_b 8.783505
_cell_length_c 20.843083
_cell_angle_alpha 90.000000
_cell_angle_beta 144.623665
_cell_angle_gamma 90.000000
_cell_volume 2709.411740
_symmetry_space_group_name_H-M "C 2/M"
_symmetry_group_IT_number 12
_symmetry_cell_setting 'monoclinic'
loop_
_space_group_symop_operation_xyz
x,y,z
-x,y,-z
-x,-y,-z
x,-y,z
1/2+x,1/2+y,z
1/2-x,1/2+y,-z
1/2-x,1/2-y,-z
1/2+x,1/2-y,z
loop_
_atom_site_type_symbol
_atom_site_label
_atom_site_fract_x
_atom_site_fract_y
_atom_site_fract_z
Si Si1 0.750001 0.318279 0.227535
Si Si2 0.939148 0.183311 0.378166
Si Si3 0.750000 0.817001 0.621342
Si Si4 0.563445 0.682890 0.382231
Si Si5 0.939147 0.683311 0.000129
Si Si6 0.063444 0.682890 0.244657
O O1 0.750001 0.500000 0.223893
O O2 0.840519 0.253858 0.286287
O O3 0.750001 0.275407 0.303145
O O4 0.659482 0.253858 0.105251
O O5 0.000000 0.231372 0.500000
O O6 0.991932 0.224548 0.366129
O O7 0.931321 0.000000 0.372695
O O8 0.660570 0.749468 0.499583
O O9 0.839432 0.749469 0.678447
O O10 0.750000 0.000000 0.615562
O O11 0.569350 0.500000 0.385075
O O12 0.537743 0.750001 0.287743
O O13 0.931319 0.500000 0.989944
O O14 0.000000 0.731372 0.000000
O O15 0.991930 0.724548 0.117733
O O16 0.069349 0.500000 0.253622
#
# Coordination Sequence:
#
# PCOD9210350 Si02
#       6
#     8   8   8   8   8   8
#     4  11  23  36  59  92 121 149 189 246 293 334
#     4  10  21  39  62  85 114 154 197 238 285 346
#     4  11  22  36  57  88 123 155 188 236 294 348
#     4  11  23  39  60  86 118 156 194 239 290 345
#     4  10  21  39  62  85 114 154 197 238 285 346
#     4  11  23  39  60  86 118 156 194 239 290 345
#
# _framework density 17.716023
#
# number of rings (size 3 to 8) (size 9 to 14) (size 15 to 20)
#    0.000    1.333    3.333    2.500    0.000    4.667 
#    0.000    0.833    0.000    0.000    0.000    0.000 
#    0.000    0.000    0.000    0.000    0.000    0.000 
#
# Total GULP energy -134167.861130 kJ/mol
# GULP energy per Si atom -5590.327547 kJ/mol
# Density = 1.767570 g / cm^3
# Si number density = 17.716023 Si / 1000 Ang^3
#
#
#
# Elastic Constant Matrix: (Units=GPa)
#
#
# Indices 1 2 3 4 5 6 
#
# 1 156.8757 53.9682 111.7352 0.0000 -9.7076 0.0000
# 2 53.9682 42.7213 49.5578 0.0000 -5.9312 0.0000
# 3 111.7352 49.5578 151.5485 0.0000 2.5207 0.0000
# 4 0.0000 0.0000 0.0000 14.2949 0.0000 -10.6091
# 5 -9.7076 -5.9312 2.5207 0.0000 35.3950 0.0000
# 6 0.0000 0.0000 0.0000 -10.6091 0.0000 22.1906
#
#
#
# Elastic Compliance Matrix: (Units=1/GPa)
#
#
# Indices 1 2 3 4 5 6 
#
# 1 0.016253 -0.009806 -0.008834 0.000000 0.003443 0.000000
# 2 -0.009806 0.045561 -0.007760 0.000000 0.005498 0.000000
# 3 -0.008834 -0.007760 0.015730 0.000000 -0.004843 0.000000
# 4 0.000000 0.000000 0.000000 0.108427 0.000000 0.051838
# 5 0.003443 0.005498 -0.004843 0.000000 0.030463 0.000000
# 6 0.000000 0.000000 0.000000 0.051838 0.000000 0.069847
#
#
# Mechanical properties :
#
#
# Convention : Reuss Voigt Hill
#
# Bulk Modulus (GPa) = 40.41526 86.85200 63.63363
# Shear Modulus (GPa) = 14.39556 23.43505 18.91530
#
# Velocity S-wave (km/s) = 2.85366 3.64100 3.27110
# Velocity P-wave (km/s) = 5.80691 8.17354 7.08968
#
# Compressibility (1/GPa) = 0.02474313
#
# Stress axis : x y z
#
# Youngs Moduli (GPa) = 61.52736 21.94873 63.57422
#
# Poissons Ratio (x) = 0.21524 0.56159
# Poissons Ratio (y) = 0.60336 0.49334
# Poissons Ratio (z) = 0.54351 0.17032
#
# Static dielectric constant tensor:
#      x y z
#    x 1.587510 0.000000 -0.019460 
#    y 0.000000 1.590530 0.000000 
#    z -0.019460 0.000000 1.573030 
# 
# From -- ./inp_files/327166.got.cif
#   From: 2010.05.17/outbox.cif.g08.bks.cpg/sg12_164_cif.got.tgz:327166.got - 2010.06.03 13:09:07.
