data_PCOD9210294
_publ_section_title
;
Structure prediction by ZEFSAII (Michael W. Deem and Ramdas Pophale) SiO2 
 PCOD9210294
Probable space group: C 2/M
;
_chemical_formula_sum "Si O2"
_cell_formula_units_Z 40
_cell_length_a 14.371479
_cell_length_b 9.881902
_cell_length_c 17.121304
_cell_angle_alpha 90.000000
_cell_angle_beta 123.447799
_cell_angle_gamma 90.000000
_cell_volume 2028.836592
_symmetry_space_group_name_H-M "C 2/M"
_symmetry_group_IT_number 12
_symmetry_cell_setting 'monoclinic'
loop_
_space_group_symop_operation_xyz
x,y,z
-x,y,-z
-x,-y,-z
x,-y,z
1/2+x,1/2+y,z
1/2-x,1/2+y,-z
1/2-x,1/2-y,-z
1/2+x,1/2-y,z
loop_
_atom_site_type_symbol
_atom_site_label
_atom_site_fract_x
_atom_site_fract_y
_atom_site_fract_z
Si Si1 0.796418 0.343581 0.758987
Si Si2 0.139977 0.856386 0.897475
Si Si3 0.035834 0.158347 0.604961
Si Si4 0.876915 0.724416 0.954807
Si Si5 0.007308 0.340802 0.271559
O O1 0.809488 0.500000 0.793609
O O2 0.669049 0.326184 0.676232
O O3 0.832673 0.248638 0.847327
O O4 0.879259 0.327808 0.725298
O O5 0.273355 0.853876 0.946808
O O6 0.086329 0.734092 0.824223
O O7 0.097449 0.000000 0.846635
O O8 0.108979 0.840908 0.974017
O O9 0.000000 0.187903 0.500000
O O10 0.983938 0.259884 0.643731
O O11 0.008306 0.000000 0.607960
O O12 0.000000 0.661870 0.000000
O O13 0.982793 0.500000 0.270589
#
# Coordination Sequence:
#
# PCOD9210294 Si02
#       5
#     8   8   8   8   8
#     4  10  21  39  61  89 123 163 202 241 298 370
#     4  11  24  40  60  89 125 162 209 251 292 352
#     4  10  22  44  69  90 117 156 201 252 308 360
#     4  11  22  39  58  90 123 166 200 246 295 359
#     4  11  23  40  63  91 124 159 202 248 301 361
#
# _framework density 19.715734000000001
#
# number of rings (size 3 to 8) (size 9 to 14) (size 15 to 20)
#    0.000    1.400    4.000    1.200    0.000    7.200 
#    0.000    2.000    0.000    0.000    0.000    0.000 
#    0.000    0.000    0.000    0.000    0.000    0.000 
#
# Total GULP energy -111549.738527 kJ/mol
# GULP energy per Si atom -5577.486926 kJ/mol
# Density = 1.967086 g / cm^3
# Si number density = 19.715734 Si / 1000 Ang^3
#
#
#
# Elastic Constant Matrix: (Units=GPa)
#
#
# Indices 1 2 3 4 5 6 
#
# 1 114.8645 42.4640 42.4973 0.0000 -20.1409 0.0000
# 2 42.4640 106.0248 53.2708 0.0000 -29.3051 0.0000
# 3 42.4973 53.2708 134.0328 0.0000 -31.1060 0.0000
# 4 0.0000 0.0000 0.0000 22.6611 0.0000 -3.9081
# 5 -20.1409 -29.3051 -31.1060 0.0000 26.5072 0.0000
# 6 0.0000 0.0000 0.0000 -3.9081 0.0000 8.2942
#
#
#
# Elastic Compliance Matrix: (Units=1/GPa)
#
#
# Indices 1 2 3 4 5 6 
#
# 1 0.010869 -0.002570 -0.001605 0.000000 0.003534 0.000000
# 2 -0.002570 0.014899 -0.002387 0.000000 0.011718 0.000000
# 3 -0.001605 -0.002387 0.011026 0.000000 0.009080 0.000000
# 4 0.000000 0.000000 0.000000 0.048031 0.000000 0.022631
# 5 0.003534 0.011718 0.009080 0.000000 0.064021 0.000000
# 6 0.000000 0.000000 0.000000 0.022631 0.000000 0.131230
#
#
# Mechanical properties :
#
#
# Convention : Reuss Voigt Hill
#
# Bulk Modulus (GPa) = 42.24705 70.15401 56.20053
# Shear Modulus (GPa) = 16.60627 25.93851 21.27239
#
# Velocity S-wave (km/s) = 2.90536 3.63109 3.28831
# Velocity P-wave (km/s) = 5.72097 7.29656 6.55626
#
# Compressibility (1/GPa) = 0.02367029
#
# Stress axis : x y z
#
# Youngs Moduli (GPa) = 92.00062 67.11693 90.69672
#
# Poissons Ratio (x) = 0.17251 0.14553
# Poissons Ratio (y) = 0.23646 0.21653
# Poissons Ratio (z) = 0.14762 0.16023
#
# Static dielectric constant tensor:
#      x y z
#    x 1.698620 0.000000 -0.009370 
#    y 0.000000 1.714600 0.000000 
#    z -0.009370 0.000000 1.684160 
# 
# From -- ./inp_files/267926.got.cif
#   From: 2010.05.17/outbox.cif.g08.bks.cpg/sg12_134_cif.got.tgz:267926.got - 2010.06.03 13:09:07.
