data_PCOD9210952
_publ_section_title
;
Structure prediction by ZEFSAII (Michael W. Deem and Ramdas Pophale) SiO2 
 PCOD9210952
Probable space group: C 2/M
;
_chemical_formula_sum "Si O2"
_cell_formula_units_Z 48
_cell_length_a 11.588803
_cell_length_b 22.510589
_cell_length_c 11.795173
_cell_angle_alpha 90.000000
_cell_angle_beta 132.516820
_cell_angle_gamma 90.000000
_cell_volume 2268.003799
_symmetry_space_group_name_H-M "C 2/M"
_symmetry_group_IT_number 12
_symmetry_cell_setting 'monoclinic'
loop_
_space_group_symop_operation_xyz
x,y,z
-x,y,-z
-x,-y,-z
x,-y,z
1/2+x,1/2+y,z
1/2-x,1/2+y,-z
1/2-x,1/2-y,-z
1/2+x,1/2-y,z
loop_
_atom_site_type_symbol
_atom_site_label
_atom_site_fract_x
_atom_site_fract_y
_atom_site_fract_z
Si Si1 0.942211 0.567290 0.183114
Si Si2 0.791678 0.931957 0.389609
Si Si3 0.060378 0.926869 0.290248
Si Si4 0.833632 0.368581 0.323616
Si Si5 0.248886 0.625830 0.124086
Si Si6 0.687899 0.256628 0.092561
O O1 0.912241 0.500000 0.123798
O O2 0.852544 0.583177 0.236861
O O3 0.122779 0.573324 0.335463
O O4 0.897276 0.612140 0.053311
O O5 0.913747 0.906829 0.560726
O O6 0.757299 0.913751 0.240110
O O7 0.834071 0.000000 0.411783
O O8 0.200168 0.896018 0.315129
O O9 0.897694 0.895631 0.148493
O O10 0.057898 0.000000 0.279029
O O11 0.775555 0.308999 0.219161
O O12 0.000000 0.359918 0.500000
O O13 0.243165 0.691838 0.168247
O O14 0.500000 0.262111 0.000000
O O15 0.750000 0.250000 0.000000
#
# Coordination Sequence:
#
# PCOD9210952 Si02
#       6
#     8   8   8   8   8   8
#     4  11  22  39  67  99 135 179 227 286 351 418
#     4  10  21  39  64  98 138 179 223 282 354 422
#     4  11  24  43  69 104 146 184 230 297 365 428
#     4  12  26  45  69 102 138 185 241 293 355 427
#     4  12  24  42  68 100 138 183 239 291 352 428
#     4  12  27  50  74 100 145 194 244 303 360 422
#
# _framework density 21.163986000000001
#
# number of rings (size 3 to 8) (size 9 to 14) (size 15 to 20)
#    0.000    0.667    3.333    5.000    0.000    4.667 
#    0.000    4.167    0.000    0.000    0.000    0.000 
#    0.000    0.000    0.000    0.000    0.000    0.000 
#
# Total GULP energy -133757.811613 kJ/mol
# GULP energy per Si atom -5573.242151 kJ/mol
# Density = 2.111582 g / cm^3
# Si number density = 21.163986 Si / 1000 Ang^3
#
#
#
# Elastic Constant Matrix: (Units=GPa)
#
#
# Indices 1 2 3 4 5 6 
#
# 1 99.0359 9.0574 27.6831 0.0000 11.6183 0.0000
# 2 9.0574 55.7904 17.8811 0.0000 27.5891 0.0000
# 3 27.6831 17.8811 71.1538 0.0000 7.3438 0.0000
# 4 0.0000 0.0000 0.0000 13.6372 0.0000 5.8921
# 5 11.6183 27.5891 7.3438 0.0000 34.8107 0.0000
# 6 0.0000 0.0000 0.0000 5.8921 0.0000 24.0957
#
#
#
# Elastic Compliance Matrix: (Units=1/GPa)
#
#
# Indices 1 2 3 4 5 6 
#
# 1 0.011714 0.001664 -0.004535 0.000000 -0.004272 0.000000
# 2 0.001664 0.031648 -0.006087 0.000000 -0.024354 0.000000
# 3 -0.004535 -0.006087 0.017065 0.000000 0.002738 0.000000
# 4 0.000000 0.000000 0.000000 0.081991 0.000000 -0.020049
# 5 -0.004272 -0.024354 0.002738 0.000000 0.048877 0.000000
# 6 0.000000 0.000000 0.000000 -0.020049 0.000000 0.046404
#
#
# Mechanical properties :
#
#
# Convention : Reuss Voigt Hill
#
# Bulk Modulus (GPa) = 23.52253 37.24702 30.38478
# Shear Modulus (GPa) = 18.53323 25.93263 22.23293
#
# Velocity S-wave (km/s) = 2.96243 3.50425 3.24467
# Velocity P-wave (km/s) = 4.77911 5.83185 5.33153
#
# Compressibility (1/GPa) = 0.04251243
#
# Stress axis : x y z
#
# Youngs Moduli (GPa) = 85.36896 31.59711 58.59778
#
# Poissons Ratio (x) = -0.05258 0.26572
# Poissons Ratio (y) = -0.14207 0.35669
# Poissons Ratio (z) = 0.38712 0.19234
#
# Static dielectric constant tensor:
#      x y z
#    x 4.431580 0.000000 -3.024960 
#    y 0.000000 1.807980 0.000000 
#    z -3.024960 0.000000 5.396720 
# 
# From -- ./inp_files/133740.got.cif
#   From: 2010.05.17/outbox.cif.g08.bks.cpg/sg12_67_cif.got.tgz:133740.got - 2010.06.03 13:09:07.
