data_PCOD9210883
_publ_section_title
;
Structure prediction by ZEFSAII (Michael W. Deem and Ramdas Pophale) SiO2 
 PCOD9210883
Probable space group: C 2/M
;
_chemical_formula_sum "Si O2"
_cell_formula_units_Z 40
_cell_length_a 5.174133
_cell_length_b 33.020805
_cell_length_c 12.206870
_cell_angle_alpha 90.000000
_cell_angle_beta 112.903541
_cell_angle_gamma 90.000000
_cell_volume 1921.167689
_symmetry_space_group_name_H-M "C 2/M"
_symmetry_group_IT_number 12
_symmetry_cell_setting 'monoclinic'
loop_
_space_group_symop_operation_xyz
x,y,z
-x,y,-z
-x,-y,-z
x,-y,z
1/2+x,1/2+y,z
1/2-x,1/2+y,-z
1/2-x,1/2-y,-z
1/2+x,1/2-y,z
loop_
_atom_site_type_symbol
_atom_site_label
_atom_site_fract_x
_atom_site_fract_y
_atom_site_fract_z
Si Si1 0.160152 0.815577 0.127821
Si Si2 0.828309 0.500000 0.583180
Si Si3 0.269893 0.911159 0.628334
Si Si4 0.172691 0.630791 0.132706
Si Si5 0.776654 0.776133 0.633536
Si Si6 0.000000 0.350376 0.500000
O O1 0.466355 0.832957 0.144407
O O2 0.142806 0.787197 0.229606
O O3 0.959743 0.852938 0.128198
O O4 0.000000 0.795583 0.000000
O O5 0.500000 0.500000 0.500000
O O6 0.883830 0.457026 0.649292
O O7 0.000000 0.500000 0.500000
O O8 0.245406 0.896099 0.748673
O O9 0.466186 0.878956 0.598582
O O10 0.000000 0.911044 0.500000
O O11 0.000000 0.612756 0.000000
O O12 0.484348 0.753891 0.608395
O O13 0.750052 0.818930 0.566253
#
# Coordination Sequence:
#
# PCOD9210883 Si02
#       6
#     8   4   8   8   8   4
#     4  10  21  40  63  86 116 162 214 253 304 367
#     4  10  22  40  59 102 129 158 197 261 304 358
#     4  11  23  39  69  94 128 162 209 252 308 376
#     4  10  21  39  64  93 123 163 210 254 300 371
#     4  12  26  40  56  86 125 155 204 264 311 358
#     4  12  24  39  64  86 116 170 206 245 320 366
#
# _framework density 20.820668999999999
#
# number of rings (size 3 to 8) (size 9 to 14) (size 15 to 20)
#    0.000    1.200    3.000    3.000    2.800    0.800 
#    0.000    0.500    0.000    0.000    0.000    7.000 
#    0.000    0.000    0.000    0.000    0.000    0.000 
#
# Total GULP energy -111628.037899 kJ/mol
# GULP energy per Si atom -5581.401895 kJ/mol
# Density = 2.077328 g / cm^3
# Si number density = 20.820669 Si / 1000 Ang^3
#
#
#
# Elastic Constant Matrix: (Units=GPa)
#
#
# Indices 1 2 3 4 5 6 
#
# 1 84.8351 20.2658 9.7302 0.0000 -8.6596 0.0000
# 2 20.2658 99.4815 29.7287 0.0000 -0.7386 0.0000
# 3 9.7302 29.7287 146.0799 0.0000 -11.5468 0.0000
# 4 0.0000 0.0000 0.0000 23.7876 0.0000 2.6262
# 5 -8.6596 -0.7386 -11.5468 0.0000 28.6071 0.0000
# 6 0.0000 0.0000 0.0000 2.6262 0.0000 27.2691
#
#
#
# Elastic Compliance Matrix: (Units=1/GPa)
#
#
# Indices 1 2 3 4 5 6 
#
# 1 0.012792 -0.002569 -0.000029 0.000000 0.003794 0.000000
# 2 -0.002569 0.011230 -0.002224 0.000000 -0.001385 0.000000
# 3 -0.000029 -0.002224 0.007535 0.000000 0.002975 0.000000
# 4 0.000000 0.000000 0.000000 0.042491 0.000000 -0.004092
# 5 0.003794 -0.001385 0.002975 0.000000 0.037270 0.000000
# 6 0.000000 0.000000 0.000000 -0.004092 0.000000 0.037066
#
#
# Mechanical properties :
#
#
# Convention : Reuss Voigt Hill
#
# Bulk Modulus (GPa) = 45.63550 49.98289 47.80919
# Shear Modulus (GPa) = 30.24232 33.97755 32.10993
#
# Velocity S-wave (km/s) = 3.81532 4.04408 3.93136
# Velocity P-wave (km/s) = 6.43233 6.77234 6.60452
#
# Compressibility (1/GPa) = 0.02191277
#
# Stress axis : x y z
#
# Youngs Moduli (GPa) = 78.17447 89.04959 132.70965
#
# Poissons Ratio (x) = 0.22876 0.00390
# Poissons Ratio (y) = 0.20083 0.29511
# Poissons Ratio (z) = 0.00229 0.19802
#
# Static dielectric constant tensor:
#      x y z
#    x 1.769540 0.000000 0.067620 
#    y 0.000000 1.720340 0.000000 
#    z 0.067620 0.000000 1.816660 
# 
# From -- ./inp_files/116041.got.cif
#   From: 2010.05.17/outbox.cif.g08.bks.cpg/sg12_59_cif.got.tgz:116041.got - 2010.06.03 13:09:07.
