data_PCOD9210473
_publ_section_title
;
Structure prediction by ZEFSAII (Michael W. Deem and Ramdas Pophale) SiO2 
 PCOD9210473
Probable space group: C 2/M
;
_chemical_formula_sum "Si O2"
_cell_formula_units_Z 40
_cell_length_a 13.925521
_cell_length_b 13.567903
_cell_length_c 10.378579
_cell_angle_alpha 90.000000
_cell_angle_beta 117.948612
_cell_angle_gamma 90.000000
_cell_volume 1732.223354
_symmetry_space_group_name_H-M "C 2/M"
_symmetry_group_IT_number 12
_symmetry_cell_setting 'monoclinic'
loop_
_space_group_symop_operation_xyz
x,y,z
-x,y,-z
-x,-y,-z
x,-y,z
1/2+x,1/2+y,z
1/2-x,1/2+y,-z
1/2-x,1/2-y,-z
1/2+x,1/2-y,z
loop_
_atom_site_type_symbol
_atom_site_label
_atom_site_fract_x
_atom_site_fract_y
_atom_site_fract_z
Si Si1 0.478618 0.234853 0.799500
Si Si2 0.384969 0.703553 0.484818
Si Si3 0.794337 0.614792 0.801134
Si Si4 0.161854 0.885002 0.977871
Si Si5 0.861465 0.615474 0.287632
O O1 0.400098 0.288364 0.645987
O O2 0.402434 0.176055 0.847621
O O3 0.558478 0.315692 0.907779
O O4 0.552644 0.158984 0.762211
O O5 0.500000 0.665999 0.500000
O O6 0.288365 0.638929 0.367116
O O7 0.370115 0.813230 0.415638
O O8 0.820376 0.500000 0.821218
O O9 0.732424 0.639789 0.894480
O O10 0.130737 0.000000 0.949456
O O11 0.242381 0.873875 0.149006
O O12 0.881349 0.500000 0.325230
#
# Coordination Sequence:
#
# PCOD9210473 Si02
#       5
#     8   8   8   8   8
#     4  11  22  39  64  94 126 163 210 260 311 366
#     4  10  21  39  62  90 123 170 207 254 310 374
#     4  11  23  39  64  96 123 160 211 262 313 368
#     4  10  22  42  66  92 126 166 208 255 313 371
#     4  10  21  39  63  90 126 170 207 251 311 373
#
# _framework density 23.091709999999999
#
# number of rings (size 3 to 8) (size 9 to 14) (size 15 to 20)
#    0.000    1.600    4.000    1.800    0.000    6.400 
#    0.000    4.000    0.000    2.400    0.000    0.000 
#    0.000    0.000    0.000    0.000    0.000    0.000 
#
# Total GULP energy -112121.980824 kJ/mol
# GULP energy per Si atom -5606.099041 kJ/mol
# Density = 2.303915 g / cm^3
# Si number density = 23.091710 Si / 1000 Ang^3
#
#
#
# Elastic Constant Matrix: (Units=GPa)
#
#
# Indices 1 2 3 4 5 6 
#
# 1 115.2068 62.4348 52.0053 0.0000 15.3070 0.0000
# 2 62.4348 90.4476 29.2144 0.0000 6.2533 0.0000
# 3 52.0053 29.2144 123.6172 0.0000 19.1051 0.0000
# 4 0.0000 0.0000 0.0000 25.3689 0.0000 2.4529
# 5 15.3070 6.2533 19.1051 0.0000 27.0814 0.0000
# 6 0.0000 0.0000 0.0000 2.4529 0.0000 30.5600
#
#
#
# Elastic Compliance Matrix: (Units=1/GPa)
#
#
# Indices 1 2 3 4 5 6 
#
# 1 0.016228 -0.009653 -0.003898 0.000000 -0.004194 0.000000
# 2 -0.009653 0.017730 -0.000381 0.000000 0.001631 0.000000
# 3 -0.003898 -0.000381 0.010623 0.000000 -0.005203 0.000000
# 4 0.000000 0.000000 0.000000 0.039727 0.000000 -0.003189
# 5 -0.004194 0.001631 -0.005203 0.000000 0.042590 0.000000
# 6 0.000000 0.000000 0.000000 -0.003189 0.000000 0.032978
#
#
# Mechanical properties :
#
#
# Convention : Reuss Voigt Hill
#
# Bulk Modulus (GPa) = 59.81701 68.50896 64.16299
# Shear Modulus (GPa) = 25.86474 28.97653 27.42064
#
# Velocity S-wave (km/s) = 3.35040 3.54622 3.44970
# Velocity P-wave (km/s) = 6.39744 6.81911 6.61164
#
# Compressibility (1/GPa) = 0.01671765
#
# Stress axis : x y z
#
# Youngs Moduli (GPa) = 61.62156 56.40183 94.13119
#
# Poissons Ratio (x) = 0.54446 0.36689
# Poissons Ratio (y) = 0.59484 0.03588
# Poissons Ratio (z) = 0.24018 0.02150
#
# Static dielectric constant tensor:
#      x y z
#    x 1.857580 0.000000 -0.005300 
#    y 0.000000 1.825000 0.000000 
#    z -0.005300 0.000000 1.867460 
# 
# From -- ./inp_files/142519.got.cif
#   From: 2010.05.17/outbox.cif.g08.bks.cpg/sg12_72_cif.got.tgz:142519.got - 2010.06.03 13:09:07.
