data_PCOD9210074
_publ_section_title
;
Structure prediction by ZEFSAII (Michael W. Deem and Ramdas Pophale) SiO2 
 PCOD9210074
Probable space group: C 2/M
;
_chemical_formula_sum "Si O2"
_cell_formula_units_Z 36
_cell_length_a 14.045069
_cell_length_b 22.623924
_cell_length_c 10.777098
_cell_angle_alpha 90.000000
_cell_angle_beta 149.283461
_cell_angle_gamma 90.000000
_cell_volume 1749.189917
_symmetry_space_group_name_H-M "C 2/M"
_symmetry_group_IT_number 12
_symmetry_cell_setting 'monoclinic'
loop_
_space_group_symop_operation_xyz
x,y,z
-x,y,-z
-x,-y,-z
x,-y,z
1/2+x,1/2+y,z
1/2-x,1/2+y,-z
1/2-x,1/2-y,-z
1/2+x,1/2-y,z
loop_
_atom_site_type_symbol
_atom_site_label
_atom_site_fract_x
_atom_site_fract_y
_atom_site_fract_z
Si Si1 0.566595 0.881354 0.207830
Si Si2 0.000000 0.345825 0.500000
Si Si3 0.501632 0.643277 0.353024
Si Si4 0.457169 0.232597 0.692640
Si Si5 0.690318 0.067984 0.880791
O O1 0.788330 0.873104 0.452681
O O2 0.476327 0.815946 0.132810
O O3 0.489667 0.921680 0.232198
O O4 0.500000 0.903317 0.000000
O O5 0.945908 0.303985 0.552784
O O6 0.839665 0.389399 0.270358
O O7 0.500000 0.650572 0.500000
O O8 0.442733 0.705356 0.221666
O O9 0.362297 0.592518 0.153126
O O10 0.250000 0.250000 0.500000
O O11 0.709867 0.000000 0.868947
#
# Coordination Sequence:
#
# PCOD9210074 Si02
#       5
#     8   4   8   8   8
#     4  10  21  39  59  92 127 162 207 259 313 371
#     4  10  21  42  66  90 123 166 208 258 312 370
#     4  11  21  38  62  96 124 159 204 257 319 370
#     4   9  20  36  63  96 128 157 201 259 321 377
#     4  11  25  42  63  88 125 172 213 255 303 366
#
# _framework density 20.580956
#
# number of rings (size 3 to 8) (size 9 to 14) (size 15 to 20)
#    0.000    1.778    3.333    0.333    0.000    8.889 
#    0.000    8.889    0.000   13.333    0.000    0.000 
#    0.000    0.000    0.000    0.000    0.000    0.000 
#
# Total GULP energy -100491.322961 kJ/mol
# GULP energy per Si atom -5582.851276 kJ/mol
# Density = 2.053411 g / cm^3
# Si number density = 20.580956 Si / 1000 Ang^3
#
#
#
# Elastic Constant Matrix: (Units=GPa)
#
#
# Indices 1 2 3 4 5 6 
#
# 1 68.8741 21.0750 14.3274 0.0000 8.8747 0.0000
# 2 21.0750 112.5140 15.6912 0.0000 8.6775 0.0000
# 3 14.3274 15.6912 47.1155 0.0000 8.5973 0.0000
# 4 0.0000 0.0000 0.0000 26.5006 0.0000 -1.5075
# 5 8.8747 8.6775 8.5973 0.0000 33.0056 0.0000
# 6 0.0000 0.0000 0.0000 -1.5075 0.0000 10.6516
#
#
#
# Elastic Compliance Matrix: (Units=1/GPa)
#
#
# Indices 1 2 3 4 5 6 
#
# 1 0.016364 -0.002333 -0.003683 0.000000 -0.002827 0.000000
# 2 -0.002333 0.009748 -0.002293 0.000000 -0.001338 0.000000
# 3 -0.003683 -0.002293 0.023956 0.000000 -0.004647 0.000000
# 4 0.000000 0.000000 0.000000 0.038041 0.000000 0.005384
# 5 -0.002827 -0.001338 -0.004647 0.000000 0.032620 0.000000
# 6 0.000000 0.000000 0.000000 0.005384 0.000000 0.094645
#
#
# Mechanical properties :
#
#
# Convention : Reuss Voigt Hill
#
# Bulk Modulus (GPa) = 29.89609 36.74341 33.31975
# Shear Modulus (GPa) = 20.56416 25.85888 23.21152
#
# Velocity S-wave (km/s) = 3.16442 3.54849 3.36194
# Velocity P-wave (km/s) = 5.28290 5.88905 5.59419
#
# Compressibility (1/GPa) = 0.03344920
#
# Stress axis : x y z
#
# Youngs Moduli (GPa) = 61.11088 102.58737 41.74338
#
# Poissons Ratio (x) = 0.23938 0.15374
# Poissons Ratio (y) = 0.14260 0.09570
# Poissons Ratio (z) = 0.22508 0.23519
#
# Static dielectric constant tensor:
#      x y z
#    x 1.738850 0.000000 0.004740 
#    y 0.000000 1.745180 0.000000 
#    z 0.004740 0.000000 1.716540 
# 
# From -- ./inp_files/147437.got.cif
#   From: 2010.05.17/outbox.cif.g08.bks.cpg/sg12_74_cif.got.tgz:147437.got - 2010.06.03 13:09:07.
