data_PCOD9210265
_publ_section_title
;
Structure prediction by ZEFSAII (Michael W. Deem and Ramdas Pophale) SiO2 
 PCOD9210265
Probable space group: C 2/M
;
_chemical_formula_sum "Si O2"
_cell_formula_units_Z 54
_cell_length_a 21.205939
_cell_length_b 16.302875
_cell_length_c 9.644240
_cell_angle_alpha 90.000000
_cell_angle_beta 58.596304
_cell_angle_gamma 90.000000
_cell_volume 2845.784348
_symmetry_space_group_name_H-M "C 2/M"
_symmetry_group_IT_number 12
_symmetry_cell_setting 'monoclinic'
loop_
_space_group_symop_operation_xyz
x,y,z
-x,y,-z
-x,-y,-z
x,-y,z
1/2+x,1/2+y,z
1/2-x,1/2+y,-z
1/2-x,1/2-y,-z
1/2+x,1/2-y,z
loop_
_atom_site_type_symbol
_atom_site_label
_atom_site_fract_x
_atom_site_fract_y
_atom_site_fract_z
Si Si1 0.043232 0.855396 0.149440
Si Si2 0.923444 0.310393 0.052480
Si Si3 0.205496 0.903697 0.887883
Si Si4 0.343076 0.408983 0.576357
Si Si5 0.500000 0.628991 0.500000
Si Si6 0.788811 0.598828 0.064495
Si Si7 0.820242 0.207664 0.351783
Si Si8 0.500000 0.500000 0.000000
O O1 0.016085 0.831157 0.332799
O O2 0.051225 0.771526 0.056620
O O3 0.125563 0.894500 0.052512
O O4 0.996747 0.926323 0.124054
O O5 0.863760 0.359954 0.031126
O O6 0.878784 0.275660 0.235826
O O7 0.000000 0.355753 0.000000
O O8 0.202319 0.846203 0.756957
O O9 0.214374 0.000000 0.840662
O O10 0.265388 0.878600 0.934559
O O11 0.320875 0.500000 0.555567
O O12 0.421756 0.414195 0.561821
O O13 0.278803 0.378475 0.754386
O O14 0.350731 0.351639 0.435089
O O15 0.794439 0.500000 0.061353
O O16 0.750000 0.250000 0.500000
#
# Coordination Sequence:
#
# PCOD9210265 Si02
#       8
#     8   8   8   8   4   8   8   2
#     4  11  24  37  61  89 129 171 203 245 302 387
#     4  11  23  42  63  91 124 164 209 259 320 376
#     4  10  21  39  61  87 121 167 206 249 308 378
#     4  11  23  37  57  89 121 161 204 256 302 371
#     4  12  25  36  58  94 129 160 208 250 307 370
#     4  10  22  42  64  86 117 159 218 264 315 365
#     4  11  23  39  61  90 123 163 203 251 315 381
#     4  12  24  38  56  92 130 166 206 234 306 380
#
# _framework density 18.975435999999998
#
# number of rings (size 3 to 8) (size 9 to 14) (size 15 to 20)
#    0.000    1.185    4.444    1.556    4.148    3.852 
#    0.000    0.000    0.000    0.000    0.000    2.593 
#    0.000    0.000    0.000    0.000    0.000    0.000 
#
# Total GULP energy -150357.636323 kJ/mol
# GULP energy per Si atom -5568.801345 kJ/mol
# Density = 1.893225 g / cm^3
# Si number density = 18.975436 Si / 1000 Ang^3
#
#
#
# Elastic Constant Matrix: (Units=GPa)
#
#
# Indices 1 2 3 4 5 6 
#
# 1 139.3068 36.6675 48.8404 0.0000 -1.2028 0.0000
# 2 36.6675 31.6351 24.3679 0.0000 4.2408 0.0000
# 3 48.8404 24.3679 121.7300 0.0000 2.1288 0.0000
# 4 0.0000 0.0000 0.0000 2.2103 0.0000 13.9978
# 5 -1.2028 4.2408 2.1288 0.0000 31.2201 0.0000
# 6 0.0000 0.0000 0.0000 13.9978 0.0000 0.0120
#
#
#
# Elastic Compliance Matrix: (Units=1/GPa)
#
#
# Indices 1 2 3 4 5 6 
#
# 1 0.010923 -0.011276 -0.002162 0.000000 0.002100 0.000000
# 2 -0.011276 0.049678 -0.005301 0.000000 -0.006821 0.000000
# 3 -0.002162 -0.005301 0.010144 0.000000 -0.000055 0.000000
# 4 0.000000 0.000000 0.000000 -0.000061 0.000000 0.071450
# 5 0.002100 -0.006821 -0.000055 0.000000 0.033042 0.000000
# 6 0.000000 0.000000 0.000000 0.071450 0.000000 -0.011282
#
#
# Mechanical properties :
#
#
# Convention : Reuss Voigt Hill
#
# Bulk Modulus (GPa) = 30.05990 56.93595 43.49792
# Shear Modulus (GPa) = 35.45819 18.87488 27.16653
#
# Velocity S-wave (km/s) = 4.32746 3.15731 3.78784
# Velocity P-wave (km/s) = 6.39102 6.58496 6.48871
#
# Compressibility (1/GPa) = 0.03326691
#
# Stress axis : x y z
#
# Youngs Moduli (GPa) = 91.55374 20.12950 98.57709
#
# Poissons Ratio (x) = 0.22699 0.21310
# Poissons Ratio (y) = 1.03240 0.52256
# Poissons Ratio (z) = 0.19792 0.10671
#
# Static dielectric constant tensor:
#      x y z
#    x 1.724750 0.000000 -0.002120 
#    y 0.000000 1.644640 0.000000 
#    z -0.002120 0.000000 1.663900 
# 
# From -- ./inp_files/87867.got.cif
#   From: 2010.05.17/outbox.cif.g08.bks.cpg/sg12_44_cif.got.tgz:87867.got - 2010.06.03 13:09:07.
