data_PCOD9210038
_publ_section_title
;
Structure prediction by ZEFSAII (Michael W. Deem and Ramdas Pophale) SiO2 
 PCOD9210038
Probable space group: C 2/M
;
_chemical_formula_sum "Si O2"
_cell_formula_units_Z 64
_cell_length_a 31.161798
_cell_length_b 8.033997
_cell_length_c 18.912280
_cell_angle_alpha 90.000000
_cell_angle_beta 141.172745
_cell_angle_gamma 90.000000
_cell_volume 2968.574241
_symmetry_space_group_name_H-M "C 2/M"
_symmetry_group_IT_number 12
_symmetry_cell_setting 'monoclinic'
loop_
_space_group_symop_operation_xyz
x,y,z
-x,y,-z
-x,-y,-z
x,-y,z
1/2+x,1/2+y,z
1/2-x,1/2+y,-z
1/2-x,1/2-y,-z
1/2+x,1/2-y,z
loop_
_atom_site_type_symbol
_atom_site_label
_atom_site_fract_x
_atom_site_fract_y
_atom_site_fract_z
Si Si1 0.850846 0.803289 0.404391
Si Si2 0.867875 0.195446 0.001458
Si Si3 0.364328 0.193467 0.674246
Si Si4 0.497598 0.700867 0.413931
Si Si5 0.268296 0.194158 0.425771
Si Si6 0.284020 0.797737 0.178193
Si Si7 0.129867 0.693341 0.839127
Si Si8 0.495452 0.699286 0.074847
O O1 0.928253 0.754318 0.521989
O O2 0.796445 0.712597 0.383611
O O3 0.836463 0.763186 0.304527
O O4 0.844166 0.000000 0.406849
O O5 0.791011 0.264676 0.895856
O O6 0.863073 0.000000 0.977887
O O7 0.882169 0.213178 0.103187
O O8 0.929294 0.265993 0.032706
O O9 0.327144 0.260024 0.555182
O O10 0.303355 0.215665 0.652882
O O11 0.434417 0.270770 0.792159
O O12 0.378708 0.000000 0.680711
O O13 0.500000 0.742599 0.500000
O O14 0.488527 0.500000 0.397096
O O15 0.437233 0.788880 0.295167
O O16 0.257102 0.000000 0.428426
O O17 0.309072 0.741782 0.132998
O O18 0.284214 0.000000 0.177228
O O19 0.142406 0.500000 0.871922
O O20 0.487373 0.500000 0.059636
O O21 0.500000 0.764280 0.000000
#
# Coordination Sequence:
#
# PCOD9210038 Si02
#       8
#     8   8   8   8   8   8   8   8
#     4  11  23  37  60  91 122 159 204 249 298 361
#     4  10  23  42  63  87 119 162 207 247 303 374
#     4  10  22  41  64  92 122 155 200 250 304 358
#     4  10  21  39  59  84 121 163 201 241 298 361
#     4  10  22  40  63  90 124 161 196 244 303 365
#     4  10  22  40  61  88 122 162 207 255 307 360
#     4  11  23  38  61  91 122 157 205 261 307 355
#     4  10  23  42  64  90 120 160 205 249 305 370
#
# _framework density 21.559172
#
# number of rings (size 3 to 8) (size 9 to 14) (size 15 to 20)
#    0.000    1.750    1.250    1.875    3.500    4.500 
#    0.000    0.000    0.000    0.000    0.000    0.000 
#    0.000    0.000    0.000    0.000    0.000    0.000 
#
# Total GULP energy -178762.817872 kJ/mol
# GULP energy per Si atom -5586.338058 kJ/mol
# Density = 2.151010 g / cm^3
# Si number density = 21.559172 Si / 1000 Ang^3
#
#
#
# Elastic Constant Matrix: (Units=GPa)
#
#
# Indices 1 2 3 4 5 6 
#
# 1 128.2921 5.9958 30.9562 0.0000 17.4422 0.0000
# 2 5.9958 16.0379 2.5010 0.0000 3.2834 0.0000
# 3 30.9562 2.5010 80.9765 0.0000 25.4723 0.0000
# 4 0.0000 0.0000 0.0000 23.3769 0.0000 -0.6497
# 5 17.4422 3.2834 25.4723 0.0000 26.9122 0.0000
# 6 0.0000 0.0000 0.0000 -0.6497 0.0000 11.9564
#
#
#
# Elastic Compliance Matrix: (Units=1/GPa)
#
#
# Indices 1 2 3 4 5 6 
#
# 1 0.008906 -0.002292 -0.002287 0.000000 -0.003328 0.000000
# 2 -0.002292 0.064566 0.001271 0.000000 -0.007595 0.000000
# 3 -0.002287 0.001271 0.018179 0.000000 -0.015880 0.000000
# 4 0.000000 0.000000 0.000000 0.042842 0.000000 0.002328
# 5 -0.003328 -0.007595 -0.015880 0.000000 0.055271 0.000000
# 6 0.000000 0.000000 0.000000 0.002328 0.000000 0.083764
#
#
# Mechanical properties :
#
#
# Convention : Reuss Voigt Hill
#
# Bulk Modulus (GPa) = 11.75974 33.80138 22.78056
# Shear Modulus (GPa) = 16.20805 24.83934 20.52370
#
# Velocity S-wave (km/s) = 2.74486 3.39801 3.08875
# Velocity P-wave (km/s) = 3.93855 5.57743 4.82804
#
# Compressibility (1/GPa) = 0.08503592
#
# Stress axis : x y z
#
# Youngs Moduli (GPa) = 112.28228 15.48814 55.00703
#
# Poissons Ratio (x) = 0.03549 0.12580
# Poissons Ratio (y) = 0.25731 -0.06992
# Poissons Ratio (z) = 0.25680 -0.01969
#
# Static dielectric constant tensor:
#      x y z
#    x 1.800060 0.000000 -0.002590 
#    y 0.000000 1.781950 0.000000 
#    z -0.002590 0.000000 1.776310 
# 
# From -- ./inp_files/295835.got.cif
#   From: 2010.05.17/outbox.cif.g08.bks.cpg/sg12_148_cif.got.tgz:295835.got - 2010.06.03 13:09:07.
