data_PCOD9210318
_publ_section_title
;
Structure prediction by ZEFSAII (Michael W. Deem and Ramdas Pophale) SiO2 
 PCOD9210318
Probable space group: C 2/M
;
_chemical_formula_sum "Si O2"
_cell_formula_units_Z 44
_cell_length_a 29.321786
_cell_length_b 7.208810
_cell_length_c 8.331847
_cell_angle_alpha 90.000000
_cell_angle_beta 94.031281
_cell_angle_gamma 90.000000
_cell_volume 1756.788298
_symmetry_space_group_name_H-M "C 2/M"
_symmetry_group_IT_number 12
_symmetry_cell_setting 'monoclinic'
loop_
_space_group_symop_operation_xyz
x,y,z
-x,y,-z
-x,-y,-z
x,-y,z
1/2+x,1/2+y,z
1/2-x,1/2+y,-z
1/2-x,1/2-y,-z
1/2+x,1/2-y,z
loop_
_atom_site_type_symbol
_atom_site_label
_atom_site_fract_x
_atom_site_fract_y
_atom_site_fract_z
Si Si1 0.950603 0.775337 0.052806
Si Si2 0.951488 0.225880 0.421101
Si Si3 0.287042 0.000000 0.089105
Si Si4 0.649282 0.275664 0.097403
Si Si5 0.726511 0.715829 0.666019
Si Si6 0.141741 0.224402 0.455746
O O1 0.945039 0.717902 0.235989
O O2 0.904421 0.728125 0.946772
O O3 0.952513 0.000000 0.050409
O O4 0.000000 0.712046 0.000000
O O5 0.909314 0.285309 0.519861
O O6 0.000000 0.286396 0.500000
O O7 0.951387 0.000000 0.423429
O O8 0.319017 0.161933 0.013574
O O9 0.258502 0.159200 0.185122
O O10 0.653396 0.500000 0.077354
O O11 0.658953 0.221519 0.284812
O O12 0.729361 0.500000 0.708361
O O13 0.750000 0.750000 0.500000
O O14 0.674636 0.778103 0.610020
O O15 0.142757 0.000000 0.455197
#
# Coordination Sequence:
#
# PCOD9210318 Si02
#       6
#     8   8   4   8   8   8
#     4   9  16  28  51  84 125 170 213 261 310 361
#     4   9  15  25  47  85 123 162 212 254 300 364
#     4  12  24  40  67  94 124 162 201 258 317 382
#     4  10  21  39  61  91 129 168 212 257 316 376
#     4  11  23  44  70  95 124 159 211 258 314 377
#     4   9  19  36  62  89 125 168 208 261 310 369
#
# _framework density 25.045703
#
# number of rings (size 3 to 8) (size 9 to 14) (size 15 to 20)
#    0.000    2.182    0.909    2.727    0.000    8.000 
#    0.000    1.364    0.000    0.000    0.000    5.727 
#    0.000    0.000    0.000    0.000    0.000    0.545 
#
# Total GULP energy -122729.169632 kJ/mol
# GULP energy per Si atom -5578.598620 kJ/mol
# Density = 2.498870 g / cm^3
# Si number density = 25.045703 Si / 1000 Ang^3
#
#
#
# Elastic Constant Matrix: (Units=GPa)
#
#
# Indices 1 2 3 4 5 6 
#
# 1 112.1586 25.2337 35.1810 0.0000 -9.0942 0.0000
# 2 25.2337 173.1536 28.5756 0.0000 -7.3059 0.0000
# 3 35.1810 28.5756 111.2279 0.0000 -18.8827 0.0000
# 4 0.0000 0.0000 0.0000 -8.6997 0.0000 -6.6980
# 5 -9.0942 -7.3059 -18.8827 0.0000 55.5958 0.0000
# 6 0.0000 0.0000 0.0000 -6.6980 0.0000 -21.7654
#
#
#
# Elastic Compliance Matrix: (Units=1/GPa)
#
#
# Indices 1 2 3 4 5 6 
#
# 1 0.010071 -0.000975 -0.002841 0.000000 0.000554 0.000000
# 2 -0.000975 0.006130 -0.001227 0.000000 0.000229 0.000000
# 3 -0.002841 -0.001227 0.010716 0.000000 0.003014 0.000000
# 4 0.000000 0.000000 0.000000 -0.150636 0.000000 0.046357
# 5 0.000554 0.000229 0.003014 0.000000 0.019131 0.000000
# 6 0.000000 0.000000 0.000000 0.046357 0.000000 -0.060210
#
#
# Mechanical properties :
#
#
# Convention : Reuss Voigt Hill
#
# Bulk Modulus (GPa) = 59.41854 63.83565 61.62710
# Shear Modulus (GPa) = -33.53433 25.52944 -4.00244
#
# Velocity S-wave (km/s) = -3.66310 3.19613 -1.26551
# Velocity P-wave (km/s) = 2.42579 6.25806 4.74594
#
# Compressibility (1/GPa) = 0.01682976
#
# Stress axis : x y z
#
# Youngs Moduli (GPa) = 99.29046 163.14312 93.31821
#
# Poissons Ratio (x) = 0.15915 0.26510
# Poissons Ratio (y) = 0.09686 0.11453
# Poissons Ratio (z) = 0.28207 0.20023
#
# Static dielectric constant tensor:
#      x y z
#    x 1.990250 0.000000 0.057910 
#    y 0.000000 2.054120 0.000000 
#    z 0.057910 0.000000 1.969100 
# 
# From -- ./inp_files/108029.got.cif
#   From: 2010.05.17/outbox.cif.g08.bks.cpg/sg12_55_cif.got.tgz:108029.got - 2010.06.03 13:09:07.
