data_PCOD9210669
_publ_section_title
;
Structure prediction by ZEFSAII (Michael W. Deem and Ramdas Pophale) SiO2 
 PCOD9210669
Probable space group: C 2/M
;
_chemical_formula_sum "Si O2"
_cell_formula_units_Z 48
_cell_length_a 31.778508
_cell_length_b 15.010703
_cell_length_c 10.336950
_cell_angle_alpha 90.000000
_cell_angle_beta 27.342763
_cell_angle_gamma 90.000000
_cell_volume 2264.828692
_symmetry_space_group_name_H-M "C 2/M"
_symmetry_group_IT_number 12
_symmetry_cell_setting 'monoclinic'
loop_
_space_group_symop_operation_xyz
x,y,z
-x,y,-z
-x,-y,-z
x,-y,z
1/2+x,1/2+y,z
1/2-x,1/2+y,-z
1/2-x,1/2-y,-z
1/2+x,1/2-y,z
loop_
_atom_site_type_symbol
_atom_site_label
_atom_site_fract_x
_atom_site_fract_y
_atom_site_fract_z
Si Si1 0.657707 0.697404 0.274127
Si Si2 0.099793 0.863024 0.179582
Si Si3 0.393211 0.608235 0.317663
Si Si4 0.578778 0.894651 0.881190
Si Si5 0.016781 0.319349 0.317368
Si Si6 0.222628 0.899364 0.609370
O O1 0.656224 0.630356 0.156726
O O2 0.642508 0.649860 0.451652
O O3 0.572889 0.765204 0.484328
O O4 0.750000 0.750000 0.000000
O O5 0.086467 0.760156 0.168088
O O6 0.000000 0.893720 0.500000
O O7 0.148322 0.905350 0.925782
O O8 0.390170 0.500000 0.332884
O O9 0.328795 0.639656 0.374924
O O10 0.500000 0.631722 0.000000
O O11 0.683297 0.858328 0.591456
O O12 0.583537 0.000000 0.838275
O O13 0.500000 0.857130 0.000000
O O14 0.549396 0.877538 0.109233
O O15 0.000000 0.368095 0.500000
O O16 0.248222 0.000000 0.499316
#
# Coordination Sequence:
#
# PCOD9210669 Si02
#       6
#     8   8   8   8   8   8
#     4  10  22  37  57  90 120 152 197 246 294 359
#     4   9  20  38  56  85 120 151 191 239 297 356
#     4  10  21  39  63  91 123 157 197 246 303 364
#     4  10  23  41  58  82 116 153 202 248 285 343
#     4   9  21  39  58  83 115 152 193 241 297 349
#     4  10  22  38  60  89 119 157 198 240 295 353
#
# _framework density 21.193655
#
# number of rings (size 3 to 8) (size 9 to 14) (size 15 to 20)
#    0.000    2.667    0.000    2.000    7.000    4.000 
#    0.000    0.833    0.000    0.500    0.000    0.000 
#    0.000    0.000    0.000    0.000    0.000    0.000 
#
# Total GULP energy -133764.505028 kJ/mol
# GULP energy per Si atom -5573.521043 kJ/mol
# Density = 2.114542 g / cm^3
# Si number density = 21.193655 Si / 1000 Ang^3
#
#
#
# Elastic Constant Matrix: (Units=GPa)
#
#
# Indices 1 2 3 4 5 6 
#
# 1 183.7386 24.1404 83.9011 0.0000 10.0052 0.0000
# 2 24.1404 36.1416 15.6907 0.0000 -5.2118 0.0000
# 3 83.9011 15.6907 77.9731 0.0000 15.3674 0.0000
# 4 0.0000 0.0000 0.0000 -217.6034 0.0000 51.1938
# 5 10.0052 -5.2118 15.3674 0.0000 34.7213 0.0000
# 6 0.0000 0.0000 0.0000 51.1938 0.0000 9.5356
#
#
#
# Elastic Compliance Matrix: (Units=1/GPa)
#
#
# Indices 1 2 3 4 5 6 
#
# 1 0.010975 -0.001976 -0.011756 0.000000 0.001744 0.000000
# 2 -0.001976 0.032815 -0.006092 0.000000 0.008191 0.000000
# 3 -0.011756 -0.006092 0.028718 0.000000 -0.010237 0.000000
# 4 0.000000 0.000000 0.000000 -0.002031 0.000000 0.010902
# 5 0.001744 0.008191 -0.010237 0.000000 0.034059 0.000000
# 6 0.000000 0.000000 0.000000 0.010902 0.000000 0.046340
#
#
# Mechanical properties :
#
#
# Convention : Reuss Voigt Hill
#
# Bulk Modulus (GPa) = 30.43105 60.59086 45.51096
# Shear Modulus (GPa) = 24.81689 -23.06124 0.87782
#
# Velocity S-wave (km/s) = 3.42564 -3.30224 0.64428
# Velocity P-wave (km/s) = 5.48055 3.75652 4.69829
#
# Compressibility (1/GPa) = 0.03286117
#
# Stress axis : x y z
#
# Youngs Moduli (GPa) = 91.11495 30.47433 34.82152
#
# Poissons Ratio (x) = 0.06020 0.40935
# Poissons Ratio (y) = 0.18001 0.21213
# Poissons Ratio (z) = 1.07112 0.18565
#
# Static dielectric constant tensor:
#      x y z
#    x 1.793580 0.000000 -0.029360 
#    y 0.000000 1.761550 0.000000 
#    z -0.029360 0.000000 1.764540 
# 
# From -- ./inp_files/112725.got.cif
#   From: 2010.05.17/outbox.cif.g08.bks.cpg/sg12_57_cif.got.tgz:112725.got - 2010.06.03 13:09:07.
