data_PCOD9210036
_publ_section_title
;
Structure prediction by ZEFSAII (Michael W. Deem and Ramdas Pophale) SiO2 
 PCOD9210036
Probable space group: C 2/M
;
_chemical_formula_sum "Si O2"
_cell_formula_units_Z 56
_cell_length_a 18.385302
_cell_length_b 26.294714
_cell_length_c 9.604947
_cell_angle_alpha 90.000000
_cell_angle_beta 141.984225
_cell_angle_gamma 90.000000
_cell_volume 2859.757274
_symmetry_space_group_name_H-M "C 2/M"
_symmetry_group_IT_number 12
_symmetry_cell_setting 'monoclinic'
loop_
_space_group_symop_operation_xyz
x,y,z
-x,y,-z
-x,-y,-z
x,-y,z
1/2+x,1/2+y,z
1/2-x,1/2+y,-z
1/2-x,1/2-y,-z
1/2+x,1/2-y,z
loop_
_atom_site_type_symbol
_atom_site_label
_atom_site_fract_x
_atom_site_fract_y
_atom_site_fract_z
Si Si1 0.809813 0.352502 0.975251
Si Si2 0.885915 0.218984 0.427941
Si Si3 0.869854 0.397216 0.771825
Si Si4 0.515597 0.655281 0.171696
Si Si5 0.583337 0.830135 0.416126
Si Si6 0.836698 0.944204 0.700563
Si Si7 0.229349 0.891762 0.131060
O O1 0.760209 0.391767 0.015426
O O2 0.941807 0.334523 0.215510
O O3 0.723627 0.304434 0.822351
O O4 0.817300 0.380119 0.838671
O O5 0.912660 0.183870 0.602181
O O6 0.871859 0.275263 0.468607
O O7 0.000000 0.218754 0.500000
O O8 0.885158 0.348132 0.693044
O O9 0.785893 0.435807 0.564995
O O10 0.000000 0.417764 0.000000
O O11 0.582791 0.602513 0.233035
O O12 0.500000 0.683534 0.000000
O O13 0.384108 0.644970 0.027484
O O14 0.654633 0.869071 0.620479
O O15 0.810565 0.937060 0.826105
O O16 0.885093 0.000000 0.744241
#
# Coordination Sequence:
#
# PCOD9210036 Si02
#       7
#     8   8   8   8   8   8   8
#     4  11  21  38  61  84 127 159 198 252 292 347
#     4  12  23  36  60  89 124 162 205 243 297 346
#     4   9  20  40  60  88 121 161 197 249 298 348
#     4  10  22  38  58  86 118 155 194 247 297 357
#     4  10  24  38  57  88 121 168 205 235 288 359
#     4  10  21  41  65  89 115 153 203 249 306 370
#     4  10  21  39  59  84 121 156 198 246 303 352
#
# _framework density 19.582082
#
# number of rings (size 3 to 8) (size 9 to 14) (size 15 to 20)
#    0.000    1.714    2.857    1.286    2.000    6.286 
#    0.000    0.714    0.000   12.429    0.000    0.000 
#    0.000    0.000    0.000    0.000    0.000    0.000 
#
# Total GULP energy -156163.375599 kJ/mol
# GULP energy per Si atom -5577.263414 kJ/mol
# Density = 1.953751 g / cm^3
# Si number density = 19.582082 Si / 1000 Ang^3
#
#
#
# Elastic Constant Matrix: (Units=GPa)
#
#
# Indices 1 2 3 4 5 6 
#
# 1 114.1656 9.0517 24.8511 0.0000 -21.3846 0.0000
# 2 9.0517 53.1759 5.8018 0.0000 -7.2252 0.0000
# 3 24.8511 5.8018 89.7124 0.0000 8.9885 0.0000
# 4 0.0000 0.0000 0.0000 0.5838 0.0000 -4.2925
# 5 -21.3846 -7.2252 8.9885 0.0000 36.3767 0.0000
# 6 0.0000 0.0000 0.0000 -4.2925 0.0000 12.0341
#
#
#
# Elastic Compliance Matrix: (Units=1/GPa)
#
#
# Indices 1 2 3 4 5 6 
#
# 1 0.010974 -0.000471 -0.003739 0.000000 0.007282 0.000000
# 2 -0.000471 0.019596 -0.001537 0.000000 0.003995 0.000000
# 3 -0.003739 -0.001537 0.012851 0.000000 -0.005679 0.000000
# 4 0.000000 0.000000 0.000000 -1.055593 0.000000 -0.376524
# 5 0.007282 0.003995 -0.005679 0.000000 0.033968 0.000000
# 6 0.000000 0.000000 0.000000 -0.376524 0.000000 -0.051207
#
#
# Mechanical properties :
#
#
# Convention : Reuss Voigt Hill
#
# Bulk Modulus (GPa) = 31.32105 37.38477 34.35291
# Shear Modulus (GPa) = -4.96389 24.28888 9.66249
#
# Velocity S-wave (km/s) = -1.59387 3.52570 2.22375
# Velocity P-wave (km/s) = 3.55559 5.97552 4.91676
#
# Compressibility (1/GPa) = 0.03192741
#
# Stress axis : x y z
#
# Youngs Moduli (GPa) = 91.12076 51.03022 77.81560
#
# Poissons Ratio (x) = 0.02402 0.29097
# Poissons Ratio (y) = 0.04289 0.11962
# Poissons Ratio (z) = 0.34072 0.07844
#
# Static dielectric constant tensor:
#      x y z
#    x 1.707940 0.000000 -0.000210 
#    y 0.000000 1.674950 0.000000 
#    z -0.000210 0.000000 1.711110 
# 
# From -- ./inp_files/80123.got.cif
#   From: 2010.05.17/outbox.cif.g08.bks.cpg/sg12_41_cif.got.tgz:80123.got - 2010.06.03 13:09:07.
