data_PCOD9210490
_publ_section_title
;
Structure prediction by ZEFSAII (Michael W. Deem and Ramdas Pophale) SiO2 
 PCOD9210490
Probable space group: C 2/M
;
_chemical_formula_sum "Si O2"
_cell_formula_units_Z 48
_cell_length_a 21.709216
_cell_length_b 8.970501
_cell_length_c 27.673320
_cell_angle_alpha 90.000000
_cell_angle_beta 24.892979
_cell_angle_gamma 90.000000
_cell_volume 2268.435708
_symmetry_space_group_name_H-M "C 2/M"
_symmetry_group_IT_number 12
_symmetry_cell_setting 'monoclinic'
loop_
_space_group_symop_operation_xyz
x,y,z
-x,y,-z
-x,-y,-z
x,-y,z
1/2+x,1/2+y,z
1/2-x,1/2+y,-z
1/2-x,1/2-y,-z
1/2+x,1/2-y,z
loop_
_atom_site_type_symbol
_atom_site_label
_atom_site_fract_x
_atom_site_fract_y
_atom_site_fract_z
Si Si1 0.944530 0.676635 0.653348
Si Si2 0.070343 0.329183 0.176750
Si Si3 0.363090 0.668319 0.560283
Si Si4 0.815613 0.679848 0.221280
Si Si5 0.103761 0.823982 0.624379
Si Si6 0.366617 0.173326 0.982463
O O1 0.941404 0.500000 0.662470
O O2 0.796283 0.735655 0.733845
O O3 0.078966 0.722423 0.522037
O O4 0.976567 0.763946 0.679612
O O5 0.041921 0.500000 0.209859
O O6 0.090189 0.319290 0.105055
O O7 0.940774 0.231092 0.290847
O O8 0.224433 0.273721 0.089115
O O9 0.500000 0.657924 0.500000
O O10 0.336511 0.500000 0.559873
O O11 0.233123 0.713458 0.688654
O O12 0.797282 0.500000 0.228918
O O13 0.986386 0.715688 0.093557
O O14 0.250000 0.750000 0.500000
O O15 0.115884 0.000000 0.613863
O O16 0.330642 0.000000 0.018655
#
# Coordination Sequence:
#
# PCOD9210490 Si02
#       6
#     8   8   8   8   8   8
#     4  11  22  36  54  84 120 155 195 245 297 352
#     4  10  21  39  62  91 123 157 199 247 294 348
#     4   8  15  29  50  76 110 153 192 234 285 339
#     4   9  18  34  57  85 116 157 200 241 295 352
#     4  12  26  44  64  86 117 158 200 244 296 360
#     4   9  19  37  63  91 121 159 199 242 296 352
#
# _framework density 21.159958
#
# number of rings (size 3 to 8) (size 9 to 14) (size 15 to 20)
#    0.000    2.167    0.000    4.500    2.333    4.333 
#    0.000    0.833    0.000    5.000    0.000    0.000 
#    0.000    0.000    0.000    0.000    0.000    0.000 
#
# Total GULP energy -134115.670029 kJ/mol
# GULP energy per Si atom -5588.152918 kJ/mol
# Density = 2.111180 g / cm^3
# Si number density = 21.159958 Si / 1000 Ang^3
#
#
#
# Elastic Constant Matrix: (Units=GPa)
#
#
# Indices 1 2 3 4 5 6 
#
# 1 55.1511 34.8667 14.8171 0.0000 -12.2236 -0.0001
# 2 34.8667 129.9060 36.8084 -0.0016 -2.3070 0.0004
# 3 14.8171 36.8084 67.6159 -0.0038 -17.8429 0.0009
# 4 0.0000 -0.0016 -0.0038 30.3618 0.0007 0.3433
# 5 -12.2236 -2.3070 -17.8429 0.0007 32.8315 0.0000
# 6 -0.0001 0.0004 0.0009 0.3433 0.0000 25.1307
#
#
#
# Elastic Compliance Matrix: (Units=1/GPa)
#
#
# Indices 1 2 3 4 5 6 
#
# 1 0.024004 -0.006448 0.000571 0.000000 0.008794 0.000000
# 2 -0.006448 0.010999 -0.005842 0.000000 -0.004803 0.000000
# 3 0.000571 -0.005842 0.020771 0.000002 0.011090 -0.000001
# 4 0.000000 0.000000 0.000002 0.032941 0.000000 -0.000450
# 5 0.008794 -0.004803 0.011090 0.000000 0.039423 0.000000
# 6 0.000000 0.000000 -0.000001 -0.000450 0.000000 0.039798
#
#
# Mechanical properties :
#
#
# Convention : Reuss Voigt Hill
#
# Bulk Modulus (GPa) = 30.92574 47.29528 39.11051
# Shear Modulus (GPa) = 24.73378 28.74354 26.73866
#
# Velocity S-wave (km/s) = 3.42262 3.68964 3.55863
# Velocity P-wave (km/s) = 5.50146 6.36797 5.95051
#
# Compressibility (1/GPa) = 0.03233553
#
# Stress axis : x y z
#
# Youngs Moduli (GPa) = 41.65895 90.92143 48.14410
#
# Poissons Ratio (x) = 0.58629 -0.02748
# Poissons Ratio (y) = 0.26863 0.28124
# Poissons Ratio (z) = -0.02378 0.53113
#
# Static dielectric constant tensor:
#      x y z
#    x 1.825940 0.000000 -0.008190 
#    y 0.000000 1.706710 0.000000 
#    z -0.008190 0.000000 1.784510 
# 
# From -- ./inp_files/365359.got.cif
#   From: 2010.05.17/outbox.cif.g08.bks.cpg/sg12_183_cif.got.tgz:365359.got - 2010.06.03 13:09:07.
