data_PCOD9210225
_publ_section_title
;
Structure prediction by ZEFSAII (Michael W. Deem and Ramdas Pophale) SiO2 
 PCOD9210225
Probable space group: C 2/M
;
_chemical_formula_sum "Si O2"
_cell_formula_units_Z 56
_cell_length_a 21.756578
_cell_length_b 8.494495
_cell_length_c 15.539070
_cell_angle_alpha 90.000000
_cell_angle_beta 92.275246
_cell_angle_gamma 90.000000
_cell_volume 2869.529283
_symmetry_space_group_name_H-M "C 2/M"
_symmetry_group_IT_number 12
_symmetry_cell_setting 'monoclinic'
loop_
_space_group_symop_operation_xyz
x,y,z
-x,y,-z
-x,-y,-z
x,-y,z
1/2+x,1/2+y,z
1/2-x,1/2+y,-z
1/2-x,1/2-y,-z
1/2+x,1/2-y,z
loop_
_atom_site_type_symbol
_atom_site_label
_atom_site_fract_x
_atom_site_fract_y
_atom_site_fract_z
Si Si1 0.816489 0.184870 0.976501
Si Si2 0.471387 0.809552 0.405596
Si Si3 0.444025 0.811281 0.061885
Si Si4 0.333177 0.810277 0.435631
Si Si5 0.705316 0.810809 0.377594
Si Si6 0.511319 0.686089 0.224045
Si Si7 0.856850 0.687110 0.801644
O O1 0.824503 0.221125 0.876209
O O2 0.818691 0.000000 0.994124
O O3 0.750000 0.250000 0.000000
O O4 0.876853 0.262576 0.023640
O O5 0.500000 0.765458 0.500000
O O6 0.399588 0.765712 0.404689
O O7 0.500467 0.734650 0.322352
O O8 0.477458 0.000000 0.398952
O O9 0.457231 0.736795 0.156053
O O10 0.446609 0.000000 0.068307
O O11 0.500000 0.761684 0.000000
O O12 0.324172 0.755439 0.534024
O O13 0.275587 0.744223 0.380541
O O14 0.329998 0.000000 0.435310
O O15 0.668647 0.759284 0.292011
O O16 0.703552 0.000000 0.379010
O O17 0.521285 0.500000 0.218589
O O18 0.571012 0.777883 0.193431
O O19 0.846500 0.500000 0.811424
#
# Coordination Sequence:
#
# PCOD9210225 Si02
#       7
#     8   8   8   8   8   8   8
#     4  12  26  44  67  96 131 166 208 262 324 384
#     4  10  21  39  61  85 121 166 210 258 311 371
#     4  11  23  43  71  96 125 167 215 265 320 385
#     4   9  18  34  56  83 114 154 200 247 301 360
#     4   9  19  35  58  84 114 154 198 245 300 364
#     4  12  25  39  62  95 127 163 208 261 321 384
#     4  11  22  40  63  88 120 160 208 255 309 378
#
# _framework density 19.515395999999999
#
# number of rings (size 3 to 8) (size 9 to 14) (size 15 to 20)
#    0.000    1.429    1.429    4.286    0.000    6.000 
#    0.000    5.714    0.000    0.000    0.000    0.000 
#    0.000    0.000    0.000    0.000    0.000    0.000 
#
# Total GULP energy -156462.753286 kJ/mol
# GULP energy per Si atom -5587.955474 kJ/mol
# Density = 1.947098 g / cm^3
# Si number density = 19.515396 Si / 1000 Ang^3
#
#
#
# Elastic Constant Matrix: (Units=GPa)
#
#
# Indices 1 2 3 4 5 6 
#
# 1 84.1645 -3.0865 23.7679 0.0000 -2.8735 0.0000
# 2 -3.0865 23.8850 11.5191 0.0000 0.9288 0.0000
# 3 23.7679 11.5191 74.0129 0.0000 9.9009 0.0000
# 4 0.0000 0.0000 0.0000 29.6930 0.0000 0.4889
# 5 -2.8735 0.9288 9.9009 0.0000 33.5127 0.0000
# 6 0.0000 0.0000 0.0000 0.4889 0.0000 30.6801
#
#
#
# Elastic Compliance Matrix: (Units=1/GPa)
#
#
# Indices 1 2 3 4 5 6 
#
# 1 0.013654 0.004267 -0.005403 0.000000 0.002649 0.000000
# 2 0.004267 0.046622 -0.008852 0.000000 0.001689 0.000000
# 3 -0.005403 -0.008852 0.017338 0.000000 -0.005340 0.000000
# 4 0.000000 0.000000 0.000000 0.033687 0.000000 -0.000537
# 5 0.002649 0.001689 -0.005340 0.000000 0.031598 0.000000
# 6 0.000000 0.000000 0.000000 -0.000537 0.000000 0.032603
#
#
# Mechanical properties :
#
#
# Convention : Reuss Voigt Hill
#
# Bulk Modulus (GPa) = 17.34960 27.38483 22.36721
# Shear Modulus (GPa) = 23.28918 28.76795 26.02856
#
# Velocity S-wave (km/s) = 3.45827 3.84359 3.65601
# Velocity P-wave (km/s) = 4.98555 5.81037 5.41369
#
# Compressibility (1/GPa) = 0.05763823
#
# Stress axis : x y z
#
# Youngs Moduli (GPa) = 73.23695 21.44895 57.67519
#
# Poissons Ratio (x) = -0.09153 0.31164
# Poissons Ratio (y) = -0.31252 0.51057
# Poissons Ratio (z) = 0.39572 0.18988
#
# Static dielectric constant tensor:
#      x y z
#    x 1.676000 0.000000 0.009540 
#    y 0.000000 1.665460 0.000000 
#    z 0.009540 0.000000 1.677900 
# 
# From -- ./inp_files/231053.got.cif
#   From: 2010.05.17/outbox.cif.g08.bks.cpg/sg12_116_cif.got.tgz:231053.got - 2010.06.03 13:09:07.
