data_PCOD9210438
_publ_section_title
;
Structure prediction by ZEFSAII (Michael W. Deem and Ramdas Pophale) SiO2 
 PCOD9210438
Probable space group: C 2/M
;
_chemical_formula_sum "Si O2"
_cell_formula_units_Z 40
_cell_length_a 8.263600
_cell_length_b 26.430335
_cell_length_c 8.767412
_cell_angle_alpha 90.000000
_cell_angle_beta 96.453894
_cell_angle_gamma 90.000000
_cell_volume 1902.752612
_symmetry_space_group_name_H-M "C 2/M"
_symmetry_group_IT_number 12
_symmetry_cell_setting 'monoclinic'
loop_
_space_group_symop_operation_xyz
x,y,z
-x,y,-z
-x,-y,-z
x,-y,z
1/2+x,1/2+y,z
1/2-x,1/2+y,-z
1/2-x,1/2-y,-z
1/2+x,1/2-y,z
loop_
_atom_site_type_symbol
_atom_site_label
_atom_site_fract_x
_atom_site_fract_y
_atom_site_fract_z
Si Si1 0.430461 0.219466 0.664569
Si Si2 0.757326 0.207717 0.868512
Si Si3 0.401600 0.602089 0.857564
Si Si4 0.188311 0.559820 0.566845
Si Si5 0.636969 0.359186 0.622288
O O1 0.500000 0.223015 0.500000
O O2 0.578457 0.200155 0.782777
O O3 0.366153 0.269811 0.741805
O O4 0.279924 0.180936 0.658501
O O5 0.826125 0.153420 0.921272
O O6 0.750000 0.250000 0.000000
O O7 0.259400 0.576018 0.741055
O O8 0.541756 0.620393 0.757000
O O9 0.500000 0.572717 0.000000
O O10 0.213242 0.500000 0.552793
O O11 0.291657 0.592961 0.460452
O O12 0.000000 0.570602 0.500000
O O13 0.500000 0.335379 0.500000
#
# Coordination Sequence:
#
# PCOD9210438 Si02
#       5
#     8   8   8   8   8
#     4  12  23  37  59  86 118 157 210 256 297 359
#     4  12  25  40  58  85 126 170 205 247 310 370
#     4  11  23  40  62  91 125 160 206 253 304 365
#     4  10  22  43  68  92 121 159 203 254 315 374
#     4  10  21  39  62  89 121 157 201 252 309 367
#
# _framework density 21.022176000000002
#
# number of rings (size 3 to 8) (size 9 to 14) (size 15 to 20)
#    0.000    1.000    0.000    9.000    0.000    7.200 
#    0.000    3.000    0.000    2.400    0.000    0.000 
#    0.000    0.000    0.000    0.000    0.000    0.000 
#
# Total GULP energy -111799.659752 kJ/mol
# GULP energy per Si atom -5589.982988 kJ/mol
# Density = 2.097433 g / cm^3
# Si number density = 21.022176 Si / 1000 Ang^3
#
#
#
# Elastic Constant Matrix: (Units=GPa)
#
#
# Indices 1 2 3 4 5 6 
#
# 1 113.9151 29.2640 42.8283 0.0000 38.8337 0.0000
# 2 29.2640 80.1496 24.8743 0.0000 14.2703 0.0000
# 3 42.8283 24.8743 120.8998 0.0000 31.0202 0.0000
# 4 0.0000 0.0000 0.0000 -58.5892 0.0000 12.5393
# 5 38.8337 14.2703 31.0202 0.0000 47.7788 0.0000
# 6 0.0000 0.0000 0.0000 12.5393 0.0000 24.1436
#
#
#
# Elastic Compliance Matrix: (Units=1/GPa)
#
#
# Indices 1 2 3 4 5 6 
#
# 1 0.013117 -0.002667 -0.001880 0.000000 -0.008644 0.000000
# 2 -0.002667 0.014153 -0.001726 0.000000 -0.000939 0.000000
# 3 -0.001880 -0.001726 0.010521 0.000000 -0.004787 0.000000
# 4 0.000000 0.000000 0.000000 -0.015361 0.000000 0.007978
# 5 -0.008644 -0.000939 -0.004787 0.000000 0.031344 0.000000
# 6 0.000000 0.000000 0.000000 0.007978 0.000000 0.037275
#
#
# Mechanical properties :
#
#
# Convention : Reuss Voigt Hill
#
# Bulk Modulus (GPa) = 39.61219 56.54420 48.07819
# Shear Modulus (GPa) = 44.63830 17.19984 30.91907
#
# Velocity S-wave (km/s) = 4.61303 2.86348 3.83924
# Velocity P-wave (km/s) = 6.87439 6.15536 6.52479
#
# Compressibility (1/GPa) = 0.02524475
#
# Stress axis : x y z
#
# Youngs Moduli (GPa) = 76.23548 70.65500 95.05054
#
# Poissons Ratio (x) = 0.18842 0.17871
# Poissons Ratio (y) = 0.20330 0.16409
# Poissons Ratio (z) = 0.14333 0.12198
#
# Static dielectric constant tensor:
#      x y z
#    x 1.780590 0.000000 0.022900 
#    y 0.000000 1.741410 0.000000 
#    z 0.022900 0.000000 1.800820 
# 
# From -- ./inp_files/39222.got.cif
#   From: 2010.05.17/outbox.cif.g08.bks.cpg/sg12_20_cif.got.tgz:39222.got - 2010.06.03 13:09:07.
