data_PCOD9210592
_publ_section_title
;
Structure prediction by ZEFSAII (Michael W. Deem and Ramdas Pophale) SiO2 
 PCOD9210592
Probable space group: C 2/M
;
_chemical_formula_sum "Si O2"
_cell_formula_units_Z 40
_cell_length_a 18.579302
_cell_length_b 13.722174
_cell_length_c 9.991584
_cell_angle_alpha 90.000000
_cell_angle_beta 50.280076
_cell_angle_gamma 90.000000
_cell_volume 1959.355165
_symmetry_space_group_name_H-M "C 2/M"
_symmetry_group_IT_number 12
_symmetry_cell_setting 'monoclinic'
loop_
_space_group_symop_operation_xyz
x,y,z
-x,y,-z
-x,-y,-z
x,-y,z
1/2+x,1/2+y,z
1/2-x,1/2+y,-z
1/2-x,1/2-y,-z
1/2+x,1/2-y,z
loop_
_atom_site_type_symbol
_atom_site_label
_atom_site_fract_x
_atom_site_fract_y
_atom_site_fract_z
Si Si1 0.260376 0.385188 0.529152
Si Si2 0.726123 0.210230 0.853336
Si Si3 0.111257 0.115296 0.865984
Si Si4 0.085438 0.389251 0.548507
Si Si5 0.113600 0.326029 0.222296
O O1 0.259674 0.500000 0.556134
O O2 0.250004 0.332465 0.681237
O O3 0.349365 0.364888 0.329966
O O4 0.171006 0.363380 0.541523
O O5 0.666218 0.309417 0.896642
O O6 0.824077 0.233308 0.810012
O O7 0.663932 0.142889 0.025277
O O8 0.130944 0.000000 0.872294
O O9 0.000000 0.130189 0.000000
O O10 0.054639 0.500000 0.616217
O O11 0.117426 0.387420 0.355448
O O12 0.996939 0.318776 0.670619
#
# Coordination Sequence:
#
# PCOD9210592 Si02
#       5
#     8   8   8   8   8
#     4  10  22  40  63  92 119 156 204 254 306 354
#     4  11  23  38  60  90 123 160 198 253 298 355
#     4  10  22  38  60  86 115 158 206 245 292 354
#     4  10  21  39  63  88 122 160 198 253 308 366
#     4  10  22  35  55  91 120 156 196 231 312 361
#
# _framework density 20.41488
#
# number of rings (size 3 to 8) (size 9 to 14) (size 15 to 20)
#    0.000    1.800    2.000    1.800    2.800    4.000 
#    0.000    5.000    0.000    0.000    0.000   22.400 
#    0.000    0.000    0.000    0.000    0.000    0.000 
#
# Total GULP energy -111545.937006 kJ/mol
# GULP energy per Si atom -5577.296850 kJ/mol
# Density = 2.036842 g / cm^3
# Si number density = 20.414880 Si / 1000 Ang^3
#
#
#
# Elastic Constant Matrix: (Units=GPa)
#
#
# Indices 1 2 3 4 5 6 
#
# 1 94.4948 29.7684 84.8328 0.0000 -9.0289 0.0000
# 2 29.7684 59.7162 46.5753 0.0000 -6.4545 0.0000
# 3 84.8328 46.5753 172.1313 0.0000 -6.1760 0.0000
# 4 0.0000 0.0000 0.0000 24.9892 0.0000 3.4341
# 5 -9.0289 -6.4545 -6.1760 0.0000 37.4902 0.0000
# 6 0.0000 0.0000 0.0000 3.4341 0.0000 8.4302
#
#
#
# Elastic Compliance Matrix: (Units=1/GPa)
#
#
# Indices 1 2 3 4 5 6 
#
# 1 0.019631 -0.002553 -0.008883 0.000000 0.002825 0.000000
# 2 -0.002553 0.021837 -0.004565 0.000000 0.002393 0.000000
# 3 -0.008883 -0.004565 0.011385 0.000000 -0.001050 0.000000
# 4 0.000000 0.000000 0.000000 0.042390 0.000000 -0.017268
# 5 0.002825 0.002393 -0.001050 0.000000 0.027593 0.000000
# 6 0.000000 0.000000 0.000000 -0.017268 0.000000 0.125655
#
#
# Mechanical properties :
#
#
# Convention : Reuss Voigt Hill
#
# Bulk Modulus (GPa) = 47.95558 72.07726 60.01642
# Shear Modulus (GPa) = 17.39470 25.19298 21.29384
#
# Velocity S-wave (km/s) = 2.92217 3.51672 3.23314
# Velocity P-wave (km/s) = 5.90990 7.20226 6.58785
#
# Compressibility (1/GPa) = 0.02085263
#
# Stress axis : x y z
#
# Youngs Moduli (GPa) = 50.93875 45.79312 87.83541
#
# Poissons Ratio (x) = 0.11689 0.78025
# Poissons Ratio (y) = 0.13003 0.40096
# Poissons Ratio (z) = 0.45249 0.20904
#
# Static dielectric constant tensor:
#      x y z
#    x 1.714870 0.000000 -0.000300 
#    y 0.000000 1.762070 0.000000 
#    z -0.000300 0.000000 1.746070 
# 
# From -- ./inp_files/74966.got.cif
#   From: 2010.05.17/outbox.cif.g08.bks.cpg/sg12_38_cif.got.tgz:74966.got - 2010.06.03 13:09:07.
