data_PCOD9210457
_publ_section_title
;
Structure prediction by ZEFSAII (Michael W. Deem and Ramdas Pophale) SiO2 
 PCOD9210457
Probable space group: C 2/M
;
_chemical_formula_sum "Si O2"
_cell_formula_units_Z 64
_cell_length_a 9.565867
_cell_length_b 17.637996
_cell_length_c 30.294959
_cell_angle_alpha 90.000000
_cell_angle_beta 33.208122
_cell_angle_gamma 90.000000
_cell_volume 2799.447217
_symmetry_space_group_name_H-M "C 2/M"
_symmetry_group_IT_number 12
_symmetry_cell_setting 'monoclinic'
loop_
_space_group_symop_operation_xyz
x,y,z
-x,y,-z
-x,-y,-z
x,-y,z
1/2+x,1/2+y,z
1/2-x,1/2+y,-z
1/2-x,1/2-y,-z
1/2+x,1/2-y,z
loop_
_atom_site_type_symbol
_atom_site_label
_atom_site_fract_x
_atom_site_fract_y
_atom_site_fract_z
Si Si1 0.479933 0.796799 0.665771
Si Si2 0.994053 0.203401 0.578880
Si Si3 0.874145 0.202881 0.158448
Si Si4 0.212727 0.089775 0.887629
Si Si5 0.306548 0.586420 0.870450
Si Si6 0.138187 0.640723 0.061046
Si Si7 0.317451 0.589296 0.308312
Si Si8 0.696921 0.585755 0.588341
O O1 0.391162 0.742722 0.650153
O O2 0.313371 0.776241 0.752248
O O3 0.406388 0.876976 0.663059
O O4 0.777975 0.795192 0.599047
O O5 0.250000 0.250000 0.500000
O O6 0.074405 0.123144 0.577625
O O7 0.705175 0.147712 0.171997
O O8 0.083465 0.147401 0.125120
O O9 0.019677 0.274717 0.098276
O O10 0.385353 0.099942 0.885258
O O11 0.191035 0.000000 0.883127
O O12 0.935655 0.127522 0.971624
O O13 0.363277 0.500000 0.868580
O O14 0.438170 0.601085 0.787729
O O15 0.012607 0.599340 0.937930
O O16 0.275323 0.500000 0.324508
O O17 0.341744 0.620457 0.352011
O O18 0.603529 0.500000 0.615557
O O19 0.000000 0.587877 0.500000
#
# Coordination Sequence:
#
# PCOD9210457 Si02
#       8
#     8   8   8   8   8   8   8   8
#     4  11  25  39  66  92 132 169 214 272 322 387
#     4  12  25  42  65  96 131 171 217 264 327 391
#     4  11  25  40  64  95 130 169 218 273 326 383
#     4  11  24  44  65  94 133 173 214 271 329 388
#     4  10  21  39  62  89 125 170 216 263 321 391
#     4  11  23  40  65  93 128 168 218 267 326 388
#     4   9  20  39  61  91 127 165 209 266 325 379
#     4  10  21  39  64  91 124 166 213 262 317 389
#
# _framework density 22.861657000000001
#
# number of rings (size 3 to 8) (size 9 to 14) (size 15 to 20)
#    0.000    1.375    0.000    5.625    7.000    2.500 
#    0.000    2.500    0.000    3.750    0.000    0.000 
#    0.000    0.000    0.000    0.000    0.000    0.000 
#
# Total GULP energy -178737.108431 kJ/mol
# GULP energy per Si atom -5585.534638 kJ/mol
# Density = 2.280962 g / cm^3
# Si number density = 22.861657 Si / 1000 Ang^3
#
#
#
# Elastic Constant Matrix: (Units=GPa)
#
#
# Indices 1 2 3 4 5 6 
#
# 1 87.6242 12.1205 5.3616 0.0101 -18.0704 0.0053
# 2 12.1205 109.5492 15.6014 -0.0155 3.4588 0.0011
# 3 5.3616 15.6014 50.0306 0.0361 6.8755 0.0392
# 4 0.0101 -0.0155 0.0361 -16.3283 -0.0527 -4.2714
# 5 -18.0704 3.4588 6.8755 -0.0527 36.4570 -0.0330
# 6 0.0053 0.0011 0.0392 -4.2714 -0.0330 37.4832
#
#
#
# Elastic Compliance Matrix: (Units=1/GPa)
#
#
# Indices 1 2 3 4 5 6 
#
# 1 0.013175 -0.001403 -0.001940 -0.000019 0.007029 0.000004
# 2 -0.001403 0.009706 -0.002725 -0.000013 -0.001103 0.000000
# 3 -0.001940 -0.002725 0.021705 0.000070 -0.004796 -0.000019
# 4 -0.000019 -0.000013 0.000070 -0.059470 -0.000113 -0.006777
# 5 0.007029 -0.001103 -0.004796 -0.000113 0.031923 0.000019
# 6 0.000004 0.000000 -0.000019 -0.006777 0.000019 0.025906
#
#
# Mechanical properties :
#
#
# Convention : Reuss Voigt Hill
#
# Bulk Modulus (GPa) = 30.81773 34.81900 32.81836
# Shear Modulus (GPa) = 75.87459 25.79709 50.83584
#
# Velocity S-wave (km/s) = 5.76720 3.36281 4.72065
# Velocity P-wave (km/s) = 7.60637 5.50830 6.64072
#
# Compressibility (1/GPa) = 0.03244886
#
# Stress axis : x y z
#
# Youngs Moduli (GPa) = 75.90232 103.02426 46.07326
#
# Poissons Ratio (x) = 0.14457 0.08940
# Poissons Ratio (y) = 0.10651 0.12555
# Poissons Ratio (z) = 0.14727 0.28073
#
# Static dielectric constant tensor:
#      x y z
#    x 1.929060 0.000000 0.010910 
#    y 0.000000 1.941470 0.000000 
#    z 0.010910 0.000000 1.970270 
# 
# From -- ./inp_files/372945.got.cif
#   From: 2010.05.17/outbox.cif.g08.bks.cpg/sg12_187_cif.got.tgz:372945.got - 2010.06.03 13:09:07.
