data_PCOD9210172
_publ_section_title
;
Structure prediction by ZEFSAII (Michael W. Deem and Ramdas Pophale) SiO2 
 PCOD9210172
Probable space group: C 2/M
;
_chemical_formula_sum "Si O2"
_cell_formula_units_Z 58
_cell_length_a 26.032622
_cell_length_b 26.105288
_cell_length_c 9.974573
_cell_angle_alpha 90.000000
_cell_angle_beta 26.772236
_cell_angle_gamma 90.000000
_cell_volume 3053.391208
_symmetry_space_group_name_H-M "C 2/M"
_symmetry_group_IT_number 12
_symmetry_cell_setting 'monoclinic'
loop_
_space_group_symop_operation_xyz
x,y,z
-x,y,-z
-x,-y,-z
x,-y,z
1/2+x,1/2+y,z
1/2-x,1/2+y,-z
1/2-x,1/2-y,-z
1/2+x,1/2-y,z
loop_
_atom_site_type_symbol
_atom_site_label
_atom_site_fract_x
_atom_site_fract_y
_atom_site_fract_z
Si Si1 0.281576 0.554611 0.398724
Si Si2 0.194708 0.227716 0.326171
Si Si3 0.367202 0.694490 0.823445
Si Si4 0.264765 0.899890 0.776097
Si Si5 0.535489 0.180003 0.762380
Si Si6 0.195500 0.636195 0.806547
Si Si7 0.862613 0.558722 0.823299
Si Si8 0.500000 0.500000 0.000000
O O1 0.219893 0.500000 0.569484
O O2 0.273414 0.566376 0.260567
O O3 0.225824 0.600541 0.610653
O O4 0.409661 0.543742 0.152218
O O5 0.186235 0.202926 0.198856
O O6 0.088721 0.265124 0.599438
O O7 0.213661 0.181436 0.383677
O O8 0.304880 0.264855 0.065024
O O9 0.500000 0.703747 0.500000
O O10 0.337011 0.637878 0.943204
O O11 0.367091 0.862254 0.491476
O O12 0.310436 0.930418 0.798523
O O13 0.500000 0.180420 0.000000
O O14 0.426026 0.163331 0.932253
O O15 0.187332 0.599067 0.954309
O O16 0.837121 0.500000 0.922774
O O17 0.000000 0.564660 0.500000
#
# Coordination Sequence:
#
# PCOD9210172 Si02
#       8
#     8   8   8   8   8   8   8   2
#     4  10  23  45  69  92 130 173 218 269 323 389
#     4  10  23  39  63  89 132 174 216 272 325 384
#     4  10  21  39  60  93 124 169 222 260 323 396
#     4  11  21  42  66  94 135 171 210 273 333 383
#     4  11  23  41  62  98 133 170 223 269 329 401
#     4  12  22  42  68  92 134 177 211 276 327 387
#     4  11  23  38  64 100 132 169 217 267 326 391
#     4   8  24  48  64  92 124 172 228 258 318 386
#
# _framework density 18.995273000000001
#
# number of rings (size 3 to 8) (size 9 to 14) (size 15 to 20)
#    0.414    0.966    4.138    1.655    0.000    2.207 
#    3.724    0.690    0.000    1.655    0.000    0.000 
#    0.000    0.000    0.000    0.000    0.000    0.000 
#
# Total GULP energy -161584.138818 kJ/mol
# GULP energy per Si atom -5571.866856 kJ/mol
# Density = 1.895204 g / cm^3
# Si number density = 18.995273 Si / 1000 Ang^3
#
#
#
# Elastic Constant Matrix: (Units=GPa)
#
#
# Indices 1 2 3 4 5 6 
#
# 1 92.5213 53.0123 33.8129 -0.0001 1.0849 -0.0004
# 2 53.0123 126.8257 33.8875 0.0003 -4.4396 0.0003
# 3 33.8129 33.8875 53.3400 0.0020 -2.0946 0.0016
# 4 -0.0001 0.0003 0.0020 18.4657 -0.0004 1.5214
# 5 1.0849 -4.4396 -2.0946 -0.0004 25.5424 -0.0004
# 6 -0.0004 0.0003 0.0016 1.5214 -0.0004 29.1676
#
#
#
# Elastic Compliance Matrix: (Units=1/GPa)
#
#
# Indices 1 2 3 4 5 6 
#
# 1 0.016339 -0.004956 -0.007293 0.000001 -0.002154 0.000001
# 2 -0.004956 0.011035 -0.003797 0.000000 0.001817 0.000000
# 3 -0.007293 -0.003797 0.025853 -0.000003 0.001770 -0.000001
# 4 0.000001 0.000000 -0.000003 0.054388 0.000001 -0.002837
# 5 -0.002154 0.001817 0.001770 0.000001 0.039703 0.000000
# 6 0.000001 0.000000 -0.000001 -0.002837 0.000000 0.034433
#
#
# Mechanical properties :
#
#
# Convention : Reuss Voigt Hill
#
# Bulk Modulus (GPa) = 47.31951 57.12363 52.22157
# Shear Modulus (GPa) = 22.63591 24.76675 23.70133
#
# Velocity S-wave (km/s) = 3.45579 3.61479 3.53618
# Velocity P-wave (km/s) = 6.39442 6.89638 6.65014
#
# Compressibility (1/GPa) = 0.02113293
#
# Stress axis : x y z
#
# Youngs Moduli (GPa) = 61.20448 90.62305 38.68035
#
# Poissons Ratio (x) = 0.44914 0.28210
# Poissons Ratio (y) = 0.30334 0.14688
# Poissons Ratio (z) = 0.44638 0.34413
#
# Static dielectric constant tensor:
#      x y z
#    x 1.656290 0.000000 0.005740 
#    y 0.000000 1.658190 0.000000 
#    z 0.005740 0.000000 1.643340 
# 
# From -- ./inp_files/100066.got.cif
#   From: 2010.05.17/outbox.cif.g08.bks.cpg/sg12_51_cif.got.tgz:100066.got - 2010.06.03 13:09:07.
