data_PCOD9210992
_publ_section_title
;
Structure prediction by ZEFSAII (Michael W. Deem and Ramdas Pophale) SiO2 
 PCOD9210992
Probable space group: C 2/M
;
_chemical_formula_sum "Si O2"
_cell_formula_units_Z 48
_cell_length_a 29.675428
_cell_length_b 7.784995
_cell_length_c 9.796406
_cell_angle_alpha 90.000000
_cell_angle_beta 82.384929
_cell_angle_gamma 90.000000
_cell_volume 2243.235915
_symmetry_space_group_name_H-M "C 2/M"
_symmetry_group_IT_number 12
_symmetry_cell_setting 'monoclinic'
loop_
_space_group_symop_operation_xyz
x,y,z
-x,y,-z
-x,-y,-z
x,-y,z
1/2+x,1/2+y,z
1/2-x,1/2+y,-z
1/2-x,1/2-y,-z
1/2+x,1/2-y,z
loop_
_atom_site_type_symbol
_atom_site_label
_atom_site_fract_x
_atom_site_fract_y
_atom_site_fract_z
Si Si1 0.955710 0.795850 0.437491
Si Si2 0.372359 0.710637 0.653097
Si Si3 0.230901 0.206118 0.360879
Si Si4 0.289537 0.794577 0.088852
Si Si5 0.036184 0.303309 0.879784
Si Si6 0.387463 0.697928 0.954332
O O1 0.908800 0.731536 0.524968
O O2 0.959258 0.771046 0.273564
O O3 0.000000 0.726433 0.500000
O O4 0.955191 0.000000 0.461783
O O5 0.371102 0.500000 0.654664
O O6 0.320539 0.769563 0.646560
O O7 0.388941 0.763485 0.797813
O O8 0.250000 0.250000 0.500000
O O9 0.268733 0.268130 0.239323
O O10 0.228641 0.000000 0.345738
O O11 0.297173 0.000000 0.089499
O O12 0.250000 0.750000 0.000000
O O13 0.335535 0.707545 0.022623
O O14 0.022006 0.500000 0.863212
O O15 0.082668 0.294627 0.946127
O O16 0.000000 0.222148 0.000000
O O17 0.402840 0.500000 0.947146
#
# Coordination Sequence:
#
# PCOD9210992 Si02
#       6
#     8   8   8   8   8   8
#     4  10  21  39  65  93 120 155 201 249 298 359
#     4   9  19  38  60  86 119 155 198 250 301 351
#     4  10  22  39  57  83 121 160 203 249 296 352
#     4  11  22  39  61  89 124 162 207 252 301 358
#     4  11  25  43  62  90 127 160 196 246 303 365
#     4  11  22  40  66  91 120 159 204 254 304 357
#
# _framework density 21.397659999999998
#
# number of rings (size 3 to 8) (size 9 to 14) (size 15 to 20)
#    0.000    1.667    1.667    2.500    2.333    4.333 
#    0.000    1.667    0.000    0.000    0.000    0.000 
#    0.000    0.000    0.000    0.000    0.000    0.000 
#
# Total GULP energy -134050.986261 kJ/mol
# GULP energy per Si atom -5585.457761 kJ/mol
# Density = 2.134896 g / cm^3
# Si number density = 21.397660 Si / 1000 Ang^3
#
#
#
# Elastic Constant Matrix: (Units=GPa)
#
#
# Indices 1 2 3 4 5 6 
#
# 1 99.3869 -5.6169 52.3836 0.0000 -9.4689 0.0000
# 2 -5.6169 31.5418 -7.9485 0.0000 -4.4412 0.0000
# 3 52.3836 -7.9485 175.6896 0.0000 -11.2031 0.0000
# 4 0.0000 0.0000 0.0000 12.5412 0.0000 -6.3960
# 5 -9.4689 -4.4412 -11.2031 0.0000 41.9237 0.0000
# 6 0.0000 0.0000 0.0000 -6.3960 0.0000 11.2654
#
#
#
# Elastic Compliance Matrix: (Units=1/GPa)
#
#
# Indices 1 2 3 4 5 6 
#
# 1 0.012145 0.001581 -0.003422 0.000000 0.001996 0.000000
# 2 0.001581 0.032898 0.001284 0.000000 0.004185 0.000000
# 3 -0.003422 0.001284 0.006846 0.000000 0.001193 0.000000
# 4 0.000000 0.000000 0.000000 0.112236 0.000000 0.063723
# 5 0.001996 0.004185 0.001193 0.000000 0.025066 0.000000
# 6 0.000000 0.000000 0.000000 0.063723 0.000000 0.124946
#
#
# Mechanical properties :
#
#
# Convention : Reuss Voigt Hill
#
# Bulk Modulus (GPa) = 19.69461 42.69499 31.19480
# Shear Modulus (GPa) = 15.05221 30.99940 23.02581
#
# Velocity S-wave (km/s) = 2.65514 3.81035 3.28394
# Velocity P-wave (km/s) = 4.31553 6.27334 5.38417
#
# Compressibility (1/GPa) = 0.05077531
#
# Stress axis : x y z
#
# Youngs Moduli (GPa) = 82.33818 30.39668 146.06245
#
# Poissons Ratio (x) = -0.04807 0.49988
# Poissons Ratio (y) = -0.13021 -0.18751
# Poissons Ratio (z) = 0.28179 -0.03902
#
# Static dielectric constant tensor:
#      x y z
#    x 1.756020 0.000000 -0.005430 
#    y 0.000000 1.819730 0.000000 
#    z -0.005430 0.000000 1.783030 
# 
# From -- ./inp_files/108699.got.cif
#   From: 2010.05.17/outbox.cif.g08.bks.cpg/sg12_55_cif.got.tgz:108699.got - 2010.06.03 13:09:07.
