data_PCOD9210902
_publ_section_title
;
Structure prediction by ZEFSAII (Michael W. Deem and Ramdas Pophale) SiO2 
 PCOD9210902
Probable space group: C 2/M
;
_chemical_formula_sum "Si O2"
_cell_formula_units_Z 56
_cell_length_a 30.674403
_cell_length_b 8.732270
_cell_length_c 12.033807
_cell_angle_alpha 90.000000
_cell_angle_beta 63.841521
_cell_angle_gamma 90.000000
_cell_volume 2893.200665
_symmetry_space_group_name_H-M "C 2/M"
_symmetry_group_IT_number 12
_symmetry_cell_setting 'monoclinic'
loop_
_space_group_symop_operation_xyz
x,y,z
-x,y,-z
-x,-y,-z
x,-y,z
1/2+x,1/2+y,z
1/2-x,1/2+y,-z
1/2-x,1/2-y,-z
1/2+x,1/2-y,z
loop_
_atom_site_type_symbol
_atom_site_label
_atom_site_fract_x
_atom_site_fract_y
_atom_site_fract_z
Si Si1 0.216065 0.817566 0.193612
Si Si2 0.402862 0.181227 0.064611
Si Si3 0.862532 0.317963 0.562285
Si Si4 0.947349 0.820794 0.617943
Si Si5 0.318684 0.318468 0.012637
Si Si6 0.591131 0.681198 0.702808
Si Si7 0.516084 0.817048 0.198621
O O1 0.185017 0.758875 0.331657
O O2 0.267174 0.732132 0.122323
O O3 0.224137 0.000000 0.189944
O O4 0.185889 0.786130 0.113923
O O5 0.361110 0.226609 0.024931
O O6 0.396619 0.272356 0.185393
O O7 0.401595 0.000000 0.089353
O O8 0.453955 0.215976 0.946983
O O9 0.858510 0.500000 0.571013
O O10 0.907795 0.262826 0.587055
O O11 0.874201 0.262073 0.425245
O O12 0.953464 0.745390 0.731328
O O13 0.000000 0.811061 0.500000
O O14 0.934183 0.000000 0.643072
O O15 0.326249 0.500000 0.018265
O O16 0.593360 0.500000 0.684039
O O17 0.536274 0.738763 0.742742
O O18 0.510217 0.000000 0.214821
#
# Coordination Sequence:
#
# PCOD9210902 Si02
#       7
#     8   8   8   8   8   8   8
#     4  10  21  39  65  94 125 157 194 242 297 355
#     4  11  24  41  61  87 119 157 202 248 298 352
#     4  12  24  39  61  88 122 160 200 245 300 357
#     4  11  22  36  57  86 120 156 196 243 293 349
#     4  10  21  39  64  94 124 155 196 244 296 351
#     4  12  25  41  60  84 118 160 204 248 297 354
#     4  11  23  39  61  88 119 158 202 248 298 354
#
# _framework density 19.355726000000001
#
# number of rings (size 3 to 8) (size 9 to 14) (size 15 to 20)
#    0.000    1.000    1.429    6.000    0.000    8.571 
#    0.000    0.714    0.000    0.000    0.000    0.000 
#    0.000    0.000    0.000    0.000    0.000    0.000 
#
# Total GULP energy -156709.557092 kJ/mol
# GULP energy per Si atom -5596.769896 kJ/mol
# Density = 1.931167 g / cm^3
# Si number density = 19.355726 Si / 1000 Ang^3
#
#
#
# Elastic Constant Matrix: (Units=GPa)
#
#
# Indices 1 2 3 4 5 6 
#
# 1 15.6679 -5.3478 10.3716 0.0000 3.0897 0.0000
# 2 -5.3478 49.9072 16.5704 0.0000 0.7183 0.0000
# 3 10.3716 16.5704 98.4461 0.0000 -6.1393 0.0000
# 4 0.0000 0.0000 0.0000 32.5066 0.0000 0.4551
# 5 3.0897 0.7183 -6.1393 0.0000 19.0098 0.0000
# 6 0.0000 0.0000 0.0000 0.4551 0.0000 34.3174
#
#
#
# Elastic Compliance Matrix: (Units=1/GPa)
#
#
# Indices 1 2 3 4 5 6 
#
# 1 0.079081 0.012539 -0.011505 0.000000 -0.017043 0.000000
# 2 0.012539 0.023286 -0.005534 0.000000 -0.004705 0.000000
# 3 -0.011505 -0.005534 0.012687 0.000000 0.006176 0.000000
# 4 0.000000 0.000000 0.000000 0.030769 0.000000 -0.000408
# 5 -0.017043 -0.004705 0.006176 0.000000 0.057547 0.000000
# 6 0.000000 0.000000 0.000000 -0.000408 0.000000 0.029145
#
#
# Mechanical properties :
#
#
# Convention : Reuss Voigt Hill
#
# Bulk Modulus (GPa) = 9.42916 23.02328 16.22622
# Shear Modulus (GPa) = 18.05936 26.66189 22.36062
#
# Velocity S-wave (km/s) = 3.05786 3.71545 3.40258
# Velocity P-wave (km/s) = 4.16526 5.50697 4.88243
#
# Compressibility (1/GPa) = 0.10605403
#
# Stress axis : x y z
#
# Youngs Moduli (GPa) = 12.64528 42.94443 78.82383
#
# Poissons Ratio (x) = -0.53848 0.90685
# Poissons Ratio (y) = -0.15856 0.43620
# Poissons Ratio (z) = 0.14548 0.23765
#
# Static dielectric constant tensor:
#      x y z
#    x 1.653330 0.000000 -0.000090 
#    y 0.000000 1.638750 0.000000 
#    z -0.000090 0.000000 1.671930 
# 
# From -- ./inp_files/187168.got.cif
#   From: 2010.05.17/outbox.cif.g08.bks.cpg/sg12_94_cif.got.tgz:187168.got - 2010.06.03 13:09:07.
