data_PCOD9210309
_publ_section_title
;
Structure prediction by ZEFSAII (Michael W. Deem and Ramdas Pophale) SiO2 
 PCOD9210309
Probable space group: C 2/M
;
_chemical_formula_sum "Si O2"
_cell_formula_units_Z 54
_cell_length_a 20.092211
_cell_length_b 18.870010
_cell_length_c 19.123157
_cell_angle_alpha 90.000000
_cell_angle_beta 157.368003
_cell_angle_gamma 90.000000
_cell_volume 2790.016296
_symmetry_space_group_name_H-M "C 2/M"
_symmetry_group_IT_number 12
_symmetry_cell_setting 'monoclinic'
loop_
_space_group_symop_operation_xyz
x,y,z
-x,y,-z
-x,-y,-z
x,-y,z
1/2+x,1/2+y,z
1/2-x,1/2+y,-z
1/2-x,1/2-y,-z
1/2+x,1/2-y,z
loop_
_atom_site_type_symbol
_atom_site_label
_atom_site_fract_x
_atom_site_fract_y
_atom_site_fract_z
Si Si1 0.641756 0.917990 0.902015
Si Si2 0.500000 0.330029 0.500000
Si Si3 0.651730 0.806963 0.793521
Si Si4 0.738774 0.419213 0.501432
Si Si5 0.691017 0.882849 0.586008
Si Si6 0.816112 0.775742 0.810284
Si Si7 0.583331 0.642858 0.734997
Si Si8 0.500000 0.000000 0.500000
O O1 0.705131 0.862039 0.905093
O O2 0.437594 0.902813 0.715951
O O3 0.651249 0.000000 0.886631
O O4 0.765017 0.906213 0.087494
O O5 0.334953 0.279395 0.353416
O O6 0.455670 0.369064 0.384875
O O7 0.458860 0.830008 0.585613
O O8 0.763088 0.812678 0.831459
O O9 0.646108 0.724075 0.806658
O O10 0.701874 0.500000 0.487079
O O11 0.733491 0.414888 0.411924
O O12 0.593746 0.370298 0.394730
O O13 0.823490 0.835851 0.758594
O O14 0.597210 0.938630 0.545836
O O15 0.000000 0.739720 0.000000
#
# Coordination Sequence:
#
# PCOD9210309 Si02
#       8
#     8   4   8   8   8   8   8   2
#     4  10  23  40  61  92 128 164 205 259 318 375
#     4  10  23  46  61  91 121 162 208 264 332 379
#     4  10  21  39  61  90 128 166 210 253 315 374
#     4  10  23  40  62  93 126 168 213 259 312 379
#     4  11  20  37  62  90 128 176 210 243 306 373
#     4  11  21  37  60  89 128 163 208 257 302 373
#     4  11  22  42  66  88 127 158 218 269 316 374
#     4  12  18  36  70  80 138 184 196 250 308 366
#
# _framework density 19.354725999999999
#
# number of rings (size 3 to 8) (size 9 to 14) (size 15 to 20)
#    0.000    1.481    5.185    0.889    3.111    4.741 
#    0.000    1.852    0.000    1.778    0.000    0.000 
#    0.000    0.000    0.000    0.000    0.000    0.000 
#
# Total GULP energy -150354.960006 kJ/mol
# GULP energy per Si atom -5568.702222 kJ/mol
# Density = 1.931067 g / cm^3
# Si number density = 19.354726 Si / 1000 Ang^3
#
#
#
# Elastic Constant Matrix: (Units=GPa)
#
#
# Indices 1 2 3 4 5 6 
#
# 1 98.9505 12.7323 34.7138 0.0051 -22.3720 0.0036
# 2 12.7323 31.7213 13.0470 0.0000 -8.0478 -0.0036
# 3 34.7138 13.0470 91.1209 0.0081 -17.5085 0.0052
# 4 0.0051 0.0000 0.0081 2.7519 0.0061 -10.9251
# 5 -22.3720 -8.0478 -17.5085 0.0061 15.7939 0.0014
# 6 0.0036 -0.0036 0.0052 -10.9251 0.0014 13.4593
#
#
#
# Elastic Compliance Matrix: (Units=1/GPa)
#
#
# Indices 1 2 3 4 5 6 
#
# 1 0.015182 -0.000423 -0.002074 0.000038 0.018990 0.000026
# 2 -0.000423 0.036530 -0.002043 -0.000003 0.015750 0.000006
# 3 -0.002074 -0.002043 0.014349 0.000041 0.011927 0.000027
# 4 0.000038 -0.000003 0.000041 -0.163501 0.000173 -0.132716
# 5 0.018990 0.015750 0.011927 0.000173 0.111462 0.000124
# 6 0.000026 0.000006 0.000027 -0.132716 0.000124 -0.033430
#
#
# Mechanical properties :
#
#
# Convention : Reuss Voigt Hill
#
# Bulk Modulus (GPa) = 17.54983 38.08655 27.81819
# Shear Modulus (GPa) = 577.00295 17.15434 297.07865
#
# Velocity S-wave (km/s) = 17.28488 2.98033 12.40261
# Velocity P-wave (km/s) = 20.18523 5.61819 14.81566
#
# Compressibility (1/GPa) = 0.05698061
#
# Stress axis : x y z
#
# Youngs Moduli (GPa) = 65.86935 27.37443 69.69120
#
# Poissons Ratio (x) = 0.01157 0.14456
# Poissons Ratio (y) = 0.02784 0.14239
# Poissons Ratio (z) = 0.13663 0.05593
#
# Static dielectric constant tensor:
#      x y z
#    x 1.691020 0.000000 -0.020380 
#    y 0.000000 1.670890 0.000000 
#    z -0.020380 0.000000 1.693110 
# 
# From -- ./inp_files/322767.got.cif
#   From: 2010.05.17/outbox.cif.g08.bks.cpg/sg12_162_cif.got.tgz:322767.got - 2010.06.03 13:09:07.
