data_PCOD9210614
_publ_section_title
;
Structure prediction by ZEFSAII (Michael W. Deem and Ramdas Pophale) SiO2 
 PCOD9210614
Probable space group: C 2/M
;
_chemical_formula_sum "Si O2"
_cell_formula_units_Z 64
_cell_length_a 9.800596
_cell_length_b 13.484587
_cell_length_c 25.525004
_cell_angle_alpha 90.000000
_cell_angle_beta 88.401881
_cell_angle_gamma 90.000000
_cell_volume 3371.995572
_symmetry_space_group_name_H-M "C 2/M"
_symmetry_group_IT_number 12
_symmetry_cell_setting 'monoclinic'
loop_
_space_group_symop_operation_xyz
x,y,z
-x,y,-z
-x,-y,-z
x,-y,z
1/2+x,1/2+y,z
1/2-x,1/2+y,-z
1/2-x,1/2-y,-z
1/2+x,1/2-y,z
loop_
_atom_site_type_symbol
_atom_site_label
_atom_site_fract_x
_atom_site_fract_y
_atom_site_fract_z
Si Si1 0.715678 0.281257 0.214623
Si Si2 0.660692 0.110477 0.694996
Si Si3 0.007750 0.880605 0.562740
Si Si4 0.898390 0.118416 0.046815
Si Si5 0.654081 0.113290 0.291899
Si Si6 0.238121 0.738246 0.389743
Si Si7 0.090103 0.617639 0.050558
Si Si8 0.530063 0.252366 0.858144
O O1 0.737081 0.363094 0.259095
O O2 0.728089 0.179144 0.247496
O O3 0.573370 0.282346 0.186359
O O4 0.832636 0.285999 0.170046
O O5 0.507236 0.116945 0.718436
O O6 0.677192 0.186859 0.647879
O O7 0.684414 0.000000 0.675128
O O8 0.881248 0.808796 0.583649
O O9 0.000000 0.882092 0.500000
O O10 0.150637 0.825510 0.577981
O O11 0.001856 0.000000 0.579684
O O12 0.744154 0.151733 0.038409
O O13 0.940971 0.157701 0.102872
O O14 0.900725 0.000000 0.046648
O O15 0.000000 0.151905 0.000000
O O16 0.672538 0.161520 0.348874
O O17 0.700140 0.000000 0.291356
O O18 0.092034 0.500000 0.060156
O O19 0.033935 0.670537 0.102699
O O20 0.000000 0.633819 0.000000
#
# Coordination Sequence:
#
# PCOD9210614 Si02
#       8
#     8   8   8   8   8   8   8   8
#     4  11  24  38  57  89 118 150 194 245 301 367
#     4  10  21  39  63  89 120 160 208 261 311 367
#     4  11  24  41  64  98 139 179 220 274 334 384
#     4  10  23  41  60  84 113 145 188 240 290 352
#     4  10  21  39  64  88 119 163 208 256 310 373
#     4  11  21  42  65  95 128 172 225 269 317 385
#     4  10  23  41  61  84 111 151 196 236 292 364
#     4  12  23  39  60  84 116 153 189 236 298 363
#
# _framework density 18.979859000000001
#
# number of rings (size 3 to 8) (size 9 to 14) (size 15 to 20)
#    0.000    1.375    3.750    1.500    1.750    3.000 
#    0.000    1.250    0.000    3.000    0.000    0.000 
#    0.000    0.000    0.000    0.000    0.000    0.000 
#
# Total GULP energy -178482.503361 kJ/mol
# GULP energy per Si atom -5577.578230 kJ/mol
# Density = 1.893666 g / cm^3
# Si number density = 18.979859 Si / 1000 Ang^3
#
#
#
# Elastic Constant Matrix: (Units=GPa)
#
#
# Indices 1 2 3 4 5 6 
#
# 1 77.6453 30.8211 22.1697 0.0000 3.7788 0.0000
# 2 30.8211 94.2158 22.2620 0.0000 0.9634 0.0000
# 3 22.1697 22.2620 73.1845 0.0000 10.3791 0.0000
# 4 0.0000 0.0000 0.0000 22.7392 0.0000 0.7649
# 5 3.7788 0.9634 10.3791 0.0000 35.7750 0.0000
# 6 0.0000 0.0000 0.0000 0.7649 0.0000 22.5136
#
#
#
# Elastic Compliance Matrix: (Units=1/GPa)
#
#
# Indices 1 2 3 4 5 6 
#
# 1 0.015563 -0.004299 -0.003327 0.000000 -0.000563 0.000000
# 2 -0.004299 0.012642 -0.002669 0.000000 0.000888 0.000000
# 3 -0.003327 -0.002669 0.016086 0.000000 -0.004244 0.000000
# 4 0.000000 0.000000 0.000000 0.044027 0.000000 -0.001496
# 5 -0.000563 0.000888 -0.004244 0.000000 0.029219 0.000000
# 6 0.000000 0.000000 0.000000 -0.001496 0.000000 0.044468
#
#
# Mechanical properties :
#
#
# Convention : Reuss Voigt Hill
#
# Bulk Modulus (GPa) = 42.19401 43.95013 43.07207
# Shear Modulus (GPa) = 26.24726 27.52507 26.88616
#
# Velocity S-wave (km/s) = 3.72277 3.81231 3.76781
# Velocity P-wave (km/s) = 6.38419 6.52570 6.45533
#
# Compressibility (1/GPa) = 0.02370005
#
# Stress axis : x y z
#
# Youngs Moduli (GPa) = 64.25507 79.10151 62.16727
#
# Poissons Ratio (x) = 0.34008 0.20682
# Poissons Ratio (y) = 0.27625 0.16593
# Poissons Ratio (z) = 0.21377 0.21113
#
# Static dielectric constant tensor:
#      x y z
#    x 1.685260 0.000000 -0.001030 
#    y 0.000000 1.678420 0.000000 
#    z -0.001030 0.000000 1.622150 
# 
# From -- ./inp_files/332959.got.cif
#   From: 2010.05.17/outbox.cif.g08.bks.cpg/sg12_167_cif.got.tgz:332959.got - 2010.06.03 13:09:07.
