data_PCOD9210729
_publ_section_title
;
Structure prediction by ZEFSAII (Michael W. Deem and Ramdas Pophale) SiO2 
 PCOD9210729
Probable space group: C 2/M
;
_chemical_formula_sum "Si O2"
_cell_formula_units_Z 44
_cell_length_a 18.473476
_cell_length_b 22.273189
_cell_length_c 5.171227
_cell_angle_alpha 90.000000
_cell_angle_beta 92.923057
_cell_angle_gamma 90.000000
_cell_volume 2125.001320
_symmetry_space_group_name_H-M "C 2/M"
_symmetry_group_IT_number 12
_symmetry_cell_setting 'monoclinic'
loop_
_space_group_symop_operation_xyz
x,y,z
-x,y,-z
-x,-y,-z
x,-y,z
1/2+x,1/2+y,z
1/2-x,1/2+y,-z
1/2-x,1/2-y,-z
1/2+x,1/2-y,z
loop_
_atom_site_type_symbol
_atom_site_label
_atom_site_fract_x
_atom_site_fract_y
_atom_site_fract_z
Si Si1 0.741196 0.066837 0.274240
Si Si2 0.169653 0.905393 0.220188
Si Si3 0.452196 0.500000 0.741567
Si Si4 0.200037 0.778229 0.266537
Si Si5 0.948312 0.569727 0.242412
Si Si6 0.339691 0.165408 0.996742
O O1 0.770207 0.070633 0.568754
O O2 0.714540 0.000000 0.215274
O O3 0.802499 0.082196 0.068006
O O4 0.680624 0.116591 0.222455
O O5 0.155255 0.837738 0.312635
O O6 0.099105 0.943041 0.257137
O O7 0.500000 0.500000 0.500000
O O8 0.500000 0.500000 0.000000
O O9 0.250000 0.750000 0.500000
O O10 0.263421 0.810551 0.105358
O O11 0.144619 0.728675 0.141391
O O12 0.918329 0.500000 0.256309
O O13 0.891841 0.625782 0.190651
O O14 0.000000 0.578876 0.500000
O O15 0.000000 0.570934 0.000000
#
# Coordination Sequence:
#
# PCOD9210729 Si02
#       6
#     8   8   4   8   8   8
#     4  11  19  34  60  93 120 151 196 263 319 358
#     4  11  22  38  60  88 123 153 205 260 309 357
#     4  12  24  42  64  86 122 174 208 250 304 362
#     4  10  21  39  63  93 126 160 200 269 314 368
#     4  10  23  42  64  93 131 170 210 257 302 378
#     4  10  22  37  62  94 127 165 206 251 323 372
#
# _framework density 20.705867999999999
#
# number of rings (size 3 to 8) (size 9 to 14) (size 15 to 20)
#    0.000    1.455    3.636    1.636    2.545    0.000 
#    0.000    4.545    0.000    0.000    0.000    0.000 
#    0.000    0.000    0.000    0.000    0.000    0.000 
#
# Total GULP energy -122488.129315 kJ/mol
# GULP energy per Si atom -5567.642242 kJ/mol
# Density = 2.065874 g / cm^3
# Si number density = 20.705868 Si / 1000 Ang^3
#
#
#
# Elastic Constant Matrix: (Units=GPa)
#
#
# Indices 1 2 3 4 5 6 
#
# 1 49.9891 45.3296 21.5974 0.0000 16.2373 0.0000
# 2 45.3296 223.6322 31.1352 0.0000 29.3619 0.0000
# 3 21.5974 31.1352 88.3931 0.0000 16.6094 0.0000
# 4 0.0000 0.0000 0.0000 34.1210 0.0000 2.0513
# 5 16.2373 29.3619 16.6094 0.0000 37.9286 0.0000
# 6 0.0000 0.0000 0.0000 2.0513 0.0000 -75.4580
#
#
#
# Elastic Compliance Matrix: (Units=1/GPa)
#
#
# Indices 1 2 3 4 5 6 
#
# 1 0.027755 -0.004160 -0.004019 0.000000 -0.006901 0.000000
# 2 -0.004160 0.005705 -0.000543 0.000000 -0.002398 0.000000
# 3 -0.004019 -0.000543 0.013168 0.000000 -0.003626 0.000000
# 4 0.000000 0.000000 0.000000 0.029260 0.000000 0.000795
# 5 -0.006901 -0.002398 -0.003626 0.000000 0.032764 0.000000
# 6 0.000000 0.000000 0.000000 0.000795 0.000000 -0.013231
#
#
# Mechanical properties :
#
#
# Convention : Reuss Voigt Hill
#
# Bulk Modulus (GPa) = 34.26568 62.01542 48.14055
# Shear Modulus (GPa) = 40.78556 16.91511 28.85033
#
# Velocity S-wave (km/s) = 4.44301 2.86129 3.73680
# Velocity P-wave (km/s) = 6.55020 6.39778 6.47444
#
# Compressibility (1/GPa) = 0.02918372
#
# Stress axis : x y z
#
# Youngs Moduli (GPa) = 36.02965 175.27649 75.94452
#
# Poissons Ratio (x) = 0.72918 0.30525
# Poissons Ratio (y) = 0.14989 0.04120
# Poissons Ratio (z) = 0.14481 0.09509
#
# Static dielectric constant tensor:
#      x y z
#    x 1.785950 0.000000 -0.053370 
#    y 0.000000 2.051140 0.000000 
#    z -0.053370 0.000000 1.809860 
# 
# From -- ./inp_files/16146.got.cif
#   From: 2010.05.17/outbox.cif.g08.bks.cpg/sg12_9_cif.got.tgz:16146.got - 2010.06.03 13:09:07.
