data_PCOD9210844
_publ_section_title
;
Structure prediction by ZEFSAII (Michael W. Deem and Ramdas Pophale) SiO2 
 PCOD9210844
Probable space group: C 2/M
;
_chemical_formula_sum "Si O2"
_cell_formula_units_Z 36
_cell_length_a 13.670384
_cell_length_b 21.828990
_cell_length_c 5.327938
_cell_angle_alpha 90.000000
_cell_angle_beta 69.000163
_cell_angle_gamma 90.000000
_cell_volume 1484.313817
_symmetry_space_group_name_H-M "C 2/M"
_symmetry_group_IT_number 12
_symmetry_cell_setting 'monoclinic'
loop_
_space_group_symop_operation_xyz
x,y,z
-x,y,-z
-x,-y,-z
x,-y,z
1/2+x,1/2+y,z
1/2-x,1/2+y,-z
1/2-x,1/2-y,-z
1/2+x,1/2-y,z
loop_
_atom_site_type_symbol
_atom_site_label
_atom_site_fract_x
_atom_site_fract_y
_atom_site_fract_z
Si Si1 0.918151 0.643510 0.398375
Si Si2 0.249624 0.426306 0.735167
Si Si3 0.270764 0.711558 0.227603
Si Si4 0.500000 0.745851 0.000000
Si Si5 0.122864 0.926217 0.885100
O O1 0.860726 0.607001 0.225839
O O2 0.822018 0.663070 0.663035
O O3 0.976091 0.704761 0.243389
O O4 0.000000 0.608194 0.500000
O O5 0.234342 0.500000 0.755003
O O6 0.324799 0.410007 0.429930
O O7 0.312566 0.406313 0.925959
O O8 0.250000 0.750000 0.500000
O O9 0.250000 0.750000 0.000000
O O10 0.396332 0.703920 0.093920
O O11 0.131394 0.000000 0.888085
O O12 0.000000 0.913396 0.000000
#
# Coordination Sequence:
#
# PCOD9210844 Si02
#       5
#     8   8   8   4   8
#     4  11  23  39  66  92 131 177 213 262 330 389
#     4  10  22  37  59  95 133 170 218 260 310 393
#     4  10  21  39  64  92 116 155 215 266 325 380
#     4  10  22  42  67  90 123 160 214 282 330 380
#     4   9  18  37  63  86 122 172 217 271 323 361
#
# _framework density 24.253630999999999
#
# number of rings (size 3 to 8) (size 9 to 14) (size 15 to 20)
#    0.000    2.000    2.222    0.667    3.111    3.111 
#    2.000    0.556    9.778    0.000    0.000    0.000 
#    0.000    0.000    0.000    0.000    0.000    0.000 
#
# Total GULP energy -100501.465065 kJ/mol
# GULP energy per Si atom -5583.414726 kJ/mol
# Density = 2.419843 g / cm^3
# Si number density = 24.253631 Si / 1000 Ang^3
#
#
#
# Elastic Constant Matrix: (Units=GPa)
#
#
# Indices 1 2 3 4 5 6 
#
# 1 214.6117 44.1803 83.5104 0.0000 6.4067 0.0000
# 2 44.1803 43.7593 34.8999 0.0000 -3.3891 0.0000
# 3 83.5104 34.8999 158.8917 0.0000 13.5851 0.0000
# 4 0.0000 0.0000 0.0000 33.3988 0.0000 1.8723
# 5 6.4067 -3.3891 13.5851 0.0000 54.0909 0.0000
# 6 0.0000 0.0000 0.0000 1.8723 0.0000 36.9629
#
#
#
# Elastic Compliance Matrix: (Units=1/GPa)
#
#
# Indices 1 2 3 4 5 6 
#
# 1 0.006581 -0.004797 -0.002364 0.000000 -0.000486 0.000000
# 2 -0.004797 0.031804 -0.004786 0.000000 0.003763 0.000000
# 3 -0.002364 -0.004786 0.008777 0.000000 -0.002224 0.000000
# 4 0.000000 0.000000 0.000000 0.030026 0.000000 -0.001521
# 5 -0.000486 0.003763 -0.002224 0.000000 0.019339 0.000000
# 6 0.000000 0.000000 0.000000 -0.001521 0.000000 0.027131
#
#
# Mechanical properties :
#
#
# Convention : Reuss Voigt Hill
#
# Bulk Modulus (GPa) = 42.97592 82.49379 62.73485
# Shear Modulus (GPa) = 32.19356 41.86867 37.03111
#
# Velocity S-wave (km/s) = 3.64726 4.15937 3.91170
# Velocity P-wave (km/s) = 5.95773 7.56002 6.80619
#
# Compressibility (1/GPa) = 0.02326884
#
# Stress axis : x y z
#
# Youngs Moduli (GPa) = 151.94146 31.44243 113.92912
#
# Poissons Ratio (x) = 0.15084 0.26931
# Poissons Ratio (y) = 0.72890 0.54527
# Poissons Ratio (z) = 0.35916 0.15048
#
# Static dielectric constant tensor:
#      x y z
#    x 1.953420 0.000000 -0.002190 
#    y 0.000000 2.036710 0.000000 
#    z -0.002190 0.000000 1.877970 
# 
# From -- ./inp_files/7488.got.cif
#   From: 2010.05.17/outbox.cif.g08.bks.cpg/sg12_4_cif.got.tgz:7488.got - 2010.06.03 13:09:07.
