data_PCOD9210757
_publ_section_title
;
Structure prediction by ZEFSAII (Michael W. Deem and Ramdas Pophale) SiO2 
 PCOD9210757
Probable space group: C 2/M
;
_chemical_formula_sum "Si O2"
_cell_formula_units_Z 64
_cell_length_a 11.376031
_cell_length_b 15.102702
_cell_length_c 18.581919
_cell_angle_alpha 90.000000
_cell_angle_beta 84.352665
_cell_angle_gamma 90.000000
_cell_volume 3177.042154
_symmetry_space_group_name_H-M "C 2/M"
_symmetry_group_IT_number 12
_symmetry_cell_setting 'monoclinic'
loop_
_space_group_symop_operation_xyz
x,y,z
-x,y,-z
-x,-y,-z
x,-y,z
1/2+x,1/2+y,z
1/2-x,1/2+y,-z
1/2-x,1/2-y,-z
1/2+x,1/2-y,z
loop_
_atom_site_type_symbol
_atom_site_label
_atom_site_fract_x
_atom_site_fract_y
_atom_site_fract_z
Si Si1 0.624386 0.354624 0.460057
Si Si2 0.869715 0.193198 0.987418
Si Si3 0.454561 0.705522 0.829832
Si Si4 0.834455 0.896849 0.709660
Si Si5 0.121870 0.344227 0.517364
Si Si6 0.582941 0.898794 0.670175
Si Si7 0.844578 0.095493 0.133924
Si Si8 0.426772 0.096986 0.807823
O O1 0.500000 0.386485 0.500000
O O2 0.630412 0.377811 0.375471
O O3 0.746944 0.386543 0.490626
O O4 0.627524 0.248196 0.473806
O O5 0.885465 0.167041 0.903412
O O6 0.750000 0.250000 0.000000
O O7 0.853364 0.118321 0.048950
O O8 0.000000 0.234025 0.000000
O O9 0.393063 0.671231 0.761361
O O10 0.585258 0.667784 0.826164
O O11 0.464241 0.810642 0.839791
O O12 0.692149 0.886962 0.718027
O O13 0.862719 0.000000 0.724744
O O14 0.098410 0.331355 0.604133
O O15 0.000000 0.390683 0.500000
O O16 0.463387 0.892931 0.722190
O O17 0.594231 0.000000 0.640937
O O18 0.711232 0.094112 0.168098
O O19 0.899982 0.000000 0.143614
O O20 0.475913 0.000000 0.827581
#
# Coordination Sequence:
#
# PCOD9210757 Si02
#       8
#     8   8   8   8   8   8   8   8
#     4   9  19  36  55  81 113 155 196 249 312 373
#     4  10  21  39  63  95 129 170 217 260 319 379
#     4  11  23  37  67  91 126 166 216 253 316 385
#     4  10  22  39  60  89 125 160 208 260 312 379
#     4   9  18  34  56  81 110 147 204 248 299 378
#     4   9  20  38  59  83 119 161 202 258 318 371
#     4  10  22  42  65  95 132 166 210 270 321 368
#     4  10  22  39  60  89 125 165 204 256 322 370
#
# _framework density 20.144523
#
# number of rings (size 3 to 8) (size 9 to 14) (size 15 to 20)
#    0.000    2.250    1.250    0.375    5.250    3.250 
#    2.250    0.000    0.000    6.750    0.000    0.000 
#    0.000    0.000    0.000    0.000    0.000    0.000 
#
# Total GULP energy -178140.656563 kJ/mol
# GULP energy per Si atom -5566.895518 kJ/mol
# Density = 2.009867 g / cm^3
# Si number density = 20.144523 Si / 1000 Ang^3
#
#
#
# Elastic Constant Matrix: (Units=GPa)
#
#
# Indices 1 2 3 4 5 6 
#
# 1 110.2617 39.5269 39.2076 0.0000 -6.8282 0.0000
# 2 39.5269 96.9085 21.7335 0.0000 6.6483 0.0000
# 3 39.2076 21.7335 72.8581 0.0000 -2.5632 0.0000
# 4 0.0000 0.0000 0.0000 2.1390 0.0000 -0.4061
# 5 -6.8282 6.6483 -2.5632 0.0000 32.0242 0.0000
# 6 0.0000 0.0000 0.0000 -0.4061 0.0000 19.3654
#
#
#
# Elastic Compliance Matrix: (Units=1/GPa)
#
#
# Indices 1 2 3 4 5 6 
#
# 1 0.012708 -0.004168 -0.005485 0.000000 0.003136 0.000000
# 2 -0.004168 0.012641 -0.001656 0.000000 -0.003646 0.000000
# 3 -0.005485 -0.001656 0.017190 0.000000 0.000550 0.000000
# 4 0.000000 0.000000 0.000000 0.469388 0.000000 0.009843
# 5 0.003136 -0.003646 0.000550 0.000000 0.032696 0.000000
# 6 0.000000 0.000000 0.000000 0.009843 0.000000 0.051845
#
#
# Mechanical properties :
#
#
# Convention : Reuss Voigt Hill
#
# Bulk Modulus (GPa) = 50.19891 53.44049 51.81970
# Shear Modulus (GPa) = 7.99071 22.67638 15.33354
#
# Velocity S-wave (km/s) = 1.99382 3.35876 2.76194
# Velocity P-wave (km/s) = 5.50217 6.45196 5.99590
#
# Compressibility (1/GPa) = 0.01992075
#
# Stress axis : x y z
#
# Youngs Moduli (GPa) = 78.68900 79.10970 58.17246
#
# Poissons Ratio (x) = 0.32977 0.31908
# Poissons Ratio (y) = 0.32801 0.09632
# Poissons Ratio (z) = 0.43161 0.13099
#
# Static dielectric constant tensor:
#      x y z
#    x 1.760870 0.000000 -0.003930 
#    y 0.000000 1.762350 0.000000 
#    z -0.003930 0.000000 1.702080 
# 
# From -- ./inp_files/263343.got.cif
#   From: 2010.05.17/outbox.cif.g08.bks.cpg/sg12_132_cif.got.tgz:263343.got - 2010.06.03 13:09:07.
