data_PCOD9210725
_publ_section_title
;
Structure prediction by ZEFSAII (Michael W. Deem and Ramdas Pophale) SiO2 
 PCOD9210725
Probable space group: C 2/M
;
_chemical_formula_sum "Si O2"
_cell_formula_units_Z 64
_cell_length_a 11.984221
_cell_length_b 17.344509
_cell_length_c 18.281235
_cell_angle_alpha 90.000000
_cell_angle_beta 130.903672
_cell_angle_gamma 90.000000
_cell_volume 2872.042418
_symmetry_space_group_name_H-M "C 2/M"
_symmetry_group_IT_number 12
_symmetry_cell_setting 'monoclinic'
loop_
_space_group_symop_operation_xyz
x,y,z
-x,y,-z
-x,-y,-z
x,-y,z
1/2+x,1/2+y,z
1/2-x,1/2+y,-z
1/2-x,1/2-y,-z
1/2+x,1/2-y,z
loop_
_atom_site_type_symbol
_atom_site_label
_atom_site_fract_x
_atom_site_fract_y
_atom_site_fract_z
Si Si1 0.412987 0.334560 0.119636
Si Si2 0.528267 0.804283 0.094775
Si Si3 0.955182 0.585551 0.354449
Si Si4 0.699367 0.585655 0.488867
Si Si5 0.166836 0.763953 0.544604
Si Si6 0.683739 0.090461 0.923061
Si Si7 0.179802 0.870179 0.321823
Si Si8 0.685963 0.212449 0.804668
O O1 0.424243 0.269979 0.061613
O O2 0.561417 0.378533 0.206441
O O3 0.387669 0.278620 0.177885
O O4 0.286049 0.390922 0.037495
O O5 0.475165 0.871440 0.125835
O O6 0.684583 0.763618 0.175048
O O7 0.500000 0.830844 0.000000
O O8 0.943187 0.500000 0.312689
O O9 0.829586 0.587415 0.362225
O O10 0.919395 0.663269 0.293331
O O11 0.124277 0.591580 0.451348
O O12 0.664773 0.500000 0.496906
O O13 0.663796 0.644493 0.537985
O O14 0.625833 0.602330 0.378300
O O15 0.250000 0.750000 0.500000
O O16 0.272776 0.718497 0.644711
O O17 0.000000 0.740358 0.500000
O O18 0.742384 0.142273 0.880843
O O19 0.679698 0.000000 0.907369
#
# Coordination Sequence:
#
# PCOD9210725 Si02
#       8
#     8   8   8   8   8   8   8   8
#     4  11  22  37  60  89 122 162 211 260 315 383
#     4  11  19  41  63  85 119 166 213 250 319 394
#     4  11  22  37  63  94 122 160 210 263 323 383
#     4  10  22  40  59  87 130 168 204 260 324 382
#     4  10  21  39  63  93 123 165 223 265 314 387
#     4  11  24  39  62  93 126 159 208 271 323 381
#     4  11  21  36  61  91 124 163 210 265 314 382
#     4  11  21  41  64  86 122 164 208 261 317 385
#
# _framework density 22.283794
#
# number of rings (size 3 to 8) (size 9 to 14) (size 15 to 20)
#    0.000    1.250    3.750    4.125    0.000    3.500 
#    0.000    0.625    0.000    0.000    0.000    0.000 
#    0.000    0.000    0.000    0.000    0.000    0.000 
#
# Total GULP energy -178256.130639 kJ/mol
# GULP energy per Si atom -5570.504082 kJ/mol
# Density = 2.223308 g / cm^3
# Si number density = 22.283794 Si / 1000 Ang^3
#
#
#
# Elastic Constant Matrix: (Units=GPa)
#
#
# Indices 1 2 3 4 5 6 
#
# 1 59.5270 16.0717 12.9033 0.0000 10.4869 0.0000
# 2 16.0717 108.8070 20.6485 0.0000 8.0779 0.0000
# 3 12.9033 20.6485 75.7718 0.0000 3.0990 0.0000
# 4 0.0000 0.0000 0.0000 18.3773 0.0000 0.4564
# 5 10.4869 8.0779 3.0990 0.0000 23.3020 0.0000
# 6 0.0000 0.0000 0.0000 0.4564 0.0000 25.7516
#
#
#
# Elastic Compliance Matrix: (Units=1/GPa)
#
#
# Indices 1 2 3 4 5 6 
#
# 1 0.019170 -0.001794 -0.002461 0.000000 -0.007678 0.000000
# 2 -0.001794 0.010077 -0.002343 0.000000 -0.002374 0.000000
# 3 -0.002461 -0.002343 0.014254 0.000000 0.000024 0.000000
# 4 0.000000 0.000000 0.000000 0.054439 0.000000 -0.000965
# 5 -0.007678 -0.002374 0.000024 0.000000 0.047190 0.000000
# 6 0.000000 0.000000 0.000000 -0.000965 0.000000 0.038850
#
#
# Mechanical properties :
#
#
# Convention : Reuss Voigt Hill
#
# Bulk Modulus (GPa) = 33.00084 38.15032 35.57558
# Shear Modulus (GPa) = 24.12221 26.45168 25.28695
#
# Velocity S-wave (km/s) = 3.29371 3.44908 3.37229
# Velocity P-wave (km/s) = 5.41352 5.74621 5.58234
#
# Compressibility (1/GPa) = 0.03030226
#
# Stress axis : x y z
#
# Youngs Moduli (GPa) = 52.16556 99.24018 70.15452
#
# Poissons Ratio (x) = 0.17808 0.17268
# Poissons Ratio (y) = 0.09361 0.16439
# Poissons Ratio (z) = 0.12840 0.23255
#
# Static dielectric constant tensor:
#      x y z
#    x 1.958750 0.000000 -0.003760 
#    y 0.000000 1.857940 0.000000 
#    z -0.003760 0.000000 1.850090 
# 
# From -- ./inp_files/306230.got.cif
#   From: 2010.05.17/outbox.cif.g08.bks.cpg/sg12_154_cif.got.tgz:306230.got - 2010.06.03 13:09:07.
