data_PCOD9210453
_publ_section_title
;
Structure prediction by ZEFSAII (Michael W. Deem and Ramdas Pophale) SiO2 
 PCOD9210453
Probable space group: C 2/M
;
_chemical_formula_sum "Si O2"
_cell_formula_units_Z 40
_cell_length_a 26.900251
_cell_length_b 14.488077
_cell_length_c 4.946054
_cell_angle_alpha 90.000000
_cell_angle_beta 78.783336
_cell_angle_gamma 90.000000
_cell_volume 1890.819428
_symmetry_space_group_name_H-M "C 2/M"
_symmetry_group_IT_number 12
_symmetry_cell_setting 'monoclinic'
loop_
_space_group_symop_operation_xyz
x,y,z
-x,y,-z
-x,-y,-z
x,-y,z
1/2+x,1/2+y,z
1/2-x,1/2+y,-z
1/2-x,1/2-y,-z
1/2+x,1/2-y,z
loop_
_atom_site_type_symbol
_atom_site_label
_atom_site_fract_x
_atom_site_fract_y
_atom_site_fract_z
Si Si1 0.905613 0.796542 0.788679
Si Si2 0.449040 0.390961 0.219663
Si Si3 0.656531 0.895831 0.607600
Si Si4 0.058460 0.603368 0.353286
Si Si5 0.305281 0.791265 0.912677
O O1 0.938251 0.838448 0.508823
O O2 0.928626 0.694873 0.829305
O O3 0.907148 0.861617 0.046412
O O4 0.847570 0.781219 0.764362
O O5 0.450495 0.500000 0.272286
O O6 0.500000 0.365850 0.000000
O O7 0.598665 0.888440 0.558057
O O8 0.673254 0.827784 0.825786
O O9 0.664247 0.000000 0.692584
O O10 0.690628 0.872775 0.310066
O O11 0.067062 0.500000 0.224597
O O12 0.000000 0.607271 0.500000
O O13 0.250000 0.750000 0.000000
#
# Coordination Sequence:
#
# PCOD9210453 Si02
#       5
#     8   8   8   8   8
#     4  11  22  39  61  87 121 160 203 253 309 370
#     4  11  23  40  62  88 120 159 204 254 311 373
#     4  10  21  39  62  89 124 164 208 254 309 382
#     4   9  18  34  59  92 126 159 196 242 301 374
#     4  11  23  41  62  88 122 163 211 265 321 371
#
# _framework density 21.15485
#
# number of rings (size 3 to 8) (size 9 to 14) (size 15 to 20)
#    0.000    1.600    0.000    6.000    0.000    2.400 
#    0.000   10.000    0.000   28.800    0.000    0.000 
#    0.000    0.000    0.000    0.000    0.000    0.000 
#
# Total GULP energy -111715.942287 kJ/mol
# GULP energy per Si atom -5585.797114 kJ/mol
# Density = 2.110670 g / cm^3
# Si number density = 21.154850 Si / 1000 Ang^3
#
#
#
# Elastic Constant Matrix: (Units=GPa)
#
#
# Indices 1 2 3 4 5 6 
#
# 1 101.7152 48.5280 37.3024 0.0000 -32.0035 0.0000
# 2 48.5280 77.3823 32.7982 0.0000 -13.5894 0.0000
# 3 37.3024 32.7982 96.2420 0.0000 -5.2798 0.0000
# 4 0.0000 0.0000 0.0000 17.7838 0.0000 3.8740
# 5 -32.0035 -13.5894 -5.2798 0.0000 35.6208 0.0000
# 6 0.0000 0.0000 0.0000 3.8740 0.0000 17.0435
#
#
#
# Elastic Compliance Matrix: (Units=1/GPa)
#
#
# Indices 1 2 3 4 5 6 
#
# 1 0.019550 -0.008106 -0.004054 0.000000 0.013871 0.000000
# 2 -0.008106 0.019420 -0.003498 0.000000 -0.000392 0.000000
# 3 -0.004054 -0.003498 0.012986 0.000000 -0.003052 0.000000
# 4 0.000000 0.000000 0.000000 0.059160 0.000000 -0.013447
# 5 0.013871 -0.000392 -0.003052 0.000000 0.039934 0.000000
# 6 0.000000 0.000000 0.000000 -0.013447 0.000000 0.061730
#
#
# Mechanical properties :
#
#
# Convention : Reuss Voigt Hill
#
# Bulk Modulus (GPa) = 48.44800 56.95521 52.70160
# Shear Modulus (GPa) = 19.92223 24.53700 22.22961
#
# Velocity S-wave (km/s) = 3.07210 3.40939 3.24513
# Velocity P-wave (km/s) = 5.96113 6.51767 6.24560
#
# Compressibility (1/GPa) = 0.02064069
#
# Stress axis : x y z
#
# Youngs Moduli (GPa) = 51.15147 51.49377 77.00399
#
# Poissons Ratio (x) = 0.41740 0.31217
# Poissons Ratio (y) = 0.41463 0.26935
# Poissons Ratio (z) = 0.20736 0.18012
#
# Static dielectric constant tensor:
#      x y z
#    x 1.782400 0.000000 0.010770 
#    y 0.000000 1.775100 0.000000 
#    z 0.010770 0.000000 1.777550 
# 
# From -- ./inp_files/31041.got.cif
#   From: 2010.05.17/outbox.cif.g08.bks.cpg/sg12_16_cif.got.tgz:31041.got - 2010.06.03 13:09:07.
