data_PCOD9210420
_publ_section_title
;
Structure prediction by ZEFSAII (Michael W. Deem and Ramdas Pophale) SiO2 
 PCOD9210420
Probable space group: C 2/M
;
_chemical_formula_sum "Si O2"
_cell_formula_units_Z 58
_cell_length_a 30.369278
_cell_length_b 7.498139
_cell_length_c 23.535636
_cell_angle_alpha 90.000000
_cell_angle_beta 152.492485
_cell_angle_gamma 90.000000
_cell_volume 2475.306028
_symmetry_space_group_name_H-M "C 2/M"
_symmetry_group_IT_number 12
_symmetry_cell_setting 'monoclinic'
loop_
_space_group_symop_operation_xyz
x,y,z
-x,y,-z
-x,-y,-z
x,-y,z
1/2+x,1/2+y,z
1/2-x,1/2+y,-z
1/2-x,1/2-y,-z
1/2+x,1/2-y,z
loop_
_atom_site_type_symbol
_atom_site_label
_atom_site_fract_x
_atom_site_fract_y
_atom_site_fract_z
Si Si1 0.878078 0.797912 0.815186
Si Si2 0.331364 0.782452 0.460957
Si Si3 0.670081 0.787911 0.861070
Si Si4 0.417380 0.796611 0.444008
Si Si5 0.752645 0.205539 0.173661
Si Si6 0.462438 0.781459 0.093006
Si Si7 0.487423 0.782869 0.721275
Si Si8 0.000000 0.500000 0.000000
O O1 0.778148 0.735330 0.674135
O O2 0.917340 0.656335 0.904584
O O3 0.957508 0.792698 0.856773
O O4 0.868580 0.000000 0.826251
O O5 0.391752 0.718484 0.475655
O O6 0.385614 0.725857 0.579938
O O7 0.332547 0.000000 0.461619
O O8 0.699905 0.712385 0.834526
O O9 0.570366 0.723989 0.773114
O O10 0.663260 0.000000 0.845511
O O11 0.750000 0.750000 0.000000
O O12 0.500000 0.712242 0.500000
O O13 0.321031 0.799268 0.296857
O O14 0.449672 0.000000 0.492765
O O15 0.747832 0.000000 0.185824
O O16 0.645217 0.274957 0.043853
O O17 0.487473 0.730727 0.186136
O O18 0.467203 0.000000 0.092006
O O19 0.489623 0.000000 0.724187
#
# Coordination Sequence:
#
# PCOD9210420 Si02
#       8
#     8   8   8   8   8   8   8   2
#     4  11  25  43  69 100 130 171 220 268 326 389
#     4   9  20  39  64  95 124 162 220 264 314 388
#     4  11  20  35  59  89 124 164 211 259 318 380
#     4  10  21  39  62  88 120 163 211 258 315 383
#     4  11  23  37  58  88 126 165 208 264 322 379
#     4  10  21  40  62  93 130 169 213 263 328 381
#     4   9  18  37  65  90 126 173 210 264 324 387
#     4  12  26  48  72  94 138 172 210 280 328 386
#
# _framework density 23.431445
#
# number of rings (size 3 to 8) (size 9 to 14) (size 15 to 20)
#    0.000    1.793    2.069    1.862    1.931    4.138 
#    0.000    0.000    4.552    0.000    0.000    0.000 
#    0.000    0.000    0.000    0.000    0.000    0.000 
#
# Total GULP energy -162003.521484 kJ/mol
# GULP energy per Si atom -5586.328327 kJ/mol
# Density = 2.337811 g / cm^3
# Si number density = 23.431445 Si / 1000 Ang^3
#
#
#
# Elastic Constant Matrix: (Units=GPa)
#
#
# Indices 1 2 3 4 5 6 
#
# 1 91.7915 3.8433 23.1321 0.0000 4.8739 0.0000
# 2 3.8433 88.4163 21.3791 0.0000 5.4606 0.0000
# 3 23.1321 21.3791 155.5595 0.0000 3.3148 0.0000
# 4 0.0000 0.0000 0.0000 13.2108 0.0000 -5.9068
# 5 4.8739 5.4606 3.3148 0.0000 34.6476 0.0000
# 6 0.0000 0.0000 0.0000 -5.9068 0.0000 8.5768
#
#
#
# Elastic Compliance Matrix: (Units=1/GPa)
#
#
# Indices 1 2 3 4 5 6 
#
# 1 0.011390 -0.000004 -0.001662 0.000000 -0.001443 0.000000
# 2 -0.000004 0.011799 -0.001585 0.000000 -0.001707 0.000000
# 3 -0.001662 -0.001585 0.006897 0.000000 -0.000176 0.000000
# 4 0.000000 0.000000 0.000000 0.109375 0.000000 0.075326
# 5 -0.001443 -0.001707 -0.000176 0.000000 0.029351 0.000000
# 6 0.000000 0.000000 0.000000 0.075326 0.000000 0.168471
#
#
# Mechanical properties :
#
#
# Convention : Reuss Voigt Hill
#
# Bulk Modulus (GPa) = 42.40177 48.05294 45.22735
# Shear Modulus (GPa) = 14.21883 30.44790 22.33336
#
# Velocity S-wave (km/s) = 2.46606 3.60869 3.09064
# Velocity P-wave (km/s) = 5.12289 6.15759 5.66392
#
# Compressibility (1/GPa) = 0.02358392
#
# Stress axis : x y z
#
# Youngs Moduli (GPa) = 87.79664 84.75365 144.98754
#
# Poissons Ratio (x) = 0.00034 0.24103
# Poissons Ratio (y) = 0.00035 0.22974
# Poissons Ratio (z) = 0.14596 0.13430
#
# Static dielectric constant tensor:
#      x y z
#    x 1.887700 0.000000 -0.008970 
#    y 0.000000 1.880820 0.000000 
#    z -0.008970 0.000000 1.853700 
# 
# From -- ./inp_files/353082.got.cif
#   From: 2010.05.17/outbox.cif.g08.bks.cpg/sg12_177_cif.got.tgz:353082.got - 2010.06.03 13:09:07.
