data_PCOD9210790
_publ_section_title
;
Structure prediction by ZEFSAII (Michael W. Deem and Ramdas Pophale) SiO2 
 PCOD9210790
Probable space group: C 2/M
;
_chemical_formula_sum "Si O2"
_cell_formula_units_Z 40
_cell_length_a 7.555723
_cell_length_b 16.655457
_cell_length_c 15.169792
_cell_angle_alpha 90.000000
_cell_angle_beta 114.031945
_cell_angle_gamma 90.000000
_cell_volume 1743.550304
_symmetry_space_group_name_H-M "C 2/M"
_symmetry_group_IT_number 12
_symmetry_cell_setting 'monoclinic'
loop_
_space_group_symop_operation_xyz
x,y,z
-x,y,-z
-x,-y,-z
x,-y,z
1/2+x,1/2+y,z
1/2-x,1/2+y,-z
1/2-x,1/2-y,-z
1/2+x,1/2-y,z
loop_
_atom_site_type_symbol
_atom_site_label
_atom_site_fract_x
_atom_site_fract_y
_atom_site_fract_z
Si Si1 0.591566 0.327646 0.831576
Si Si2 0.987045 0.662891 0.102201
Si Si3 0.000000 0.196447 0.500000
Si Si4 0.732517 0.338755 0.382756
Si Si5 0.646442 0.000000 0.662923
Si Si6 0.514936 0.000000 0.183508
Si Si7 0.925766 0.000000 0.162628
O O1 0.791865 0.330752 0.818951
O O2 0.605921 0.246613 0.890068
O O3 0.413142 0.326197 0.728484
O O4 0.581114 0.412025 0.883047
O O5 0.909843 0.580818 0.128149
O O6 0.000000 0.653961 0.000000
O O7 0.147886 0.257554 0.577986
O O8 0.110120 0.147610 0.447102
O O9 0.864876 0.415819 0.389777
O O10 0.870526 0.000000 0.744169
O O11 0.499596 0.000000 0.714784
O O12 0.731659 0.000000 0.185218
#
# Coordination Sequence:
#
# PCOD9210790 Si02
#       7
#     8   8   4   8   4   4   4
#     4  10  21  39  64  87 123 168 204 256 313 379
#     4  11  23  39  61  94 126 164 215 261 310 367
#     4  10  22  40  64  94 124 158 202 262 316 362
#     4  10  22  41  63  92 126 161 206 255 311 388
#     4  10  22  41  65  93 122 164 218 246 317 387
#     4  10  23  40  64  89 125 175 210 260 316 367
#     4   8  20  41  58  91 121 159 214 255 307 376
#
# _framework density 22.941696
#
# number of rings (size 3 to 8) (size 9 to 14) (size 15 to 20)
#    0.000    2.000    0.000    2.100    8.400    0.800 
#    7.200    0.500    0.000    0.000    0.000    0.000 
#    0.000    0.000    0.000    0.000    0.000    0.000 
#
# Total GULP energy -111645.231748 kJ/mol
# GULP energy per Si atom -5582.261587 kJ/mol
# Density = 2.288948 g / cm^3
# Si number density = 22.941696 Si / 1000 Ang^3
#
#
#
# Elastic Constant Matrix: (Units=GPa)
#
#
# Indices 1 2 3 4 5 6 
#
# 1 37.4909 13.9662 14.7129 0.0000 -3.9911 0.0000
# 2 13.9662 171.5392 33.1667 0.0000 -24.7604 0.0000
# 3 14.7129 33.1667 76.5459 0.0000 -2.6090 0.0000
# 4 0.0000 0.0000 0.0000 -4.2122 0.0000 39.1560
# 5 -3.9911 -24.7604 -2.6090 0.0000 43.9847 0.0000
# 6 0.0000 0.0000 0.0000 39.1560 0.0000 -283.2085
#
#
#
# Elastic Compliance Matrix: (Units=1/GPa)
#
#
# Indices 1 2 3 4 5 6 
#
# 1 0.029274 -0.001158 -0.005067 0.000000 0.001704 0.000000
# 2 -0.001158 0.006969 -0.002672 0.000000 0.003659 0.000000
# 3 -0.005067 -0.002672 0.015160 0.000000 -0.001065 0.000000
# 4 0.000000 0.000000 0.000000 0.832350 0.000000 0.115080
# 5 0.001704 0.003659 -0.001065 0.000000 0.024887 0.000000
# 6 0.000000 0.000000 0.000000 0.115080 0.000000 0.012380
#
#
# Mechanical properties :
#
#
# Convention : Reuss Voigt Hill
#
# Bulk Modulus (GPa) = 29.75442 45.47418 37.61430
# Shear Modulus (GPa) = 5.26307 -33.77187 -14.25440
#
# Velocity S-wave (km/s) = 1.51627 -3.84092 -2.49536
# Velocity P-wave (km/s) = 4.00789 0.44091 2.85110
#
# Compressibility (1/GPa) = 0.03360845
#
# Stress axis : x y z
#
# Youngs Moduli (GPa) = 34.15959 143.49877 65.96498
#
# Poissons Ratio (x) = 0.16614 0.33425
# Poissons Ratio (y) = 0.03955 0.17627
# Poissons Ratio (z) = 0.17309 0.38346
#
# Static dielectric constant tensor:
#      x y z
#    x 1.886500 0.000000 0.019030 
#    y 0.000000 1.923060 0.000000 
#    z 0.019030 0.000000 1.840220 
# 
# From -- ./inp_files/194704.got.cif
#   From: 2010.05.17/outbox.cif.g08.bks.cpg/sg12_98_cif.got.tgz:194704.got - 2010.06.03 13:09:07.
