data_PCOD9210967
_publ_section_title
;
Structure prediction by ZEFSAII (Michael W. Deem and Ramdas Pophale) SiO2 
 PCOD9210967
Probable space group: C 2/M
;
_chemical_formula_sum "Si O2"
_cell_formula_units_Z 56
_cell_length_a 14.712169
_cell_length_b 29.506811
_cell_length_c 5.373730
_cell_angle_alpha 90.000000
_cell_angle_beta 96.291757
_cell_angle_gamma 90.000000
_cell_volume 2318.734586
_symmetry_space_group_name_H-M "C 2/M"
_symmetry_group_IT_number 12
_symmetry_cell_setting 'monoclinic'
loop_
_space_group_symop_operation_xyz
x,y,z
-x,y,-z
-x,-y,-z
x,-y,z
1/2+x,1/2+y,z
1/2-x,1/2+y,-z
1/2-x,1/2-y,-z
1/2+x,1/2-y,z
loop_
_atom_site_type_symbol
_atom_site_label
_atom_site_fract_x
_atom_site_fract_y
_atom_site_fract_z
Si Si1 0.144512 0.050445 0.163112
Si Si2 0.414216 0.129064 0.154739
Si Si3 0.082248 0.267541 0.836203
Si Si4 0.656642 0.264489 0.341657
Si Si5 0.744450 0.602165 0.817035
Si Si6 0.400842 0.359157 0.588510
Si Si7 0.651227 0.050592 0.535365
O O1 0.092654 0.092389 0.270418
O O2 0.247314 0.049248 0.309133
O O3 0.105340 0.000000 0.169703
O O4 0.167869 0.067586 0.895254
O O5 0.430476 0.180214 0.246841
O O6 0.408131 0.088250 0.346915
O O7 0.500000 0.120106 0.000000
O O8 0.309473 0.130091 0.019705
O O9 0.094922 0.243065 0.576072
O O10 0.156098 0.263039 0.080727
O O11 0.000000 0.253140 0.000000
O O12 0.750000 0.250000 0.500000
O O13 0.632165 0.316273 0.260573
O O14 0.685793 0.634286 0.622537
O O15 0.822359 0.569927 0.723351
O O16 0.500000 0.351080 0.500000
O O17 0.613983 0.000000 0.525362
#
# Coordination Sequence:
#
# PCOD9210967 Si02
#       7
#     8   8   8   8   8   8   8
#     4   9  20  39  65  94 130 174 223 276 339 408
#     4  10  23  39  63  93 128 172 224 278 338 409
#     4  11  25  45  68  97 137 179 225 282 345 416
#     4  12  27  45  73 102 137 182 232 287 351 420
#     4  10  21  39  65  89 131 173 218 274 342 404
#     4  11  25  42  65  98 134 173 224 282 340 406
#     4   9  19  37  62  92 129 169 219 277 340 410
#
# _framework density 24.151105999999999
#
# number of rings (size 3 to 8) (size 9 to 14) (size 15 to 20)
#    0.000    1.714    0.000    3.000   10.000    2.857 
#    0.000    1.429    0.000    0.000    0.000    0.000 
#    0.000    0.000    0.000    0.000    0.000    0.000 
#
# Total GULP energy -156011.798649 kJ/mol
# GULP energy per Si atom -5571.849952 kJ/mol
# Density = 2.409614 g / cm^3
# Si number density = 24.151106 Si / 1000 Ang^3
#
#
#
# Elastic Constant Matrix: (Units=GPa)
#
#
# Indices 1 2 3 4 5 6 
#
# 1 98.1064 47.9451 19.4888 0.0000 -7.8419 0.0000
# 2 47.9451 139.4731 27.6751 0.0000 -19.0872 0.0000
# 3 19.4888 27.6751 60.7894 0.0000 -10.2794 0.0000
# 4 0.0000 0.0000 0.0000 -5.6050 0.0000 -2.3446
# 5 -7.8419 -19.0872 -10.2794 0.0000 35.0990 0.0000
# 6 0.0000 0.0000 0.0000 -2.3446 0.0000 36.9768
#
#
#
# Elastic Compliance Matrix: (Units=1/GPa)
#
#
# Indices 1 2 3 4 5 6 
#
# 1 0.012527 -0.003853 -0.002255 0.000000 0.000043 0.000000
# 2 -0.003853 0.009473 -0.002475 0.000000 0.003566 0.000000
# 3 -0.002255 -0.002475 0.018924 0.000000 0.003693 0.000000
# 4 0.000000 0.000000 0.000000 -0.173802 0.000000 -0.011020
# 5 0.000043 0.003566 0.003693 0.000000 0.031521 0.000000
# 6 0.000000 0.000000 0.000000 -0.011020 0.000000 0.026345
#
#
# Mechanical properties :
#
#
# Convention : Reuss Voigt Hill
#
# Bulk Modulus (GPa) = 42.08735 54.28745 48.18740
# Shear Modulus (GPa) = -100.14839 26.84482 -36.65178
#
# Velocity S-wave (km/s) = -6.44651 3.33759 -3.89987
# Velocity P-wave (km/s) = 6.15998 6.11389 0.53184
#
# Compressibility (1/GPa) = 0.02376011
#
# Stress axis : x y z
#
# Youngs Moduli (GPa) = 79.82505 105.55843 52.84259
#
# Poissons Ratio (x) = 0.40673 0.11915
# Poissons Ratio (y) = 0.30757 0.13076
# Poissons Ratio (z) = 0.17999 0.26121
#
# Static dielectric constant tensor:
#      x y z
#    x -4.371060 0.000000 2.791580 
#    y 0.000000 1.904010 0.000000 
#    z 2.791580 0.000000 0.545920 
# 
# From -- ./inp_files/13141.got.cif
#   From: 2010.05.17/outbox.cif.g08.bks.cpg/sg12_7_cif.got.tgz:13141.got - 2010.06.03 13:09:07.
