data_PCOD9210842
_publ_section_title
;
Structure prediction by ZEFSAII (Michael W. Deem and Ramdas Pophale) SiO2 
 PCOD9210842
Probable space group: C 2/M
;
_chemical_formula_sum "Si O2"
_cell_formula_units_Z 40
_cell_length_a 13.481784
_cell_length_b 12.632918
_cell_length_c 15.381185
_cell_angle_alpha 90.000000
_cell_angle_beta 38.411447
_cell_angle_gamma 90.000000
_cell_volume 1627.590796
_symmetry_space_group_name_H-M "C 2/M"
_symmetry_group_IT_number 12
_symmetry_cell_setting 'monoclinic'
loop_
_space_group_symop_operation_xyz
x,y,z
-x,y,-z
-x,-y,-z
x,-y,z
1/2+x,1/2+y,z
1/2-x,1/2+y,-z
1/2-x,1/2-y,-z
1/2+x,1/2-y,z
loop_
_atom_site_type_symbol
_atom_site_label
_atom_site_fract_x
_atom_site_fract_y
_atom_site_fract_z
Si Si1 0.402383 0.116173 0.446263
Si Si2 0.291385 0.209203 0.352038
Si Si3 0.419765 0.620341 0.842340
Si Si4 0.173519 0.342575 0.855429
Si Si5 0.266682 0.383819 0.135709
O O1 0.291905 0.138980 0.438377
O O2 0.355285 0.209347 0.543201
O O3 0.579675 0.120071 0.285734
O O4 0.376184 0.000000 0.502151
O O5 0.447855 0.287044 0.247460
O O6 0.288440 0.135268 0.270217
O O7 0.486588 0.500000 0.797358
O O8 0.306281 0.630438 0.835649
O O9 0.309559 0.629899 0.004552
O O10 0.161723 0.214482 0.863317
O O11 0.000000 0.383945 0.000000
O O12 0.323350 0.500000 0.124416
#
# Coordination Sequence:
#
# PCOD9210842 Si02
#       5
#     8   8   8   8   8
#     4  10  22  42  64  89 125 166 207 258 316 372
#     4  11  23  41  67  91 127 167 209 258 317 372
#     4  11  23  42  66  95 128 166 210 258 313 375
#     4  12  23  38  66  96 129 162 212 260 314 368
#     4  10  21  39  64  91 126 165 206 257 316 372
#
# _framework density 24.576201999999999
#
# number of rings (size 3 to 8) (size 9 to 14) (size 15 to 20)
#    0.000    1.200    4.000    2.400    0.000    4.000 
#    0.000    2.000    0.000    3.600    0.000    0.000 
#    0.000    0.000    0.000    0.000    0.000    0.000 
#
# Total GULP energy -111964.911718 kJ/mol
# GULP energy per Si atom -5598.245586 kJ/mol
# Density = 2.452027 g / cm^3
# Si number density = 24.576202 Si / 1000 Ang^3
#
#
#
# Elastic Constant Matrix: (Units=GPa)
#
#
# Indices 1 2 3 4 5 6 
#
# 1 115.3347 1.4351 32.6845 0.0001 5.7258 -0.0001
# 2 1.4351 104.4676 3.3807 0.0002 -7.9512 -0.0001
# 3 32.6845 3.3807 111.7722 0.0003 0.0229 -0.0002
# 4 0.0001 0.0002 0.0003 132.4774 -0.0002 -91.9805
# 5 5.7258 -7.9512 0.0229 -0.0002 44.5432 0.0001
# 6 -0.0001 -0.0001 -0.0002 -91.9805 0.0001 68.0072
#
#
#
# Elastic Compliance Matrix: (Units=1/GPa)
#
#
# Indices 1 2 3 4 5 6 
#
# 1 0.009522 -0.000136 -0.002780 0.000000 -0.001247 0.000000
# 2 -0.000136 0.009716 -0.000255 0.000000 0.001752 0.000000
# 3 -0.002780 -0.000255 0.009767 0.000000 0.000307 0.000000
# 4 0.000000 0.000000 0.000000 0.123874 0.000000 0.167541
# 5 -0.001247 0.001752 0.000307 0.000000 0.022923 0.000000
# 6 0.000000 0.000000 0.000000 0.167541 0.000000 0.241306
#
#
# Mechanical properties :
#
#
# Convention : Reuss Voigt Hill
#
# Bulk Modulus (GPa) = 44.12207 45.17499 44.64853
# Shear Modulus (GPa) = 11.60085 68.61050 40.10568
#
# Velocity S-wave (km/s) = 2.17500 5.28943 4.04405
# Velocity P-wave (km/s) = 4.92946 7.46496 6.32555
#
# Compressibility (1/GPa) = 0.02266439
#
# Stress axis : x y z
#
# Youngs Moduli (GPa) = 105.02187 102.92524 102.38207
#
# Poissons Ratio (x) = 0.01397 0.28462
# Poissons Ratio (y) = 0.01425 0.02606
# Poissons Ratio (z) = 0.29196 0.02620
#
# Static dielectric constant tensor:
#      x y z
#    x 1.918740 0.000000 -0.013260 
#    y 0.000000 1.956350 0.000000 
#    z -0.013260 0.000000 1.983150 
# 
# From -- ./inp_files/58938.got.cif
#   From: 2010.05.17/outbox.cif.g08.bks.cpg/sg12_30_cif.got.tgz:58938.got - 2010.06.03 13:09:07.
