data_PCOD9210340
_publ_section_title
;
Structure prediction by ZEFSAII (Michael W. Deem and Ramdas Pophale) SiO2 
 PCOD9210340
Probable space group: C 2/M
;
_chemical_formula_sum "Si O2"
_cell_formula_units_Z 64
_cell_length_a 25.354680
_cell_length_b 15.225284
_cell_length_c 12.781493
_cell_angle_alpha 90.000000
_cell_angle_beta 136.810459
_cell_angle_gamma 90.000000
_cell_volume 3376.945281
_symmetry_space_group_name_H-M "C 2/M"
_symmetry_group_IT_number 12
_symmetry_cell_setting 'monoclinic'
loop_
_space_group_symop_operation_xyz
x,y,z
-x,y,-z
-x,-y,-z
x,-y,z
1/2+x,1/2+y,z
1/2-x,1/2+y,-z
1/2-x,1/2-y,-z
1/2+x,1/2-y,z
loop_
_atom_site_type_symbol
_atom_site_label
_atom_site_fract_x
_atom_site_fract_y
_atom_site_fract_z
Si Si1 0.520440 0.902777 0.308209
Si Si2 0.605243 0.845385 0.732773
Si Si3 0.198823 0.736642 0.167182
Si Si4 0.575262 0.100809 0.039133
Si Si5 0.136292 0.727925 0.548548
Si Si6 0.251041 0.096038 0.932483
Si Si7 0.961963 0.100180 0.560499
Si Si8 0.612510 0.337615 0.868201
O O1 0.472338 0.893823 0.345686
O O2 0.455942 0.893658 0.124921
O O3 0.584260 0.827524 0.393240
O O4 0.554651 0.000000 0.348425
O O5 0.620830 0.821603 0.636253
O O6 0.599766 0.753550 0.787753
O O7 0.678156 0.895974 0.884976
O O8 0.272287 0.771406 0.336632
O O9 0.237035 0.674312 0.132414
O O10 0.141140 0.673090 0.145936
O O11 0.150224 0.810236 0.033410
O O12 0.600870 0.000000 0.095171
O O13 0.500000 0.116966 0.000000
O O14 0.101667 0.825693 0.511026
O O15 0.174163 0.109852 0.887981
O O16 0.251797 0.000000 0.883086
O O17 0.000000 0.114498 0.500000
O O18 0.030940 0.113975 0.743863
O O19 0.933352 0.000000 0.521672
#
# Coordination Sequence:
#
# PCOD9210340 Si02
#       8
#     8   8   8   8   8   8   8   8
#     4  11  22  36  56  79 110 149 181 218 270 321
#     4  11  18  31  49  72 110 151 179 213 257 305
#     4  11  20  34  54  74 104 144 171 221 275 311
#     4  10  21  39  62  83 100 126 178 239 282 319
#     4  12  21  35  50  77 118 147 176 214 255 324
#     4  11  19  28  47  76 107 143 188 219 250 305
#     4  11  20  30  45  67 100 147 187 215 250 295
#     4  11  18  33  47  69 105 149 182 214 253 304
#
# _framework density 18.95204
#
# number of rings (size 3 to 8) (size 9 to 14) (size 15 to 20)
#    0.000    1.000    7.500    2.250    0.000    3.500 
#    0.000    0.625    0.000    0.000    0.000    0.000 
#    0.000   14.000    0.000    0.000    0.000    0.000 
#
# Total GULP energy -178686.531177 kJ/mol
# GULP energy per Si atom -5583.954099 kJ/mol
# Density = 1.890890 g / cm^3
# Si number density = 18.952040 Si / 1000 Ang^3
#
#
#
# Elastic Constant Matrix: (Units=GPa)
#
#
# Indices 1 2 3 4 5 6 
#
# 1 48.5454 1.6076 5.4387 0.0000 15.2497 0.0000
# 2 1.6076 76.4012 19.6124 0.0000 8.8994 0.0000
# 3 5.4387 19.6124 69.3235 0.0000 27.1522 0.0000
# 4 0.0000 0.0000 0.0000 8.0296 0.0000 2.3184
# 5 15.2497 8.8994 27.1522 0.0000 17.7141 0.0000
# 6 0.0000 0.0000 0.0000 2.3184 0.0000 13.9252
#
#
#
# Elastic Compliance Matrix: (Units=1/GPa)
#
#
# Indices 1 2 3 4 5 6 
#
# 1 0.042127 0.001305 0.026992 0.000000 -0.078296 0.000000
# 2 0.001305 0.014196 -0.002215 0.000000 -0.004860 0.000000
# 3 0.026992 -0.002215 0.054048 0.000000 -0.104969 0.000000
# 4 0.000000 0.000000 0.000000 0.130828 0.000000 -0.021782
# 5 -0.078296 -0.004860 -0.104969 0.000000 0.287193 0.000000
# 6 0.000000 0.000000 0.000000 -0.021782 0.000000 0.075439
#
#
# Mechanical properties :
#
#
# Convention : Reuss Voigt Hill
#
# Bulk Modulus (GPa) = 6.15251 27.50971 16.83111
# Shear Modulus (GPa) = 8.25292 19.10789 13.68040
#
# Velocity S-wave (km/s) = 2.08904 3.17870 2.68963
# Velocity P-wave (km/s) = 3.01201 5.29331 4.30647
#
# Compressibility (1/GPa) = 0.16253530
#
# Stress axis : x y z
#
# Youngs Moduli (GPa) = 23.73747 70.44212 18.50216
#
# Poissons Ratio (x) = -0.09191 -0.49942
# Poissons Ratio (y) = -0.03097 0.04098
# Poissons Ratio (z) = -0.64073 0.15604
#
# Static dielectric constant tensor:
#      x y z
#    x 1.660440 0.000000 0.000310 
#    y 0.000000 1.689500 0.000000 
#    z 0.000310 0.000000 1.718850 
# 
# From -- ./inp_files/246378.got.cif
#   From: 2010.05.17/outbox.cif.g08.bks.cpg/sg12_124_cif.got.tgz:246378.got - 2010.06.03 13:09:07.
