data_PCOD9210543
_publ_section_title
;
Structure prediction by ZEFSAII (Michael W. Deem and Ramdas Pophale) SiO2 
 PCOD9210543
Probable space group: C 2/M
;
_chemical_formula_sum "Si O2"
_cell_formula_units_Z 40
_cell_length_a 14.173026
_cell_length_b 22.139941
_cell_length_c 9.814717
_cell_angle_alpha 90.000000
_cell_angle_beta 30.508795
_cell_angle_gamma 90.000000
_cell_volume 1563.503486
_symmetry_space_group_name_H-M "C 2/M"
_symmetry_group_IT_number 12
_symmetry_cell_setting 'monoclinic'
loop_
_space_group_symop_operation_xyz
x,y,z
-x,y,-z
-x,-y,-z
x,-y,z
1/2+x,1/2+y,z
1/2-x,1/2+y,-z
1/2-x,1/2-y,-z
1/2+x,1/2-y,z
loop_
_atom_site_type_symbol
_atom_site_label
_atom_site_fract_x
_atom_site_fract_y
_atom_site_fract_z
Si Si1 0.383870 0.931614 0.467215
Si Si2 0.190498 0.067993 0.414307
Si Si3 0.730898 0.192442 0.364987
Si Si4 0.561363 0.728506 0.141357
Si Si5 0.784449 0.114636 0.903689
O O1 0.304448 0.925861 0.411589
O O2 0.284743 0.876074 0.667155
O O3 0.348883 0.000000 0.557153
O O4 0.601336 0.916066 0.192596
O O5 0.241784 0.112242 0.227396
O O6 0.970121 0.076721 0.708896
O O7 0.226356 0.000000 0.318151
O O8 0.535410 0.215121 0.665793
O O9 0.882195 0.195628 0.296188
O O10 0.803428 0.235624 0.155718
O O11 0.661214 0.681892 0.116758
#
# Coordination Sequence:
#
# PCOD9210543 Si02
#       5
#     8   8   8   8   8
#     4  11  23  42  70 104 146 193 240 298 360 436
#     4  10  21  39  63 101 148 192 241 296 354 428
#     4  10  23  48  72 107 142 189 247 303 369 437
#     4  10  23  45  76 101 143 190 244 309 367 431
#     4  11  21  38  65 102 138 188 240 295 357 428
#
# _framework density 25.583569000000001
#
# number of rings (size 3 to 8) (size 9 to 14) (size 15 to 20)
#    0.000    1.600    2.000    3.000    0.000    6.400 
#    7.200    6.000    0.000    0.000    0.000    1.400 
#    0.000    0.000    0.000    0.000    0.000    0.000 
#
# Total GULP energy -112041.405802 kJ/mol
# GULP energy per Si atom -5602.070290 kJ/mol
# Density = 2.552534 g / cm^3
# Si number density = 25.583569 Si / 1000 Ang^3
#
#
#
# Elastic Constant Matrix: (Units=GPa)
#
#
# Indices 1 2 3 4 5 6 
#
# 1 149.8850 36.7678 28.0189 -0.0001 -13.9285 -0.0003
# 2 36.7678 115.7677 26.1125 -0.0007 0.1229 0.0003
# 3 28.0189 26.1125 78.3855 -0.0006 -19.5662 0.0000
# 4 -0.0001 -0.0007 -0.0006 31.3410 -0.0001 0.4302
# 5 -13.9285 0.1229 -19.5662 -0.0001 29.3251 0.0003
# 6 -0.0003 0.0003 0.0000 0.4302 0.0003 43.3906
#
#
#
# Elastic Compliance Matrix: (Units=1/GPa)
#
#
# Indices 1 2 3 4 5 6 
#
# 1 0.007708 -0.002147 -0.001349 0.000000 0.002770 0.000000
# 2 -0.002147 0.010098 -0.003433 0.000000 -0.003353 0.000000
# 3 -0.001349 -0.003433 0.017070 0.000000 0.010763 0.000000
# 4 0.000000 0.000000 0.000000 0.031911 0.000000 -0.000316
# 5 0.002770 -0.003353 0.010763 0.000000 0.042612 0.000000
# 6 0.000000 0.000000 0.000000 -0.000316 0.000000 0.023050
#
#
# Mechanical properties :
#
#
# Convention : Reuss Voigt Hill
#
# Bulk Modulus (GPa) = 47.57789 58.42628 53.00209
# Shear Modulus (GPa) = 32.61324 37.68727 35.15026
#
# Velocity S-wave (km/s) = 3.57427 3.84227 3.71069
# Velocity P-wave (km/s) = 5.97254 6.52465 6.25469
#
# Compressibility (1/GPa) = 0.02101817
#
# Stress axis : x y z
#
# Youngs Moduli (GPa) = 129.73641 99.03133 58.58253
#
# Poissons Ratio (x) = 0.21260 0.07900
# Poissons Ratio (y) = 0.27852 0.20114
# Poissons Ratio (z) = 0.17495 0.34002
#
# Static dielectric constant tensor:
#      x y z
#    x 2.008790 0.000000 0.003800 
#    y 0.000000 1.999730 0.000000 
#    z 0.003800 0.000000 1.976190 
# 
# From -- ./inp_files/159404.got.cif
#   From: 2010.05.17/outbox.cif.g08.bks.cpg/sg12_80_cif.got.tgz:159404.got - 2010.06.03 13:09:07.
