data_PCOD9210494
_publ_section_title
;
Structure prediction by ZEFSAII (Michael W. Deem and Ramdas Pophale) SiO2 
 PCOD9210494
Probable space group: C 2/M
;
_chemical_formula_sum "Si O2"
_cell_formula_units_Z 42
_cell_length_a 9.383181
_cell_length_b 10.483085
_cell_length_c 25.212118
_cell_angle_alpha 90.000000
_cell_angle_beta 51.704144
_cell_angle_gamma 90.000000
_cell_volume 1946.342452
_symmetry_space_group_name_H-M "C 2/M"
_symmetry_group_IT_number 12
_symmetry_cell_setting 'monoclinic'
loop_
_space_group_symop_operation_xyz
x,y,z
-x,y,-z
-x,-y,-z
x,-y,z
1/2+x,1/2+y,z
1/2-x,1/2+y,-z
1/2-x,1/2-y,-z
1/2+x,1/2-y,z
loop_
_atom_site_type_symbol
_atom_site_label
_atom_site_fract_x
_atom_site_fract_y
_atom_site_fract_z
Si Si1 0.500000 0.500000 0.000000
Si Si2 0.962472 0.500000 0.571050
Si Si3 0.663833 0.861798 0.071214
Si Si4 0.800878 0.000000 0.571142
Si Si5 0.792874 0.760037 0.345682
Si Si6 0.193869 0.151077 0.263947
Si Si7 0.279285 0.144701 0.121290
O O1 0.365945 0.390963 0.003937
O O2 0.848168 0.374061 0.612292
O O3 0.000000 0.500000 0.500000
O O4 0.149215 0.500000 0.560359
O O5 0.499220 0.853970 0.068672
O O6 0.681804 0.745361 0.106587
O O7 0.634585 0.000000 0.108274
O O8 0.770727 0.128797 0.612138
O O9 0.000000 0.000000 0.500000
O O10 0.810535 0.729266 0.279200
O O11 0.987041 0.806262 0.321728
O O12 0.242467 0.174937 0.191689
O O13 0.212057 0.000000 0.268840
O O14 0.218082 0.000000 0.124612
#
# Coordination Sequence:
#
# PCOD9210494 Si02
#       7
#     2   4   8   4   8   8   8
#     4   8  20  40  60  86 130 168 206 262 298 344
#     4  12  28  44  64  92 124 154 206 263 300 362
#     4   9  20  40  59  90 126 163 207 254 304 359
#     4  12  28  44  67  92 119 168 206 245 318 372
#     4  12  24  44  65  93 123 157 208 250 311 373
#     4  11  23  40  65  93 125 158 198 262 307 367
#     4  10  21  39  62  91 124 161 206 252 312 365
#
# _framework density 21.578938000000001
#
# number of rings (size 3 to 8) (size 9 to 14) (size 15 to 20)
#    0.571    0.762    3.810    1.714    2.667    3.048 
#    3.429    0.476    0.000    0.000    0.000    0.000 
#    0.000    0.000    0.000    0.000    0.000    0.000 
#
# Total GULP energy -117023.587683 kJ/mol
# GULP energy per Si atom -5572.551794 kJ/mol
# Density = 2.152982 g / cm^3
# Si number density = 21.578938 Si / 1000 Ang^3
#
#
#
# Elastic Constant Matrix: (Units=GPa)
#
#
# Indices 1 2 3 4 5 6 
#
# 1 81.7199 30.8497 4.8522 0.0000 -0.5900 0.0000
# 2 30.8497 158.3992 39.4241 0.0000 28.1770 0.0000
# 3 4.8522 39.4241 31.3697 0.0000 7.8520 0.0000
# 4 0.0000 0.0000 0.0000 24.7320 0.0000 7.5173
# 5 -0.5900 28.1770 7.8520 0.0000 39.1670 0.0000
# 6 0.0000 0.0000 0.0000 7.5173 0.0000 28.6884
#
#
#
# Elastic Compliance Matrix: (Units=1/GPa)
#
#
# Indices 1 2 3 4 5 6 
#
# 1 0.013459 -0.003456 0.001673 0.000000 0.002354 0.000000
# 2 -0.003456 0.010903 -0.011783 0.000000 -0.005534 0.000000
# 3 0.001673 -0.011783 0.046640 0.000000 -0.000848 0.000000
# 4 0.000000 0.000000 0.000000 0.043932 0.000000 -0.011512
# 5 0.002354 -0.005534 -0.000848 0.000000 0.029718 0.000000
# 6 0.000000 0.000000 0.000000 -0.011512 0.000000 0.037874
#
#
# Mechanical properties :
#
#
# Convention : Reuss Voigt Hill
#
# Bulk Modulus (GPa) = 22.79500 46.86008 34.82754
# Shear Modulus (GPa) = 22.29317 31.60835 26.95076
#
# Velocity S-wave (km/s) = 3.21767 3.83139 3.53787
# Velocity P-wave (km/s) = 4.93873 6.42927 5.73265
#
# Compressibility (1/GPa) = 0.04386928
#
# Stress axis : x y z
#
# Youngs Moduli (GPa) = 74.29740 91.71399 21.44078
#
# Poissons Ratio (x) = 0.31700 -0.03587
# Poissons Ratio (y) = 0.25680 0.25264
# Poissons Ratio (z) = -0.12429 1.08069
#
# Static dielectric constant tensor:
#      x y z
#    x 1.777450 0.000000 -0.036580 
#    y 0.000000 1.782670 0.000000 
#    z -0.036580 0.000000 1.867460 
# 
# From -- ./inp_files/371847.got.cif
#   From: 2010.05.17/outbox.cif.g08.bks.cpg/sg12_186_cif.got.tgz:371847.got - 2010.06.03 13:09:07.
