data_PCOD9210723
_publ_section_title
;
Structure prediction by ZEFSAII (Michael W. Deem and Ramdas Pophale) SiO2 
 PCOD9210723
Probable space group: C 2/M
;
_chemical_formula_sum "Si O2"
_cell_formula_units_Z 48
_cell_length_a 30.143925
_cell_length_b 12.858034
_cell_length_c 9.087079
_cell_angle_alpha 90.000000
_cell_angle_beta 35.221960
_cell_angle_gamma 90.000000
_cell_volume 2031.341129
_symmetry_space_group_name_H-M "C 2/M"
_symmetry_group_IT_number 12
_symmetry_cell_setting 'monoclinic'
loop_
_space_group_symop_operation_xyz
x,y,z
-x,y,-z
-x,-y,-z
x,-y,z
1/2+x,1/2+y,z
1/2-x,1/2+y,-z
1/2-x,1/2-y,-z
1/2+x,1/2-y,z
loop_
_atom_site_type_symbol
_atom_site_label
_atom_site_fract_x
_atom_site_fract_y
_atom_site_fract_z
Si Si1 0.273495 0.628959 0.995766
Si Si2 0.541953 0.614418 0.544991
Si Si3 0.081769 0.620077 0.340238
Si Si4 0.287809 0.611816 0.295558
Si Si5 0.652714 0.168826 0.869714
Si Si6 0.492738 0.182260 0.191931
O O1 0.253095 0.500000 0.004291
O O2 0.366471 0.629233 0.727141
O O3 0.250000 0.750000 0.000000
O O4 0.254402 0.628177 0.221961
O O5 0.500000 0.620085 0.500000
O O6 0.529074 0.500000 0.639904
O O7 0.511920 0.700058 0.738542
O O8 0.080773 0.500000 0.313511
O O9 0.000000 0.663912 0.500000
O O10 0.079224 0.635406 0.521909
O O11 0.149797 0.660628 0.053717
O O12 0.327349 0.500000 0.189254
O O13 0.340785 0.709689 0.185155
O O14 0.221468 0.615370 0.598017
O O15 0.570505 0.128762 0.039824
O O16 0.500000 0.174072 0.000000
#
# Coordination Sequence:
#
# PCOD9210723 Si02
#       6
#     8   8   8   8   8   8
#     4  10  22  41  69 101 142 185 229 282 352 420
#     4  10  21  41  69  96 127 177 232 281 338 409
#     4   9  18  36  59  82 116 160 208 257 313 384
#     4  10  21  39  65  91 123 171 221 273 325 397
#     4  10  21  39  63  93 122 164 218 269 316 397
#     4  11  23  36  60  94 128 159 200 270 336 397
#
# _framework density 23.629708999999998
#
# number of rings (size 3 to 8) (size 9 to 14) (size 15 to 20)
#    0.000    2.000    0.000    4.000    2.333    3.333 
#    0.000    6.667    0.000    2.000    0.000    0.000 
#    0.000    0.000    0.000    0.000    0.000    0.000 
#
# Total GULP energy -133643.989450 kJ/mol
# GULP energy per Si atom -5568.499560 kJ/mol
# Density = 2.357593 g / cm^3
# Si number density = 23.629709 Si / 1000 Ang^3
#
#
#
# Elastic Constant Matrix: (Units=GPa)
#
#
# Indices 1 2 3 4 5 6 
#
# 1 69.9483 16.7451 41.0229 0.0000 10.7919 0.0000
# 2 16.7451 167.6287 32.0906 0.0000 -2.6320 0.0000
# 3 41.0229 32.0906 164.6337 0.0000 36.5141 0.0000
# 4 0.0000 0.0000 0.0000 10.5593 0.0000 -0.8270
# 5 10.7919 -2.6320 36.5141 0.0000 40.2873 0.0000
# 6 0.0000 0.0000 0.0000 -0.8270 0.0000 10.4645
#
#
#
# Elastic Compliance Matrix: (Units=1/GPa)
#
#
# Indices 1 2 3 4 5 6 
#
# 1 0.016922 -0.000989 -0.003760 0.000000 -0.001190 0.000000
# 2 -0.000989 0.006370 -0.001435 0.000000 0.001981 0.000000
# 3 -0.003760 -0.001435 0.008871 0.000000 -0.007127 0.000000
# 4 0.000000 0.000000 0.000000 0.095293 0.000000 0.007531
# 5 -0.001190 0.001981 -0.007127 0.000000 0.031729 0.000000
# 6 0.000000 0.000000 0.000000 0.007531 0.000000 0.096156
#
#
# Mechanical properties :
#
#
# Convention : Reuss Voigt Hill
#
# Bulk Modulus (GPa) = 50.51589 64.65865 57.58727
# Shear Modulus (GPa) = 18.22774 33.08571 25.65673
#
# Velocity S-wave (km/s) = 2.78041 3.74595 3.29870
# Velocity P-wave (km/s) = 5.63312 6.79207 6.23956
#
# Compressibility (1/GPa) = 0.01979575
#
# Stress axis : x y z
#
# Youngs Moduli (GPa) = 59.09575 156.98236 112.72355
#
# Poissons Ratio (x) = 0.15530 0.42381
# Poissons Ratio (y) = 0.05846 0.16172
# Poissons Ratio (z) = 0.22218 0.22521
#
# Static dielectric constant tensor:
#      x y z
#    x 2.003740 0.000000 -0.008660 
#    y 0.000000 1.990520 0.000000 
#    z -0.008660 0.000000 1.910390 
# 
# From -- ./inp_files/111490.got.cif
#   From: 2010.05.17/outbox.cif.g08.bks.cpg/sg12_56_cif.got.tgz:111490.got - 2010.06.03 13:09:07.
