data_PCOD9210913
_publ_section_title
;
Structure prediction by ZEFSAII (Michael W. Deem and Ramdas Pophale) SiO2 
 PCOD9210913
Probable space group: C 2/M
;
_chemical_formula_sum "Si O2"
_cell_formula_units_Z 56
_cell_length_a 29.476738
_cell_length_b 21.684333
_cell_length_c 11.606402
_cell_angle_alpha 90.000000
_cell_angle_beta 159.600438
_cell_angle_gamma 90.000000
_cell_volume 2585.870240
_symmetry_space_group_name_H-M "C 2/M"
_symmetry_group_IT_number 12
_symmetry_cell_setting 'monoclinic'
loop_
_space_group_symop_operation_xyz
x,y,z
-x,y,-z
-x,-y,-z
x,-y,z
1/2+x,1/2+y,z
1/2-x,1/2+y,-z
1/2-x,1/2-y,-z
1/2+x,1/2-y,z
loop_
_atom_site_type_symbol
_atom_site_label
_atom_site_fract_x
_atom_site_fract_y
_atom_site_fract_z
Si Si1 0.473403 0.639483 0.700713
Si Si2 0.429674 0.128959 0.212965
Si Si3 0.302277 0.571075 0.459737
Si Si4 0.739198 0.572191 0.371139
Si Si5 0.671158 0.866451 0.623979
Si Si6 0.601945 0.731419 0.847710
Si Si7 0.363283 0.567878 0.241934
O O1 0.405267 0.621465 0.658066
O O2 0.532009 0.704479 0.797043
O O3 0.371250 0.618212 0.360320
O O4 0.597062 0.593414 0.988255
O O5 0.500000 0.112353 0.500000
O O6 0.537584 0.140225 0.371976
O O7 0.366268 0.196610 0.075806
O O8 0.325920 0.079856 0.922569
O O9 0.351534 0.500000 0.569554
O O10 0.262842 0.583631 0.497533
O O11 0.759292 0.500000 0.399778
O O12 0.838237 0.611418 0.529891
O O13 0.766963 0.807671 0.858264
O O14 0.750258 0.918500 0.883190
O O15 0.500000 0.721251 0.500000
O O16 0.500000 0.570912 0.500000
O O17 0.349780 0.500000 0.261119
#
# Coordination Sequence:
#
# PCOD9210913 Si02
#       7
#     8   8   8   8   8   8   8
#     4  11  19  36  63  96 126 157 202 258 309 358
#     4  11  27  41  64  90 123 166 203 254 310 373
#     4  11  25  42  61  90 129 167 205 253 312 373
#     4  10  21  39  65  91 120 163 211 252 300 362
#     4  11  21  39  61  92 122 161 204 250 302 369
#     4  10  21  39  64  95 121 159 208 253 307 364
#     4  11  18  29  56  94 125 149 192 254 306 354
#
# _framework density 21.656151999999999
#
# number of rings (size 3 to 8) (size 9 to 14) (size 15 to 20)
#    0.000    1.286    4.286    3.000    2.000    4.286 
#    0.000    4.286    6.286    0.000    0.000    0.000 
#    0.000    0.000    0.000    0.000    0.000    0.000 
#
# Total GULP energy -156448.295361 kJ/mol
# GULP energy per Si atom -5587.439120 kJ/mol
# Density = 2.160686 g / cm^3
# Si number density = 21.656152 Si / 1000 Ang^3
#
#
#
# Elastic Constant Matrix: (Units=GPa)
#
#
# Indices 1 2 3 4 5 6 
#
# 1 117.7352 14.3558 19.0731 0.0000 -1.8461 0.0000
# 2 14.3558 47.3876 7.3150 0.0000 -4.7879 0.0000
# 3 19.0731 7.3150 35.5309 0.0000 3.4762 0.0000
# 4 0.0000 0.0000 0.0000 4.0983 0.0000 -1.9591
# 5 -1.8461 -4.7879 3.4762 0.0000 34.0623 0.0000
# 6 0.0000 0.0000 0.0000 -1.9591 0.0000 19.6872
#
#
#
# Elastic Compliance Matrix: (Units=1/GPa)
#
#
# Indices 1 2 3 4 5 6 
#
# 1 0.009529 -0.002081 -0.004756 0.000000 0.000709 0.000000
# 2 -0.002081 0.022685 -0.003893 0.000000 0.003473 0.000000
# 3 -0.004756 -0.003893 0.031896 0.000000 -0.004060 0.000000
# 4 0.000000 0.000000 0.000000 0.256192 0.000000 0.025495
# 5 0.000709 0.003473 -0.004060 0.000000 0.030299 0.000000
# 6 0.000000 0.000000 0.000000 0.025495 0.000000 0.053332
#
#
# Mechanical properties :
#
#
# Convention : Reuss Voigt Hill
#
# Bulk Modulus (GPa) = 23.44671 31.34905 27.39788
# Shear Modulus (GPa) = 11.37372 22.23019 16.80196
#
# Velocity S-wave (km/s) = 2.29420 3.20739 2.78843
# Velocity P-wave (km/s) = 4.22707 5.31260 4.80062
#
# Compressibility (1/GPa) = 0.04264990
#
# Stress axis : x y z
#
# Youngs Moduli (GPa) = 104.94296 44.08232 31.35156
#
# Poissons Ratio (x) = 0.09173 0.14911
# Poissons Ratio (y) = 0.21837 0.12205
# Poissons Ratio (z) = 0.49913 0.17162
#
# Static dielectric constant tensor:
#      x y z
#    x 1.847320 0.000000 0.017400 
#    y 0.000000 1.765730 0.000000 
#    z 0.017400 0.000000 1.783780 
# 
# From -- ./inp_files/190404.got.cif
#   From: 2010.05.17/outbox.cif.g08.bks.cpg/sg12_96_cif.got.tgz:190404.got - 2010.06.03 13:09:07.
