data_PCOD9210807
_publ_section_title
;
Structure prediction by ZEFSAII (Michael W. Deem and Ramdas Pophale) SiO2 
 PCOD9210807
Probable space group: C 2/M
;
_chemical_formula_sum "Si O2"
_cell_formula_units_Z 64
_cell_length_a 10.183579
_cell_length_b 23.336601
_cell_length_c 12.649277
_cell_angle_alpha 90.000000
_cell_angle_beta 90.618042
_cell_angle_gamma 90.000000
_cell_volume 3005.927307
_symmetry_space_group_name_H-M "C 2/M"
_symmetry_group_IT_number 12
_symmetry_cell_setting 'monoclinic'
loop_
_space_group_symop_operation_xyz
x,y,z
-x,y,-z
-x,-y,-z
x,-y,z
1/2+x,1/2+y,z
1/2-x,1/2+y,-z
1/2-x,1/2-y,-z
1/2+x,1/2-y,z
loop_
_atom_site_type_symbol
_atom_site_label
_atom_site_fract_x
_atom_site_fract_y
_atom_site_fract_z
Si Si1 0.381397 0.757385 0.066624
Si Si2 0.053859 0.665868 0.761281
Si Si3 0.107844 0.565345 0.908736
Si Si4 0.644972 0.568039 0.951244
Si Si5 0.412318 0.656911 0.216888
Si Si6 0.101007 0.846010 0.402903
Si Si7 0.814680 0.717435 0.659778
Si Si8 0.634512 0.868743 0.533213
O O1 0.350052 0.798368 0.164176
O O2 0.438319 0.699354 0.118724
O O3 0.500000 0.784223 0.000000
O O4 0.250000 0.750000 0.000000
O O5 0.053164 0.603990 0.814134
O O6 0.098385 0.661123 0.642576
O O7 0.916955 0.699735 0.753095
O O8 0.128739 0.500000 0.873517
O O9 0.243271 0.586442 0.964012
O O10 0.000000 0.565737 0.000000
O O11 0.664207 0.500000 0.932920
O O12 0.655244 0.603342 0.842223
O O13 0.500000 0.576032 0.000000
O O14 0.531001 0.637027 0.292470
O O15 0.323480 0.695559 0.295319
O O16 0.157102 0.781864 0.378227
O O17 0.217982 0.889101 0.439517
O O18 0.000000 0.842111 0.500000
O O19 0.843195 0.676984 0.559565
O O20 0.500000 0.902233 0.500000
#
# Coordination Sequence:
#
# PCOD9210807 Si02
#       8
#     8   8   8   8   8   8   8   8
#     4  12  25  37  51  82 123 155 191 239 300 362
#     4  11  21  37  60  82 121 162 197 250 312 357
#     4  10  21  39  64  90 116 159 216 259 299 364
#     4  10  23  44  66  91 123 160 208 262 307 362
#     4  12  24  38  64  90 123 162 207 245 312 366
#     4  12  23  38  60  91 126 161 213 247 291 374
#     4  11  22  39  57  90 124 162 201 251 298 367
#     4  10  23  37  59  84 119 162 203 253 297 358
#
# _framework density 21.291266
#
# number of rings (size 3 to 8) (size 9 to 14) (size 15 to 20)
#    0.000    1.000    2.500    5.250    5.250    0.000 
#    0.000    0.000    0.000    4.500    0.000    0.000 
#    0.000    0.000    0.000    0.000    0.000    0.000 
#
# Total GULP energy -178542.620856 kJ/mol
# GULP energy per Si atom -5579.456902 kJ/mol
# Density = 2.124281 g / cm^3
# Si number density = 21.291266 Si / 1000 Ang^3
#
#
#
# Elastic Constant Matrix: (Units=GPa)
#
#
# Indices 1 2 3 4 5 6 
#
# 1 110.7117 -2.0493 29.0621 0.0000 23.5193 0.0000
# 2 -2.0493 46.8086 16.3432 0.0000 8.8420 0.0000
# 3 29.0621 16.3432 106.2881 0.0000 19.9211 0.0000
# 4 0.0000 0.0000 0.0000 4.9988 0.0000 8.0995
# 5 23.5193 8.8420 19.9211 0.0000 46.1046 0.0000
# 6 0.0000 0.0000 0.0000 8.0995 0.0000 9.6967
#
#
#
# Elastic Compliance Matrix: (Units=1/GPa)
#
#
# Indices 1 2 3 4 5 6 
#
# 1 0.010729 0.002215 -0.002360 0.000000 -0.004878 0.000000
# 2 0.002215 0.023442 -0.003434 0.000000 -0.004142 0.000000
# 3 -0.002360 -0.003434 0.011134 0.000000 -0.002949 0.000000
# 4 0.000000 0.000000 0.000000 -0.566078 0.000000 0.472834
# 5 -0.004878 -0.004142 -0.002949 0.000000 0.026247 0.000000
# 6 0.000000 0.000000 0.000000 0.472834 0.000000 -0.291822
#
#
# Mechanical properties :
#
#
# Convention : Reuss Voigt Hill
#
# Bulk Modulus (GPa) = 26.21349 38.94672 32.58010
# Shear Modulus (GPa) = -6.52337 26.85687 10.16675
#
# Velocity S-wave (km/s) = -1.75229 3.55548 2.18757
# Velocity P-wave (km/s) = 2.87133 5.93189 4.66003
#
# Compressibility (1/GPa) = 0.03814830
#
# Stress axis : x y z
#
# Youngs Moduli (GPa) = 93.20242 42.65865 89.81260
#
# Poissons Ratio (x) = -0.09450 0.21196
# Poissons Ratio (y) = -0.20646 0.30841
# Poissons Ratio (z) = 0.21995 0.14648
#
# Static dielectric constant tensor:
#      x y z
#    x 1.914690 0.000000 0.034880 
#    y 0.000000 1.790900 0.000000 
#    z 0.034880 0.000000 1.782390 
# 
# From -- ./inp_files/135424.got.cif
#   From: 2010.05.17/outbox.cif.g08.bks.cpg/sg12_68_cif.got.tgz:135424.got - 2010.06.03 13:09:07.
