data_PCOD9210633
_publ_section_title
;
Structure prediction by ZEFSAII (Michael W. Deem and Ramdas Pophale) SiO2 
 PCOD9210633
Probable space group: C 2/M
;
_chemical_formula_sum "Si O2"
_cell_formula_units_Z 56
_cell_length_a 16.871453
_cell_length_b 17.593382
_cell_length_c 9.581587
_cell_angle_alpha 90.000000
_cell_angle_beta 77.996610
_cell_angle_gamma 90.000000
_cell_volume 2781.878754
_symmetry_space_group_name_H-M "C 2/M"
_symmetry_group_IT_number 12
_symmetry_cell_setting 'monoclinic'
loop_
_space_group_symop_operation_xyz
x,y,z
-x,y,-z
-x,-y,-z
x,-y,z
1/2+x,1/2+y,z
1/2-x,1/2+y,-z
1/2-x,1/2-y,-z
1/2+x,1/2-y,z
loop_
_atom_site_type_symbol
_atom_site_label
_atom_site_fract_x
_atom_site_fract_y
_atom_site_fract_z
Si Si1 0.299583 0.301778 0.091199
Si Si2 0.418462 0.869780 0.444443
Si Si3 0.069221 0.086869 0.089716
Si Si4 0.666011 0.088130 0.259552
Si Si5 0.333890 0.273946 0.390111
Si Si6 0.550826 0.588314 0.623028
Si Si7 0.007783 0.409923 0.152042
O O1 0.239859 0.363656 0.179697
O O2 0.329063 0.260417 0.223688
O O3 0.250000 0.250000 0.000000
O O4 0.367355 0.350268 0.984695
O O5 0.500000 0.887588 0.500000
O O6 0.349446 0.903190 0.569452
O O7 0.400808 0.781374 0.432983
O O8 0.432146 0.899945 0.283592
O O9 0.017197 0.113014 0.241013
O O10 0.102521 0.000000 0.100284
O O11 0.000000 0.080129 0.000000
O O12 0.586860 0.118823 0.205442
O O13 0.676807 0.000000 0.223592
O O14 0.250000 0.250000 0.500000
O O15 0.370101 0.358286 0.400210
O O16 0.500000 0.590858 0.500000
O O17 0.572873 0.500000 0.644840
O O18 0.020173 0.500000 0.132922
O O19 0.000000 0.376643 0.000000
#
# Coordination Sequence:
#
# PCOD9210633 Si02
#       7
#     8   8   8   8   8   8   8
#     4  12  27  41  61  94 134 171 210 265 330 388
#     4  10  21  39  63  90 119 166 205 257 309 382
#     4  10  21  43  70  96 123 169 230 277 322 384
#     4  10  21  41  64  88 121 167 211 255 313 379
#     4  12  25  43  61  93 134 168 206 262 327 389
#     4  10  23  44  72  99 127 170 224 277 326 388
#     4   9  19  36  60  89 119 155 208 259 302 364
#
# _framework density 20.130282000000001
#
# number of rings (size 3 to 8) (size 9 to 14) (size 15 to 20)
#    0.000    1.571    2.857    1.286    4.000    4.571 
#    0.000    0.000    0.000    0.000    0.000    0.000 
#    0.000    0.000    0.000    0.000    0.000    0.000 
#
# Total GULP energy -156075.119970 kJ/mol
# GULP energy per Si atom -5574.111428 kJ/mol
# Density = 2.008446 g / cm^3
# Si number density = 20.130282 Si / 1000 Ang^3
#
#
#
# Elastic Constant Matrix: (Units=GPa)
#
#
# Indices 1 2 3 4 5 6 
#
# 1 54.3452 29.8773 37.2007 0.0000 -16.2639 0.0000
# 2 29.8773 59.1928 19.2904 0.0000 -13.6904 0.0000
# 3 37.2007 19.2904 146.0988 0.0000 -15.7872 0.0000
# 4 0.0000 0.0000 0.0000 -14.0582 0.0000 -4.1175
# 5 -16.2639 -13.6904 -15.7872 0.0000 31.4362 0.0000
# 6 0.0000 0.0000 0.0000 -4.1175 0.0000 49.1027
#
#
#
# Elastic Compliance Matrix: (Units=1/GPa)
#
#
# Indices 1 2 3 4 5 6 
#
# 1 0.031238 -0.012100 -0.005477 0.000000 0.008142 0.000000
# 2 -0.012100 0.023875 0.000397 0.000000 0.004337 0.000000
# 3 -0.005477 0.000397 0.008353 0.000000 0.001534 0.000000
# 4 0.000000 0.000000 0.000000 -0.069428 0.000000 -0.005822
# 5 0.008142 0.004337 0.001534 0.000000 0.038682 0.000000
# 6 0.000000 0.000000 0.000000 -0.005822 0.000000 0.019877
#
#
# Mechanical properties :
#
#
# Convention : Reuss Voigt Hill
#
# Bulk Modulus (GPa) = 34.35540 48.04151 41.19845
# Shear Modulus (GPa) = 51.72872 24.84736 38.28804
#
# Velocity S-wave (km/s) = 5.07472 3.51711 4.36594
# Velocity P-wave (km/s) = 7.17221 6.35693 6.77684
#
# Compressibility (1/GPa) = 0.02910750
#
# Stress axis : x y z
#
# Youngs Moduli (GPa) = 32.01188 41.88521 119.72387
#
# Poissons Ratio (x) = 0.50679 0.65570
# Poissons Ratio (y) = 0.38733 -0.04755
# Poissons Ratio (z) = 0.17532 -0.01664
#
# Static dielectric constant tensor:
#      x y z
#    x 1.717920 0.000000 -0.009820 
#    y 0.000000 1.736870 0.000000 
#    z -0.009820 0.000000 1.693430 
# 
# From -- ./inp_files/75827.got.cif
#   From: 2010.05.17/outbox.cif.g08.bks.cpg/sg12_38_cif.got.tgz:75827.got - 2010.06.03 13:09:07.
