data_PCOD9210573
_publ_section_title
;
Structure prediction by ZEFSAII (Michael W. Deem and Ramdas Pophale) SiO2 
 PCOD9210573
Probable space group: C 2/M
;
_chemical_formula_sum "Si O2"
_cell_formula_units_Z 48
_cell_length_a 20.764841
_cell_length_b 8.651937
_cell_length_c 15.102571
_cell_angle_alpha 90.000000
_cell_angle_beta 99.709450
_cell_angle_gamma 90.000000
_cell_volume 2674.403177
_symmetry_space_group_name_H-M "C 2/M"
_symmetry_group_IT_number 12
_symmetry_cell_setting 'monoclinic'
loop_
_space_group_symop_operation_xyz
x,y,z
-x,y,-z
-x,-y,-z
x,-y,z
1/2+x,1/2+y,z
1/2-x,1/2+y,-z
1/2-x,1/2-y,-z
1/2+x,1/2-y,z
loop_
_atom_site_type_symbol
_atom_site_label
_atom_site_fract_x
_atom_site_fract_y
_atom_site_fract_z
Si Si1 0.731255 0.815751 0.264841
Si Si2 0.705212 0.684791 0.067797
Si Si3 0.936644 0.314332 0.926843
Si Si4 0.910240 0.816174 0.731205
Si Si5 0.443970 0.185684 0.555945
Si Si6 0.197416 0.684930 0.556885
O O1 0.734013 0.740586 0.168650
O O2 0.661490 0.761979 0.288642
O O3 0.786489 0.757220 0.344285
O O4 0.731844 0.000000 0.257793
O O5 0.703282 0.500000 0.064443
O O6 0.631042 0.749610 0.048505
O O7 0.750000 0.750000 0.000000
O O8 0.931241 0.500000 0.919304
O O9 0.941823 0.244786 0.829423
O O10 0.000000 0.275963 0.000000
O O11 0.948054 0.766696 0.651888
O O12 0.902346 0.000000 0.733877
O O13 0.500000 0.229912 0.500000
O O14 0.374194 0.222714 0.495958
O O15 0.446979 0.000000 0.570194
O O16 0.203804 0.500000 0.563512
O O17 0.250000 0.750000 0.500000
#
# Coordination Sequence:
#
# PCOD9210573 Si02
#       6
#     8   8   8   8   8   8
#     4  11  21  36  59  86 116 152 194 238 284 342
#     4  11  22  39  62  88 120 153 191 241 295 347
#     4  10  21  39  63  88 115 153 196 237 286 348
#     4  11  21  35  59  86 115 151 191 239 288 340
#     4  10  22  40  59  81 114 155 192 232 286 343
#     4  11  21  35  59  87 114 149 192 239 282 339
#
# _framework density 17.947928000000001
#
# number of rings (size 3 to 8) (size 9 to 14) (size 15 to 20)
#    0.000    1.333    1.667    7.500    0.000    2.333 
#    3.000    0.000    0.000    0.000    0.000    0.000 
#    0.000    0.000    0.000    0.000    0.000    0.000 
#
# Total GULP energy -134132.969704 kJ/mol
# GULP energy per Si atom -5588.873738 kJ/mol
# Density = 1.790708 g / cm^3
# Si number density = 17.947928 Si / 1000 Ang^3
#
#
#
# Elastic Constant Matrix: (Units=GPa)
#
#
# Indices 1 2 3 4 5 6 
#
# 1 107.1746 56.2610 84.2911 0.0000 -4.9271 0.0000
# 2 56.2610 110.1043 57.0055 0.0000 2.9362 0.0000
# 3 84.2911 57.0055 140.0727 0.0000 -7.0312 0.0000
# 4 0.0000 0.0000 0.0000 35.5305 0.0000 -0.5267
# 5 -4.9271 2.9362 -7.0312 0.0000 34.6576 0.0000
# 6 0.0000 0.0000 0.0000 -0.5267 0.0000 25.2653
#
#
#
# Elastic Compliance Matrix: (Units=1/GPa)
#
#
# Indices 1 2 3 4 5 6 
#
# 1 0.019698 -0.005061 -0.009731 0.000000 0.001255 0.000000
# 2 -0.005061 0.012938 -0.002335 0.000000 -0.002289 0.000000
# 3 -0.009731 -0.002335 0.014029 0.000000 0.001660 0.000000
# 4 0.000000 0.000000 0.000000 0.028154 0.000000 0.000587
# 5 0.001255 -0.002289 0.001660 0.000000 0.029563 0.000000
# 6 0.000000 0.000000 0.000000 0.000587 0.000000 0.039592
#
#
# Mechanical properties :
#
#
# Convention : Reuss Voigt Hill
#
# Bulk Modulus (GPa) = 80.57147 83.60741 82.08944
# Shear Modulus (GPa) = 27.41754 29.74361 28.58058
#
# Velocity S-wave (km/s) = 3.91271 4.07531 3.99484
# Velocity P-wave (km/s) = 8.08713 8.29630 8.19238
#
# Compressibility (1/GPa) = 0.01241134
#
# Stress axis : x y z
#
# Youngs Moduli (GPa) = 50.76573 77.29077 71.28202
#
# Poissons Ratio (x) = 0.39114 0.69367
# Poissons Ratio (y) = 0.25690 0.16645
# Poissons Ratio (z) = 0.49402 0.18048
#
# Static dielectric constant tensor:
#      x y z
#    x 1.595860 0.000000 0.003820 
#    y 0.000000 1.601560 0.000000 
#    z 0.003820 0.000000 1.611680 
# 
# From -- ./inp_files/229279.got.cif
#   From: 2010.05.17/outbox.cif.g08.bks.cpg/sg12_115_cif.got.tgz:229279.got - 2010.06.03 13:09:07.
