data_PCOD9210784
_publ_section_title
;
Structure prediction by ZEFSAII (Michael W. Deem and Ramdas Pophale) SiO2 
 PCOD9210784
Probable space group: C 2/M
;
_chemical_formula_sum "Si O2"
_cell_formula_units_Z 36
_cell_length_a 12.440744
_cell_length_b 25.290003
_cell_length_c 5.229606
_cell_angle_alpha 90.000000
_cell_angle_beta 112.396393
_cell_angle_gamma 90.000000
_cell_volume 1521.261983
_symmetry_space_group_name_H-M "C 2/M"
_symmetry_group_IT_number 12
_symmetry_cell_setting 'monoclinic'
loop_
_space_group_symop_operation_xyz
x,y,z
-x,y,-z
-x,-y,-z
x,-y,z
1/2+x,1/2+y,z
1/2-x,1/2+y,-z
1/2-x,1/2-y,-z
1/2+x,1/2-y,z
loop_
_atom_site_type_symbol
_atom_site_label
_atom_site_fract_x
_atom_site_fract_y
_atom_site_fract_z
Si Si1 0.079556 0.896395 0.319208
Si Si2 0.627507 0.000000 0.825935
Si Si3 0.863700 0.211975 0.443954
Si Si4 0.000000 0.410459 0.000000
Si Si5 0.731136 0.500000 0.540526
Si Si6 0.626378 0.190931 0.210248
O O1 0.142446 0.839194 0.372655
O O2 0.000000 0.898324 0.500000
O O3 0.161857 0.946840 0.414209
O O4 0.000000 0.900682 0.000000
O O5 0.732663 0.000000 0.129222
O O6 0.557417 0.947785 0.842728
O O7 0.663457 0.000000 0.565660
O O8 0.748200 0.199248 0.169499
O O9 0.851405 0.272194 0.526748
O O10 0.000000 0.209810 0.500000
O O11 0.096124 0.370683 0.204322
O O12 0.500000 0.212440 0.000000
#
# Coordination Sequence:
#
# PCOD9210784 Si02
#       6
#     8   4   8   4   4   8
#     4  11  23  41  67 101 146 187 237 288 357 424
#     4  11  24  45  68 101 135 183 241 291 359 414
#     4  10  21  39  64 101 139 188 233 292 349 422
#     4   9  22  44  64  94 142 185 236 294 356 425
#     4  12  24  42  72 101 140 187 238 297 349 427
#     4   9  20  41  62  93 140 182 237 284 352 418
#
# _framework density 23.664563999999999
#
# number of rings (size 3 to 8) (size 9 to 14) (size 15 to 20)
#    0.667    1.111    0.000    4.000    0.000    4.444 
#   12.000    0.000    0.000    0.000    0.000    0.000 
#    0.000    0.000    0.000    0.000    0.000    0.000 
#
# Total GULP energy -100262.491085 kJ/mol
# GULP energy per Si atom -5570.138394 kJ/mol
# Density = 2.361070 g / cm^3
# Si number density = 23.664564 Si / 1000 Ang^3
#
#
#
# Elastic Constant Matrix: (Units=GPa)
#
#
# Indices 1 2 3 4 5 6 
#
# 1 128.7037 54.1192 20.0788 0.0000 36.3611 0.0000
# 2 54.1192 197.9219 23.3349 0.0000 16.4737 0.0000
# 3 20.0788 23.3349 94.2498 0.0000 29.2058 0.0000
# 4 0.0000 0.0000 0.0000 40.7439 0.0000 35.8785
# 5 36.3611 16.4737 29.2058 0.0000 41.0944 0.0000
# 6 0.0000 0.0000 0.0000 35.8785 0.0000 49.2564
#
#
#
# Elastic Compliance Matrix: (Units=1/GPa)
#
#
# Indices 1 2 3 4 5 6 
#
# 1 0.011436 -0.002442 0.001283 0.000000 -0.010052 0.000000
# 2 -0.002442 0.005799 -0.001109 0.000000 0.000624 0.000000
# 3 0.001283 -0.001109 0.013883 0.000000 -0.010557 0.000000
# 4 0.000000 0.000000 0.000000 0.068447 0.000000 -0.049857
# 5 -0.010052 0.000624 -0.010557 0.000000 0.040481 0.000000
# 6 0.000000 0.000000 0.000000 -0.049857 0.000000 0.056618
#
#
# Mechanical properties :
#
#
# Convention : Reuss Voigt Hill
#
# Bulk Modulus (GPa) = 37.61822 68.43792 53.02807
# Shear Modulus (GPa) = 23.80271 47.77509 35.78890
#
# Velocity S-wave (km/s) = 3.17493 4.49803 3.89310
# Velocity P-wave (km/s) = 5.41952 7.48059 6.53186
#
# Compressibility (1/GPa) = 0.02658286
#
# Stress axis : x y z
#
# Youngs Moduli (GPa) = 87.44148 172.44474 72.03192
#
# Poissons Ratio (x) = 0.42106 -0.09242
# Poissons Ratio (y) = 0.21351 0.07988
# Poissons Ratio (z) = -0.11219 0.19122
#
# Static dielectric constant tensor:
#      x y z
#    x 2.064260 0.000000 0.044840 
#    y 0.000000 1.868020 0.000000 
#    z 0.044840 0.000000 1.916190 
# 
# From -- ./inp_files/7813.got.cif
#   From: 2010.05.17/outbox.cif.g08.bks.cpg/sg12_4_cif.got.tgz:7813.got - 2010.06.03 13:09:07.
