data_PCOD9210867
_publ_section_title
;
Structure prediction by ZEFSAII (Michael W. Deem and Ramdas Pophale) SiO2 
 PCOD9210867
Probable space group: C 2/M
;
_chemical_formula_sum "Si O2"
_cell_formula_units_Z 40
_cell_length_a 26.777176
_cell_length_b 9.242889
_cell_length_c 21.927915
_cell_angle_alpha 90.000000
_cell_angle_beta 159.171755
_cell_angle_gamma 90.000000
_cell_volume 1929.710784
_symmetry_space_group_name_H-M "C 2/M"
_symmetry_group_IT_number 12
_symmetry_cell_setting 'monoclinic'
loop_
_space_group_symop_operation_xyz
x,y,z
-x,y,-z
-x,-y,-z
x,-y,z
1/2+x,1/2+y,z
1/2-x,1/2+y,-z
1/2-x,1/2-y,-z
1/2+x,1/2-y,z
loop_
_atom_site_type_symbol
_atom_site_label
_atom_site_fract_x
_atom_site_fract_y
_atom_site_fract_z
Si Si1 0.714079 0.826918 0.055964
Si Si2 0.643672 0.670400 0.201535
Si Si3 0.835041 0.826150 0.323924
Si Si4 0.448160 0.333281 0.225544
Si Si5 0.768362 0.332739 0.584367
O O1 0.748340 0.785001 0.163972
O O2 0.847568 0.785529 0.165769
O O3 0.701187 0.000000 0.040306
O O4 0.584240 0.757466 0.872104
O O5 0.667749 0.500000 0.238782
O O6 0.767607 0.740201 0.302674
O O7 0.636754 0.752011 0.258161
O O8 0.500000 0.689395 0.000000
O O9 0.000000 0.797888 0.500000
O O10 0.821179 0.000000 0.318077
O O11 0.412642 0.500000 0.170950
O O12 0.609047 0.329117 0.428347
O O13 0.809875 0.500000 0.623232
O O14 0.750000 0.250000 0.500000
#
# Coordination Sequence:
#
# PCOD9210867 Si02
#       5
#     8   8   8   8   8
#     4   9  18  33  57  88 118 154 198 245 301 367
#     4  11  26  45  64  92 131 170 215 268 319 376
#     4  10  21  39  64  92 125 164 211 262 318 382
#     4   9  19  36  57  84 120 156 194 248 305 358
#     4  11  24  42  65  90 122 164 211 259 313 374
#
# _framework density 20.728496
#
# number of rings (size 3 to 8) (size 9 to 14) (size 15 to 20)
#    0.000    2.000    0.000    2.400    2.800    7.600 
#    0.000    4.000    0.000    0.000    0.000    0.000 
#    0.000    0.000    0.000    0.000    0.000    0.000 
#
# Total GULP energy -111765.035223 kJ/mol
# GULP energy per Si atom -5588.251761 kJ/mol
# Density = 2.068132 g / cm^3
# Si number density = 20.728496 Si / 1000 Ang^3
#
#
#
# Elastic Constant Matrix: (Units=GPa)
#
#
# Indices 1 2 3 4 5 6 
#
# 1 105.1840 66.4325 29.5277 0.0000 -30.2710 0.0000
# 2 66.4325 99.2776 48.4263 0.0000 -26.2159 0.0000
# 3 29.5277 48.4263 65.3526 0.0000 -20.7209 0.0000
# 4 0.0000 0.0000 0.0000 31.9946 0.0000 -3.1687
# 5 -30.2710 -26.2159 -20.7209 0.0000 45.9247 0.0000
# 6 0.0000 0.0000 0.0000 -3.1687 0.0000 31.1099
#
#
#
# Elastic Compliance Matrix: (Units=1/GPa)
#
#
# Indices 1 2 3 4 5 6 
#
# 1 0.017911 -0.011501 0.002440 0.000000 0.006342 0.000000
# 2 -0.011501 0.023943 -0.012387 0.000000 0.000498 0.000000
# 3 0.002440 -0.012387 0.025259 0.000000 0.005934 0.000000
# 4 0.000000 0.000000 0.000000 0.031574 0.000000 0.003216
# 5 0.006342 0.000498 0.005934 0.000000 0.028916 0.000000
# 6 0.000000 0.000000 0.000000 0.003216 0.000000 0.032472
#
#
# Mechanical properties :
#
#
# Convention : Reuss Voigt Hill
#
# Bulk Modulus (GPa) = 41.29281 62.06524 51.67903
# Shear Modulus (GPa) = 23.69182 30.16769 26.92976
#
# Velocity S-wave (km/s) = 3.38444 3.81907 3.60830
# Velocity P-wave (km/s) = 5.93604 7.03236 6.50733
#
# Compressibility (1/GPa) = 0.02421729
#
# Stress axis : x y z
#
# Youngs Moduli (GPa) = 55.83139 41.76659 39.58914
#
# Poissons Ratio (x) = 0.48036 -0.09662
# Poissons Ratio (y) = 0.64213 0.49040
# Poissons Ratio (z) = -0.13626 0.51737
#
# Static dielectric constant tensor:
#      x y z
#    x 1.753580 0.000000 0.026290 
#    y 0.000000 1.703740 0.000000 
#    z 0.026290 0.000000 1.749340 
# 
# From -- ./inp_files/353129.got.cif
#   From: 2010.05.17/outbox.cif.g08.bks.cpg/sg12_177_cif.got.tgz:353129.got - 2010.06.03 13:09:07.
