data_PCOD9210219
_publ_section_title
;
Structure prediction by ZEFSAII (Michael W. Deem and Ramdas Pophale) SiO2 
 PCOD9210219
Probable space group: C 2/M
;
_chemical_formula_sum "Si O2"
_cell_formula_units_Z 40
_cell_length_a 13.079189
_cell_length_b 12.011606
_cell_length_c 13.277895
_cell_angle_alpha 90.000000
_cell_angle_beta 73.206537
_cell_angle_gamma 90.000000
_cell_volume 1997.022623
_symmetry_space_group_name_H-M "C 2/M"
_symmetry_group_IT_number 12
_symmetry_cell_setting 'monoclinic'
loop_
_space_group_symop_operation_xyz
x,y,z
-x,y,-z
-x,-y,-z
x,-y,z
1/2+x,1/2+y,z
1/2-x,1/2+y,-z
1/2-x,1/2-y,-z
1/2+x,1/2-y,z
loop_
_atom_site_type_symbol
_atom_site_label
_atom_site_fract_x
_atom_site_fract_y
_atom_site_fract_z
Si Si1 0.612043 0.194925 0.429449
Si Si2 0.030889 0.199736 0.247105
Si Si3 0.728709 0.370144 0.065514
Si Si4 0.838076 0.117170 0.420238
Si Si5 0.558175 0.127710 0.881414
O O1 0.500000 0.141209 0.500000
O O2 0.591125 0.249967 0.327213
O O3 0.722393 0.127749 0.401306
O O4 0.636762 0.288752 0.505876
O O5 0.113372 0.140781 0.149007
O O6 0.933390 0.125503 0.313358
O O7 0.977090 0.300415 0.201787
O O8 0.739117 0.500000 0.017780
O O9 0.817469 0.368003 0.128012
O O10 0.750000 0.250000 0.000000
O O11 0.841895 0.000000 0.474400
O O12 0.525268 0.000000 0.875314
O O13 0.500000 0.167719 0.000000
#
# Coordination Sequence:
#
# PCOD9210219 Si02
#       5
#     8   8   8   8   8
#     4   9  21  39  61  90 120 154 196 244 302 365
#     4  11  21  38  62  90 122 158 203 255 305 363
#     4  11  23  40  62  88 121 164 212 258 310 369
#     4  10  21  39  61  88 122 156 196 247 305 368
#     4  10  21  39  61  85 118 162 207 252 307 368
#
# _framework density 20.029819
#
# number of rings (size 3 to 8) (size 9 to 14) (size 15 to 20)
#    0.000    1.800    2.000    1.800    0.000    5.600 
#    0.000   17.000    0.000    0.000    0.000    0.000 
#    0.000    0.000    0.000    0.000    0.000    0.000 
#
# Total GULP energy -111376.722454 kJ/mol
# GULP energy per Si atom -5568.836123 kJ/mol
# Density = 1.998423 g / cm^3
# Si number density = 20.029819 Si / 1000 Ang^3
#
#
#
# Elastic Constant Matrix: (Units=GPa)
#
#
# Indices 1 2 3 4 5 6 
#
# 1 107.9661 42.5758 30.9765 0.0000 -1.3044 0.0000
# 2 42.5758 100.4424 42.1528 0.0000 -4.0006 0.0000
# 3 30.9765 42.1528 55.0264 0.0000 -5.3468 0.0000
# 4 0.0000 0.0000 0.0000 -12.6350 0.0000 1.6635
# 5 -1.3044 -4.0006 -5.3468 0.0000 28.7822 0.0000
# 6 0.0000 0.0000 0.0000 1.6635 0.0000 3.7508
#
#
#
# Elastic Compliance Matrix: (Units=1/GPa)
#
#
# Indices 1 2 3 4 5 6 
#
# 1 0.011735 -0.003244 -0.004189 0.000000 -0.000697 0.000000
# 2 -0.003244 0.015570 -0.010087 0.000000 0.000143 0.000000
# 3 -0.004189 -0.010087 0.028620 0.000000 0.003725 0.000000
# 4 0.000000 0.000000 0.000000 -0.074779 0.000000 0.033165
# 5 -0.000697 0.000143 0.003725 0.000000 0.035424 0.000000
# 6 0.000000 0.000000 0.000000 0.033165 0.000000 0.251901
#
#
# Mechanical properties :
#
#
# Convention : Reuss Voigt Hill
#
# Bulk Modulus (GPa) = 47.88073 54.98279 51.43176
# Shear Modulus (GPa) = 16.10444 13.82825 14.96635
#
# Velocity S-wave (km/s) = 2.83861 2.63037 2.73647
# Velocity P-wave (km/s) = 5.89069 6.06095 5.97643
#
# Compressibility (1/GPa) = 0.02088523
#
# Stress axis : x y z
#
# Youngs Moduli (GPa) = 85.21678 64.22548 34.94029
#
# Poissons Ratio (x) = 0.20836 0.14635
# Poissons Ratio (y) = 0.27645 0.35245
# Poissons Ratio (z) = 0.35693 0.64786
#
# Static dielectric constant tensor:
#      x y z
#    x 1.728550 0.000000 -0.063300 
#    y 0.000000 1.771500 0.000000 
#    z -0.063300 0.000000 1.717500 
# 
# From -- ./inp_files/140497.got.cif
#   From: 2010.05.17/outbox.cif.g08.bks.cpg/sg12_71_cif.got.tgz:140497.got - 2010.06.03 13:09:07.
