data_PCOD9210897
_publ_section_title
;
Structure prediction by ZEFSAII (Michael W. Deem and Ramdas Pophale) SiO2 
 PCOD9210897
Probable space group: C 2/M
;
_chemical_formula_sum "Si O2"
_cell_formula_units_Z 64
_cell_length_a 29.191392
_cell_length_b 8.718338
_cell_length_c 19.433091
_cell_angle_alpha 90.000000
_cell_angle_beta 139.713410
_cell_angle_gamma 90.000000
_cell_volume 3197.964620
_symmetry_space_group_name_H-M "C 2/M"
_symmetry_group_IT_number 12
_symmetry_cell_setting 'monoclinic'
loop_
_space_group_symop_operation_xyz
x,y,z
-x,y,-z
-x,-y,-z
x,-y,z
1/2+x,1/2+y,z
1/2-x,1/2+y,-z
1/2-x,1/2-y,-z
1/2+x,1/2-y,z
loop_
_atom_site_type_symbol
_atom_site_label
_atom_site_fract_x
_atom_site_fract_y
_atom_site_fract_z
Si Si1 0.573340 0.683927 0.620094
Si Si2 0.421168 0.819054 0.832277
Si Si3 0.852180 0.181535 0.880491
Si Si4 0.320993 0.679187 0.612456
Si Si5 0.953320 0.182019 0.116985
Si Si6 0.297415 0.317181 0.334316
Si Si7 0.378753 0.822595 0.551535
Si Si8 0.041628 0.678486 0.725776
O O1 0.500000 0.738352 0.500000
O O2 0.568267 0.500000 0.619472
O O3 0.641255 0.719438 0.650984
O O4 0.580211 0.749909 0.704507
O O5 0.411939 0.737349 0.894881
O O6 0.349445 0.773690 0.709456
O O7 0.483977 0.760661 0.855177
O O8 0.426936 0.000000 0.848372
O O9 0.779182 0.267231 0.780445
O O10 0.841721 0.000000 0.859333
O O11 0.882355 0.210350 0.991191
O O12 0.314812 0.500000 0.621347
O O13 0.250000 0.750000 0.500000
O O14 0.375326 0.710036 0.612485
O O15 0.947594 0.242914 0.187941
O O16 0.966922 0.000000 0.133136
O O17 0.298616 0.500000 0.349182
O O18 0.320740 0.227504 0.429695
O O19 0.457651 0.809887 0.612641
O O20 0.367914 0.000000 0.561058
O O21 0.059354 0.500000 0.753030
#
# Coordination Sequence:
#
# PCOD9210897 Si02
#       8
#     8   8   8   8   8   8   8   8
#     4  10  21  39  64  93 127 163 204 250 307 374
#     4  12  24  40  63  92 124 161 209 259 307 366
#     4  11  25  44  64  90 124 165 210 259 312 367
#     4  12  24  38  57  83 122 166 206 253 306 368
#     4  11  24  43  67  91 123 166 211 258 310 366
#     4  11  23  40  64  93 125 166 208 255 311 372
#     4  11  22  37  58  88 125 161 199 250 308 369
#     4  11  23  38  63  95 126 158 201 254 307 364
#
# _framework density 20.012730000000001
#
# number of rings (size 3 to 8) (size 9 to 14) (size 15 to 20)
#    0.000    0.875    2.500    5.250    0.000    5.750 
#    0.000    0.625    0.000    0.000    0.000    0.000 
#    0.000    0.000    0.000    0.000    0.000    0.000 
#
# Total GULP energy -178986.517844 kJ/mol
# GULP energy per Si atom -5593.328683 kJ/mol
# Density = 1.996718 g / cm^3
# Si number density = 20.012730 Si / 1000 Ang^3
#
#
#
# Elastic Constant Matrix: (Units=GPa)
#
#
# Indices 1 2 3 4 5 6 
#
# 1 69.3071 17.2960 19.0595 0.0000 -13.3578 0.0000
# 2 17.2960 48.4100 22.9972 0.0000 -0.7484 0.0000
# 3 19.0595 22.9972 98.4387 0.0000 -13.1593 0.0000
# 4 0.0000 0.0000 0.0000 24.1882 0.0000 1.6581
# 5 -13.3578 -0.7484 -13.1593 0.0000 30.7448 0.0000
# 6 0.0000 0.0000 0.0000 1.6581 0.0000 31.2020
#
#
#
# Elastic Compliance Matrix: (Units=1/GPa)
#
#
# Indices 1 2 3 4 5 6 
#
# 1 0.017483 -0.005594 -0.001147 0.000000 0.006969 0.000000
# 2 -0.005594 0.025127 -0.005335 0.000000 -0.004102 0.000000
# 3 -0.001147 -0.005335 0.012244 0.000000 0.004612 0.000000
# 4 0.000000 0.000000 0.000000 0.041494 0.000000 -0.002205
# 5 0.006969 -0.004102 0.004612 0.000000 0.037428 0.000000
# 6 0.000000 0.000000 0.000000 -0.002205 0.000000 0.032166
#
#
# Mechanical properties :
#
#
# Convention : Reuss Voigt Hill
#
# Bulk Modulus (GPa) = 32.57171 37.20681 34.88926
# Shear Modulus (GPa) = 24.95919 27.68053 26.31986
#
# Velocity S-wave (km/s) = 3.53535 3.72310 3.63044
# Velocity P-wave (km/s) = 5.74246 6.09212 5.91987
#
# Compressibility (1/GPa) = 0.03070149
#
# Stress axis : x y z
#
# Youngs Moduli (GPa) = 57.19839 39.79836 81.67498
#
# Poissons Ratio (x) = 0.22263 0.09364
# Poissons Ratio (y) = 0.31997 0.43577
# Poissons Ratio (z) = 0.06558 0.21234
#
# Static dielectric constant tensor:
#      x y z
#    x 1.731030 0.000000 0.022990 
#    y 0.000000 1.674400 0.000000 
#    z 0.022990 0.000000 1.739060 
# 
# From -- ./inp_files/295727.got.cif
#   From: 2010.05.17/outbox.cif.g08.bks.cpg/sg12_148_cif.got.tgz:295727.got - 2010.06.03 13:09:07.
