data_PCOD9210228
_publ_section_title
;
Structure prediction by ZEFSAII (Michael W. Deem and Ramdas Pophale) SiO2 
 PCOD9210228
Probable space group: C 2/M
;
_chemical_formula_sum "Si O2"
_cell_formula_units_Z 58
_cell_length_a 19.839766
_cell_length_b 7.884531
_cell_length_c 17.884171
_cell_angle_alpha 90.000000
_cell_angle_beta 97.921728
_cell_angle_gamma 90.000000
_cell_volume 2770.875217
_symmetry_space_group_name_H-M "C 2/M"
_symmetry_group_IT_number 12
_symmetry_cell_setting 'monoclinic'
loop_
_space_group_symop_operation_xyz
x,y,z
-x,y,-z
-x,-y,-z
x,-y,z
1/2+x,1/2+y,z
1/2-x,1/2+y,-z
1/2-x,1/2-y,-z
1/2+x,1/2-y,z
loop_
_atom_site_type_symbol
_atom_site_label
_atom_site_fract_x
_atom_site_fract_y
_atom_site_fract_z
Si Si1 0.042701 0.199992 0.228163
Si Si2 0.190943 0.802997 0.220483
Si Si3 0.264674 0.694014 0.086063
Si Si4 0.462454 0.704039 0.594113
Si Si5 0.824166 0.294228 0.324438
Si Si6 0.395143 0.802011 0.184808
Si Si7 0.173608 0.804790 0.506469
Si Si8 0.000000 0.500000 0.500000
O O1 0.115644 0.271977 0.214035
O O2 0.038941 0.217159 0.317153
O O3 0.974619 0.278784 0.183989
O O4 0.039962 0.000000 0.209403
O O5 0.222502 0.793454 0.142730
O O6 0.249331 0.734831 0.284774
O O7 0.183282 0.000000 0.241261
O O8 0.244477 0.500000 0.091832
O O9 0.343967 0.713585 0.119745
O O10 0.250000 0.750000 0.000000
O O11 0.474196 0.500000 0.578308
O O12 0.388969 0.768326 0.550595
O O13 0.510998 0.845599 0.564901
O O14 0.823953 0.500000 0.329636
O O15 0.875274 0.242114 0.265836
O O16 0.838599 0.222832 0.407861
O O17 0.377527 0.000000 0.179395
O O18 0.250000 0.750000 0.500000
O O19 0.171057 0.000000 0.486432
#
# Coordination Sequence:
#
# PCOD9210228 Si02
#       8
#     8   8   8   8   8   8   8   2
#     4  10  21  39  61  85 123 162 200 250 305 362
#     4   9  19  39  62  88 120 160 196 240 302 359
#     4  11  22  40  66  95 125 157 193 237 289 351
#     4  10  25  42  58  86 120 161 210 262 318 374
#     4   9  19  35  57  80 110 150 200 248 299 358
#     4  10  22  38  60  90 120 153 195 241 290 351
#     4  11  23  37  55  79 112 150 199 259 311 364
#     4  12  26  40  64  82 116 164 216 258 324 372
#
# _framework density 20.932013999999999
#
# number of rings (size 3 to 8) (size 9 to 14) (size 15 to 20)
#    0.000    1.931    0.000    3.931    4.828    5.517 
#    0.000    0.690    0.000    4.138    0.000    0.000 
#    0.000    0.000    0.000    0.000    0.000    0.000 
#
# Total GULP energy -161675.430367 kJ/mol
# GULP energy per Si atom -5575.014840 kJ/mol
# Density = 2.088437 g / cm^3
# Si number density = 20.932014 Si / 1000 Ang^3
#
#
#
# Elastic Constant Matrix: (Units=GPa)
#
#
# Indices 1 2 3 4 5 6 
#
# 1 130.6620 1.9836 22.5686 0.0000 7.0217 0.0000
# 2 1.9836 51.6875 -8.9414 0.0000 -3.8357 0.0000
# 3 22.5686 -8.9414 61.8314 0.0000 17.7559 0.0000
# 4 0.0000 0.0000 0.0000 22.6797 0.0000 -5.2305
# 5 7.0217 -3.8357 17.7559 0.0000 16.3200 0.0000
# 6 0.0000 0.0000 0.0000 -5.2305 0.0000 14.1265
#
#
#
# Elastic Compliance Matrix: (Units=1/GPa)
#
#
# Indices 1 2 3 4 5 6 
#
# 1 0.008208 -0.000867 -0.002979 0.000000 -0.000494 0.000000
# 2 -0.000867 0.019992 0.002547 0.000000 0.002301 0.000000
# 3 -0.002979 0.002547 0.024854 0.000000 -0.025160 0.000000
# 4 0.000000 0.000000 0.000000 0.048209 0.000000 0.017850
# 5 -0.000494 0.002301 -0.025160 0.000000 0.089401 0.000000
# 6 0.000000 0.000000 0.000000 0.017850 0.000000 0.077398
#
#
# Mechanical properties :
#
#
# Convention : Reuss Voigt Hill
#
# Bulk Modulus (GPa) = 19.82017 30.60027 25.21022
# Shear Modulus (GPa) = 17.39257 25.86326 21.62791
#
# Velocity S-wave (km/s) = 2.88567 3.51890 3.21790
# Velocity P-wave (km/s) = 4.53786 5.58219 5.08690
#
# Compressibility (1/GPa) = 0.05045366
#
# Stress axis : x y z
#
# Youngs Moduli (GPa) = 121.83757 50.02102 40.23499
#
# Poissons Ratio (x) = 0.04337 0.11988
# Poissons Ratio (y) = 0.10564 -0.10247
# Poissons Ratio (z) = 0.36301 -0.12739
#
# Static dielectric constant tensor:
#      x y z
#    x 2.398350 0.000000 0.182760 
#    y 0.000000 1.764640 0.000000 
#    z 0.182760 0.000000 1.547840 
# 
# From -- ./inp_files/275439.got.cif
#   From: 2010.05.17/outbox.cif.g08.bks.cpg/sg12_138_cif.got.tgz:275439.got - 2010.06.03 13:09:07.
