data_PCOD9210721
_publ_section_title
;
Structure prediction by ZEFSAII (Michael W. Deem and Ramdas Pophale) SiO2 
 PCOD9210721
Probable space group: C 2/M
;
_chemical_formula_sum "Si O2"
_cell_formula_units_Z 48
_cell_length_a 22.591589
_cell_length_b 15.731275
_cell_length_c 19.989151
_cell_angle_alpha 90.000000
_cell_angle_beta 19.238788
_cell_angle_gamma 90.000000
_cell_volume 2340.821174
_symmetry_space_group_name_H-M "C 2/M"
_symmetry_group_IT_number 12
_symmetry_cell_setting 'monoclinic'
loop_
_space_group_symop_operation_xyz
x,y,z
-x,y,-z
-x,-y,-z
x,-y,z
1/2+x,1/2+y,z
1/2-x,1/2+y,-z
1/2-x,1/2-y,-z
1/2+x,1/2-y,z
loop_
_atom_site_type_symbol
_atom_site_label
_atom_site_fract_x
_atom_site_fract_y
_atom_site_fract_z
Si Si1 0.814599 0.905534 0.738147
Si Si2 0.899642 0.398124 0.822690
Si Si3 0.041283 0.902099 0.265176
Si Si4 0.583741 0.261507 0.979797
Si Si5 0.668651 0.814172 0.639352
Si Si6 0.619599 0.898729 0.305812
O O1 0.693208 0.825722 0.849396
O O2 0.000000 0.901825 0.500000
O O3 0.867767 0.898563 0.759131
O O4 0.733235 0.000000 0.813781
O O5 0.889686 0.500000 0.838259
O O6 0.965173 0.378565 0.677103
O O7 0.026950 0.368040 0.746737
O O8 0.695427 0.364063 0.052054
O O9 0.843842 0.863283 0.478560
O O10 0.015776 0.000000 0.272568
O O11 0.712717 0.335718 0.868085
O O12 0.500000 0.291456 0.000000
O O13 0.434133 0.234764 0.192664
O O14 0.750000 0.750000 0.500000
O O15 0.500000 0.883930 0.500000
O O16 0.664631 0.000000 0.257216
#
# Coordination Sequence:
#
# PCOD9210721 Si02
#       6
#     8   8   8   8   8   8
#     4  10  21  39  63  92 132 179 217 261 320 387
#     4  10  22  44  70  96 130 174 221 277 334 392
#     4  10  21  40  64  91 130 173 214 264 320 388
#     4  12  26  41  64  99 138 177 219 273 332 395
#     4  12  26  38  64 101 131 171 218 271 333 398
#     4  10  24  46  71  93 124 175 229 283 340 389
#
# _framework density 20.505624999999998
#
# number of rings (size 3 to 8) (size 9 to 14) (size 15 to 20)
#    0.000    1.333    1.667    3.000    4.667    2.667 
#    0.000    0.833    0.000    0.000    0.000    0.000 
#    0.000    0.000    0.000    0.000    0.000    0.000 
#
# Total GULP energy -134019.610180 kJ/mol
# GULP energy per Si atom -5584.150424 kJ/mol
# Density = 2.045895 g / cm^3
# Si number density = 20.505625 Si / 1000 Ang^3
#
#
#
# Elastic Constant Matrix: (Units=GPa)
#
#
# Indices 1 2 3 4 5 6 
#
# 1 59.7821 -10.1023 10.0585 0.0255 13.6245 -0.0079
# 2 -10.1023 21.8860 9.8268 -0.0256 -3.0313 0.0076
# 3 10.0585 9.8268 95.3876 -0.0230 16.4469 0.0072
# 4 0.0255 -0.0256 -0.0230 -35.8573 0.0092 16.6579
# 5 13.6245 -3.0313 16.4469 0.0092 42.8385 -0.0008
# 6 -0.0079 0.0076 0.0072 16.6579 -0.0008 19.0176
#
#
#
# Elastic Compliance Matrix: (Units=1/GPa)
#
#
# Indices 1 2 3 4 5 6 
#
# 1 0.019793 0.009484 -0.002243 0.000007 -0.004763 -0.000001
# 2 0.009484 0.053768 -0.007148 -0.000024 0.003533 0.000006
# 3 -0.002243 -0.007148 0.012230 -0.000005 -0.004488 0.000001
# 4 0.000007 -0.000024 -0.000005 -0.019822 0.000003 0.017363
# 5 -0.004763 0.003533 -0.004488 0.000003 0.026831 -0.000003
# 6 -0.000001 0.000006 0.000001 0.017363 -0.000003 0.037375
#
#
# Mechanical properties :
#
#
# Convention : Reuss Voigt Hill
#
# Bulk Modulus (GPa) = 11.63121 21.84684 16.73903
# Shear Modulus (GPa) = 31.51624 16.35127 23.93376
#
# Velocity S-wave (km/s) = 3.92466 2.82690 3.42011
# Velocity P-wave (km/s) = 5.12072 4.61869 4.87617
#
# Compressibility (1/GPa) = 0.08597557
#
# Stress axis : x y z
#
# Youngs Moduli (GPa) = 50.52340 18.59850 81.76408
#
# Poissons Ratio (x) = -0.17638 0.18339
# Poissons Ratio (y) = -0.47914 0.58447
# Poissons Ratio (z) = 0.11332 0.13295
#
# Static dielectric constant tensor:
#      x y z
#    x 1.767440 -0.000010 -0.031050 
#    y -0.000010 1.705240 0.000020 
#    z -0.031050 0.000020 1.801970 
# 
# From -- ./inp_files/285347.got.cif
#   From: 2010.05.17/outbox.cif.g08.bks.cpg/sg12_143_cif.got.tgz:285347.got - 2010.06.03 13:09:07.
