data_PCOD9210583
_publ_section_title
;
Structure prediction by ZEFSAII (Michael W. Deem and Ramdas Pophale) SiO2 
 PCOD9210583
Probable space group: C 2/M
;
_chemical_formula_sum "Si O2"
_cell_formula_units_Z 40
_cell_length_a 20.182775
_cell_length_b 7.951766
_cell_length_c 11.462368
_cell_angle_alpha 90.000000
_cell_angle_beta 92.532131
_cell_angle_gamma 90.000000
_cell_volume 1837.784425
_symmetry_space_group_name_H-M "C 2/M"
_symmetry_group_IT_number 12
_symmetry_cell_setting 'monoclinic'
loop_
_space_group_symop_operation_xyz
x,y,z
-x,y,-z
-x,-y,-z
x,-y,z
1/2+x,1/2+y,z
1/2-x,1/2+y,-z
1/2-x,1/2-y,-z
1/2+x,1/2-y,z
loop_
_atom_site_type_symbol
_atom_site_label
_atom_site_fract_x
_atom_site_fract_y
_atom_site_fract_z
Si Si1 0.974552 0.795079 0.623027
Si Si2 0.652165 0.302661 0.255422
Si Si3 0.220316 0.808725 0.620836
Si Si4 0.602805 0.295360 0.769501
Si Si5 0.076027 0.698494 0.020276
O O1 0.901727 0.739973 0.654210
O O2 0.000000 0.737626 0.500000
O O3 0.029338 0.745728 0.721914
O O4 0.972729 0.000000 0.621071
O O5 0.665456 0.500000 0.276513
O O6 0.720481 0.207432 0.280955
O O7 0.616345 0.281386 0.128693
O O8 0.250000 0.750000 0.500000
O O9 0.155721 0.731346 0.678056
O O10 0.201085 0.000000 0.597485
O O11 0.605772 0.500000 0.773807
O O12 0.612343 0.228963 0.900243
O O13 0.072340 0.500000 0.044694
O O14 0.000000 0.762937 0.000000
#
# Coordination Sequence:
#
# PCOD9210583 Si02
#       5
#     8   8   8   8   8
#     4   9  17  32  57  87 114 148 201 252 295 352
#     4  11  22  38  64  90 121 163 205 252 305 362
#     4  11  24  42  64  91 127 164 203 252 305 363
#     4  10  21  39  63  88 118 162 210 251 298 360
#     4  11  23  39  61  91 128 159 197 257 316 364
#
# _framework density 21.765338
#
# number of rings (size 3 to 8) (size 9 to 14) (size 15 to 20)
#    0.000    1.600    2.000    3.000    0.000    6.400 
#    0.000    0.000    0.000    3.000    0.000    0.000 
#    0.000    0.000    0.000    0.000    0.000    0.000 
#
# Total GULP energy -111752.904259 kJ/mol
# GULP energy per Si atom -5587.645213 kJ/mol
# Density = 2.171580 g / cm^3
# Si number density = 21.765338 Si / 1000 Ang^3
#
#
#
# Elastic Constant Matrix: (Units=GPa)
#
#
# Indices 1 2 3 4 5 6 
#
# 1 62.0437 -7.7708 -14.5283 0.0000 -10.8932 0.0000
# 2 -7.7708 22.4034 -7.7265 0.0000 -6.2550 0.0000
# 3 -14.5283 -7.7265 76.6882 0.0000 -8.9405 0.0000
# 4 0.0000 0.0000 0.0000 20.2835 0.0000 0.1330
# 5 -10.8932 -6.2550 -8.9405 0.0000 37.9482 0.0000
# 6 0.0000 0.0000 0.0000 0.1330 0.0000 18.1959
#
#
#
# Elastic Compliance Matrix: (Units=1/GPa)
#
#
# Indices 1 2 3 4 5 6 
#
# 1 0.020720 0.011953 0.006224 0.000000 0.009384 0.000000
# 2 0.011953 0.056309 0.009686 0.000000 0.014995 0.000000
# 3 0.006224 0.009686 0.016029 0.000000 0.007160 0.000000
# 4 0.000000 0.000000 0.000000 0.049304 0.000000 -0.000360
# 5 0.009384 0.014995 0.007160 0.000000 0.033204 0.000000
# 6 0.000000 0.000000 0.000000 -0.000360 0.000000 0.054960
#
#
# Mechanical properties :
#
#
# Convention : Reuss Voigt Hill
#
# Bulk Modulus (GPa) = 6.72117 11.23157 8.97637
# Shear Modulus (GPa) = 22.28216 28.02958 25.15587
#
# Velocity S-wave (km/s) = 3.20307 3.59250 3.40336
# Velocity P-wave (km/s) = 4.09564 4.73070 4.42458
#
# Compressibility (1/GPa) = 0.14878360
#
# Stress axis : x y z
#
# Youngs Moduli (GPa) = 48.26318 17.75913 62.38534
#
# Poissons Ratio (x) = -0.21228 -0.38826
# Poissons Ratio (y) = -0.57690 -0.60426
# Poissons Ratio (z) = -0.30037 -0.17201
#
# Static dielectric constant tensor:
#      x y z
#    x 1.779670 0.000000 -0.014680 
#    y 0.000000 1.794920 0.000000 
#    z -0.014680 0.000000 1.796940 
# 
# From -- ./inp_files/151684.got.cif
#   From: 2010.05.17/outbox.cif.g08.bks.cpg/sg12_76_cif.got.tgz:151684.got - 2010.06.03 13:09:07.
