data_PCOD9210639
_publ_section_title
;
Structure prediction by ZEFSAII (Michael W. Deem and Ramdas Pophale) SiO2 
 PCOD9210639
Probable space group: C 2/M
;
_chemical_formula_sum "Si O2"
_cell_formula_units_Z 40
_cell_length_a 13.714196
_cell_length_b 8.734637
_cell_length_c 30.723194
_cell_angle_alpha 90.000000
_cell_angle_beta 151.634446
_cell_angle_gamma 90.000000
_cell_volume 1748.486541
_symmetry_space_group_name_H-M "C 2/M"
_symmetry_group_IT_number 12
_symmetry_cell_setting 'monoclinic'
loop_
_space_group_symop_operation_xyz
x,y,z
-x,y,-z
-x,-y,-z
x,-y,z
1/2+x,1/2+y,z
1/2-x,1/2+y,-z
1/2-x,1/2-y,-z
1/2+x,1/2-y,z
loop_
_atom_site_type_symbol
_atom_site_label
_atom_site_fract_x
_atom_site_fract_y
_atom_site_fract_z
Si Si1 0.058347 0.173102 0.605990
Si Si2 0.609142 0.819175 0.194928
Si Si3 0.599218 0.822204 0.761748
Si Si4 0.764867 0.320000 0.912488
Si Si5 0.761572 0.827130 0.574857
O O1 0.275877 0.206771 0.713532
O O2 0.907296 0.176347 0.588877
O O3 0.959157 0.280417 0.530814
O O4 0.056753 0.000000 0.588507
O O5 0.731929 0.716729 0.208892
O O6 0.373843 0.771556 0.107682
O O7 0.632376 0.000000 0.193873
O O8 0.660995 0.712702 0.825319
O O9 0.377938 0.783221 0.653993
O O10 0.608034 0.000000 0.778151
O O11 0.762162 0.500000 0.921903
O O12 0.000000 0.269023 0.000000
O O13 0.764232 0.000000 0.592547
#
# Coordination Sequence:
#
# PCOD9210639 Si02
#       5
#     8   8   8   8   8
#     4   8  15  28  49  80 116 153 191 232 282 339
#     4  10  21  39  63  90 121 156 196 242 291 348
#     4  11  22  38  62  89 120 158 197 240 291 348
#     4  11  25  44  64  87 116 150 193 247 302 355
#     4   9  16  28  50  81 117 155 194 236 282 337
#
# _framework density 22.876927999999999
#
# number of rings (size 3 to 8) (size 9 to 14) (size 15 to 20)
#    0.000    2.200    0.000    4.800    0.000    8.000 
#    0.000    1.000    0.000    6.000    0.000    0.000 
#    0.000    0.000    0.000    0.000    0.000    0.000 
#
# Total GULP energy -111868.209955 kJ/mol
# GULP energy per Si atom -5593.410498 kJ/mol
# Density = 2.282486 g / cm^3
# Si number density = 22.876928 Si / 1000 Ang^3
#
#
#
# Elastic Constant Matrix: (Units=GPa)
#
#
# Indices 1 2 3 4 5 6 
#
# 1 51.1706 1.4885 11.3048 0.0000 22.4418 0.0000
# 2 1.4885 37.0660 3.4481 0.0000 12.8367 0.0000
# 3 11.3048 3.4481 48.0743 0.0000 32.9069 0.0000
# 4 0.0000 0.0000 0.0000 32.1594 0.0000 1.9075
# 5 22.4418 12.8367 32.9069 0.0000 44.2602 0.0000
# 6 0.0000 0.0000 0.0000 1.9075 0.0000 23.4903
#
#
#
# Elastic Compliance Matrix: (Units=1/GPa)
#
#
# Indices 1 2 3 4 5 6 
#
# 1 0.026830 0.005413 0.007512 0.000000 -0.020759 0.000000
# 2 0.005413 0.032569 0.009643 0.000000 -0.019360 0.000000
# 3 0.007512 0.009643 0.046560 0.000000 -0.041222 0.000000
# 4 0.000000 0.000000 0.000000 0.031246 0.000000 -0.002537
# 5 -0.020759 -0.019360 -0.041222 0.000000 0.069382 0.000000
# 6 0.000000 0.000000 0.000000 -0.002537 0.000000 0.042777
#
#
# Mechanical properties :
#
#
# Convention : Reuss Voigt Hill
#
# Bulk Modulus (GPa) = 6.61837 18.75484 12.68661
# Shear Modulus (GPa) = 19.63929 27.98662 23.81296
#
# Velocity S-wave (km/s) = 2.93315 3.50144 3.22982
# Velocity P-wave (km/s) = 3.79085 4.95608 4.41210
#
# Compressibility (1/GPa) = 0.15109470
#
# Stress axis : x y z
#
# Youngs Moduli (GPa) = 37.27232 30.70386 21.47784
#
# Poissons Ratio (x) = -0.16620 -0.16135
# Poissons Ratio (y) = -0.20175 -0.20711
# Poissons Ratio (z) = -0.28000 -0.29608
#
# Static dielectric constant tensor:
#      x y z
#    x 1.952950 0.000000 0.038210 
#    y 0.000000 1.752940 0.000000 
#    z 0.038210 0.000000 1.835600 
# 
# From -- ./inp_files/151869.got.cif
#   From: 2010.05.17/outbox.cif.g08.bks.cpg/sg12_76_cif.got.tgz:151869.got - 2010.06.03 13:09:07.
