data_PCOD9210182
_publ_section_title
;
Structure prediction by ZEFSAII (Michael W. Deem and Ramdas Pophale) SiO2 
 PCOD9210182
Probable space group: C 2/M
;
_chemical_formula_sum "Si O2"
_cell_formula_units_Z 42
_cell_length_a 12.061593
_cell_length_b 14.512432
_cell_length_c 13.857295
_cell_angle_alpha 90.000000
_cell_angle_beta 115.191328
_cell_angle_gamma 90.000000
_cell_volume 2194.925743
_symmetry_space_group_name_H-M "C 2/M"
_symmetry_group_IT_number 12
_symmetry_cell_setting 'monoclinic'
loop_
_space_group_symop_operation_xyz
x,y,z
-x,y,-z
-x,-y,-z
x,-y,z
1/2+x,1/2+y,z
1/2-x,1/2+y,-z
1/2-x,1/2-y,-z
1/2+x,1/2-y,z
loop_
_atom_site_type_symbol
_atom_site_label
_atom_site_fract_x
_atom_site_fract_y
_atom_site_fract_z
Si Si1 0.506559 0.500000 0.221637
Si Si2 0.107898 0.389076 0.467951
Si Si3 0.176541 0.647616 0.289251
Si Si4 0.000000 0.000000 0.000000
Si Si5 0.717955 0.353880 0.300631
Si Si6 0.212111 0.500000 0.820632
Si Si7 0.483087 0.000000 0.879016
Si Si8 0.385064 0.500000 0.383600
O O1 0.590854 0.408798 0.257608
O O2 0.425010 0.500000 0.286590
O O3 0.451186 0.500000 0.094561
O O4 0.105595 0.500000 0.453618
O O5 0.102858 0.343655 0.362187
O O6 0.227301 0.361321 0.572204
O O7 0.000000 0.362470 0.500000
O O8 0.206554 0.749106 0.264305
O O9 0.096517 0.587674 0.185863
O O10 0.297127 0.588903 0.362692
O O11 0.853919 0.000000 0.907862
O O12 0.800011 0.412470 0.255721
O O13 0.110949 0.500000 0.866658
O O14 0.500000 0.000000 0.000000
O O15 0.500000 0.500000 0.500000
#
# Coordination Sequence:
#
# PCOD9210182 Si02
#       8
#     4   8   8   2   8   4   4   4
#     4  10  21  39  61  81 126 154 206 250 331 362
#     4  11  19  34  63  89 126 164 207 252 315 383
#     4  11  24  40  60  95 128 162 221 254 320 384
#     4   8  20  38  66  92 106 164 206 266 300 378
#     4  10  21  39  62  94 120 164 204 267 305 391
#     4  10  21  43  71  86 129 158 223 253 332 368
#     4  11  25  45  65  89 129 177 213 271 317 378
#     4  11  23  38  60  87 129 165 194 264 328 376
#
# _framework density 19.135043
#
# number of rings (size 3 to 8) (size 9 to 14) (size 15 to 20)
#    0.000    1.714    3.810    2.857    2.667    3.810 
#    6.857    0.952    0.000    0.000    0.000    0.000 
#    0.000    0.000    0.000    0.000    0.000    0.000 
#
# Total GULP energy -116947.488126 kJ/mol
# GULP energy per Si atom -5568.928006 kJ/mol
# Density = 1.909149 g / cm^3
# Si number density = 19.135043 Si / 1000 Ang^3
#
#
#
# Elastic Constant Matrix: (Units=GPa)
#
#
# Indices 1 2 3 4 5 6 
#
# 1 93.9309 36.4501 31.1811 0.0000 -20.4359 0.0000
# 2 36.4501 135.7689 31.3365 0.0000 -2.3406 0.0000
# 3 31.1811 31.3365 145.0638 0.0000 -16.3429 0.0000
# 4 0.0000 0.0000 0.0000 12.1095 0.0000 5.1121
# 5 -20.4359 -2.3406 -16.3429 0.0000 40.2341 0.0000
# 6 0.0000 0.0000 0.0000 5.1121 0.0000 1.3898
#
#
#
# Elastic Compliance Matrix: (Units=1/GPa)
#
#
# Indices 1 2 3 4 5 6 
#
# 1 0.013759 -0.003226 -0.001566 0.000000 0.006165 0.000000
# 2 -0.003226 0.008511 -0.001335 0.000000 -0.001686 0.000000
# 3 -0.001566 -0.001335 0.007776 0.000000 0.002285 0.000000
# 4 0.000000 0.000000 0.000000 -0.149379 0.000000 0.549462
# 5 0.006165 -0.001686 0.002285 0.000000 0.028816 0.000000
# 6 0.000000 0.000000 0.000000 0.549462 0.000000 -1.301559
#
#
# Mechanical properties :
#
#
# Convention : Reuss Voigt Hill
#
# Bulk Modulus (GPa) = 56.20679 63.63322 59.92001
# Shear Modulus (GPa) = -3.63930 29.13307 12.74689
#
# Velocity S-wave (km/s) = -1.38059 3.90615 2.58380
# Velocity P-wave (km/s) = 5.18615 7.32605 6.34694
#
# Compressibility (1/GPa) = 0.01779145
#
# Stress axis : x y z
#
# Youngs Moduli (GPa) = 72.67890 117.49986 128.60106
#
# Poissons Ratio (x) = 0.37908 0.20140
# Poissons Ratio (y) = 0.23448 0.17167
# Poissons Ratio (z) = 0.11382 0.15685
#
# Static dielectric constant tensor:
#      x y z
#    x 1.715570 0.000000 0.013730 
#    y 0.000000 1.680780 0.000000 
#    z 0.013730 0.000000 1.661080 
# 
# From -- ./inp_files/204670.got.cif
#   From: 2010.05.17/outbox.cif.g08.bks.cpg/sg12_103_cif.got.tgz:204670.got - 2010.06.03 13:09:07.
