data_PCOD9210917
_publ_section_title
;
Structure prediction by ZEFSAII (Michael W. Deem and Ramdas Pophale) SiO2 
 PCOD9210917
Probable space group: C 2/M
;
_chemical_formula_sum "Si O2"
_cell_formula_units_Z 60
_cell_length_a 27.437711
_cell_length_b 11.420521
_cell_length_c 9.714902
_cell_angle_alpha 90.000000
_cell_angle_beta 112.322160
_cell_angle_gamma 90.000000
_cell_volume 2816.070198
_symmetry_space_group_name_H-M "C 2/M"
_symmetry_group_IT_number 12
_symmetry_cell_setting 'monoclinic'
loop_
_space_group_symop_operation_xyz
x,y,z
-x,y,-z
-x,-y,-z
x,-y,z
1/2+x,1/2+y,z
1/2-x,1/2+y,-z
1/2-x,1/2-y,-z
1/2+x,1/2-y,z
loop_
_atom_site_type_symbol
_atom_site_label
_atom_site_fract_x
_atom_site_fract_y
_atom_site_fract_z
Si Si1 0.048702 0.635220 0.640158
Si Si2 0.661977 0.224227 0.809801
Si Si3 0.170718 0.814357 0.127681
Si Si4 0.703208 0.871937 0.388510
Si Si5 0.912701 0.127629 0.738868
Si Si6 0.521802 0.131516 0.177006
Si Si7 0.263919 0.000000 0.169092
Si Si8 0.818876 0.180048 0.441207
O O1 0.056523 0.500000 0.604319
O O2 0.103480 0.700264 0.690004
O O3 0.000000 0.684420 0.500000
O O4 0.027386 0.635998 0.772260
O O5 0.684703 0.320019 0.726514
O O6 0.695560 0.105236 0.838774
O O7 0.659334 0.271865 0.961337
O O8 0.185922 0.706920 0.243129
O O9 0.120833 0.867477 0.155103
O O10 0.220425 0.899681 0.171296
O O11 0.766561 0.873248 0.452893
O O12 0.684186 0.814694 0.509872
O O13 0.681527 0.000000 0.351643
O O14 0.944085 0.250691 0.763472
O O15 0.870368 0.129886 0.568601
O O16 0.940748 0.000000 0.763950
O O17 0.546474 0.000000 0.225199
O O18 0.500000 0.135223 0.000000
#
# Coordination Sequence:
#
# PCOD9210917 Si02
#       8
#     8   8   8   8   8   8   4   8
#     4  10  21  39  64  95 128 165 215 282 338 393
#     4  12  24  40  67  97 131 181 224 268 345 395
#     4  11  25  42  63  95 134 177 220 273 324 394
#     4  10  22  37  58  87 126 173 223 269 308 379
#     4  11  23  44  68  94 131 178 219 270 342 407
#     4  10  22  42  68  96 128 159 218 290 344 390
#     4  12  24  42  63  96 143 176 220 274 318 414
#     4  10  23  37  58  90 126 172 216 264 326 381
#
# _framework density 21.306287000000001
#
# number of rings (size 3 to 8) (size 9 to 14) (size 15 to 20)
#    0.000    1.333    2.667    2.400    1.867    2.400 
#    1.200    0.000    0.000    1.200    0.000    0.000 
#    0.000    0.000    0.000    0.000    0.000    0.000 
#
# Total GULP energy -167002.487455 kJ/mol
# GULP energy per Si atom -5566.749582 kJ/mol
# Density = 2.125779 g / cm^3
# Si number density = 21.306287 Si / 1000 Ang^3
#
#
#
# Elastic Constant Matrix: (Units=GPa)
#
#
# Indices 1 2 3 4 5 6 
#
# 1 52.3543 15.7308 -17.0316 0.0000 0.4447 0.0000
# 2 15.7308 137.0847 0.6354 0.0000 6.0059 0.0000
# 3 -17.0316 0.6354 70.8102 0.0000 -17.7731 0.0000
# 4 0.0000 0.0000 0.0000 7.1181 0.0000 -7.5019
# 5 0.4447 6.0059 -17.7731 0.0000 27.1928 0.0000
# 6 0.0000 0.0000 0.0000 -7.5019 0.0000 -5.1281
#
#
#
# Elastic Compliance Matrix: (Units=1/GPa)
#
#
# Indices 1 2 3 4 5 6 
#
# 1 0.021979 -0.002747 0.006428 0.000000 0.004448 0.000000
# 2 -0.002747 0.007728 -0.001372 0.000000 -0.002559 0.000000
# 3 0.006428 -0.001372 0.018817 0.000000 0.012497 0.000000
# 4 0.000000 0.000000 0.000000 0.055271 0.000000 -0.080856
# 5 0.004448 -0.002559 0.012497 0.000000 0.045435 0.000000
# 6 0.000000 0.000000 0.000000 -0.080856 0.000000 -0.076719
#
#
# Mechanical properties :
#
#
# Convention : Reuss Voigt Hill
#
# Bulk Modulus (GPa) = 18.81751 28.76872 23.79312
# Shear Modulus (GPa) = 58.40528 23.23086 40.81807
#
# Velocity S-wave (km/s) = 5.24135 3.30559 4.38171
# Velocity P-wave (km/s) = 6.74389 5.30104 6.06552
#
# Compressibility (1/GPa) = 0.05314199
#
# Stress axis : x y z
#
# Youngs Moduli (GPa) = 45.49757 129.39225 53.14270
#
# Poissons Ratio (x) = 0.35542 -0.34159
# Poissons Ratio (y) = 0.12497 0.07293
# Poissons Ratio (z) = -0.29245 0.17757
#
# Static dielectric constant tensor:
#      x y z
#    x 1.074160 0.000000 1.207480 
#    y 0.000000 1.816730 0.000000 
#    z 1.207480 0.000000 -0.261540 
# 
# From -- ./inp_files/110511.got.cif
#   From: 2010.05.17/outbox.cif.g08.bks.cpg/sg12_56_cif.got.tgz:110511.got - 2010.06.03 13:09:07.
