data_PCOD9210800
_publ_section_title
;
Structure prediction by ZEFSAII (Michael W. Deem and Ramdas Pophale) SiO2 
 PCOD9210800
Probable space group: C 2/M
;
_chemical_formula_sum "Si O2"
_cell_formula_units_Z 60
_cell_length_a 16.878546
_cell_length_b 24.479196
_cell_length_c 15.399102
_cell_angle_alpha 90.000000
_cell_angle_beta 151.477094
_cell_angle_gamma 90.000000
_cell_volume 3038.156230
_symmetry_space_group_name_H-M "C 2/M"
_symmetry_group_IT_number 12
_symmetry_cell_setting 'monoclinic'
loop_
_space_group_symop_operation_xyz
x,y,z
-x,y,-z
-x,-y,-z
x,-y,z
1/2+x,1/2+y,z
1/2-x,1/2+y,-z
1/2-x,1/2-y,-z
1/2+x,1/2-y,z
loop_
_atom_site_type_symbol
_atom_site_label
_atom_site_fract_x
_atom_site_fract_y
_atom_site_fract_z
Si Si1 0.931896 0.564248 0.336647
Si Si2 0.500000 0.365633 0.500000
Si Si3 0.352851 0.302073 0.516467
Si Si4 0.721922 0.337538 0.143739
Si Si5 0.832221 0.435411 0.787054
Si Si6 0.400568 0.884287 0.668754
Si Si7 0.092163 0.282900 0.816061
Si Si8 0.598101 0.724355 0.173790
O O1 0.905061 0.500000 0.300102
O O2 0.763516 0.599818 0.168261
O O3 0.000000 0.573880 0.500000
O O4 0.051711 0.585305 0.374229
O O5 0.475398 0.328746 0.562822
O O6 0.669034 0.401949 0.660849
O O7 0.266595 0.348120 0.492440
O O8 0.445119 0.259366 0.665492
O O9 0.211584 0.268242 0.329008
O O10 0.871239 0.304479 0.244979
O O11 0.709255 0.320618 0.231442
O O12 0.956830 0.337667 0.179487
O O13 0.801831 0.500000 0.769104
O O14 0.874044 0.422261 0.726606
O O15 0.000000 0.420377 0.000000
O O16 0.054535 0.186944 0.938747
O O17 0.250000 0.250000 0.000000
O O18 0.500000 0.754766 0.000000
#
# Coordination Sequence:
#
# PCOD9210800 Si02
#       8
#     8   4   8   8   8   8   8   8
#     4  10  21  39  64  89 115 157 212 268 320 363
#     4  10  23  36  64  96 124 164 211 256 298 392
#     4  11  21  36  57  91 127 166 195 245 306 373
#     4   8  19  34  55  83 114 157 197 251 294 362
#     4  10  22  42  67  91 125 167 208 262 319 368
#     4  10  23  37  59  91 120 159 207 254 306 378
#     4  11  22  34  53  85 124 165 199 245 297 374
#     4   8  19  34  57  86 123 161 195 247 294 375
#
# _framework density 19.748819999999998
#
# number of rings (size 3 to 8) (size 9 to 14) (size 15 to 20)
#    0.800    1.333    0.000    2.600    5.600    2.133 
#    2.400    1.333    0.000    0.000    0.000    0.000 
#    0.000    0.000    0.000    0.000    0.000    0.000 
#
# Total GULP energy -167011.449891 kJ/mol
# GULP energy per Si atom -5567.048330 kJ/mol
# Density = 1.970387 g / cm^3
# Si number density = 19.748820 Si / 1000 Ang^3
#
#
#
# Elastic Constant Matrix: (Units=GPa)
#
#
# Indices 1 2 3 4 5 6 
#
# 1 136.8093 54.5431 26.8313 0.0000 19.7973 0.0000
# 2 54.5431 102.3321 42.9823 0.0000 3.2370 0.0000
# 3 26.8313 42.9823 88.4493 0.0000 -2.0114 0.0000
# 4 0.0000 0.0000 0.0000 19.2333 0.0000 4.9736
# 5 19.7973 3.2370 -2.0114 0.0000 21.7155 0.0000
# 6 0.0000 0.0000 0.0000 4.9736 0.0000 32.7953
#
#
#
# Elastic Compliance Matrix: (Units=1/GPa)
#
#
# Indices 1 2 3 4 5 6 
#
# 1 0.010872 -0.005062 -0.001049 0.000000 -0.009255 0.000000
# 2 -0.005062 0.014760 -0.005594 0.000000 0.001896 0.000000
# 3 -0.001049 -0.005594 0.014414 0.000000 0.003125 0.000000
# 4 0.000000 0.000000 0.000000 0.054115 0.000000 -0.008207
# 5 -0.009255 0.001896 0.003125 0.000000 0.054494 0.000000
# 6 0.000000 0.000000 0.000000 -0.008207 0.000000 0.031737
#
#
# Mechanical properties :
#
#
# Convention : Reuss Voigt Hill
#
# Bulk Modulus (GPa) = 60.10844 64.03380 62.07112
# Shear Modulus (GPa) = 23.88392 28.29776 26.09084
#
# Velocity S-wave (km/s) = 3.48139 3.78945 3.63868
# Velocity P-wave (km/s) = 6.83101 7.18617 7.01084
#
# Compressibility (1/GPa) = 0.01663660
#
# Stress axis : x y z
#
# Youngs Moduli (GPa) = 91.97650 67.75265 69.37929
#
# Poissons Ratio (x) = 0.34294 0.07277
# Poissons Ratio (y) = 0.46555 0.38810
# Poissons Ratio (z) = 0.09647 0.37900
#
# Static dielectric constant tensor:
#      x y z
#    x 1.792630 0.000000 0.002640 
#    y 0.000000 1.693780 0.000000 
#    z 0.002640 0.000000 1.710320 
# 
# From -- ./inp_files/219260.got.cif
#   From: 2010.05.17/outbox.cif.g08.bks.cpg/sg12_110_cif.got.tgz:219260.got - 2010.06.03 13:09:07.
