data_PCOD9210985
_publ_section_title
;
Structure prediction by ZEFSAII (Michael W. Deem and Ramdas Pophale) SiO2 
 PCOD9210985
Probable space group: C 2/M
;
_chemical_formula_sum "Si O2"
_cell_formula_units_Z 56
_cell_length_a 15.662990
_cell_length_b 16.311906
_cell_length_c 11.056066
_cell_angle_alpha 90.000000
_cell_angle_beta 63.515255
_cell_angle_gamma 90.000000
_cell_volume 2528.301248
_symmetry_space_group_name_H-M "C 2/M"
_symmetry_group_IT_number 12
_symmetry_cell_setting 'monoclinic'
loop_
_space_group_symop_operation_xyz
x,y,z
-x,y,-z
-x,-y,-z
x,-y,z
1/2+x,1/2+y,z
1/2-x,1/2+y,-z
1/2-x,1/2-y,-z
1/2+x,1/2-y,z
loop_
_atom_site_type_symbol
_atom_site_label
_atom_site_fract_x
_atom_site_fract_y
_atom_site_fract_z
Si Si1 0.887505 0.221592 0.819801
Si Si2 0.801942 0.345634 0.173643
Si Si3 0.253590 0.152431 0.472748
Si Si4 0.379677 0.091356 0.877062
Si Si5 0.395037 0.309772 0.078773
Si Si6 0.260543 0.089674 0.704980
Si Si7 0.464637 0.406363 0.383502
O O1 0.795997 0.206917 0.790504
O O2 0.920091 0.315605 0.825816
O O3 0.972518 0.162671 0.723477
O O4 0.851423 0.189429 0.972541
O O5 0.791145 0.375359 0.317610
O O6 0.891470 0.284245 0.119952
O O7 0.822987 0.400433 0.041676
O O8 0.250000 0.250000 0.500000
O O9 0.312432 0.119039 0.550981
O O10 0.146274 0.117211 0.546612
O O11 0.317412 0.087011 0.793821
O O12 0.428944 0.000000 0.851978
O O13 0.330170 0.355041 0.213401
O O14 0.500000 0.343419 0.000000
O O15 0.224591 0.000000 0.701871
O O16 0.500000 0.405142 0.500000
O O17 0.480251 0.500000 0.328337
#
# Coordination Sequence:
#
# PCOD9210985 Si02
#       7
#     8   8   8   8   8   8   8
#     4  11  20  40  65  89 128 169 213 264 328 388
#     4  11  21  40  63  88 123 173 223 255 321 395
#     4  12  23  40  64  91 134 177 213 258 330 399
#     4  10  21  39  65  92 121 167 224 270 314 386
#     4  11  21  36  59  90 120 160 211 261 316 380
#     4  11  22  37  58  91 127 160 207 270 327 382
#     4  11  25  41  63 101 137 168 217 278 329 390
#
# _framework density 22.149259000000001
#
# number of rings (size 3 to 8) (size 9 to 14) (size 15 to 20)
#    0.000    1.000    5.714    2.143    0.000    2.571 
#    0.000    0.000    0.000    9.000    0.000    0.000 
#    0.000    0.000    0.000    0.000    0.000    0.000 
#
# Total GULP energy -155954.238371 kJ/mol
# GULP energy per Si atom -5569.794228 kJ/mol
# Density = 2.209885 g / cm^3
# Si number density = 22.149259 Si / 1000 Ang^3
#
#
#
# Elastic Constant Matrix: (Units=GPa)
#
#
# Indices 1 2 3 4 5 6 
#
# 1 26.1448 18.7901 20.4732 0.0000 19.4661 0.0000
# 2 18.7901 141.7422 44.1491 0.0000 1.8318 0.0000
# 3 20.4732 44.1491 150.8595 0.0000 35.3527 0.0000
# 4 0.0000 0.0000 0.0000 -40.3640 0.0000 23.1934
# 5 19.4661 1.8318 35.3527 0.0000 36.8222 0.0000
# 6 0.0000 0.0000 0.0000 23.1934 0.0000 2.6492
#
#
#
# Elastic Compliance Matrix: (Units=1/GPa)
#
#
# Indices 1 2 3 4 5 6 
#
# 1 0.074124 -0.010081 0.002524 0.000000 -0.041107 0.000000
# 2 -0.010081 0.009290 -0.003214 0.000000 0.007953 0.000000
# 3 0.002524 -0.003214 0.009680 0.000000 -0.010468 0.000000
# 4 0.000000 0.000000 0.000000 -0.004108 0.000000 0.035966
# 5 -0.041107 0.007953 -0.010468 0.000000 0.058544 0.000000
# 6 0.000000 0.000000 0.000000 0.035966 0.000000 0.062593
#
#
# Mechanical properties :
#
#
# Convention : Reuss Voigt Hill
#
# Bulk Modulus (GPa) = 13.97612 53.95237 33.96425
# Shear Modulus (GPa) = 19.56829 15.51041 17.53935
#
# Velocity S-wave (km/s) = 2.97555 2.64913 2.81707
# Velocity P-wave (km/s) = 4.25780 5.81108 5.09399
#
# Compressibility (1/GPa) = 0.07155060
#
# Stress axis : x y z
#
# Youngs Moduli (GPa) = 13.49094 107.64383 103.30649
#
# Poissons Ratio (x) = 1.08518 -0.26075
# Poissons Ratio (y) = 0.13600 0.33207
# Poissons Ratio (z) = -0.03405 0.34601
#
# Static dielectric constant tensor:
#      x y z
#    x 1.846960 0.000000 0.064320 
#    y 0.000000 1.869530 0.000000 
#    z 0.064320 0.000000 1.838300 
# 
# From -- ./inp_files/156538.got.cif
#   From: 2010.05.17/outbox.cif.g08.bks.cpg/sg12_79_cif.got.tgz:156538.got - 2010.06.03 13:09:07.
