data_PCOD9210668
_publ_section_title
;
Structure prediction by ZEFSAII (Michael W. Deem and Ramdas Pophale) SiO2 
 PCOD9210668
Probable space group: C 2/M
;
_chemical_formula_sum "Si O2"
_cell_formula_units_Z 48
_cell_length_a 28.405816
_cell_length_b 8.752286
_cell_length_c 17.610407
_cell_angle_alpha 90.000000
_cell_angle_beta 35.899865
_cell_angle_gamma 90.000000
_cell_volume 2567.262270
_symmetry_space_group_name_H-M "C 2/M"
_symmetry_group_IT_number 12
_symmetry_cell_setting 'monoclinic'
loop_
_space_group_symop_operation_xyz
x,y,z
-x,y,-z
-x,-y,-z
x,-y,z
1/2+x,1/2+y,z
1/2-x,1/2+y,-z
1/2-x,1/2-y,-z
1/2+x,1/2-y,z
loop_
_atom_site_type_symbol
_atom_site_label
_atom_site_fract_x
_atom_site_fract_y
_atom_site_fract_z
Si Si1 0.040234 0.683161 0.367083
Si Si2 0.596039 0.822551 0.878883
Si Si3 0.661352 0.183375 0.626816
Si Si4 0.517261 0.316573 0.715921
Si Si5 0.360317 0.319779 0.021905
Si Si6 0.783409 0.181217 0.878333
O O1 0.040089 0.500000 0.359707
O O2 0.996205 0.753479 0.351161
O O3 0.130780 0.744572 0.249419
O O4 0.000000 0.723814 0.500000
O O5 0.631809 0.779228 0.750700
O O6 0.623371 0.717214 0.911979
O O7 0.617988 0.000000 0.866123
O O8 0.500000 0.815099 0.000000
O O9 0.750000 0.250000 0.500000
O O10 0.596316 0.250293 0.652991
O O11 0.662542 0.000000 0.617833
O O12 0.522131 0.500000 0.707713
O O13 0.438556 0.275249 0.869498
O O14 0.346629 0.500000 0.027675
O O15 0.282975 0.226569 0.096460
O O16 0.792057 0.000000 0.873529
O O17 0.750000 0.250000 0.000000
#
# Coordination Sequence:
#
# PCOD9210668 Si02
#       6
#     8   8   8   8   8   8
#     4  11  25  44  67  95 129 169 213 263 320 380
#     4  10  21  39  63  91 122 161 208 257 310 368
#     4  11  24  42  65  92 128 168 210 261 317 378
#     4  11  23  40  65  94 126 167 211 258 320 381
#     4  11  23  38  63  97 129 164 210 263 315 373
#     4  12  24  40  65  94 127 166 211 262 314 374
#
# _framework density 18.696961000000002
#
# number of rings (size 3 to 8) (size 9 to 14) (size 15 to 20)
#    0.000    1.000    3.333    3.500    0.000    5.667 
#    0.000    0.000    0.000    0.000    0.000    0.000 
#    0.000    0.000    0.000    0.000    0.000    0.000 
#
# Total GULP energy -134218.089482 kJ/mol
# GULP energy per Si atom -5592.420395 kJ/mol
# Density = 1.865441 g / cm^3
# Si number density = 18.696961 Si / 1000 Ang^3
#
#
#
# Elastic Constant Matrix: (Units=GPa)
#
#
# Indices 1 2 3 4 5 6 
#
# 1 147.2407 53.0445 86.1819 -0.0030 5.8044 0.0011
# 2 53.0445 62.6022 62.0744 -0.0074 8.1908 0.0080
# 3 86.1819 62.0744 172.4511 -0.0024 1.6526 0.0038
# 4 -0.0030 -0.0074 -0.0024 26.6861 0.0031 -1.3647
# 5 5.8044 8.1908 1.6526 0.0031 28.4330 -0.0018
# 6 0.0011 0.0080 0.0038 -1.3647 -0.0018 40.3507
#
#
#
# Elastic Compliance Matrix: (Units=1/GPa)
#
#
# Indices 1 2 3 4 5 6 
#
# 1 0.010858 -0.005877 -0.003307 -0.000001 -0.000331 0.000001
# 2 -0.005877 0.029340 -0.007559 0.000007 -0.006813 -0.000005
# 3 -0.003307 -0.007559 0.010151 -0.000002 0.002263 0.000001
# 4 -0.000001 0.000007 -0.000002 0.037538 -0.000006 0.001270
# 5 -0.000331 -0.006813 0.002263 -0.000006 0.037069 0.000003
# 6 0.000001 -0.000005 0.000001 0.001270 0.000003 0.024826
#
#
# Mechanical properties :
#
#
# Convention : Reuss Voigt Hill
#
# Bulk Modulus (GPa) = 59.30496 87.21062 73.25779
# Shear Modulus (GPa) = 26.47062 31.16018 28.81540
#
# Velocity S-wave (km/s) = 3.76676 4.08682 3.93005
# Velocity P-wave (km/s) = 7.12080 8.30753 7.73695
#
# Compressibility (1/GPa) = 0.01686200
#
# Stress axis : x y z
#
# Youngs Moduli (GPa) = 92.09884 34.08296 98.51495
#
# Poissons Ratio (x) = 0.20031 0.32584
# Poissons Ratio (y) = 0.54129 0.74464
# Poissons Ratio (z) = 0.30462 0.25762
#
# Static dielectric constant tensor:
#      x y z
#    x 1.602060 0.000000 0.005310 
#    y 0.000000 1.634860 0.000000 
#    z 0.005310 0.000000 1.614760 
# 
# From -- ./inp_files/244714.got.cif
#   From: 2010.05.17/outbox.cif.g08.bks.cpg/sg12_123_cif.got.tgz:244714.got - 2010.06.03 13:09:07.
