data_PCOD9210667
_publ_section_title
;
Structure prediction by ZEFSAII (Michael W. Deem and Ramdas Pophale) SiO2 
 PCOD9210667
Probable space group: C 2/M
;
_chemical_formula_sum "Si O2"
_cell_formula_units_Z 48
_cell_length_a 9.981028
_cell_length_b 14.234063
_cell_length_c 21.373892
_cell_angle_alpha 90.000000
_cell_angle_beta 35.710262
_cell_angle_gamma 90.000000
_cell_volume 1772.423621
_symmetry_space_group_name_H-M "C 2/M"
_symmetry_group_IT_number 12
_symmetry_cell_setting 'monoclinic'
loop_
_space_group_symop_operation_xyz
x,y,z
-x,y,-z
-x,-y,-z
x,-y,z
1/2+x,1/2+y,z
1/2-x,1/2+y,-z
1/2-x,1/2-y,-z
1/2+x,1/2-y,z
loop_
_atom_site_type_symbol
_atom_site_label
_atom_site_fract_x
_atom_site_fract_y
_atom_site_fract_z
Si Si1 0.163958 0.357707 0.028810
Si Si2 0.863350 0.150575 0.785360
Si Si3 0.200779 0.500000 0.558866
Si Si4 0.889544 0.857298 0.625322
Si Si5 0.875607 0.365589 0.611640
Si Si6 0.971553 0.000000 0.132813
Si Si7 0.379178 0.129236 0.809728
O O1 0.172911 0.391646 0.097796
O O2 0.904270 0.373003 0.104446
O O3 0.250000 0.250000 0.000000
O O4 0.338218 0.417991 0.922665
O O5 0.890119 0.139565 0.700153
O O6 0.873571 0.259376 0.801722
O O7 0.107009 0.107799 0.715395
O O8 0.401367 0.417908 0.478027
O O9 0.004779 0.418846 0.617226
O O10 0.900690 0.746871 0.605476
O O11 0.643999 0.898332 0.696293
O O12 0.000000 0.395058 0.500000
O O13 0.807398 0.080245 0.161626
#
# Coordination Sequence:
#
# PCOD9210667 Si02
#       7
#     8   8   4   8   8   4   8
#     4  11  22  37  64  93 124 161 204 258 306 358
#     4  10  22  39  62  89 127 158 203 250 313 360
#     4  12  22  38  65  94 122 161 216 247 302 380
#     4  10  23  40  64  93 124 162 205 259 308 363
#     4  11  23  40  66  89 124 164 203 258 307 365
#     4  12  22  38  66  97 117 163 216 250 296 376
#     4  10  21  39  63  91 122 161 207 253 304 359
#
# _framework density 27.081562000000002
#
# number of rings (size 3 to 8) (size 9 to 14) (size 15 to 20)
#    0.000    1.333    3.333    2.750    0.000    2.667 
#    0.000    1.250    0.000    3.000    0.000    0.000 
#    0.000    0.000    0.000    0.000    0.000    0.000 
#
# Total GULP energy -133702.073534 kJ/mol
# GULP energy per Si atom -5570.919731 kJ/mol
# Density = 2.701992 g / cm^3
# Si number density = 27.081562 Si / 1000 Ang^3
#
#
#
# Elastic Constant Matrix: (Units=GPa)
#
#
# Indices 1 2 3 4 5 6 
#
# 1 127.0126 -0.0385 94.3822 0.0002 -37.6773 0.0002
# 2 -0.0385 185.5481 33.2663 -0.0005 -33.7452 -0.0003
# 3 94.3822 33.2663 219.5452 -0.0025 -35.7973 -0.0024
# 4 0.0002 -0.0005 -0.0025 -34.4841 -0.0013 -92.7390
# 5 -37.6773 -33.7452 -35.7973 -0.0013 70.4417 -0.0005
# 6 0.0002 -0.0003 -0.0024 -92.7390 -0.0005 -8.3774
#
#
#
# Elastic Compliance Matrix: (Units=1/GPa)
#
#
# Indices 1 2 3 4 5 6 
#
# 1 0.013282 0.001905 -0.005115 0.000000 0.005417 0.000000
# 2 0.001905 0.006222 -0.001210 0.000000 0.003385 0.000000
# 3 -0.005115 -0.001210 0.006975 0.000000 0.000229 0.000000
# 4 0.000000 0.000000 0.000000 0.001008 0.000000 -0.011158
# 5 0.005417 0.003385 0.000229 0.000000 0.018831 0.000000
# 6 0.000000 0.000000 0.000000 -0.011158 0.000000 0.004149
#
#
# Mechanical properties :
#
#
# Convention : Reuss Voigt Hill
#
# Bulk Modulus (GPa) = 56.69359 87.48065 72.08712
# Shear Modulus (GPa) = 76.70266 32.48245 54.59255
#
# Velocity S-wave (km/s) = 5.32769 3.46704 4.49470
# Velocity P-wave (km/s) = 7.66978 6.95700 7.32207
#
# Compressibility (1/GPa) = 0.01763868
#
# Stress axis : x y z
#
# Youngs Moduli (GPa) = 75.29042 160.71052 143.37887
#
# Poissons Ratio (x) = -0.30617 0.73342
# Poissons Ratio (y) = -0.14343 0.17347
# Poissons Ratio (z) = 0.38513 0.19444
#
# Static dielectric constant tensor:
#      x y z
#    x 2.192000 0.000000 0.113660 
#    y 0.000000 2.029000 0.000000 
#    z 0.113660 0.000000 2.183070 
# 
# From -- ./inp_files/374045.got.cif
#   From: 2010.05.17/outbox.cif.g08.bks.cpg/sg12_188_cif.got.tgz:374045.got - 2010.06.03 13:09:07.
