data_PCOD9210107
_publ_section_title
;
Structure prediction by ZEFSAII (Michael W. Deem and Ramdas Pophale) SiO2 
 PCOD9210107
Probable space group: C 2/M
;
_chemical_formula_sum "Si O2"
_cell_formula_units_Z 40
_cell_length_a 25.640136
_cell_length_b 14.307561
_cell_length_c 6.548644
_cell_angle_alpha 90.000000
_cell_angle_beta 62.541022
_cell_angle_gamma 90.000000
_cell_volume 2131.709206
_symmetry_space_group_name_H-M "C 2/M"
_symmetry_group_IT_number 12
_symmetry_cell_setting 'monoclinic'
loop_
_space_group_symop_operation_xyz
x,y,z
-x,y,-z
-x,-y,-z
x,-y,z
1/2+x,1/2+y,z
1/2-x,1/2+y,-z
1/2-x,1/2-y,-z
1/2+x,1/2-y,z
loop_
_atom_site_type_symbol
_atom_site_label
_atom_site_fract_x
_atom_site_fract_y
_atom_site_fract_z
Si Si1 0.434314 0.719128 0.602697
Si Si2 0.636952 0.231340 0.656445
Si Si3 0.777324 0.659666 0.843350
Si Si4 0.347308 0.395377 0.049924
Si Si5 0.111708 0.607390 0.084483
O O1 0.500000 0.681720 0.500000
O O2 0.413686 0.738702 0.410071
O O3 0.430398 0.819099 0.725183
O O4 0.387795 0.651802 0.801422
O O5 0.689763 0.193953 0.420178
O O6 0.651664 0.322015 0.765442
O O7 0.619953 0.149303 0.843704
O O8 0.720185 0.599736 0.899181
O O9 0.826448 0.616226 0.903511
O O10 0.750000 0.750000 0.000000
O O11 0.367927 0.500000 0.063239
O O12 0.092767 0.500000 0.118824
#
# Coordination Sequence:
#
# PCOD9210107 Si02
#       5
#     8   8   8   8   8
#     4  10  23  43  61  79 116 157 194 243 291 334
#     4  10  21  39  60  83 119 151 193 236 290 340
#     4  11  19  39  59  85 124 154 182 230 290 348
#     4  11  23  37  59  90 118 152 196 234 283 344
#     4  10  22  37  60  91 118 149 191 236 288 348
#
# _framework density 18.764285999999998
#
# number of rings (size 3 to 8) (size 9 to 14) (size 15 to 20)
#    0.000    1.600    6.000    1.200    0.000    8.800 
#    0.000    2.000    0.000    0.000    0.000    0.000 
#    0.000    0.000    0.000    0.000    0.000    0.000 
#
# Total GULP energy -111586.803056 kJ/mol
# GULP energy per Si atom -5579.340153 kJ/mol
# Density = 1.872158 g / cm^3
# Si number density = 18.764286 Si / 1000 Ang^3
#
#
#
# Elastic Constant Matrix: (Units=GPa)
#
#
# Indices 1 2 3 4 5 6 
#
# 1 88.0398 -2.1001 41.3473 0.0000 -7.6828 0.0000
# 2 -2.1001 102.0334 9.3505 0.0000 9.6173 0.0000
# 3 41.3473 9.3505 80.4248 0.0000 21.3164 0.0000
# 4 0.0000 0.0000 0.0000 -3.8624 0.0000 -0.4698
# 5 -7.6828 9.6173 21.3164 0.0000 20.3958 0.0000
# 6 0.0000 0.0000 0.0000 -0.4698 0.0000 12.7866
#
#
#
# Elastic Compliance Matrix: (Units=1/GPa)
#
#
# Indices 1 2 3 4 5 6 
#
# 1 0.023164 -0.000503 -0.019677 0.000000 0.029528 0.000000
# 2 -0.000503 0.010268 0.000551 0.000000 -0.005607 0.000000
# 3 -0.019677 0.000551 0.033914 0.000000 -0.043116 0.000000
# 4 0.000000 0.000000 0.000000 -0.257757 0.000000 -0.009470
# 5 0.029528 -0.005607 -0.043116 0.000000 0.107858 0.000000
# 6 0.000000 0.000000 0.000000 -0.009470 0.000000 0.077859
#
#
# Mechanical properties :
#
#
# Convention : Reuss Voigt Hill
#
# Bulk Modulus (GPa) = 35.60152 40.85481 38.22817
# Shear Modulus (GPa) = 113.82374 20.65738 67.24056
#
# Velocity S-wave (km/s) = 7.79689 3.32156 5.99267
# Velocity P-wave (km/s) = 10.00347 6.04403 8.26437
#
# Compressibility (1/GPa) = 0.02808869
#
# Stress axis : x y z
#
# Youngs Moduli (GPa) = 43.16992 97.38634 29.48656
#
# Poissons Ratio (x) = 0.04900 0.58020
# Poissons Ratio (y) = 0.02172 -0.01625
# Poissons Ratio (z) = 0.84944 -0.05366
#
# Static dielectric constant tensor:
#      x y z
#    x 1.668830 0.000000 0.009130 
#    y 0.000000 1.649160 0.000000 
#    z 0.009130 0.000000 1.639320 
# 
# From -- ./inp_files/24043.got.cif
#   From: 2010.05.17/outbox.cif.g08.bks.cpg/sg12_13_cif.got.tgz:24043.got - 2010.06.03 13:09:07.
