data_PCOD9210768
_publ_section_title
;
Structure prediction by ZEFSAII (Michael W. Deem and Ramdas Pophale) SiO2 
 PCOD9210768
Probable space group: C 2/M
;
_chemical_formula_sum "Si O2"
_cell_formula_units_Z 56
_cell_length_a 12.233689
_cell_length_b 27.650475
_cell_length_c 7.926951
_cell_angle_alpha 90.000000
_cell_angle_beta 68.134411
_cell_angle_gamma 90.000000
_cell_volume 2488.526708
_symmetry_space_group_name_H-M "C 2/M"
_symmetry_group_IT_number 12
_symmetry_cell_setting 'monoclinic'
loop_
_space_group_symop_operation_xyz
x,y,z
-x,y,-z
-x,-y,-z
x,-y,z
1/2+x,1/2+y,z
1/2-x,1/2+y,-z
1/2-x,1/2-y,-z
1/2+x,1/2-y,z
loop_
_atom_site_type_symbol
_atom_site_label
_atom_site_fract_x
_atom_site_fract_y
_atom_site_fract_z
Si Si1 0.792036 0.802642 0.162431
Si Si2 0.386400 0.816075 0.453591
Si Si3 0.368973 0.500000 0.006041
Si Si4 0.709879 0.091565 0.699033
Si Si5 0.028904 0.445916 0.283670
Si Si6 0.438540 0.779430 0.897683
Si Si7 0.259885 0.600232 0.061182
Si Si8 0.139090 0.000000 0.394259
O O1 0.721344 0.793669 0.376443
O O2 0.680285 0.800943 0.101946
O O3 0.829276 0.857733 0.118467
O O4 0.887425 0.766281 0.032106
O O5 0.500000 0.833892 0.500000
O O6 0.323691 0.859901 0.387553
O O7 0.459334 0.776505 0.301012
O O8 0.349269 0.500000 0.815364
O O9 0.500000 0.500000 0.000000
O O10 0.312626 0.549938 0.093563
O O11 0.585480 0.063759 0.763915
O O12 0.799666 0.049990 0.577304
O O13 0.757525 0.104630 0.858619
O O14 0.073224 0.500000 0.216991
O O15 0.124421 0.405061 0.193002
O O16 0.000000 0.445625 0.500000
O O17 0.500000 0.813391 0.000000
O O18 0.000000 0.000000 0.500000
#
# Coordination Sequence:
#
# PCOD9210768 Si02
#       8
#     8   8   4   8   8   8   8   4
#     4  10  22  39  62  93 126 161 208 262 325 395
#     4  10  21  39  63  96 130 164 208 265 328 392
#     4  10  24  41  60  83 121 174 220 260 297 358
#     4  11  21  38  62  90 129 171 211 259 317 379
#     4  11  21  32  54  90 124 159 208 261 314 367
#     4  10  21  40  64  89 122 162 203 264 333 388
#     4  11  22  39  60  89 128 166 213 261 315 380
#     4  10  24  41  58  87 129 176 220 258 299 368
#
# _framework density 22.503276
#
# number of rings (size 3 to 8) (size 9 to 14) (size 15 to 20)
#    0.000    1.571    1.429    4.286    0.000    4.000 
#    0.000    4.286    0.000    6.000    0.000    0.000 
#    0.000    0.000    0.000    0.000    0.000    0.000 
#
# Total GULP energy -155959.583257 kJ/mol
# GULP energy per Si atom -5569.985116 kJ/mol
# Density = 2.245206 g / cm^3
# Si number density = 22.503276 Si / 1000 Ang^3
#
#
#
# Elastic Constant Matrix: (Units=GPa)
#
#
# Indices 1 2 3 4 5 6 
#
# 1 94.0934 20.4836 19.5687 0.0000 -13.2759 0.0000
# 2 20.4836 114.6803 56.6444 0.0000 -23.6433 0.0000
# 3 19.5687 56.6444 86.1156 0.0000 -21.2125 0.0000
# 4 0.0000 0.0000 0.0000 31.0246 0.0000 1.1819
# 5 -13.2759 -23.6433 -21.2125 0.0000 34.7890 0.0000
# 6 0.0000 0.0000 0.0000 1.1819 0.0000 12.1809
#
#
#
# Elastic Compliance Matrix: (Units=1/GPa)
#
#
# Indices 1 2 3 4 5 6 
#
# 1 0.011506 -0.000750 -0.001371 0.000000 0.003045 0.000000
# 2 -0.000750 0.013518 -0.007683 0.000000 0.004216 0.000000
# 3 -0.001371 -0.007683 0.018313 0.000000 0.005422 0.000000
# 4 0.000000 0.000000 0.000000 0.032352 0.000000 -0.003139
# 5 0.003045 0.004216 0.005422 0.000000 0.036078 0.000000
# 6 0.000000 0.000000 0.000000 -0.003139 0.000000 0.082400
#
#
# Mechanical properties :
#
#
# Convention : Reuss Voigt Hill
#
# Bulk Modulus (GPa) = 42.14296 54.25364 48.19830
# Shear Modulus (GPa) = 22.55461 28.81174 25.68317
#
# Velocity S-wave (km/s) = 3.16932 3.58206 3.38199
# Velocity P-wave (km/s) = 5.67106 6.42415 6.05932
#
# Compressibility (1/GPa) = 0.02372876
#
# Stress axis : x y z
#
# Youngs Moduli (GPa) = 86.91269 73.97644 54.60667
#
# Poissons Ratio (x) = 0.05549 0.07487
# Poissons Ratio (y) = 0.06519 0.41952
# Poissons Ratio (z) = 0.11917 0.56833
#
# Static dielectric constant tensor:
#      x y z
#    x 1.801710 0.000000 0.034310 
#    y 0.000000 1.923040 0.000000 
#    z 0.034310 0.000000 1.926290 
# 
# From -- ./inp_files/54633.got.cif
#   From: 2010.05.17/outbox.cif.g08.bks.cpg/sg12_28_cif.got.tgz:54633.got - 2010.06.03 13:09:07.
