data_PCOD9210719
_publ_section_title
;
Structure prediction by ZEFSAII (Michael W. Deem and Ramdas Pophale) SiO2 
 PCOD9210719
Probable space group: C 2/M
;
_chemical_formula_sum "Si O2"
_cell_formula_units_Z 48
_cell_length_a 25.287237
_cell_length_b 11.389412
_cell_length_c 14.999970
_cell_angle_alpha 90.000000
_cell_angle_beta 152.780977
_cell_angle_gamma 90.000000
_cell_volume 1975.981058
_symmetry_space_group_name_H-M "C 2/M"
_symmetry_group_IT_number 12
_symmetry_cell_setting 'monoclinic'
loop_
_space_group_symop_operation_xyz
x,y,z
-x,y,-z
-x,-y,-z
x,-y,z
1/2+x,1/2+y,z
1/2-x,1/2+y,-z
1/2-x,1/2-y,-z
1/2+x,1/2-y,z
loop_
_atom_site_type_symbol
_atom_site_label
_atom_site_fract_x
_atom_site_fract_y
_atom_site_fract_z
Si Si1 0.628739 0.133844 0.683459
Si Si2 0.862595 0.626302 0.783792
Si Si3 0.335638 0.868847 0.060190
Si Si4 0.601492 0.371015 0.226079
Si Si5 0.805878 0.833991 0.313975
Si Si6 0.019793 0.868773 0.762024
O O1 0.500000 0.187594 0.500000
O O2 0.685257 0.141759 0.865552
O O3 0.692319 0.194916 0.697723
O O4 0.613829 0.000000 0.637854
O O5 0.830325 0.500000 0.693914
O O6 0.831404 0.749907 0.692303
O O7 0.801073 0.628449 0.786997
O O8 0.000000 0.625168 0.000000
O O9 0.409063 0.753367 0.141927
O O10 0.391337 0.000000 0.131887
O O11 0.220587 0.872246 0.826911
O O12 0.657263 0.500000 0.299676
O O13 0.545332 0.363504 0.240297
O O14 0.500000 0.370641 0.000000
O O15 0.921890 0.869432 0.538081
O O16 0.078215 0.000000 0.846702
#
# Coordination Sequence:
#
# PCOD9210719 Si02
#       6
#     8   8   8   8   8   8
#     4  10  22  44  70 102 142 181 228 283 340 411
#     4  10  21  39  63  92 130 172 221 277 331 397
#     4  11  23  43  71 100 138 183 230 279 337 413
#     4   9  19  37  59  85 124 171 215 265 328 393
#     4  12  24  42  70 102 136 179 230 283 345 406
#     4  11  24  42  66 101 141 177 226 289 343 404
#
# _framework density 24.291732
#
# number of rings (size 3 to 8) (size 9 to 14) (size 15 to 20)
#    0.000    1.500    1.667    4.000    0.000    4.000 
#    0.000    3.333    0.000    0.000    0.000    0.000 
#    0.000    0.000    0.000    0.000    0.000    0.000 
#
# Total GULP energy -133951.461479 kJ/mol
# GULP energy per Si atom -5581.310895 kJ/mol
# Density = 2.423644 g / cm^3
# Si number density = 24.291732 Si / 1000 Ang^3
#
#
#
# Elastic Constant Matrix: (Units=GPa)
#
#
# Indices 1 2 3 4 5 6 
#
# 1 55.3651 65.3014 23.8025 0.0000 -7.8646 0.0000
# 2 65.3014 250.7104 10.3713 0.0000 -12.5234 0.0000
# 3 23.8025 10.3713 136.0434 0.0000 -34.6343 0.0000
# 4 0.0000 0.0000 0.0000 -3.6841 0.0000 -3.3823
# 5 -7.8646 -12.5234 -34.6343 0.0000 30.8187 0.0000
# 6 0.0000 0.0000 0.0000 -3.3823 0.0000 62.2361
#
#
#
# Elastic Compliance Matrix: (Units=1/GPa)
#
#
# Indices 1 2 3 4 5 6 
#
# 1 0.028531 -0.007284 -0.004674 0.000000 -0.000932 0.000000
# 2 -0.007284 0.005934 0.001349 0.000000 0.002068 0.000000
# 3 -0.004674 0.001349 0.011068 0.000000 0.011794 0.000000
# 4 0.000000 0.000000 0.000000 -0.258536 0.000000 -0.014050
# 5 -0.000932 0.002068 0.011794 0.000000 0.046304 0.000000
# 6 0.000000 0.000000 0.000000 -0.014050 0.000000 0.015304
#
#
# Mechanical properties :
#
#
# Convention : Reuss Voigt Hill
#
# Bulk Modulus (GPa) = 41.13021 71.22994 56.18007
# Shear Modulus (GPa) = -40.95933 40.71705 -0.12114
#
# Velocity S-wave (km/s) = -4.11072 4.09855 -0.22356
# Velocity P-wave (km/s) = 2.35843 7.19610 4.80737
#
# Compressibility (1/GPa) = 0.02431303
#
# Stress axis : x y z
#
# Youngs Moduli (GPa) = 35.05006 168.53429 90.35109
#
# Poissons Ratio (x) = 1.22768 0.42227
# Poissons Ratio (y) = 0.25532 -0.12185
# Poissons Ratio (z) = 0.16381 -0.22728
#
# Static dielectric constant tensor:
#      x y z
#    x 1.897300 0.000000 0.031760 
#    y 0.000000 2.063730 0.000000 
#    z 0.031760 0.000000 1.951980 
# 
# From -- ./inp_files/246011.got.cif
#   From: 2010.05.17/outbox.cif.g08.bks.cpg/sg12_124_cif.got.tgz:246011.got - 2010.06.03 13:09:07.
