data_PCOD9210599
_publ_section_title
;
Structure prediction by ZEFSAII (Michael W. Deem and Ramdas Pophale) SiO2 
 PCOD9210599
Probable space group: C 2/M
;
_chemical_formula_sum "Si O2"
_cell_formula_units_Z 64
_cell_length_a 14.439962
_cell_length_b 14.147833
_cell_length_c 17.950532
_cell_angle_alpha 90.000000
_cell_angle_beta 123.625981
_cell_angle_gamma 90.000000
_cell_volume 3053.559106
_symmetry_space_group_name_H-M "C 2/M"
_symmetry_group_IT_number 12
_symmetry_cell_setting 'monoclinic'
loop_
_space_group_symop_operation_xyz
x,y,z
-x,y,-z
-x,-y,-z
x,-y,z
1/2+x,1/2+y,z
1/2-x,1/2+y,-z
1/2-x,1/2-y,-z
1/2+x,1/2-y,z
loop_
_atom_site_type_symbol
_atom_site_label
_atom_site_fract_x
_atom_site_fract_y
_atom_site_fract_z
Si Si1 0.625162 0.385969 0.553719
Si Si2 0.206184 0.245524 0.896461
Si Si3 0.342748 0.893656 0.723807
Si Si4 0.614041 0.107285 0.083724
Si Si5 0.614006 0.114357 0.588517
Si Si6 0.321322 0.387067 0.584425
Si Si7 0.238637 0.115199 0.210162
Si Si8 0.448638 0.703862 0.762183
O O1 0.500000 0.350543 0.500000
O O2 0.617364 0.500000 0.547333
O O3 0.712026 0.368506 0.658512
O O4 0.675917 0.353110 0.498357
O O5 0.277830 0.163260 0.890880
O O6 0.236332 0.337193 0.858662
O O7 0.076338 0.218649 0.839983
O O8 0.250000 0.250000 0.000000
O O9 0.386542 0.894997 0.827461
O O10 0.406267 0.806793 0.716444
O O11 0.358470 0.000000 0.699231
O O12 0.620659 0.000000 0.058026
O O13 0.500000 0.149736 0.000000
O O14 0.500000 0.145274 0.500000
O O15 0.714941 0.148258 0.581941
O O16 0.653968 0.138047 0.689698
O O17 0.612240 0.000000 0.586560
O O18 0.312656 0.500000 0.578109
O O19 0.428109 0.362309 0.681770
O O20 0.131912 0.162537 0.206812
O O21 0.224581 0.000000 0.200925
#
# Coordination Sequence:
#
# PCOD9210599 Si02
#       8
#     8   8   8   8   8   8   8   8
#     4   9  19  34  56  87 125 168 211 263 323 386
#     4  12  27  42  69  99 129 169 219 275 331 402
#     4  10  21  39  63  88 124 171 214 263 328 387
#     4  10  22  43  70  93 122 164 212 267 327 390
#     4   8  15  32  60  89 122 170 218 262 317 383
#     4   9  19  35  57  89 127 166 214 266 319 385
#     4  10  23  45  68  97 138 178 219 276 336 394
#     4  11  23  41  66  94 128 172 222 270 333 392
#
# _framework density 20.959149
#
# number of rings (size 3 to 8) (size 9 to 14) (size 15 to 20)
#    0.000    2.125    1.250    1.875    1.750    3.500 
#    0.000    6.875    0.000    0.000    0.000    0.000 
#    0.000    0.500    0.000    0.000    0.000    0.000 
#
# Total GULP energy -178461.401471 kJ/mol
# GULP energy per Si atom -5576.918796 kJ/mol
# Density = 2.091144 g / cm^3
# Si number density = 20.959149 Si / 1000 Ang^3
#
#
#
# Elastic Constant Matrix: (Units=GPa)
#
#
# Indices 1 2 3 4 5 6 
#
# 1 59.1137 24.9074 53.0413 0.0000 18.5943 0.0000
# 2 24.9074 95.3588 21.8901 0.0000 -1.2480 0.0000
# 3 53.0413 21.8901 143.5995 0.0000 23.0429 0.0000
# 4 0.0000 0.0000 0.0000 21.8691 0.0000 3.2314
# 5 18.5943 -1.2480 23.0429 0.0000 39.8803 0.0000
# 6 0.0000 0.0000 0.0000 3.2314 0.0000 18.6378
#
#
#
# Elastic Compliance Matrix: (Units=1/GPa)
#
#
# Indices 1 2 3 4 5 6 
#
# 1 0.030204 -0.005998 -0.008765 0.000000 -0.009206 0.000000
# 2 -0.005998 0.012132 -0.000158 0.000000 0.003268 0.000000
# 3 -0.008765 -0.000158 0.010549 0.000000 -0.002013 0.000000
# 4 0.000000 0.000000 0.000000 0.046929 0.000000 -0.008137
# 5 -0.009206 0.003268 -0.002013 0.000000 0.030633 0.000000
# 6 0.000000 0.000000 0.000000 -0.008137 0.000000 0.055065
#
#
# Mechanical properties :
#
#
# Convention : Reuss Voigt Hill
#
# Bulk Modulus (GPa) = 43.39730 55.30551 49.35141
# Shear Modulus (GPa) = 22.41806 29.29300 25.85553
#
# Velocity S-wave (km/s) = 3.27403 3.74254 3.51610
# Velocity P-wave (km/s) = 5.91971 6.71714 6.33100
#
# Compressibility (1/GPa) = 0.02304291
#
# Stress axis : x y z
#
# Youngs Moduli (GPa) = 33.10831 82.42393 94.80003
#
# Poissons Ratio (x) = 0.49435 0.83091
# Poissons Ratio (y) = 0.19857 0.01502
# Poissons Ratio (z) = 0.29019 0.01306
#
# Static dielectric constant tensor:
#      x y z
#    x 1.748140 0.000000 0.045020 
#    y 0.000000 1.802380 0.000000 
#    z 0.045020 0.000000 1.666780 
# 
# From -- ./inp_files/270724.got.cif
#   From: 2010.05.17/outbox.cif.g08.bks.cpg/sg12_136_cif.got.tgz:270724.got - 2010.06.03 13:09:07.
