data_PCOD9210052
_publ_section_title
;
Structure prediction by ZEFSAII (Michael W. Deem and Ramdas Pophale) SiO2 
 PCOD9210052
Probable space group: C 2/M
;
_chemical_formula_sum "Si O2"
_cell_formula_units_Z 64
_cell_length_a 34.788849
_cell_length_b 19.937520
_cell_length_c 16.447920
_cell_angle_alpha 90.000000
_cell_angle_beta 16.656772
_cell_angle_gamma 90.000000
_cell_volume 3270.059285
_symmetry_space_group_name_H-M "C 2/M"
_symmetry_group_IT_number 12
_symmetry_cell_setting 'monoclinic'
loop_
_space_group_symop_operation_xyz
x,y,z
-x,y,-z
-x,-y,-z
x,-y,z
1/2+x,1/2+y,z
1/2-x,1/2+y,-z
1/2-x,1/2-y,-z
1/2+x,1/2-y,z
loop_
_atom_site_type_symbol
_atom_site_label
_atom_site_fract_x
_atom_site_fract_y
_atom_site_fract_z
Si Si1 0.797814 0.873140 0.696012
Si Si2 0.944604 0.422679 0.900413
Si Si3 0.886855 0.139122 0.926179
Si Si4 0.984748 0.692048 0.934872
Si Si5 0.243749 0.581115 0.983729
Si Si6 0.131579 0.207001 0.202998
Si Si7 0.751417 0.256050 0.685922
Si Si8 0.126294 0.422971 0.387932
O O1 0.729318 0.895491 0.920051
O O2 0.775560 0.796534 0.711261
O O3 0.959034 0.883875 0.375067
O O4 0.712278 0.914458 0.803232
O O5 0.980008 0.500000 0.836216
O O6 0.982826 0.382991 0.903284
O O7 0.028498 0.391309 0.653565
O O8 0.880300 0.194857 0.868062
O O9 0.822516 0.176938 0.133033
O O10 0.777587 0.084851 0.116665
O O11 0.107309 0.728577 0.641420
O O12 0.000000 0.695787 0.000000
O O13 0.847370 0.723274 0.179533
O O14 0.265621 0.500000 0.941829
O O15 0.360029 0.632012 0.776267
O O16 0.136083 0.597963 0.273513
O O17 0.000000 0.242657 0.500000
O O18 0.250000 0.250000 0.000000
O O19 0.084276 0.500000 0.468038
#
# Coordination Sequence:
#
# PCOD9210052 Si02
#       8
#     8   8   8   8   8   8   8   8
#     4  11  22  37  60  89 122 164 205 257 306 356
#     4  10  22  41  63  91 124 160 203 250 312 373
#     4  11  21  37  58  83 119 162 206 249 307 364
#     4  11  23  41  68  95 122 156 196 252 311 377
#     4  10  21  39  59  86 121 164 218 260 296 349
#     4  11  23  40  55  84 118 162 214 261 309 352
#     4  11  22  40  62  92 126 156 200 250 308 378
#     4   9  20  37  59  84 118 164 211 257 298 351
#
# _framework density 19.571511000000001
#
# number of rings (size 3 to 8) (size 9 to 14) (size 15 to 20)
#    0.000    1.500    3.750    1.500    0.000    2.000 
#    6.750    1.875    0.000    0.000    0.000    0.875 
#    0.000    0.000    0.000    0.000    0.000    0.000 
#
# Total GULP energy -178269.342220 kJ/mol
# GULP energy per Si atom -5570.916944 kJ/mol
# Density = 1.952696 g / cm^3
# Si number density = 19.571511 Si / 1000 Ang^3
#
#
#
# Elastic Constant Matrix: (Units=GPa)
#
#
# Indices 1 2 3 4 5 6 
#
# 1 82.7871 32.6741 24.8420 -0.0003 -3.0353 0.0001
# 2 32.6741 67.8558 19.4335 0.0001 6.5385 0.0002
# 3 24.8420 19.4335 73.5223 0.0002 -23.9695 0.0000
# 4 -0.0003 0.0001 0.0002 -2.5948 0.0003 18.7527
# 5 -3.0353 6.5385 -23.9695 0.0003 28.1044 -0.0003
# 6 0.0001 0.0002 0.0000 18.7527 -0.0003 9.3235
#
#
#
# Elastic Compliance Matrix: (Units=1/GPa)
#
#
# Indices 1 2 3 4 5 6 
#
# 1 0.015743 -0.006607 -0.003487 0.000000 0.000264 0.000000
# 2 -0.006607 0.021105 -0.007174 0.000000 -0.011742 0.000000
# 3 -0.003487 -0.007174 0.023682 0.000001 0.021490 0.000000
# 4 0.000000 0.000000 0.000001 -0.024806 0.000001 0.049893
# 5 0.000264 -0.011742 0.021490 0.000001 0.056670 -0.000001
# 6 0.000000 0.000000 0.000000 0.049893 -0.000001 0.006904
#
#
# Mechanical properties :
#
#
# Convention : Reuss Voigt Hill
#
# Bulk Modulus (GPa) = 38.47196 42.00715 40.23956
# Shear Modulus (GPa) = 35.08803 16.78100 25.93451
#
# Velocity S-wave (km/s) = 4.23875 2.93135 3.64416
# Velocity P-wave (km/s) = 6.60726 5.74170 6.18963
#
# Compressibility (1/GPa) = 0.02599296
#
# Stress axis : x y z
#
# Youngs Moduli (GPa) = 63.52066 47.38251 42.22626
#
# Poissons Ratio (x) = 0.31307 0.14724
# Poissons Ratio (y) = 0.41970 0.30294
# Poissons Ratio (z) = 0.22149 0.33993
#
# Static dielectric constant tensor:
#      x y z
#    x 1.681690 0.000000 0.013880 
#    y 0.000000 1.701820 0.000000 
#    z 0.013880 0.000000 1.742060 
# 
# From -- ./inp_files/251897.got.cif
#   From: 2010.05.17/outbox.cif.g08.bks.cpg/sg12_126_cif.got.tgz:251897.got - 2010.06.03 13:09:07.
