data_PCOD9210794
_publ_section_title
;
Structure prediction by ZEFSAII (Michael W. Deem and Ramdas Pophale) SiO2 
 PCOD9210794
Probable space group: C 2/M
;
_chemical_formula_sum "Si O2"
_cell_formula_units_Z 48
_cell_length_a 24.095145
_cell_length_b 9.105417
_cell_length_c 12.122275
_cell_angle_alpha 90.000000
_cell_angle_beta 90.911647
_cell_angle_gamma 90.000000
_cell_volume 2659.246150
_symmetry_space_group_name_H-M "C 2/M"
_symmetry_group_IT_number 12
_symmetry_cell_setting 'monoclinic'
loop_
_space_group_symop_operation_xyz
x,y,z
-x,y,-z
-x,-y,-z
x,-y,z
1/2+x,1/2+y,z
1/2-x,1/2+y,-z
1/2-x,1/2-y,-z
1/2+x,1/2-y,z
loop_
_atom_site_type_symbol
_atom_site_label
_atom_site_fract_x
_atom_site_fract_y
_atom_site_fract_z
Si Si1 0.589947 0.324817 0.535405
Si Si2 0.953104 0.675319 0.907584
Si Si3 0.338664 0.325035 0.974935
Si Si4 0.227699 0.674965 0.836572
Si Si5 0.015718 0.175110 0.319728
Si Si6 0.206861 0.675468 0.581171
O O1 0.601124 0.500000 0.540039
O O2 0.543929 0.291548 0.627345
O O3 0.560980 0.294490 0.416697
O O4 0.645634 0.235366 0.554371
O O5 0.946526 0.500000 0.902315
O O6 0.895296 0.748971 0.940632
O O7 0.972078 0.737198 0.790213
O O8 0.000000 0.709676 0.000000
O O9 0.346068 0.500000 0.981607
O O10 0.289113 0.293987 0.886038
O O11 0.315963 0.262049 0.089717
O O12 0.217966 0.500000 0.849927
O O13 0.222202 0.711543 0.708220
O O14 0.017501 0.000000 0.297704
O O15 0.208900 0.500000 0.568994
O O16 0.250000 0.750000 0.500000
#
# Coordination Sequence:
#
# PCOD9210794 Si02
#       6
#     8   8   8   8   8   8
#     4   9  20  40  63  88 118 152 193 244 295 344
#     4  11  25  40  57  86 124 157 191 241 293 343
#     4  10  21  39  64  88 113 153 199 241 289 348
#     4   9  21  41  61  85 119 154 190 241 297 343
#     4   9  20  40  64  87 116 154 195 241 292 347
#     4  11  24  39  59  88 122 157 195 241 291 346
#
# _framework density 18.050229000000002
#
# number of rings (size 3 to 8) (size 9 to 14) (size 15 to 20)
#    0.000    2.167    0.000    2.500    4.667    4.667 
#    0.000    1.667    0.000    0.000    0.000    0.000 
#    0.000    0.000    0.000    0.000    0.000    0.000 
#
# Total GULP energy -134070.982567 kJ/mol
# GULP energy per Si atom -5586.290940 kJ/mol
# Density = 1.800915 g / cm^3
# Si number density = 18.050229 Si / 1000 Ang^3
#
#
#
# Elastic Constant Matrix: (Units=GPa)
#
#
# Indices 1 2 3 4 5 6 
#
# 1 147.3350 85.2939 108.4696 0.0000 -11.8059 0.0000
# 2 85.2939 72.3726 92.7985 0.0000 -8.1923 0.0000
# 3 108.4696 92.7985 173.0184 0.0000 -16.7100 0.0000
# 4 0.0000 0.0000 0.0000 35.3373 0.0000 -1.0046
# 5 -11.8059 -8.1923 -16.7100 0.0000 12.3975 0.0000
# 6 0.0000 0.0000 0.0000 -1.0046 0.0000 36.8412
#
#
#
# Elastic Compliance Matrix: (Units=1/GPa)
#
#
# Indices 1 2 3 4 5 6 
#
# 1 0.021586 -0.026054 0.000878 0.000000 0.004523 0.000000
# 2 -0.026054 0.075802 -0.025156 0.000000 -0.008626 0.000000
# 3 0.000878 -0.025156 0.019770 0.000000 0.010861 0.000000
# 4 0.000000 0.000000 0.000000 0.028321 0.000000 0.000772
# 5 0.004523 -0.008626 0.010861 0.000000 0.093907 0.000000
# 6 0.000000 0.000000 0.000000 0.000772 0.000000 0.027165
#
#
# Mechanical properties :
#
#
# Convention : Reuss Voigt Hill
#
# Bulk Modulus (GPa) = 60.62335 107.31666 83.97000
# Shear Modulus (GPa) = 13.41516 23.99280 18.70398
#
# Velocity S-wave (km/s) = 2.72915 3.64981 3.22253
# Velocity P-wave (km/s) = 6.60226 8.79460 7.77608
#
# Compressibility (1/GPa) = 0.01649530
#
# Stress axis : x y z
#
# Youngs Moduli (GPa) = 46.32556 13.19227 50.58044
#
# Poissons Ratio (x) = 0.34371 -0.04440
# Poissons Ratio (y) = 1.20697 1.27238
# Poissons Ratio (z) = -0.04067 0.33186
#
# Static dielectric constant tensor:
#      x y z
#    x 1.589580 0.000000 0.010850 
#    y 0.000000 1.598490 0.000000 
#    z 0.010850 0.000000 1.594960 
# 
# From -- ./inp_files/172283.got.cif
#   From: 2010.05.17/outbox.cif.g08.bks.cpg/sg12_87_cif.got.tgz:172283.got - 2010.06.03 13:09:07.
