data_PCOD9210028
_publ_section_title
;
Structure prediction by ZEFSAII (Michael W. Deem and Ramdas Pophale) SiO2 
 PCOD9210028
Probable space group: C 2/M
;
_chemical_formula_sum "Si O2"
_cell_formula_units_Z 64
_cell_length_a 15.451813
_cell_length_b 8.152931
_cell_length_c 34.577398
_cell_angle_alpha 90.000000
_cell_angle_beta 44.355242
_cell_angle_gamma 90.000000
_cell_volume 3045.284886
_symmetry_space_group_name_H-M "C 2/M"
_symmetry_group_IT_number 12
_symmetry_cell_setting 'monoclinic'
loop_
_space_group_symop_operation_xyz
x,y,z
-x,y,-z
-x,-y,-z
x,-y,z
1/2+x,1/2+y,z
1/2-x,1/2+y,-z
1/2-x,1/2-y,-z
1/2+x,1/2-y,z
loop_
_atom_site_type_symbol
_atom_site_label
_atom_site_fract_x
_atom_site_fract_y
_atom_site_fract_z
Si Si1 0.615579 0.198970 0.583433
Si Si2 0.049398 0.693985 0.293145
Si Si3 0.584877 0.193789 0.894084
Si Si4 0.826534 0.304020 0.012648
Si Si5 0.401507 0.697694 0.498358
Si Si6 0.673006 0.699463 0.789768
Si Si7 0.191955 0.684256 0.131962
Si Si8 0.046021 0.187227 0.755683
O O1 0.524462 0.258805 0.646282
O O2 0.571648 0.254115 0.554848
O O3 0.757015 0.252750 0.548252
O O4 0.616995 0.000000 0.582862
O O5 0.064101 0.500000 0.294554
O O6 0.188933 0.759011 0.244279
O O7 0.975324 0.720095 0.277278
O O8 0.574624 0.227795 0.851703
O O9 0.702222 0.297226 0.869763
O O10 0.606147 0.000000 0.893548
O O11 0.467508 0.242453 0.957466
O O12 0.824041 0.500000 0.018189
O O13 0.762365 0.225487 0.070074
O O14 0.750000 0.250000 0.000000
O O15 0.500000 0.755653 0.500000
O O16 0.401715 0.500000 0.500686
O O17 0.663955 0.500000 0.794617
O O18 0.645475 0.749741 0.754613
O O19 0.142347 0.500000 0.147189
O O20 0.081499 0.802605 0.179193
O O21 0.074562 0.000000 0.736813
#
# Coordination Sequence:
#
# PCOD9210028 Si02
#       8
#     8   8   8   8   8   8   8   8
#     4   9  19  35  56  83 117 156 198 242 289 343
#     4  10  21  39  59  83 117 156 196 241 295 349
#     4  11  23  39  60  85 112 145 190 240 291 352
#     4  11  24  40  58  84 115 146 187 238 292 354
#     4   9  18  34  56  84 119 157 197 241 291 341
#     4  10  22  39  59  83 114 152 192 239 295 355
#     4  12  24  39  60  84 112 149 190 236 296 356
#     4  11  23  39  60  86 115 151 196 244 295 351
#
# _framework density 21.016096000000001
#
# number of rings (size 3 to 8) (size 9 to 14) (size 15 to 20)
#    0.000    1.625    1.250    3.375    0.000    8.250 
#    0.000    0.000    0.000    0.000    0.000    0.000 
#    0.000    0.000    0.000    0.000    0.000    0.000 
#
# Total GULP energy -178686.960023 kJ/mol
# GULP energy per Si atom -5583.967501 kJ/mol
# Density = 2.096826 g / cm^3
# Si number density = 21.016096 Si / 1000 Ang^3
#
#
#
# Elastic Constant Matrix: (Units=GPa)
#
#
# Indices 1 2 3 4 5 6 
#
# 1 95.1903 0.6275 29.2774 -0.0006 23.9367 -0.0010
# 2 0.6275 18.3315 0.6871 -0.0032 -1.7196 -0.0005
# 3 29.2774 0.6871 125.1255 0.0001 21.9926 -0.0002
# 4 -0.0006 -0.0032 0.0001 23.4164 -0.0008 8.6727
# 5 23.9367 -1.7196 21.9926 -0.0008 19.6234 -0.0005
# 6 -0.0010 -0.0005 -0.0002 8.6727 -0.0005 24.8421
#
#
#
# Elastic Compliance Matrix: (Units=1/GPa)
#
#
# Indices 1 2 3 4 5 6 
#
# 1 0.015258 -0.002242 -0.000314 -0.000001 -0.018456 0.000000
# 2 -0.002242 0.055539 -0.001390 0.000008 0.009160 -0.000002
# 3 -0.000314 -0.001390 0.009996 -0.000001 -0.010942 0.000000
# 4 -0.000001 0.000008 -0.000001 0.049047 0.000004 -0.017123
# 5 -0.018456 0.009160 -0.010942 0.000004 0.086538 0.000000
# 6 0.000000 -0.000002 0.000000 -0.017123 0.000000 0.046232
#
#
# Mechanical properties :
#
#
# Convention : Reuss Voigt Hill
#
# Bulk Modulus (GPa) = 13.71727 33.31458 23.51592
# Shear Modulus (GPa) = 16.96052 27.44673 22.20362
#
# Velocity S-wave (km/s) = 2.84390 3.61776 3.25392
# Velocity P-wave (km/s) = 4.16232 5.77385 5.03300
#
# Compressibility (1/GPa) = 0.07290082
#
# Stress axis : x y z
#
# Youngs Moduli (GPa) = 65.54145 18.00537 100.03717
#
# Poissons Ratio (x) = 0.04036 0.03139
# Poissons Ratio (y) = 0.14693 0.13909
# Poissons Ratio (z) = 0.02057 0.02503
#
# Static dielectric constant tensor:
#      x y z
#    x 1.785440 0.000000 0.007460 
#    y 0.000000 1.736250 0.000000 
#    z 0.007460 0.000000 1.768860 
# 
# From -- ./inp_files/375472.got.cif
#   From: 2010.05.17/outbox.cif.g08.bks.cpg/sg12_188_cif.got.tgz:375472.got - 2010.06.03 13:09:07.
