data_PCOD9210434
_publ_section_title
;
Structure prediction by ZEFSAII (Michael W. Deem and Ramdas Pophale) SiO2 
 PCOD9210434
Probable space group: C 2/M
;
_chemical_formula_sum "Si O2"
_cell_formula_units_Z 48
_cell_length_a 29.337169
_cell_length_b 8.681708
_cell_length_c 14.970703
_cell_angle_alpha 90.000000
_cell_angle_beta 38.411433
_cell_angle_gamma 90.000000
_cell_volume 2369.025992
_symmetry_space_group_name_H-M "C 2/M"
_symmetry_group_IT_number 12
_symmetry_cell_setting 'monoclinic'
loop_
_space_group_symop_operation_xyz
x,y,z
-x,y,-z
-x,-y,-z
x,-y,z
1/2+x,1/2+y,z
1/2-x,1/2+y,-z
1/2-x,1/2-y,-z
1/2+x,1/2-y,z
loop_
_atom_site_type_symbol
_atom_site_label
_atom_site_fract_x
_atom_site_fract_y
_atom_site_fract_z
Si Si1 0.012021 0.679964 0.885017
Si Si2 0.257715 0.316030 0.388351
Si Si3 0.521069 0.686022 0.367458
Si Si4 0.845325 0.322267 0.097279
Si Si5 0.096689 0.685857 0.589706
Si Si6 0.818502 0.183960 0.949455
O O1 0.033329 0.500000 0.867639
O O2 0.071028 0.745418 0.726586
O O3 0.933541 0.683421 0.957400
O O4 0.000000 0.753236 0.000000
O O5 0.265265 0.500000 0.382430
O O6 0.250000 0.250000 0.500000
O O7 0.321097 0.244818 0.229933
O O8 0.182317 0.279567 0.450675
O O9 0.500000 0.734831 0.500000
O O10 0.521281 0.500000 0.364331
O O11 0.457836 0.745430 0.398934
O O12 0.602487 0.737671 0.211629
O O13 0.822451 0.500000 0.127860
O O14 0.814601 0.233206 0.059049
O O15 0.088248 0.500000 0.601667
O O16 0.816869 0.000000 0.946021
O O17 0.750000 0.250000 0.000000
#
# Coordination Sequence:
#
# PCOD9210434 Si02
#       6
#     8   8   8   8   8   8
#     4   9  17  33  59  87 115 152 198 243 294 359
#     4  11  24  41  62  92 128 167 211 256 305 364
#     4  10  23  42  63  90 123 159 199 252 313 367
#     4  11  22  39  64  90 124 165 204 254 311 365
#     4  10  21  39  62  89 120 159 205 251 300 364
#     4  11  24  42  64  92 126 161 205 255 309 374
#
# _framework density 20.261493000000002
#
# number of rings (size 3 to 8) (size 9 to 14) (size 15 to 20)
#    0.000    1.667    1.667    2.500    2.333    5.000 
#    0.000    0.000    0.000    2.500    0.000    0.000 
#    0.000    0.000    0.000    0.000    0.000    0.000 
#
# Total GULP energy -134043.156742 kJ/mol
# GULP energy per Si atom -5585.131531 kJ/mol
# Density = 2.021538 g / cm^3
# Si number density = 20.261493 Si / 1000 Ang^3
#
#
#
# Elastic Constant Matrix: (Units=GPa)
#
#
# Indices 1 2 3 4 5 6 
#
# 1 79.4462 13.7672 4.2202 0.0000 8.3019 0.0000
# 2 13.7672 40.7350 17.2729 -0.0004 -5.5181 0.0001
# 3 4.2202 17.2729 82.6683 -0.0001 5.7351 0.0000
# 4 0.0000 -0.0004 -0.0001 22.2514 0.0000 3.2326
# 5 8.3019 -5.5181 5.7351 0.0000 34.8561 0.0000
# 6 0.0000 0.0001 0.0000 3.2326 0.0000 33.4232
#
#
#
# Elastic Compliance Matrix: (Units=1/GPa)
#
#
# Indices 1 2 3 4 5 6 
#
# 1 0.013978 -0.005638 0.000766 0.000000 -0.004348 0.000000
# 2 -0.005638 0.030194 -0.006520 0.000000 0.007196 0.000000
# 3 0.000766 -0.006520 0.013660 0.000000 -0.003462 0.000000
# 4 0.000000 0.000000 0.000000 0.045581 0.000000 -0.004409
# 5 -0.004348 0.007196 -0.003462 0.000000 0.031434 0.000000
# 6 0.000000 0.000000 0.000000 -0.004409 0.000000 0.030346
#
#
# Mechanical properties :
#
#
# Convention : Reuss Voigt Hill
#
# Bulk Modulus (GPa) = 28.53259 30.37445 29.45352
# Shear Modulus (GPa) = 25.04270 29.27874 27.16072
#
# Velocity S-wave (km/s) = 3.51946 3.80550 3.66527
# Velocity P-wave (km/s) = 5.53427 5.85942 5.69917
#
# Compressibility (1/GPa) = 0.03504764
#
# Stress axis : x y z
#
# Youngs Moduli (GPa) = 71.54227 33.11934 73.20665
#
# Poissons Ratio (x) = 0.18672 -0.05608
# Poissons Ratio (y) = 0.40334 0.47732
# Poissons Ratio (z) = -0.05481 0.21594
#
# Static dielectric constant tensor:
#      x y z
#    x 1.701440 0.000000 0.007700 
#    y 0.000000 1.693050 0.000000 
#    z 0.007700 0.000000 1.724500 
# 
# From -- ./inp_files/244711.got.cif
#   From: 2010.05.17/outbox.cif.g08.bks.cpg/sg12_123_cif.got.tgz:244711.got - 2010.06.03 13:09:07.
