data_PCOD9210969
_publ_section_title
;
Structure prediction by ZEFSAII (Michael W. Deem and Ramdas Pophale) SiO2 
 PCOD9210969
Probable space group: C 2/M
;
_chemical_formula_sum "Si O2"
_cell_formula_units_Z 48
_cell_length_a 18.349245
_cell_length_b 13.068279
_cell_length_c 11.605489
_cell_angle_alpha 90.000000
_cell_angle_beta 65.294986
_cell_angle_gamma 90.000000
_cell_volume 2528.199841
_symmetry_space_group_name_H-M "C 2/M"
_symmetry_group_IT_number 12
_symmetry_cell_setting 'monoclinic'
loop_
_space_group_symop_operation_xyz
x,y,z
-x,y,-z
-x,-y,-z
x,-y,z
1/2+x,1/2+y,z
1/2-x,1/2+y,-z
1/2-x,1/2-y,-z
1/2+x,1/2-y,z
loop_
_atom_site_type_symbol
_atom_site_label
_atom_site_fract_x
_atom_site_fract_y
_atom_site_fract_z
Si Si1 0.749472 0.383604 0.715925
Si Si2 0.587648 0.881536 0.883430
Si Si3 0.114733 0.225587 0.666561
Si Si4 0.550094 0.620717 0.243397
Si Si5 0.673799 0.286731 0.979325
Si Si6 0.912601 0.277719 0.577190
O O1 0.750510 0.500000 0.676799
O O2 0.698167 0.316922 0.659671
O O3 0.702208 0.368873 0.866539
O O4 0.840146 0.344737 0.673837
O O5 0.590688 0.825696 0.757263
O O6 0.641646 0.811102 0.930062
O O7 0.613021 0.000000 0.858964
O O8 0.500000 0.878947 0.000000
O O9 0.116871 0.245294 0.529602
O O10 0.041595 0.145678 0.731104
O O11 0.561891 0.500000 0.250650
O O12 0.570134 0.683629 0.347214
O O13 0.607222 0.666412 0.106961
O O14 0.750000 0.250000 0.000000
O O15 0.000000 0.328918 0.500000
#
# Coordination Sequence:
#
# PCOD9210969 Si02
#       6
#     8   8   8   8   8   8
#     4  11  23  39  62  90 121 162 202 250 311 359
#     4  10  21  39  65  90 120 164 203 246 306 362
#     4  10  22  41  63  91 127 155 206 259 296 364
#     4  11  22  40  65  92 123 165 204 250 312 364
#     4  11  22  41  60  92 129 154 202 257 300 365
#     4  10  23  42  61  88 125 162 205 256 299 362
#
# _framework density 18.98584
#
# number of rings (size 3 to 8) (size 9 to 14) (size 15 to 20)
#    0.000    1.500    3.333    1.500    0.000    6.000 
#    0.000    5.000    0.000    0.000    0.000    0.000 
#    0.000    0.000    0.000    0.000    0.000    0.000 
#
# Total GULP energy -133963.857526 kJ/mol
# GULP energy per Si atom -5581.827397 kJ/mol
# Density = 1.894263 g / cm^3
# Si number density = 18.985840 Si / 1000 Ang^3
#
#
#
# Elastic Constant Matrix: (Units=GPa)
#
#
# Indices 1 2 3 4 5 6 
#
# 1 90.8495 26.4725 27.1437 0.0000 -6.5031 0.0000
# 2 26.4725 114.5673 31.0588 0.0000 -7.6811 0.0000
# 3 27.1437 31.0588 95.2003 0.0000 0.7356 0.0000
# 4 0.0000 0.0000 0.0000 -3.9487 0.0000 4.9520
# 5 -6.5031 -7.6811 0.7356 0.0000 32.1183 0.0000
# 6 0.0000 0.0000 0.0000 4.9520 0.0000 18.9617
#
#
#
# Elastic Compliance Matrix: (Units=1/GPa)
#
#
# Indices 1 2 3 4 5 6 
#
# 1 0.012623 -0.001966 -0.002974 0.000000 0.002154 0.000000
# 2 -0.001966 0.010064 -0.002739 0.000000 0.002072 0.000000
# 3 -0.002974 -0.002739 0.012258 0.000000 -0.001538 0.000000
# 4 0.000000 0.000000 0.000000 -0.190769 0.000000 0.049821
# 5 0.002154 0.002072 -0.001538 0.000000 0.032102 0.000000
# 6 0.000000 0.000000 0.000000 0.049821 0.000000 0.039727
#
#
# Mechanical properties :
#
#
# Convention : Reuss Voigt Hill
#
# Bulk Modulus (GPa) = 51.05589 52.21856 51.63722
# Shear Modulus (GPa) = -80.50410 23.82240 -28.34085
#
# Velocity S-wave (km/s) = -6.51876 3.54608 -3.86779
# Velocity P-wave (km/s) = 5.45060 6.65807 2.70378
#
# Compressibility (1/GPa) = 0.01958638
#
# Stress axis : x y z
#
# Youngs Moduli (GPa) = 79.22108 99.36270 81.58178
#
# Poissons Ratio (x) = 0.19535 0.24265
# Poissons Ratio (y) = 0.15575 0.22344
# Poissons Ratio (z) = 0.23563 0.27214
#
# Static dielectric constant tensor:
#      x y z
#    x 1.659550 0.000000 -0.021450 
#    y 0.000000 1.635230 0.000000 
#    z -0.021450 0.000000 1.681110 
# 
# From -- ./inp_files/154185.got.cif
#   From: 2010.05.17/outbox.cif.g08.bks.cpg/sg12_78_cif.got.tgz:154185.got - 2010.06.03 13:09:07.
