data_PCOD9210451
_publ_section_title
;
Structure prediction by ZEFSAII (Michael W. Deem and Ramdas Pophale) SiO2 
 PCOD9210451
Probable space group: C 2/M
;
_chemical_formula_sum "Si O2"
_cell_formula_units_Z 56
_cell_length_a 16.162622
_cell_length_b 10.216358
_cell_length_c 16.815465
_cell_angle_alpha 90.000000
_cell_angle_beta 110.396442
_cell_angle_gamma 90.000000
_cell_volume 2602.538130
_symmetry_space_group_name_H-M "C 2/M"
_symmetry_group_IT_number 12
_symmetry_cell_setting 'monoclinic'
loop_
_space_group_symop_operation_xyz
x,y,z
-x,y,-z
-x,-y,-z
x,-y,z
1/2+x,1/2+y,z
1/2-x,1/2+y,-z
1/2-x,1/2-y,-z
1/2+x,1/2-y,z
loop_
_atom_site_type_symbol
_atom_site_label
_atom_site_fract_x
_atom_site_fract_y
_atom_site_fract_z
Si Si1 0.990968 0.141539 0.198314
Si Si2 0.896334 0.650492 0.486745
Si Si3 0.800274 0.156770 0.335037
Si Si4 0.386502 0.647476 0.913778
Si Si5 0.100346 0.349382 0.323813
Si Si6 0.851630 0.256865 0.059053
Si Si7 0.817385 0.640390 0.205925
O O1 0.893657 0.142957 0.127215
O O2 0.051065 0.162559 0.140179
O O3 0.024048 0.253628 0.268041
O O4 0.009740 0.000000 0.240208
O O5 0.867143 0.500000 0.458427
O O6 0.844947 0.762920 0.421965
O O7 0.885102 0.668836 0.577381
O O8 0.000000 0.658524 0.500000
O O9 0.694076 0.171650 0.310660
O O10 0.833758 0.236126 0.268510
O O11 0.819091 0.000000 0.339728
O O12 0.399310 0.500000 0.951578
O O13 0.286858 0.650519 0.848227
O O14 0.397897 0.750539 0.988933
O O15 0.073835 0.500000 0.301780
O O16 0.859877 0.362245 0.131814
O O17 0.750000 0.250000 0.000000
O O18 0.836076 0.500000 0.251819
#
# Coordination Sequence:
#
# PCOD9210451 Si02
#       7
#     8   8   8   8   8   8   8
#     4  11  22  38  66  96 124 165 215 265 314 374
#     4  10  23  43  67  94 127 170 211 252 309 382
#     4  11  23  40  65  95 128 165 209 267 317 366
#     4   9  18  37  62  89 121 160 210 262 311 370
#     4  10  23  43  64  93 130 167 208 257 318 375
#     4  10  22  37  57  91 128 161 205 263 318 366
#     4  10  21  39  62  89 123 168 212 253 314 385
#
# _framework density 21.517457
#
# number of rings (size 3 to 8) (size 9 to 14) (size 15 to 20)
#    0.000    1.857    1.429    1.714    2.000    4.857 
#    0.000    2.857    0.000    1.714    0.000    0.000 
#    0.000    0.000    0.000    0.000    0.000    0.000 
#
# Total GULP energy -155985.316250 kJ/mol
# GULP energy per Si atom -5570.904152 kJ/mol
# Density = 2.146848 g / cm^3
# Si number density = 21.517457 Si / 1000 Ang^3
#
#
#
# Elastic Constant Matrix: (Units=GPa)
#
#
# Indices 1 2 3 4 5 6 
#
# 1 49.1869 35.0470 23.0963 0.0000 0.3184 0.0000
# 2 35.0470 169.7552 88.2147 0.0000 7.1095 0.0000
# 3 23.0963 88.2147 111.2581 0.0000 -0.9280 0.0000
# 4 0.0000 0.0000 0.0000 35.2706 0.0000 2.4880
# 5 0.3184 7.1095 -0.9280 0.0000 39.0399 0.0000
# 6 0.0000 0.0000 0.0000 2.4880 0.0000 12.4170
#
#
#
# Elastic Compliance Matrix: (Units=1/GPa)
#
#
# Indices 1 2 3 4 5 6 
#
# 1 0.024056 -0.004073 -0.001760 0.000000 0.000504 0.000000
# 2 -0.004073 0.010869 -0.007790 0.000000 -0.002131 0.000000
# 3 -0.001760 -0.007790 0.015545 0.000000 0.001803 0.000000
# 4 0.000000 0.000000 0.000000 0.028759 0.000000 -0.005762
# 5 0.000504 -0.002131 0.001803 0.000000 0.026042 0.000000
# 6 0.000000 0.000000 0.000000 -0.005762 0.000000 0.081689
#
#
# Mechanical properties :
#
#
# Convention : Reuss Voigt Hill
#
# Bulk Modulus (GPa) = 43.05969 69.21293 56.13631
# Shear Modulus (GPa) = 22.52773 29.60164 26.06468
#
# Velocity S-wave (km/s) = 3.23917 3.71307 3.48419
# Velocity P-wave (km/s) = 5.83478 7.11465 6.50626
#
# Compressibility (1/GPa) = 0.02322357
#
# Stress axis : x y z
#
# Youngs Moduli (GPa) = 41.56978 92.00227 64.32749
#
# Poissons Ratio (x) = 0.37471 0.11324
# Poissons Ratio (y) = 0.16931 0.50114
# Poissons Ratio (z) = 0.07318 0.71673
#
# Static dielectric constant tensor:
#      x y z
#    x 1.874450 0.000000 -0.011510 
#    y 0.000000 1.819270 0.000000 
#    z -0.011510 0.000000 1.747540 
# 
# From -- ./inp_files/275562.got.cif
#   From: 2010.05.17/outbox.cif.g08.bks.cpg/sg12_138_cif.got.tgz:275562.got - 2010.06.03 13:09:07.
