data_PCOD9210622
_publ_section_title
;
Structure prediction by ZEFSAII (Michael W. Deem and Ramdas Pophale) SiO2 
 PCOD9210622
Probable space group: C 2/M
;
_chemical_formula_sum "Si O2"
_cell_formula_units_Z 48
_cell_length_a 19.266066
_cell_length_b 9.057550
_cell_length_c 29.470517
_cell_angle_alpha 90.000000
_cell_angle_beta 155.479340
_cell_angle_gamma 90.000000
_cell_volume 2134.331926
_symmetry_space_group_name_H-M "C 2/M"
_symmetry_group_IT_number 12
_symmetry_cell_setting 'monoclinic'
loop_
_space_group_symop_operation_xyz
x,y,z
-x,y,-z
-x,-y,-z
x,-y,z
1/2+x,1/2+y,z
1/2-x,1/2+y,-z
1/2-x,1/2-y,-z
1/2+x,1/2-y,z
loop_
_atom_site_type_symbol
_atom_site_label
_atom_site_fract_x
_atom_site_fract_y
_atom_site_fract_z
Si Si1 0.585824 0.824573 0.003089
Si Si2 0.715681 0.672716 0.220194
Si Si3 0.759621 0.328142 0.675483
Si Si4 0.009586 0.832776 0.667908
Si Si5 0.247650 0.831365 0.568939
Si Si6 0.159947 0.673683 0.903435
O O1 0.451588 0.766702 0.886840
O O2 0.605204 0.000000 0.011728
O O3 0.500000 0.787386 0.000000
O O4 0.758365 0.746346 0.092687
O O5 0.681667 0.500000 0.198497
O O6 0.787717 0.722741 0.311524
O O7 0.842275 0.722585 0.256204
O O8 0.726204 0.500000 0.668006
O O9 0.681925 0.296986 0.580007
O O10 0.960023 0.310266 0.786784
O O11 0.891563 0.831071 0.552932
O O12 0.892058 0.778130 0.638406
O O13 0.072209 0.000000 0.712078
O O14 0.314433 0.000000 0.611120
O O15 0.198198 0.500000 0.927009
O O16 0.250000 0.750000 0.000000
#
# Coordination Sequence:
#
# PCOD9210622 Si02
#       6
#     8   8   8   8   8   8
#     4  11  25  43  62  88 122 157 199 247 297 353
#     4  12  25  40  61  88 121 158 201 247 296 355
#     4  10  22  40  62  88 120 158 201 245 295 352
#     4  10  21  39  63  89 123 158 195 247 301 353
#     4   9  20  40  64  91 119 156 201 244 297 358
#     4  11  22  38  62  89 122 160 197 242 292 350
#
# _framework density 22.489471999999999
#
# number of rings (size 3 to 8) (size 9 to 14) (size 15 to 20)
#    0.000    1.500    1.667    3.000    2.333    4.000 
#    0.000    3.333    0.000    0.000    0.000    0.000 
#    0.000    0.000    0.000    0.000    0.000    0.000 
#
# Total GULP energy -134317.160818 kJ/mol
# GULP energy per Si atom -5596.548367 kJ/mol
# Density = 2.243828 g / cm^3
# Si number density = 22.489472 Si / 1000 Ang^3
#
#
#
# Elastic Constant Matrix: (Units=GPa)
#
#
# Indices 1 2 3 4 5 6 
#
# 1 99.2355 42.5716 -2.7009 0.0039 -0.4048 -0.0009
# 2 42.5716 56.1252 8.3026 0.0035 1.2805 -0.0008
# 3 -2.7009 8.3026 38.9525 0.0079 -7.0264 -0.0017
# 4 0.0039 0.0035 0.0079 16.6351 -0.0014 4.7399
# 5 -0.4048 1.2805 -7.0264 -0.0014 36.2391 -0.0001
# 6 -0.0009 -0.0008 -0.0017 4.7399 -0.0001 40.6289
#
#
#
# Elastic Compliance Matrix: (Units=1/GPa)
#
#
# Indices 1 2 3 4 5 6 
#
# 1 0.015498 -0.012373 0.003961 -0.000003 0.001378 0.000001
# 2 -0.012373 0.028350 -0.007364 0.000000 -0.002568 0.000000
# 3 0.003961 -0.007364 0.028571 -0.000013 0.005844 0.000003
# 4 -0.000003 0.000000 -0.000013 0.062181 0.000000 -0.007254
# 5 0.001378 -0.002568 0.005844 0.000000 0.028834 0.000000
# 6 0.000001 0.000000 0.000003 -0.007254 0.000000 0.025459
#
#
# Mechanical properties :
#
#
# Convention : Reuss Voigt Hill
#
# Bulk Modulus (GPa) = 24.46989 32.29555 28.38272
# Shear Modulus (GPa) = 21.36127 28.44328 24.90227
#
# Velocity S-wave (km/s) = 3.08528 3.56017 3.33120
# Velocity P-wave (km/s) = 4.85759 5.59386 5.23867
#
# Compressibility (1/GPa) = 0.04086656
#
# Stress axis : x y z
#
# Youngs Moduli (GPa) = 64.52256 35.27291 35.00096
#
# Poissons Ratio (x) = 0.43643 -0.13862
# Poissons Ratio (y) = 0.79834 0.25774
# Poissons Ratio (z) = -0.25554 0.25975
#
# Static dielectric constant tensor:
#      x y z
#    x 1.855880 0.000000 -0.037840 
#    y 0.000000 1.758460 0.000000 
#    z -0.037840 0.000000 1.906110 
# 
# From -- ./inp_files/378552.got.cif
#   From: 2010.05.17/outbox.cif.g08.bks.cpg/sg12_190_cif.got.tgz:378552.got - 2010.06.03 13:09:07.
