data_PCOD9210014
_publ_section_title
;
Structure prediction by ZEFSAII (Michael W. Deem and Ramdas Pophale) SiO2 
 PCOD9210014
Probable space group: C 2/M
;
_chemical_formula_sum "Si O2"
_cell_formula_units_Z 56
_cell_length_a 9.999711
_cell_length_b 15.102496
_cell_length_c 23.599893
_cell_angle_alpha 90.000000
_cell_angle_beta 126.539520
_cell_angle_gamma 90.000000
_cell_volume 2863.539081
_symmetry_space_group_name_H-M "C 2/M"
_symmetry_group_IT_number 12
_symmetry_cell_setting 'monoclinic'
loop_
_space_group_symop_operation_xyz
x,y,z
-x,y,-z
-x,-y,-z
x,-y,z
1/2+x,1/2+y,z
1/2-x,1/2+y,-z
1/2-x,1/2-y,-z
1/2+x,1/2-y,z
loop_
_atom_site_type_symbol
_atom_site_label
_atom_site_fract_x
_atom_site_fract_y
_atom_site_fract_z
Si Si1 0.954373 0.820267 0.072479
Si Si2 0.682312 0.725689 0.295275
Si Si3 0.359518 0.394028 0.514103
Si Si4 0.092688 0.900762 0.821822
Si Si5 0.267745 0.598272 0.925432
Si Si6 0.067591 0.275180 0.390247
Si Si7 0.596164 0.844342 0.166195
O O1 0.875694 0.847862 0.112167
O O2 0.110308 0.883528 0.096042
O O3 0.038311 0.726028 0.103911
O O4 0.827550 0.833205 0.988851
O O5 0.559262 0.646030 0.248394
O O6 0.619109 0.767311 0.337805
O O7 0.663181 0.793426 0.238087
O O8 0.874879 0.699863 0.348703
O O9 0.500000 0.388377 0.500000
O O10 0.343942 0.500000 0.524674
O O11 0.188654 0.348710 0.448604
O O12 0.410807 0.323163 0.575995
O O13 0.254894 0.898374 0.823468
O O14 0.049728 0.000000 0.826220
O O15 0.296589 0.500000 0.955836
O O16 0.075461 0.607734 0.861838
#
# Coordination Sequence:
#
# PCOD9210014 Si02
#       7
#     8   8   8   8   8   8   8
#     4  10  21  39  59  81 114 157 200 251 311 369
#     4  11  23  41  62  89 125 169 202 237 311 360
#     4  10  22  41  69 101 128 163 207 249 298 357
#     4  11  23  39  59  88 121 154 205 262 303 358
#     4  11  22  38  58  84 116 153 200 255 311 360
#     4  11  22  43  67  93 132 167 199 253 299 359
#     4  11  23  39  59  85 117 158 205 245 303 369
#
# _framework density 19.556218999999999
#
# number of rings (size 3 to 8) (size 9 to 14) (size 15 to 20)
#    0.000    1.286    2.857    4.286    2.000    2.857 
#    0.000    3.571    0.000    0.000    0.000    0.000 
#    0.000    0.000    0.000    0.000    0.000    0.000 
#
# Total GULP energy -156274.559600 kJ/mol
# GULP energy per Si atom -5581.234271 kJ/mol
# Density = 1.951171 g / cm^3
# Si number density = 19.556219 Si / 1000 Ang^3
#
#
#
# Elastic Constant Matrix: (Units=GPa)
#
#
# Indices 1 2 3 4 5 6 
#
# 1 111.3353 10.6282 26.1222 0.0000 23.7029 0.0000
# 2 10.6282 93.6778 19.1628 0.0000 7.6494 0.0000
# 3 26.1222 19.1628 58.9956 0.0000 20.8909 0.0000
# 4 0.0000 0.0000 0.0000 8.7792 0.0000 5.7623
# 5 23.7029 7.6494 20.8909 0.0000 24.1866 0.0000
# 6 0.0000 0.0000 0.0000 5.7623 0.0000 9.6588
#
#
#
# Elastic Compliance Matrix: (Units=1/GPa)
#
#
# Indices 1 2 3 4 5 6 
#
# 1 0.011454 -0.000183 -0.001524 0.000000 -0.009851 0.000000
# 2 -0.000183 0.011443 -0.003483 0.000000 -0.000431 0.000000
# 3 -0.001524 -0.003483 0.025697 0.000000 -0.019601 0.000000
# 4 0.000000 0.000000 0.000000 0.187213 0.000000 -0.111688
# 5 -0.009851 -0.000431 -0.019601 0.000000 0.068065 0.000000
# 6 0.000000 0.000000 0.000000 -0.111688 0.000000 0.170164
#
#
# Mechanical properties :
#
#
# Convention : Reuss Voigt Hill
#
# Bulk Modulus (GPa) = 26.16846 41.75944 33.96395
# Shear Modulus (GPa) = 10.05721 22.39794 16.22757
#
# Velocity S-wave (km/s) = 2.27022 3.38791 2.88373
# Velocity P-wave (km/s) = 4.50356 6.05837 5.33788
#
# Compressibility (1/GPa) = 0.03821394
#
# Stress axis : x y z
#
# Youngs Moduli (GPa) = 87.30465 87.38653 38.91446
#
# Poissons Ratio (x) = 0.01603 0.05930
# Poissons Ratio (y) = 0.01601 0.13555
# Poissons Ratio (z) = 0.13304 0.30439
#
# Static dielectric constant tensor:
#      x y z
#    x 1.679760 0.000000 0.008490 
#    y 0.000000 1.681870 0.000000 
#    z 0.008490 0.000000 1.676020 
# 
# From -- ./inp_files/332844.got.cif
#   From: 2010.05.17/outbox.cif.g08.bks.cpg/sg12_167_cif.got.tgz:332844.got - 2010.06.03 13:09:07.
