data_PCOD9210317
_publ_section_title
;
Structure prediction by ZEFSAII (Michael W. Deem and Ramdas Pophale) SiO2 
 PCOD9210317
Probable space group: C 2/M
;
_chemical_formula_sum "Si O2"
_cell_formula_units_Z 40
_cell_length_a 9.699004
_cell_length_b 10.117246
_cell_length_c 21.011412
_cell_angle_alpha 90.000000
_cell_angle_beta 91.930862
_cell_angle_gamma 90.000000
_cell_volume 2060.620566
_symmetry_space_group_name_H-M "C 2/M"
_symmetry_group_IT_number 12
_symmetry_cell_setting 'monoclinic'
loop_
_space_group_symop_operation_xyz
x,y,z
-x,y,-z
-x,-y,-z
x,-y,z
1/2+x,1/2+y,z
1/2-x,1/2+y,-z
1/2-x,1/2-y,-z
1/2+x,1/2-y,z
loop_
_atom_site_type_symbol
_atom_site_label
_atom_site_fract_x
_atom_site_fract_y
_atom_site_fract_z
Si Si1 0.195853 0.156344 0.772378
Si Si2 0.910092 0.000000 0.934573
Si Si3 0.537086 0.761015 0.148025
Si Si4 0.917026 0.500000 0.064371
Si Si5 0.211362 0.656622 0.368973
Si Si6 0.571500 0.153637 0.569665
O O1 0.316073 0.189723 0.824341
O O2 0.247586 0.190473 0.702598
O O3 0.059690 0.230697 0.793108
O O4 0.169387 0.000000 0.773215
O O5 0.944444 0.129141 0.893317
O O6 0.747297 0.000000 0.947884
O O7 0.000000 0.000000 0.000000
O O8 0.463405 0.872194 0.104880
O O9 0.000000 0.500000 0.000000
O O10 0.237739 0.500000 0.380092
O O11 0.304611 0.746566 0.415899
O O12 0.050499 0.677892 0.381273
O O13 0.500000 0.170863 0.500000
O O14 0.616234 0.000000 0.575170
#
# Coordination Sequence:
#
# PCOD9210317 Si02
#       6
#     8   4   8   4   8   8
#     4  11  23  41  65  91 126 162 206 262 305 367
#     4  12  28  44  66  96 126 158 207 256 304 370
#     4  12  24  44  66  92 125 163 205 254 313 368
#     4  12  28  44  68  96 122 164 207 248 316 374
#     4  10  22  39  60  92 124 164 211 255 309 363
#     4  10  21  39  61  91 129 166 208 258 307 363
#
# _framework density 19.411629000000001
#
# number of rings (size 3 to 8) (size 9 to 14) (size 15 to 20)
#    0.000    1.000    4.000    2.400    2.800    2.800 
#    3.600    0.000    0.000    0.000    0.000    0.000 
#    0.000    0.000    0.000    0.000    0.000    0.000 
#
# Total GULP energy -111850.504101 kJ/mol
# GULP energy per Si atom -5592.525205 kJ/mol
# Density = 1.936745 g / cm^3
# Si number density = 19.411629 Si / 1000 Ang^3
#
#
#
# Elastic Constant Matrix: (Units=GPa)
#
#
# Indices 1 2 3 4 5 6 
#
# 1 68.7858 20.0444 -8.6534 0.0000 -0.0640 0.0000
# 2 20.0444 73.6461 13.4934 0.0000 3.6025 0.0000
# 3 -8.6534 13.4934 60.3530 0.0000 -12.6028 0.0000
# 4 0.0000 0.0000 0.0000 41.1297 0.0000 9.8352
# 5 -0.0640 3.6025 -12.6028 0.0000 38.0297 0.0000
# 6 0.0000 0.0000 0.0000 9.8352 0.0000 21.0577
#
#
#
# Elastic Compliance Matrix: (Units=1/GPa)
#
#
# Indices 1 2 3 4 5 6 
#
# 1 0.016590 -0.005330 0.003955 0.000000 0.001844 0.000000
# 2 -0.005330 0.016108 -0.005035 0.000000 -0.003203 0.000000
# 3 0.003955 -0.005035 0.019728 0.000000 0.007021 0.000000
# 4 0.000000 0.000000 0.000000 0.027370 0.000000 -0.012783
# 5 0.001844 -0.003203 0.007021 0.000000 0.028929 0.000000
# 6 0.000000 0.000000 0.000000 -0.012783 0.000000 0.053459
#
#
# Mechanical properties :
#
#
# Convention : Reuss Voigt Hill
#
# Bulk Modulus (GPa) = 25.24745 28.06152 26.65449
# Shear Modulus (GPa) = 26.56654 31.90345 29.23499
#
# Velocity S-wave (km/s) = 3.70346 4.05844 3.88500
# Velocity P-wave (km/s) = 5.59661 6.03727 5.82111
#
# Compressibility (1/GPa) = 0.03960796
#
# Stress axis : x y z
#
# Youngs Moduli (GPa) = 60.27550 62.07963 50.68911
#
# Poissons Ratio (x) = 0.33091 -0.20050
# Poissons Ratio (y) = 0.32129 0.25520
# Poissons Ratio (z) = -0.23842 0.31255
#
# Static dielectric constant tensor:
#      x y z
#    x 1.648170 0.000000 -0.015310 
#    y 0.000000 1.643830 0.000000 
#    z -0.015310 0.000000 1.679910 
# 
# From -- ./inp_files/331758.got.cif
#   From: 2010.05.17/outbox.cif.g08.bks.cpg/sg12_166_cif.got.tgz:331758.got - 2010.06.03 13:09:07.
