data_PCOD9210885
_publ_section_title
;
Structure prediction by ZEFSAII (Michael W. Deem and Ramdas Pophale) SiO2 
 PCOD9210885
Probable space group: C 2/M
;
_chemical_formula_sum "Si O2"
_cell_formula_units_Z 40
_cell_length_a 20.830876
_cell_length_b 11.687560
_cell_length_c 18.615254
_cell_angle_alpha 90.000000
_cell_angle_beta 154.824535
_cell_angle_gamma 90.000000
_cell_volume 1927.921995
_symmetry_space_group_name_H-M "C 2/M"
_symmetry_group_IT_number 12
_symmetry_cell_setting 'monoclinic'
loop_
_space_group_symop_operation_xyz
x,y,z
-x,y,-z
-x,-y,-z
x,-y,z
1/2+x,1/2+y,z
1/2-x,1/2+y,-z
1/2-x,1/2-y,-z
1/2+x,1/2-y,z
loop_
_atom_site_type_symbol
_atom_site_label
_atom_site_fract_x
_atom_site_fract_y
_atom_site_fract_z
Si Si1 0.630678 0.793161 0.820848
Si Si2 0.815152 0.625758 0.539499
Si Si3 0.862894 0.871302 0.942000
Si Si4 0.679711 0.293217 0.261910
Si Si5 0.053125 0.134858 0.473377
O O1 0.495550 0.861754 0.721608
O O2 0.727421 0.861170 0.860095
O O3 0.546755 0.694695 0.689302
O O4 0.750000 0.750000 0.000000
O O5 0.770603 0.500000 0.525635
O O6 0.750000 0.750000 0.500000
O O7 0.760221 0.627121 0.401395
O O8 0.812100 0.842358 0.810082
O O9 0.924819 0.000000 0.006721
O O10 0.002765 0.787817 0.101545
O O11 0.774655 0.176740 0.360286
O O12 0.000000 0.169851 0.500000
O O13 0.039049 0.000000 0.453507
#
# Coordination Sequence:
#
# PCOD9210885 Si02
#       5
#     8   8   8   8   8
#     4  11  24  41  64  96 129 168 217 273 327 392
#     4  11  24  42  65  93 129 170 218 266 330 397
#     4  11  21  38  64  93 127 160 208 269 332 386
#     4  10  21  39  64  93 123 165 214 263 322 383
#     4  10  21  41  63  88 127 174 217 261 318 389
#
# _framework density 20.747727000000001
#
# number of rings (size 3 to 8) (size 9 to 14) (size 15 to 20)
#    0.000    1.400    2.000    4.200    0.000    4.800 
#    0.000    6.000    0.000    0.000    0.000    0.000 
#    0.000    0.000    0.000    0.000    0.000    0.000 
#
# Total GULP energy -111598.934884 kJ/mol
# GULP energy per Si atom -5579.946744 kJ/mol
# Density = 2.070050 g / cm^3
# Si number density = 20.747727 Si / 1000 Ang^3
#
#
#
# Elastic Constant Matrix: (Units=GPa)
#
#
# Indices 1 2 3 4 5 6 
#
# 1 66.8921 29.3211 32.5464 0.0000 10.0886 0.0000
# 2 29.3211 114.6053 40.4596 0.0000 4.6120 0.0000
# 3 32.5464 40.4596 132.3587 0.0000 -5.3265 0.0000
# 4 0.0000 0.0000 0.0000 10.9799 0.0000 4.7113
# 5 10.0886 4.6120 -5.3265 0.0000 40.7193 0.0000
# 6 0.0000 0.0000 0.0000 4.7113 0.0000 23.2986
#
#
#
# Elastic Compliance Matrix: (Units=1/GPa)
#
#
# Indices 1 2 3 4 5 6 
#
# 1 0.019005 -0.003306 -0.003857 0.000000 -0.004839 0.000000
# 2 -0.003306 0.010449 -0.002409 0.000000 -0.000680 0.000000
# 3 -0.003857 -0.002409 0.009339 0.000000 0.002450 0.000000
# 4 0.000000 0.000000 0.000000 0.099729 0.000000 -0.020167
# 5 -0.004839 -0.000680 0.002450 0.000000 0.026155 0.000000
# 6 0.000000 0.000000 0.000000 -0.020167 0.000000 0.046999
#
#
# Mechanical properties :
#
#
# Convention : Reuss Voigt Hill
#
# Bulk Modulus (GPa) = 50.89286 57.61228 54.25257
# Shear Modulus (GPa) = 21.06428 29.10149 25.08289
#
# Velocity S-wave (km/s) = 3.18977 3.74924 3.48076
# Velocity P-wave (km/s) = 6.17647 6.82427 6.50843
#
# Compressibility (1/GPa) = 0.01964912
#
# Stress axis : x y z
#
# Youngs Moduli (GPa) = 52.61727 95.70284 107.08225
#
# Poissons Ratio (x) = 0.31638 0.41307
# Poissons Ratio (y) = 0.17394 0.25791
# Poissons Ratio (z) = 0.20297 0.23050
#
# Static dielectric constant tensor:
#      x y z
#    x 1.797440 0.000000 0.015160 
#    y 0.000000 1.771580 0.000000 
#    z 0.015160 0.000000 1.722050 
# 
# From -- ./inp_files/109694.got.cif
#   From: 2010.05.17/outbox.cif.g08.bks.cpg/sg12_55_cif.got.tgz:109694.got - 2010.06.03 13:09:07.
