data_PCOD9210597
_publ_section_title
;
Structure prediction by ZEFSAII (Michael W. Deem and Ramdas Pophale) SiO2 
 PCOD9210597
Probable space group: C 2/M
;
_chemical_formula_sum "Si O2"
_cell_formula_units_Z 52
_cell_length_a 23.053412
_cell_length_b 19.054513
_cell_length_c 5.428900
_cell_angle_alpha 90.000000
_cell_angle_beta 86.375917
_cell_angle_gamma 90.000000
_cell_volume 2379.992324
_symmetry_space_group_name_H-M "C 2/M"
_symmetry_group_IT_number 12
_symmetry_cell_setting 'monoclinic'
loop_
_space_group_symop_operation_xyz
x,y,z
-x,y,-z
-x,-y,-z
x,-y,z
1/2+x,1/2+y,z
1/2-x,1/2+y,-z
1/2-x,1/2-y,-z
1/2+x,1/2-y,z
loop_
_atom_site_type_symbol
_atom_site_label
_atom_site_fract_x
_atom_site_fract_y
_atom_site_fract_z
Si Si1 0.910491 0.221986 0.335548
Si Si2 0.500000 0.183969 0.000000
Si Si3 0.462237 0.424845 0.259741
Si Si4 0.805172 0.418164 0.526678
Si Si5 0.770476 0.082884 0.947709
Si Si6 0.685436 0.727186 0.963393
Si Si7 0.599648 0.175280 0.276210
O O1 0.953700 0.266007 0.149313
O O2 0.922160 0.141432 0.294402
O O3 0.925760 0.254799 0.590472
O O4 0.841551 0.229504 0.302467
O O5 0.456036 0.140700 0.838059
O O6 0.500000 0.424734 0.500000
O O7 0.431149 0.500000 0.255488
O O8 0.500000 0.418646 0.000000
O O9 0.821033 0.500000 0.514397
O O10 0.770096 0.403715 0.282780
O O11 0.863912 0.373329 0.548841
O O12 0.764804 0.409128 0.783042
O O13 0.817662 0.146281 0.940035
O O14 0.789176 0.000000 0.928277
O O15 0.647604 0.788795 0.093458
O O16 0.750000 0.750000 0.000000
#
# Coordination Sequence:
#
# PCOD9210597 Si02
#       7
#     8   4   8   8   8   8   8
#     4  11  23  38  62  90 126 166 209 261 310 369
#     4  10  22  40  58  92 122 158 212 258 322 364
#     4  10  21  39  63  88 123 167 209 254 305 363
#     4  10  22  41  66  91 124 168 206 253 318 378
#     4  10  22  41  62  90 130 169 207 252 310 377
#     4  11  23  38  60  94 126 163 210 258 311 366
#     4  11  23  38  66  91 125 163 209 265 310 378
#
# _framework density 21.84881
#
# number of rings (size 3 to 8) (size 9 to 14) (size 15 to 20)
#    0.000    1.538    2.308    2.308    6.462    1.846 
#    0.000    1.154    0.000    1.846    0.000    0.000 
#    0.000    0.000    0.000    0.000    0.000    0.000 
#
# Total GULP energy -144841.835596 kJ/mol
# GULP energy per Si atom -5570.839831 kJ/mol
# Density = 2.179908 g / cm^3
# Si number density = 21.848810 Si / 1000 Ang^3
#
#
#
# Elastic Constant Matrix: (Units=GPa)
#
#
# Indices 1 2 3 4 5 6 
#
# 1 90.3884 4.3773 22.9745 0.0000 30.2477 0.0000
# 2 4.3773 76.1047 5.0427 0.0000 15.5490 0.0000
# 3 22.9745 5.0427 97.6454 0.0000 21.5668 0.0000
# 4 0.0000 0.0000 0.0000 53.0895 0.0000 27.9785
# 5 30.2477 15.5490 21.5668 0.0000 30.7764 0.0000
# 6 0.0000 0.0000 0.0000 27.9785 0.0000 47.6631
#
#
#
# Elastic Compliance Matrix: (Units=1/GPa)
#
#
# Indices 1 2 3 4 5 6 
#
# 1 0.016975 0.002697 -0.000174 0.000000 -0.017924 0.000000
# 2 0.002697 0.015170 0.001018 0.000000 -0.011029 0.000000
# 3 -0.000174 0.001018 0.012192 0.000000 -0.008887 0.000000
# 4 0.000000 0.000000 0.000000 0.027273 0.000000 -0.016010
# 5 -0.017924 -0.011029 -0.008887 0.000000 0.061908 0.000000
# 6 0.000000 0.000000 0.000000 -0.016010 0.000000 0.030378
#
#
# Mechanical properties :
#
#
# Convention : Reuss Voigt Hill
#
# Bulk Modulus (GPa) = 19.44788 36.54748 27.99768
# Shear Modulus (GPa) = 28.74284 41.75539 35.24911
#
# Velocity S-wave (km/s) = 3.63096 4.37636 4.02097
# Velocity P-wave (km/s) = 5.14771 6.50388 5.86513
#
# Compressibility (1/GPa) = 0.05141948
#
# Stress axis : x y z
#
# Youngs Moduli (GPa) = 58.90926 65.91743 82.01823
#
# Poissons Ratio (x) = -0.17780 0.01431
# Poissons Ratio (y) = -0.15890 -0.08348
# Poissons Ratio (z) = 0.01028 -0.06709
#
# Static dielectric constant tensor:
#      x y z
#    x 1.826540 0.000000 0.075590 
#    y 0.000000 1.825750 0.000000 
#    z 0.075590 0.000000 1.806970 
# 
# From -- ./inp_files/21210.got.cif
#   From: 2010.05.17/outbox.cif.g08.bks.cpg/sg12_11_cif.got.tgz:21210.got - 2010.06.03 13:09:07.
