data_PCOD9210688
_publ_section_title
;
Structure prediction by ZEFSAII (Michael W. Deem and Ramdas Pophale) SiO2 
 PCOD9210688
Probable space group: C 2/M
;
_chemical_formula_sum "Si O2"
_cell_formula_units_Z 58
_cell_length_a 25.734901
_cell_length_b 8.970807
_cell_length_c 23.080293
_cell_angle_alpha 90.000000
_cell_angle_beta 144.774382
_cell_angle_gamma 90.000000
_cell_volume 3073.397913
_symmetry_space_group_name_H-M "C 2/M"
_symmetry_group_IT_number 12
_symmetry_cell_setting 'monoclinic'
loop_
_space_group_symop_operation_xyz
x,y,z
-x,y,-z
-x,-y,-z
x,-y,z
1/2+x,1/2+y,z
1/2-x,1/2+y,-z
1/2-x,1/2-y,-z
1/2+x,1/2-y,z
loop_
_atom_site_type_symbol
_atom_site_label
_atom_site_fract_x
_atom_site_fract_y
_atom_site_fract_z
Si Si1 0.842955 0.821862 0.104817
Si Si2 0.375679 0.678425 0.269039
Si Si3 0.127288 0.665424 0.203958
Si Si4 0.163713 0.676388 0.451069
Si Si5 0.000000 0.500000 0.000000
Si Si6 0.019121 0.676544 0.218039
Si Si7 0.081659 0.821656 0.488947
Si Si8 0.200893 0.323138 0.692418
O O1 0.860968 0.782841 0.188589
O O2 0.926227 0.761370 0.143173
O O3 0.838294 0.000000 0.096342
O O4 0.750000 0.750000 0.000000
O O5 0.363571 0.500000 0.264371
O O6 0.477863 0.715251 0.380604
O O7 0.308585 0.761442 0.251185
O O8 0.166142 0.500000 0.255750
O O9 0.076249 0.725459 0.214050
O O10 0.207333 0.765738 0.253323
O O11 0.054849 0.627212 0.088219
O O12 0.177716 0.500000 0.473407
O O13 0.250000 0.750000 0.500000
O O14 0.080673 0.694584 0.330927
O O15 0.140194 0.758057 0.489237
O O16 0.000477 0.500000 0.192958
O O17 0.119403 0.748386 0.581381
O O18 0.089131 0.000000 0.499426
O O19 0.195378 0.500000 0.686120
#
# Coordination Sequence:
#
# PCOD9210688 Si02
#       8
#     8   8   8   8   2   8   8   8
#     4  11  24  43  66  95 127 168 215 265 325 382
#     4  10  23  43  64  89 125 174 219 260 315 389
#     4   9  20  41  65  92 123 165 214 257 311 382
#     4  11  22  35  58  91 129 169 210 260 320 382
#     4   8  20  40  70  88 118 164 222 250 312 370
#     4  10  21  39  63  91 126 164 207 264 318 374
#     4  11  22  40  63  88 125 171 218 261 316 386
#     4  12  25  39  62  97 131 166 210 269 326 380
#
# _framework density 18.871621000000001
#
# number of rings (size 3 to 8) (size 9 to 14) (size 15 to 20)
#    0.414    1.103    1.379    3.724    0.000    7.172 
#    2.483    0.345    0.000    0.000    0.000    0.000 
#    0.000    0.000    0.000    0.000    0.000    0.000 
#
# Total GULP energy -161773.028482 kJ/mol
# GULP energy per Si atom -5578.380292 kJ/mol
# Density = 1.882867 g / cm^3
# Si number density = 18.871621 Si / 1000 Ang^3
#
#
#
# Elastic Constant Matrix: (Units=GPa)
#
#
# Indices 1 2 3 4 5 6 
#
# 1 129.8877 46.4803 27.1706 0.0000 8.6256 0.0000
# 2 46.4803 54.3193 29.8863 0.0000 7.0379 0.0000
# 3 27.1706 29.8863 77.9286 0.0000 2.0904 0.0000
# 4 0.0000 0.0000 0.0000 25.5994 0.0000 1.7564
# 5 8.6256 7.0379 2.0904 0.0000 23.1010 0.0000
# 6 0.0000 0.0000 0.0000 1.7564 0.0000 32.7704
#
#
#
# Elastic Compliance Matrix: (Units=1/GPa)
#
#
# Indices 1 2 3 4 5 6 
#
# 1 0.011141 -0.009180 -0.000328 0.000000 -0.001334 0.000000
# 2 -0.009180 0.031854 -0.008869 0.000000 -0.005474 0.000000
# 3 -0.000328 -0.008869 0.016312 0.000000 0.001348 0.000000
# 4 0.000000 0.000000 0.000000 0.039208 0.000000 -0.002101
# 5 -0.001334 -0.005474 0.001348 0.000000 0.045332 0.000000
# 6 0.000000 0.000000 0.000000 -0.002101 0.000000 0.030628
#
#
# Mechanical properties :
#
#
# Convention : Reuss Voigt Hill
#
# Bulk Modulus (GPa) = 44.33993 52.13443 48.23718
# Shear Modulus (GPa) = 22.85762 26.86737 24.86249
#
# Velocity S-wave (km/s) = 3.48403 3.77728 3.63361
# Velocity P-wave (km/s) = 6.30327 6.83444 6.57422
#
# Compressibility (1/GPa) = 0.02255303
#
# Stress axis : x y z
#
# Youngs Moduli (GPa) = 89.75656 31.39351 61.30582
#
# Poissons Ratio (x) = 0.28820 0.02011
# Poissons Ratio (y) = 0.82398 0.54370
# Poissons Ratio (z) = 0.02945 0.27842
#
# Static dielectric constant tensor:
#      x y z
#    x 1.647780 0.000000 -0.006620 
#    y 0.000000 1.636360 0.000000 
#    z -0.006620 0.000000 1.640490 
# 
# From -- ./inp_files/324645.got.cif
#   From: 2010.05.17/outbox.cif.g08.bks.cpg/sg12_163_cif.got.tgz:324645.got - 2010.06.03 13:09:07.
