data_PCOD9210788
_publ_section_title
;
Structure prediction by ZEFSAII (Michael W. Deem and Ramdas Pophale) SiO2 
 PCOD9210788
Probable space group: C 2/M
;
_chemical_formula_sum "Si O2"
_cell_formula_units_Z 56
_cell_length_a 24.501308
_cell_length_b 13.893249
_cell_length_c 9.661414
_cell_angle_alpha 90.000000
_cell_angle_beta 61.447405
_cell_angle_gamma 90.000000
_cell_volume 2888.787480
_symmetry_space_group_name_H-M "C 2/M"
_symmetry_group_IT_number 12
_symmetry_cell_setting 'monoclinic'
loop_
_space_group_symop_operation_xyz
x,y,z
-x,y,-z
-x,-y,-z
x,-y,z
1/2+x,1/2+y,z
1/2-x,1/2+y,-z
1/2-x,1/2-y,-z
1/2+x,1/2-y,z
loop_
_atom_site_type_symbol
_atom_site_label
_atom_site_fract_x
_atom_site_fract_y
_atom_site_fract_z
Si Si1 0.535092 0.390562 0.208577
Si Si2 0.414703 0.113848 0.843273
Si Si3 0.211075 0.888912 0.815244
Si Si4 0.830431 0.891593 0.819344
Si Si5 0.401943 0.261795 0.097909
Si Si6 0.341091 0.193897 0.670687
Si Si7 0.544536 0.780896 0.668287
O O1 0.516346 0.500000 0.207583
O O2 0.596361 0.389041 0.229885
O O3 0.481942 0.324640 0.337357
O O4 0.557094 0.338270 0.040488
O O5 0.369387 0.149591 0.776984
O O6 0.485357 0.148683 0.725948
O O7 0.412082 0.000000 0.861429
O O8 0.395164 0.171117 0.004513
O O9 0.162972 0.816598 0.801876
O O10 0.281657 0.865613 0.694113
O O11 0.194643 0.000000 0.806693
O O12 0.203065 0.875538 0.991719
O O13 0.819246 0.802956 0.731413
O O14 0.815104 0.000000 0.789407
O O15 0.433616 0.227894 0.199719
O O16 0.397339 0.192651 0.495089
#
# Coordination Sequence:
#
# PCOD9210788 Si02
#       7
#     8   8   8   8   8   8   8
#     4   9  17  34  60  87 115 153 196 238 289 348
#     4  11  23  40  63  87 115 158 205 241 288 354
#     4  10  21  39  64  87 114 155 203 247 290 347
#     4   9  18  34  59  87 115 148 192 247 294 340
#     4  10  21  40  61  86 115 154 201 248 291 344
#     4  12  22  38  59  89 124 156 195 243 298 350
#     4  11  24  36  57  89 126 156 190 241 300 349
#
# _framework density 19.385294999999999
#
# number of rings (size 3 to 8) (size 9 to 14) (size 15 to 20)
#    0.000    1.714    4.286    4.286    0.000    5.714 
#    0.000    1.429    0.000    0.000    0.000    0.000 
#    0.000    0.000    0.000    0.000    0.000    0.000 
#
# Total GULP energy -156399.478743 kJ/mol
# GULP energy per Si atom -5585.695669 kJ/mol
# Density = 1.934117 g / cm^3
# Si number density = 19.385295 Si / 1000 Ang^3
#
#
#
# Elastic Constant Matrix: (Units=GPa)
#
#
# Indices 1 2 3 4 5 6 
#
# 1 60.9902 18.6149 11.9530 0.0000 -19.0595 0.0000
# 2 18.6149 129.9640 12.5263 0.0000 -3.0249 0.0000
# 3 11.9530 12.5263 20.4250 0.0000 -12.2348 0.0000
# 4 0.0000 0.0000 0.0000 3.5583 0.0000 -7.9584
# 5 -19.0595 -3.0249 -12.2348 0.0000 27.3362 0.0000
# 6 0.0000 0.0000 0.0000 -7.9584 0.0000 12.1094
#
#
#
# Elastic Compliance Matrix: (Units=1/GPa)
#
#
# Indices 1 2 3 4 5 6 
#
# 1 0.022068 -0.002538 -0.003156 0.000000 0.013693 0.000000
# 2 -0.002538 0.008537 -0.005799 0.000000 -0.003420 0.000000
# 3 -0.003156 -0.005799 0.071951 0.000000 0.029361 0.000000
# 4 0.000000 0.000000 0.000000 -0.598096 0.000000 -0.393073
# 5 0.013693 -0.003420 0.029361 0.000000 0.058892 0.000000
# 6 0.000000 0.000000 0.000000 -0.393073 0.000000 -0.175750
#
#
# Mechanical properties :
#
#
# Convention : Reuss Voigt Hill
#
# Bulk Modulus (GPa) = 12.56752 33.06304 22.81528
# Shear Modulus (GPa) = -8.88275 19.81978 5.46851
#
# Velocity S-wave (km/s) = -2.14293 3.20099 1.68139
# Velocity P-wave (km/s) = 0.61173 5.54568 3.94517
#
# Compressibility (1/GPa) = 0.07957022
#
# Stress axis : x y z
#
# Youngs Moduli (GPa) = 45.31374 117.13287 13.89840
#
# Poissons Ratio (x) = 0.29728 0.04386
# Poissons Ratio (y) = 0.11501 0.08060
# Poissons Ratio (z) = 0.14299 0.67930
#
# Static dielectric constant tensor:
#      x y z
#    x 1.680100 0.000000 -0.017190 
#    y 0.000000 1.682210 0.000000 
#    z -0.017190 0.000000 1.681310 
# 
# From -- ./inp_files/96797.got.cif
#   From: 2010.05.17/outbox.cif.g08.bks.cpg/sg12_49_cif.got.tgz:96797.got - 2010.06.03 13:09:07.
