data_PCOD9210550
_publ_section_title
;
Structure prediction by ZEFSAII (Michael W. Deem and Ramdas Pophale) SiO2 
 PCOD9210550
Probable space group: C 2/M
;
_chemical_formula_sum "Si O2"
_cell_formula_units_Z 56
_cell_length_a 16.014316
_cell_length_b 24.237117
_cell_length_c 9.238340
_cell_angle_alpha 90.000000
_cell_angle_beta 124.580044
_cell_angle_gamma 90.000000
_cell_volume 2952.292589
_symmetry_space_group_name_H-M "C 2/M"
_symmetry_group_IT_number 12
_symmetry_cell_setting 'monoclinic'
loop_
_space_group_symop_operation_xyz
x,y,z
-x,y,-z
-x,-y,-z
x,-y,z
1/2+x,1/2+y,z
1/2-x,1/2+y,-z
1/2-x,1/2-y,-z
1/2+x,1/2-y,z
loop_
_atom_site_type_symbol
_atom_site_label
_atom_site_fract_x
_atom_site_fract_y
_atom_site_fract_z
Si Si1 0.607557 0.273085 0.022319
Si Si2 0.949822 0.626195 0.597316
Si Si3 0.815199 0.436556 0.695079
Si Si4 0.380086 0.439506 0.353137
Si Si5 0.706786 0.773952 0.609053
Si Si6 0.898620 0.819544 0.304660
Si Si7 0.902888 0.648457 0.005248
O O1 0.698295 0.299059 0.207239
O O2 0.500000 0.276279 0.000000
O O3 0.591233 0.296528 0.846518
O O4 0.642606 0.209317 0.035917
O O5 0.872429 0.588367 0.613105
O O6 0.884524 0.682326 0.505853
O O7 0.000000 0.604417 0.500000
O O8 0.048845 0.635551 0.793667
O O9 0.846562 0.500000 0.743943
O O10 0.692464 0.434542 0.576551
O O11 0.845556 0.400106 0.865133
O O12 0.500000 0.441595 0.500000
O O13 0.352621 0.500000 0.261422
O O14 0.360751 0.382562 0.250873
O O15 0.750000 0.750000 0.500000
O O16 0.664554 0.723040 0.660406
O O17 0.000000 0.823794 0.500000
O O18 0.000000 0.656410 0.000000
#
# Coordination Sequence:
#
# PCOD9210550 Si02
#       7
#     8   8   8   8   8   8   8
#     4  11  22  36  56  85 118 153 193 239 293 356
#     4  11  23  37  56  84 122 155 187 243 307 352
#     4  10  21  39  63  85 110 155 206 243 285 350
#     4   9  19  36  59  87 116 149 196 248 290 341
#     4  12  22  35  56  84 121 158 196 242 298 357
#     4  11  21  35  58  86 115 151 195 237 291 358
#     4   9  18  35  56  81 114 151 194 243 289 337
#
# _framework density 18.968309999999999
#
# number of rings (size 3 to 8) (size 9 to 14) (size 15 to 20)
#    0.000    1.571    0.000    7.714    0.000    5.143 
#    0.000    0.000    0.000    1.286    0.000    0.000 
#    0.000    0.000    0.000    0.000    0.000    0.000 
#
# Total GULP energy -155908.087343 kJ/mol
# GULP energy per Si atom -5568.145977 kJ/mol
# Density = 1.892514 g / cm^3
# Si number density = 18.968310 Si / 1000 Ang^3
#
#
#
# Elastic Constant Matrix: (Units=GPa)
#
#
# Indices 1 2 3 4 5 6 
#
# 1 119.6378 57.7375 61.7322 0.0000 -6.6260 0.0000
# 2 57.7375 148.2128 37.4970 0.0000 -10.6428 0.0000
# 3 61.7322 37.4970 107.3579 0.0000 -19.7054 0.0000
# 4 0.0000 0.0000 0.0000 -3.8270 0.0000 7.2211
# 5 -6.6260 -10.6428 -19.7054 0.0000 31.5967 0.0000
# 6 0.0000 0.0000 0.0000 7.2211 0.0000 22.5856
#
#
#
# Elastic Compliance Matrix: (Units=1/GPa)
#
#
# Indices 1 2 3 4 5 6 
#
# 1 0.013645 -0.003731 -0.007056 0.000000 -0.002796 0.000000
# 2 -0.003731 0.008449 -0.000482 0.000000 0.001763 0.000000
# 3 -0.007056 -0.000482 0.014950 0.000000 0.007682 0.000000
# 4 0.000000 0.000000 0.000000 -0.162979 0.000000 0.052108
# 5 -0.002796 0.001763 0.007682 0.000000 0.036447 0.000000
# 6 0.000000 0.000000 0.000000 0.052108 0.000000 0.027616
#
#
# Mechanical properties :
#
#
# Convention : Reuss Voigt Hill
#
# Bulk Modulus (GPa) = 68.93695 76.57134 72.75414
# Shear Modulus (GPa) = -144.94238 24.62051 -60.16093
#
# Velocity S-wave (km/s) = -8.75093 3.60666 -5.63785
# Velocity P-wave (km/s) = 8.10450 7.60261 1.98536
#
# Compressibility (1/GPa) = 0.01450601
#
# Stress axis : x y z
#
# Youngs Moduli (GPa) = 73.28476 118.35566 66.88789
#
# Poissons Ratio (x) = 0.44162 0.47198
# Poissons Ratio (y) = 0.27344 0.03224
# Poissons Ratio (z) = 0.51712 0.05704
#
# Static dielectric constant tensor:
#      x y z
#    x 1.691240 0.000000 0.013930 
#    y 0.000000 1.691100 0.000000 
#    z 0.013930 0.000000 1.604140 
# 
# From -- ./inp_files/65952.got.cif
#   From: 2010.05.17/outbox.cif.g08.bks.cpg/sg12_33_cif.got.tgz:65952.got - 2010.06.03 13:09:07.
