data_PCOD9210251
_publ_section_title
;
Structure prediction by ZEFSAII (Michael W. Deem and Ramdas Pophale) SiO2 
 PCOD9210251
Probable space group: C 2/M
;
_chemical_formula_sum "Si O2"
_cell_formula_units_Z 40
_cell_length_a 12.976084
_cell_length_b 12.501829
_cell_length_c 12.092925
_cell_angle_alpha 90.000000
_cell_angle_beta 63.663205
_cell_angle_gamma 90.000000
_cell_volume 1758.143540
_symmetry_space_group_name_H-M "C 2/M"
_symmetry_group_IT_number 12
_symmetry_cell_setting 'monoclinic'
loop_
_space_group_symop_operation_xyz
x,y,z
-x,y,-z
-x,-y,-z
x,-y,z
1/2+x,1/2+y,z
1/2-x,1/2+y,-z
1/2-x,1/2-y,-z
1/2+x,1/2-y,z
loop_
_atom_site_type_symbol
_atom_site_label
_atom_site_fract_x
_atom_site_fract_y
_atom_site_fract_z
Si Si1 0.943705 0.885682 0.692059
Si Si2 0.102280 0.840424 0.031112
Si Si3 0.365742 0.114889 0.892962
Si Si4 0.217793 0.876717 0.549213
Si Si5 0.897518 0.661976 0.633858
O O1 0.080602 0.874526 0.619345
O O2 0.912492 0.879353 0.836032
O O3 0.887360 0.789601 0.652966
O O4 0.908177 0.000000 0.663607
O O5 0.100933 0.712101 0.044839
O O6 0.229365 0.873153 0.933461
O O7 0.000000 0.875195 0.000000
O O8 0.424442 0.123766 0.744826
O O9 0.388275 0.000000 0.932572
O O10 0.250000 0.750000 0.500000
O O11 0.280967 0.881108 0.637703
O O12 0.246772 0.000000 0.487605
O O13 0.000000 0.637227 0.500000
#
# Coordination Sequence:
#
# PCOD9210251 Si02
#       5
#     8   8   8   8   8
#     4  10  22  40  63  89 121 160 204 249 306 365
#     4  10  21  39  61  87 117 151 199 251 299 357
#     4  10  22  38  59  87 117 153 197 245 300 359
#     4  11  23  40  60  89 122 160 205 250 299 363
#     4  11  22  39  61  88 123 160 202 247 300 359
#
# _framework density 22.751270999999999
#
# number of rings (size 3 to 8) (size 9 to 14) (size 15 to 20)
#    0.000    1.600    2.000    2.400    0.000    6.400 
#    0.000    0.000    0.000    7.200    0.000    0.000 
#    0.000    0.000    0.000    0.000    0.000    0.000 
#
# Total GULP energy -111566.355608 kJ/mol
# GULP energy per Si atom -5578.317780 kJ/mol
# Density = 2.269949 g / cm^3
# Si number density = 22.751271 Si / 1000 Ang^3
#
#
#
# Elastic Constant Matrix: (Units=GPa)
#
#
# Indices 1 2 3 4 5 6 
#
# 1 62.6533 16.8436 14.1029 0.0000 19.5113 0.0000
# 2 16.8436 214.3631 8.5032 0.0000 -5.5460 0.0000
# 3 14.1029 8.5032 89.0483 0.0000 -10.7045 0.0000
# 4 0.0000 0.0000 0.0000 -18.6539 0.0000 -11.1840
# 5 19.5113 -5.5460 -10.7045 0.0000 21.6788 0.0000
# 6 0.0000 0.0000 0.0000 -11.1840 0.0000 8.0154
#
#
#
# Elastic Compliance Matrix: (Units=1/GPa)
#
#
# Indices 1 2 3 4 5 6 
#
# 1 0.027438 -0.002608 -0.007596 0.000000 -0.029113 0.000000
# 2 -0.002608 0.004953 0.000398 0.000000 0.003811 0.000000
# 3 -0.007596 0.000398 0.014064 0.000000 0.013883 0.000000
# 4 0.000000 0.000000 0.000000 -0.029189 0.000000 -0.040728
# 5 -0.029113 0.003811 0.013883 0.000000 0.080160 0.000000
# 6 0.000000 0.000000 0.000000 -0.040728 0.000000 0.067931
#
#
# Mechanical properties :
#
#
# Convention : Reuss Voigt Hill
#
# Bulk Modulus (GPa) = 37.25379 49.44045 43.34712
# Shear Modulus (GPa) = 25.78454 23.98240 24.88347
#
# Velocity S-wave (km/s) = 3.37014 3.25023 3.31073
# Velocity P-wave (km/s) = 5.61727 5.98860 5.80591
#
# Compressibility (1/GPa) = 0.02684290
#
# Stress axis : x y z
#
# Youngs Moduli (GPa) = 36.44591 201.91056 71.10493
#
# Poissons Ratio (x) = 0.52655 0.54012
# Poissons Ratio (y) = 0.09504 -0.02831
# Poissons Ratio (z) = 0.27685 -0.08039
#
# Static dielectric constant tensor:
#      x y z
#    x 1.752300 0.000000 -0.014950 
#    y 0.000000 1.961310 0.000000 
#    z -0.014950 0.000000 1.860140 
# 
# From -- ./inp_files/140828.got.cif
#   From: 2010.05.17/outbox.cif.g08.bks.cpg/sg12_71_cif.got.tgz:140828.got - 2010.06.03 13:09:07.
