data_PCOD9210101
_publ_section_title
;
Structure prediction by ZEFSAII (Michael W. Deem and Ramdas Pophale) SiO2 
 PCOD9210101
Probable space group: C 2/M
;
_chemical_formula_sum "Si O2"
_cell_formula_units_Z 64
_cell_length_a 11.324408
_cell_length_b 17.702394
_cell_length_c 20.515351
_cell_angle_alpha 90.000000
_cell_angle_beta 47.625793
_cell_angle_gamma 90.000000
_cell_volume 3038.289412
_symmetry_space_group_name_H-M "C 2/M"
_symmetry_group_IT_number 12
_symmetry_cell_setting 'monoclinic'
loop_
_space_group_symop_operation_xyz
x,y,z
-x,y,-z
-x,-y,-z
x,-y,z
1/2+x,1/2+y,z
1/2-x,1/2+y,-z
1/2-x,1/2-y,-z
1/2+x,1/2-y,z
loop_
_atom_site_type_symbol
_atom_site_label
_atom_site_fract_x
_atom_site_fract_y
_atom_site_fract_z
Si Si1 0.384003 0.783725 0.651868
Si Si2 0.964539 0.919370 0.769357
Si Si3 0.122346 0.411384 0.124755
Si Si4 0.539311 0.582727 0.073930
Si Si5 0.615095 0.871656 0.899167
Si Si6 0.923289 0.416847 0.457020
Si Si7 0.827685 0.193319 0.391575
Si Si8 0.215680 0.793183 0.848273
O O1 0.441387 0.870911 0.631577
O O2 0.300569 0.768692 0.612071
O O3 0.547416 0.739617 0.610189
O O4 0.262840 0.773325 0.756564
O O5 0.968260 0.914268 0.845618
O O6 0.777077 0.916012 0.825275
O O7 0.059970 0.853789 0.699121
O O8 0.034876 0.000000 0.722430
O O9 0.092616 0.500000 0.154942
O O10 0.150839 0.348004 0.169661
O O11 0.986881 0.378723 0.128165
O O12 0.284130 0.412920 0.020833
O O13 0.469848 0.500000 0.081141
O O14 0.437712 0.653686 0.090409
O O15 0.675826 0.787227 0.895198
O O16 0.500000 0.899967 0.000000
O O17 0.887758 0.500000 0.444283
O O18 0.770508 0.363843 0.525865
O O19 0.000000 0.424014 0.500000
#
# Coordination Sequence:
#
# PCOD9210101 Si02
#       8
#     8   8   8   8   8   8   8   8
#     4  11  24  39  68  93 131 162 211 252 321 379
#     4  11  22  37  61  89 118 161 214 257 309 375
#     4  11  25  42  61  85 123 170 215 269 331 380
#     4  10  21  39  60  83 116 161 214 261 313 374
#     4  12  25  39  62  88 125 167 217 268 320 382
#     4   9  20  40  68 100 128 159 205 258 311 376
#     4  11  22  43  64  97 126 169 203 262 313 384
#     4  12  25  38  60  91 126 163 210 264 316 380
#
# _framework density 21.064482999999999
#
# number of rings (size 3 to 8) (size 9 to 14) (size 15 to 20)
#    0.000    1.125    3.750    2.625    3.500    4.000 
#    0.000    0.000    0.000    2.250    0.000    0.000 
#    0.000    0.000    0.000    0.000    0.000    0.000 
#
# Total GULP energy -178569.773562 kJ/mol
# GULP energy per Si atom -5580.305424 kJ/mol
# Density = 2.101654 g / cm^3
# Si number density = 21.064483 Si / 1000 Ang^3
#
#
#
# Elastic Constant Matrix: (Units=GPa)
#
#
# Indices 1 2 3 4 5 6 
#
# 1 111.0998 35.4975 -6.3074 0.0010 -2.9105 0.0000
# 2 35.4975 95.1138 -5.9795 0.0013 -4.4893 -0.0001
# 3 -6.3074 -5.9795 44.8021 0.0059 -11.7491 -0.0006
# 4 0.0010 0.0013 0.0059 326.9217 -0.0028 -39.1114
# 5 -2.9105 -4.4893 -11.7491 -0.0028 21.2685 0.0003
# 6 0.0000 -0.0001 -0.0006 -39.1114 0.0003 28.0578
#
#
#
# Elastic Compliance Matrix: (Units=1/GPa)
#
#
# Indices 1 2 3 4 5 6 
#
# 1 0.010291 -0.003695 0.001310 0.000000 0.001352 0.000000
# 2 -0.003695 0.012161 0.001922 0.000000 0.003123 0.000000
# 3 0.001310 0.001922 0.026797 0.000000 0.015388 0.000000
# 4 0.000000 0.000000 0.000000 0.003671 0.000000 0.005117
# 5 0.001352 0.003123 0.015388 0.000000 0.056363 0.000000
# 6 0.000000 0.000000 0.000000 0.005117 0.000000 0.042774
#
#
# Mechanical properties :
#
#
# Convention : Reuss Voigt Hill
#
# Bulk Modulus (GPa) = 20.69359 33.04853 26.87106
# Shear Modulus (GPa) = 29.57022 90.43660 60.00341
#
# Velocity S-wave (km/s) = 3.75079 6.55945 5.34298
# Velocity P-wave (km/s) = 5.34819 8.54938 7.13074
#
# Compressibility (1/GPa) = 0.04832414
#
# Stress axis : x y z
#
# Youngs Moduli (GPa) = 97.17044 82.23139 37.31794
#
# Poissons Ratio (x) = 0.30381 -0.04890
# Poissons Ratio (y) = 0.35900 -0.07172
# Poissons Ratio (z) = -0.12733 -0.15804
#
# Static dielectric constant tensor:
#      x y z
#    x 1.842740 0.000000 0.005260 
#    y 0.000000 1.803910 0.000000 
#    z 0.005260 0.000000 1.730170 
# 
# From -- ./inp_files/306205.got.cif
#   From: 2010.05.17/outbox.cif.g08.bks.cpg/sg12_154_cif.got.tgz:306205.got - 2010.06.03 13:09:07.
