data_PCOD9210337
_publ_section_title
;
Structure prediction by ZEFSAII (Michael W. Deem and Ramdas Pophale) SiO2 
 PCOD9210337
Probable space group: C 2/M
;
_chemical_formula_sum "Si O2"
_cell_formula_units_Z 64
_cell_length_a 31.484459
_cell_length_b 7.626740
_cell_length_c 13.719373
_cell_angle_alpha 90.000000
_cell_angle_beta 130.808697
_cell_angle_gamma 90.000000
_cell_volume 2493.478179
_symmetry_space_group_name_H-M "C 2/M"
_symmetry_group_IT_number 12
_symmetry_cell_setting 'monoclinic'
loop_
_space_group_symop_operation_xyz
x,y,z
-x,y,-z
-x,-y,-z
x,-y,z
1/2+x,1/2+y,z
1/2-x,1/2+y,-z
1/2-x,1/2-y,-z
1/2+x,1/2-y,z
loop_
_atom_site_type_symbol
_atom_site_label
_atom_site_fract_x
_atom_site_fract_y
_atom_site_fract_z
Si Si1 0.648069 0.212497 0.009618
Si Si2 0.522644 0.799600 0.432489
Si Si3 0.264116 0.214462 0.692217
Si Si4 0.188724 0.708417 0.867815
Si Si5 0.037872 0.287541 0.248328
Si Si6 0.354332 0.197209 0.681801
Si Si7 0.648886 0.700859 0.599599
Si Si8 0.939046 0.801934 0.967763
O O1 0.650616 0.265602 0.901291
O O2 0.594348 0.287942 0.980923
O O3 0.646407 0.000000 0.009068
O O4 0.700980 0.264829 0.157974
O O5 0.500000 0.720813 0.500000
O O6 0.510638 0.721159 0.307727
O O7 0.590543 0.800685 0.529002
O O8 0.500667 0.000000 0.398472
O O9 0.299577 0.278918 0.651108
O O10 0.199427 0.269133 0.605974
O O11 0.264207 0.000000 0.688432
O O12 0.182652 0.500000 0.844159
O O13 0.177015 0.798494 0.748829
O O14 0.250000 0.750000 0.000000
O O15 0.039940 0.500000 0.256796
O O16 0.102340 0.223862 0.331935
O O17 0.001393 0.243315 0.098392
O O18 0.340003 0.000000 0.630728
O O19 0.398741 0.187461 0.838910
O O20 0.636042 0.500000 0.555856
O O21 0.935349 0.000000 0.925923
#
# Coordination Sequence:
#
# PCOD9210337 Si02
#       8
#     8   8   8   8   8   8   8   8
#     4   9  18  34  52  75 114 159 195 225 275 347
#     4  10  24  45  63  82 110 150 201 252 297 341
#     4   8  15  32  55  81 112 146 180 223 277 339
#     4  11  21  34  55  84 119 155 195 240 289 346
#     4  10  21  39  62  82 108 154 206 245 286 351
#     4   9  18  36  61  86 115 154 196 231 281 359
#     4  11  22  38  59  84 116 151 192 240 295 352
#     4  11  22  33  53  88 125 152 185 239 297 346
#
# _framework density 25.666958000000001
#
# number of rings (size 3 to 8) (size 9 to 14) (size 15 to 20)
#    0.000    2.125    1.250    3.000    1.750    3.750 
#    0.000    1.250    0.000    0.000    0.000    0.000 
#    0.000    0.000    0.000    0.000    0.000    0.000 
#
# Total GULP energy -178778.663821 kJ/mol
# GULP energy per Si atom -5586.833244 kJ/mol
# Density = 2.560854 g / cm^3
# Si number density = 25.666958 Si / 1000 Ang^3
#
#
#
# Elastic Constant Matrix: (Units=GPa)
#
#
# Indices 1 2 3 4 5 6 
#
# 1 141.8708 11.0454 11.2229 0.0000 -11.3152 0.0000
# 2 11.0454 80.0248 12.5605 0.0000 -10.3626 0.0000
# 3 11.2229 12.5605 108.7140 0.0000 1.4933 0.0000
# 4 0.0000 0.0000 0.0000 24.0152 0.0000 2.2624
# 5 -11.3152 -10.3626 1.4933 0.0000 47.3540 0.0000
# 6 0.0000 0.0000 0.0000 2.2624 0.0000 15.7890
#
#
#
# Elastic Compliance Matrix: (Units=1/GPa)
#
#
# Indices 1 2 3 4 5 6 
#
# 1 0.007286 -0.000688 -0.000695 0.000000 0.001612 0.000000
# 2 -0.000688 0.013183 -0.001490 0.000000 0.002768 0.000000
# 3 -0.000695 -0.001490 0.009453 0.000000 -0.000790 0.000000
# 4 0.000000 0.000000 0.000000 0.042210 0.000000 -0.006048
# 5 0.001612 0.002768 -0.000790 0.000000 0.022133 0.000000
# 6 0.000000 0.000000 0.000000 -0.006048 0.000000 0.064202
#
#
# Mechanical properties :
#
#
# Convention : Reuss Voigt Hill
#
# Bulk Modulus (GPa) = 41.36201 44.47412 42.91806
# Shear Modulus (GPa) = 29.02386 37.15036 33.08711
#
# Velocity S-wave (km/s) = 3.36637 3.80860 3.59429
# Velocity P-wave (km/s) = 5.59104 6.05851 5.82947
#
# Compressibility (1/GPa) = 0.02417678
#
# Stress axis : x y z
#
# Youngs Moduli (GPa) = 137.25376 75.85334 105.78434
#
# Poissons Ratio (x) = 0.05217 0.07350
# Poissons Ratio (y) = 0.09440 0.15764
# Poissons Ratio (z) = 0.09537 0.11303
#
# Static dielectric constant tensor:
#      x y z
#    x 2.143160 0.000000 -0.019000 
#    y 0.000000 1.847790 0.000000 
#    z -0.019000 0.000000 2.033250 
# 
# From -- ./inp_files/249950.got.cif
#   From: 2010.05.17/outbox.cif.g08.bks.cpg/sg12_125_cif.got.tgz:249950.got - 2010.06.03 13:09:07.
