data_PCOD9210569
_publ_section_title
;
Structure prediction by ZEFSAII (Michael W. Deem and Ramdas Pophale) SiO2 
 PCOD9210569
Probable space group: C 2/M
;
_chemical_formula_sum "Si O2"
_cell_formula_units_Z 56
_cell_length_a 12.012388
_cell_length_b 31.087911
_cell_length_c 14.386748
_cell_angle_alpha 90.000000
_cell_angle_beta 30.565135
_cell_angle_gamma 90.000000
_cell_volume 2732.055237
_symmetry_space_group_name_H-M "C 2/M"
_symmetry_group_IT_number 12
_symmetry_cell_setting 'monoclinic'
loop_
_space_group_symop_operation_xyz
x,y,z
-x,y,-z
-x,-y,-z
x,-y,z
1/2+x,1/2+y,z
1/2-x,1/2+y,-z
1/2-x,1/2-y,-z
1/2+x,1/2-y,z
loop_
_atom_site_type_symbol
_atom_site_label
_atom_site_fract_x
_atom_site_fract_y
_atom_site_fract_z
Si Si1 0.716177 0.890847 0.968945
Si Si2 0.232382 0.810022 0.794798
Si Si3 0.230912 0.874603 0.279573
Si Si4 0.898305 0.781311 0.672616
Si Si5 0.912103 0.169135 0.302266
Si Si6 0.463305 0.110526 0.417009
Si Si7 0.793746 0.948787 0.081635
O O1 0.760244 0.897741 0.827300
O O2 0.843645 0.846351 0.899234
O O3 0.454276 0.887123 0.170974
O O4 0.812984 0.926548 0.967644
O O5 0.284389 0.761856 0.789272
O O6 0.209274 0.811718 0.699429
O O7 0.405290 0.845640 0.700573
O O8 0.000000 0.824048 0.000000
O O9 0.246799 0.823654 0.243484
O O10 0.000000 0.880552 0.500000
O O11 0.000000 0.770571 0.500000
O O12 0.070983 0.798474 0.624325
O O13 0.784526 0.125327 0.421399
O O14 0.500000 0.102247 0.500000
O O15 0.575022 0.071686 0.283153
O O16 0.781881 0.000000 0.083572
O O17 0.000000 0.937548 0.000000
#
# Coordination Sequence:
#
# PCOD9210569 Si02
#       7
#     8   8   8   8   8   8   8
#     4  10  21  40  69  94 130 168 216 263 333 387
#     4  11  23  37  55  85 127 170 219 264 313 379
#     4   9  21  41  67  96 128 173 219 270 319 382
#     4  10  22  37  56  87 125 160 219 264 309 362
#     4  10  22  39  61  89 122 173 212 262 320 379
#     4  10  21  39  63  87 126 173 216 261 324 386
#     4  11  24  42  67 100 135 166 210 270 328 394
#
# _framework density 20.497389999999999
#
# number of rings (size 3 to 8) (size 9 to 14) (size 15 to 20)
#    0.000    1.857    0.000    4.286   10.000    3.143 
#    0.000    2.143    0.000    0.857    0.000    0.000 
#    0.000    0.000    0.000    0.000    0.000    0.000 
#
# Total GULP energy -156312.795433 kJ/mol
# GULP energy per Si atom -5582.599837 kJ/mol
# Density = 2.045074 g / cm^3
# Si number density = 20.497390 Si / 1000 Ang^3
#
#
#
# Elastic Constant Matrix: (Units=GPa)
#
#
# Indices 1 2 3 4 5 6 
#
# 1 72.7431 44.4998 15.5475 0.0000 -13.6406 0.0000
# 2 44.4998 83.8586 28.5145 0.0000 1.5320 0.0000
# 3 15.5475 28.5145 97.1265 0.0000 -5.3009 0.0000
# 4 0.0000 0.0000 0.0000 -16.0004 0.0000 -20.3054
# 5 -13.6406 1.5320 -5.3009 0.0000 29.9554 0.0000
# 6 0.0000 0.0000 0.0000 -20.3054 0.0000 12.9605
#
#
#
# Elastic Compliance Matrix: (Units=1/GPa)
#
#
# Indices 1 2 3 4 5 6 
#
# 1 0.023763 -0.013046 0.000660 0.000000 0.011605 0.000000
# 2 -0.013046 0.020466 -0.004343 0.000000 -0.007756 0.000000
# 3 0.000660 -0.004343 0.011606 0.000000 0.002576 0.000000
# 4 0.000000 0.000000 0.000000 -0.020915 0.000000 -0.032767
# 5 0.011605 -0.007756 0.002576 0.000000 0.039520 0.000000
# 6 0.000000 0.000000 0.000000 -0.032767 0.000000 0.025820
#
#
# Mechanical properties :
#
#
# Convention : Reuss Voigt Hill
#
# Bulk Modulus (GPa) = 44.69211 47.87242 46.28226
# Shear Modulus (GPa) = 35.41599 16.39421 25.90510
#
# Velocity S-wave (km/s) = 4.16123 2.83118 3.55889
# Velocity P-wave (km/s) = 6.70365 5.83896 6.28619
#
# Compressibility (1/GPa) = 0.02237531
#
# Stress axis : x y z
#
# Youngs Moduli (GPa) = 42.08239 48.86058 86.16209
#
# Poissons Ratio (x) = 0.63744 -0.05683
# Poissons Ratio (y) = 0.54901 0.37424
# Poissons Ratio (z) = -0.02776 0.21223
#
# Static dielectric constant tensor:
#      x y z
#    x 1.773650 0.000000 0.007170 
#    y 0.000000 1.680250 0.000000 
#    z 0.007170 0.000000 1.782490 
# 
# From -- ./inp_files/209993.got.cif
#   From: 2010.05.17/outbox.cif.g08.bks.cpg/sg12_105_cif.got.tgz:209993.got - 2010.06.03 13:09:07.
