data_PCOD9210846
_publ_section_title
;
Structure prediction by ZEFSAII (Michael W. Deem and Ramdas Pophale) SiO2 
 PCOD9210846
Probable space group: C 2/M
;
_chemical_formula_sum "Si O2"
_cell_formula_units_Z 56
_cell_length_a 15.032909
_cell_length_b 8.291292
_cell_length_c 22.087670
_cell_angle_alpha 90.000000
_cell_angle_beta 87.662375
_cell_angle_gamma 90.000000
_cell_volume 2750.765601
_symmetry_space_group_name_H-M "C 2/M"
_symmetry_group_IT_number 12
_symmetry_cell_setting 'monoclinic'
loop_
_space_group_symop_operation_xyz
x,y,z
-x,y,-z
-x,-y,-z
x,-y,z
1/2+x,1/2+y,z
1/2-x,1/2+y,-z
1/2-x,1/2-y,-z
1/2+x,1/2-y,z
loop_
_atom_site_type_symbol
_atom_site_label
_atom_site_fract_x
_atom_site_fract_y
_atom_site_fract_z
Si Si1 0.189758 0.189233 0.421343
Si Si2 0.376058 0.310922 0.444655
Si Si3 0.855823 0.194636 0.129138
Si Si4 0.847662 0.804933 0.864930
Si Si5 0.470496 0.186640 0.643448
Si Si6 0.147183 0.805345 0.002907
Si Si7 0.005109 0.804509 0.774529
O O1 0.282503 0.282283 0.413095
O O2 0.143274 0.242333 0.485837
O O3 0.118667 0.216618 0.370894
O O4 0.210717 0.000000 0.426925
O O5 0.398682 0.500000 0.445060
O O6 0.455149 0.220574 0.409239
O O7 0.752856 0.243328 0.138893
O O8 0.916073 0.250898 0.183009
O O9 0.860789 0.000000 0.128549
O O10 0.888631 0.250728 0.061313
O O11 0.885777 0.752991 0.929950
O O12 0.913219 0.754827 0.809750
O O13 0.844846 0.000000 0.865380
O O14 0.508799 0.237890 0.707113
O O15 0.447056 0.000000 0.644415
O O16 0.141712 0.000000 0.002472
O O17 0.250000 0.750000 0.000000
O O18 0.007388 0.000000 0.771547
#
# Coordination Sequence:
#
# PCOD9210846 Si02
#       7
#     8   8   8   8   8   8   8
#     4  10  21  39  64  92 119 147 182 227 278 331
#     4  10  21  39  64  92 119 147 182 227 278 331
#     4   9  18  33  54  77 104 137 174 222 276 330
#     4   9  18  33  54  77 104 137 174 222 276 330
#     4  12  25  39  57  82 115 155 194 233 276 326
#     4   8  14  27  49  77 102 128 168 217 273 331
#     4  10  22  38  53  74 106 146 188 227 272 327
#
# _framework density 20.357968
#
# number of rings (size 3 to 8) (size 9 to 14) (size 15 to 20)
#    0.000    2.286    0.000    2.571    0.000    6.286 
#    0.000    5.714    0.000    0.000    0.000   11.000 
#    0.000    0.000    0.000    0.000    0.000    0.000 
#
# Total GULP energy -156274.186006 kJ/mol
# GULP energy per Si atom -5581.220929 kJ/mol
# Density = 2.031163 g / cm^3
# Si number density = 20.357968 Si / 1000 Ang^3
#
#
#
# Elastic Constant Matrix: (Units=GPa)
#
#
# Indices 1 2 3 4 5 6 
#
# 1 74.2680 -2.2540 14.7875 0.0000 18.0510 0.0000
# 2 -2.2540 16.1198 4.0298 0.0000 -2.9316 0.0000
# 3 14.7875 4.0298 35.9370 0.0000 21.4905 0.0000
# 4 0.0000 0.0000 0.0000 18.3753 0.0000 -0.1006
# 5 18.0510 -2.9316 21.4905 0.0000 31.7241 0.0000
# 6 0.0000 0.0000 0.0000 -0.1006 0.0000 23.0382
#
#
#
# Elastic Compliance Matrix: (Units=1/GPa)
#
#
# Indices 1 2 3 4 5 6 
#
# 1 0.015731 0.001451 -0.002292 0.000000 -0.007264 0.000000
# 2 0.001451 0.070774 -0.020089 0.000000 0.019323 0.000000
# 3 -0.002292 -0.020089 0.052702 0.000000 -0.036254 0.000000
# 4 0.000000 0.000000 0.000000 0.054422 0.000000 0.000238
# 5 -0.007264 0.019323 -0.036254 0.000000 0.062000 0.000000
# 6 0.000000 0.000000 0.000000 0.000238 0.000000 0.043407
#
#
# Mechanical properties :
#
#
# Convention : Reuss Voigt Hill
#
# Bulk Modulus (GPa) = 10.27229 17.71683 13.99456
# Shear Modulus (GPa) = 13.39248 21.94496 17.66872
#
# Velocity S-wave (km/s) = 2.56764 3.28678 2.94921
# Velocity P-wave (km/s) = 3.72118 4.80890 4.29957
#
# Compressibility (1/GPa) = 0.09734932
#
# Stress axis : x y z
#
# Youngs Moduli (GPa) = 63.57007 14.12940 18.97457
#
# Poissons Ratio (x) = -0.02051 0.04348
# Poissons Ratio (y) = -0.09227 0.38117
# Poissons Ratio (z) = 0.14568 0.28384
#
# Static dielectric constant tensor:
#      x y z
#    x 1.696530 0.000000 0.011620 
#    y 0.000000 1.696020 0.000000 
#    z 0.011620 0.000000 1.744360 
# 
# From -- ./inp_files/308992.got.cif
#   From: 2010.05.17/outbox.cif.g08.bks.cpg/sg12_155_cif.got.tgz:308992.got - 2010.06.03 13:09:07.
