data_PCOD9210254
_publ_section_title
;
Structure prediction by ZEFSAII (Michael W. Deem and Ramdas Pophale) SiO2 
 PCOD9210254
Probable space group: C 2/M
;
_chemical_formula_sum "Si O2"
_cell_formula_units_Z 48
_cell_length_a 29.334945
_cell_length_b 9.081096
_cell_length_c 14.782658
_cell_angle_alpha 90.000000
_cell_angle_beta 39.050474
_cell_angle_gamma 90.000000
_cell_volume 2480.960832
_symmetry_space_group_name_H-M "C 2/M"
_symmetry_group_IT_number 12
_symmetry_cell_setting 'monoclinic'
loop_
_space_group_symop_operation_xyz
x,y,z
-x,y,-z
-x,-y,-z
x,-y,z
1/2+x,1/2+y,z
1/2-x,1/2+y,-z
1/2-x,1/2-y,-z
1/2+x,1/2-y,z
loop_
_atom_site_type_symbol
_atom_site_label
_atom_site_fract_x
_atom_site_fract_y
_atom_site_fract_z
Si Si1 0.002262 0.670583 0.104369
Si Si2 0.253789 0.173822 0.396432
Si Si3 0.522947 0.679157 0.364237
Si Si4 0.849881 0.174722 0.099411
Si Si5 0.090446 0.825595 0.616551
Si Si6 0.683243 0.323010 0.052063
O O1 0.013266 0.500000 0.111543
O O2 0.931537 0.733803 0.261344
O O3 0.068251 0.770085 0.036028
O O4 0.000000 0.681672 0.000000
O O5 0.250000 0.250000 0.500000
O O6 0.313224 0.244457 0.239872
O O7 0.175476 0.193464 0.469435
O O8 0.267274 0.000000 0.386872
O O9 0.500000 0.728180 0.500000
O O10 0.523536 0.500000 0.363750
O O11 0.462270 0.721680 0.383884
O O12 0.604045 0.725620 0.210993
O O13 0.848261 0.000000 0.115938
O O14 0.812550 0.209630 0.061326
O O15 0.078203 0.000000 0.651972
O O16 0.686305 0.500000 0.058064
O O17 0.750000 0.250000 0.000000
#
# Coordination Sequence:
#
# PCOD9210254 Si02
#       6
#     8   8   8   8   8   8
#     4  11  23  38  60  89 119 154 199 252 307 363
#     4  11  24  40  62  91 124 164 207 252 303 362
#     4   9  18  36  62  88 115 150 196 245 294 356
#     4  11  23  41  62  87 124 164 204 252 303 364
#     4  10  21  39  61  87 118 156 200 245 300 362
#     4  10  22  39  62  90 121 156 198 250 306 365
#
# _framework density 19.347342000000001
#
# number of rings (size 3 to 8) (size 9 to 14) (size 15 to 20)
#    0.000    1.667    1.667    2.500    2.333    6.667 
#    0.000    0.000    0.000    1.000    0.000    0.000 
#    0.000    0.000    0.000    0.000    0.000    0.000 
#
# Total GULP energy -134082.263389 kJ/mol
# GULP energy per Si atom -5586.760975 kJ/mol
# Density = 1.930331 g / cm^3
# Si number density = 19.347342 Si / 1000 Ang^3
#
#
#
# Elastic Constant Matrix: (Units=GPa)
#
#
# Indices 1 2 3 4 5 6 
#
# 1 74.7944 26.3848 9.6468 0.0000 -2.5596 0.0000
# 2 26.3848 36.2474 19.6134 0.0000 4.9340 0.0000
# 3 9.6468 19.6134 73.7835 0.0000 11.2264 0.0000
# 4 0.0000 0.0000 0.0000 21.2014 0.0000 -5.5200
# 5 -2.5596 4.9340 11.2264 0.0000 30.9592 0.0000
# 6 0.0000 0.0000 0.0000 -5.5200 0.0000 27.8959
#
#
#
# Elastic Compliance Matrix: (Units=1/GPa)
#
#
# Indices 1 2 3 4 5 6 
#
# 1 0.018450 -0.014381 0.000878 0.000000 0.003499 0.000000
# 2 -0.014381 0.043568 -0.008958 0.000000 -0.004884 0.000000
# 3 0.000878 -0.008958 0.016502 0.000000 -0.004484 0.000000
# 4 0.000000 0.000000 0.000000 0.049729 0.000000 0.009840
# 5 0.003499 -0.004884 -0.004484 0.000000 0.034994 0.000000
# 6 0.000000 0.000000 0.000000 0.009840 0.000000 0.037795
#
#
# Mechanical properties :
#
#
# Convention : Reuss Voigt Hill
#
# Bulk Modulus (GPa) = 29.76374 32.90169 31.33272
# Shear Modulus (GPa) = 19.44330 24.62332 22.03331
#
# Velocity S-wave (km/s) = 3.17355 3.57136 3.37831
# Velocity P-wave (km/s) = 5.37083 5.83514 5.60779
#
# Compressibility (1/GPa) = 0.03359792
#
# Stress axis : x y z
#
# Youngs Moduli (GPa) = 54.20185 22.95249 60.59952
#
# Poissons Ratio (x) = 0.33008 -0.05322
# Poissons Ratio (y) = 0.77948 0.54285
# Poissons Ratio (z) = -0.04760 0.20561
#
# Static dielectric constant tensor:
#      x y z
#    x 1.681350 0.000000 -0.003730 
#    y 0.000000 1.639770 0.000000 
#    z -0.003730 0.000000 1.643590 
# 
# From -- ./inp_files/244710.got.cif
#   From: 2010.05.17/outbox.cif.g08.bks.cpg/sg12_123_cif.got.tgz:244710.got - 2010.06.03 13:09:07.
