data_PCOD9210137
_publ_section_title
;
Structure prediction by ZEFSAII (Michael W. Deem and Ramdas Pophale) SiO2 
 PCOD9210137
Probable space group: C 2/M
;
_chemical_formula_sum "Si O2"
_cell_formula_units_Z 40
_cell_length_a 30.568768
_cell_length_b 8.597568
_cell_length_c 15.244558
_cell_angle_alpha 90.000000
_cell_angle_beta 149.295624
_cell_angle_gamma 90.000000
_cell_volume 2045.768595
_symmetry_space_group_name_H-M "C 2/M"
_symmetry_group_IT_number 12
_symmetry_cell_setting 'monoclinic'
loop_
_space_group_symop_operation_xyz
x,y,z
-x,y,-z
-x,-y,-z
x,-y,z
1/2+x,1/2+y,z
1/2-x,1/2+y,-z
1/2-x,1/2-y,-z
1/2+x,1/2-y,z
loop_
_atom_site_type_symbol
_atom_site_label
_atom_site_fract_x
_atom_site_fract_y
_atom_site_fract_z
Si Si1 0.805936 0.813719 0.016530
Si Si2 0.395152 0.686249 0.571871
Si Si3 0.971990 0.189651 0.048442
Si Si4 0.218771 0.187874 0.224561
Si Si5 0.990862 0.686548 0.382741
O O1 0.902607 0.754773 0.193766
O O2 0.805033 0.000000 0.018005
O O3 0.750000 0.750000 0.000000
O O4 0.772823 0.765972 0.863350
O O5 0.397206 0.500000 0.572437
O O6 0.459282 0.739132 0.759801
O O7 0.298107 0.743280 0.414502
O O8 0.432761 0.752811 0.546093
O O9 0.971901 0.000000 0.049269
O O10 0.875295 0.237924 0.905221
O O11 0.000000 0.240266 0.000000
O O12 0.222420 0.000000 0.235333
O O13 0.988500 0.500000 0.375218
O O14 0.000000 0.733664 0.500000
#
# Coordination Sequence:
#
# PCOD9210137 Si02
#       5
#     8   8   8   8   8
#     4  11  22  37  57  85 120 160 203 245 295 355
#     4  11  22  38  61  91 120 156 202 248 296 356
#     4   9  19  39  64  87 118 160 200 244 303 362
#     4  10  21  39  60  86 121 159 197 244 300 356
#     4  11  23  38  57  84 119 160 201 246 300 356
#
# _framework density 19.552554000000001
#
# number of rings (size 3 to 8) (size 9 to 14) (size 15 to 20)
#    0.000    1.600    2.000    3.000    0.000    8.800 
#    0.000    0.000    0.000    4.200    0.000    0.000 
#    0.000    0.000    0.000    0.000    0.000    0.000 
#
# Total GULP energy -111777.144422 kJ/mol
# GULP energy per Si atom -5588.857221 kJ/mol
# Density = 1.950805 g / cm^3
# Si number density = 19.552554 Si / 1000 Ang^3
#
#
#
# Elastic Constant Matrix: (Units=GPa)
#
#
# Indices 1 2 3 4 5 6 
#
# 1 137.3277 22.3433 70.6149 0.0000 1.1746 0.0000
# 2 22.3433 24.1460 20.9039 0.0000 -0.7464 0.0000
# 3 70.6149 20.9039 152.5390 0.0000 15.3557 0.0000
# 4 0.0000 0.0000 0.0000 33.7425 0.0000 9.0063
# 5 1.1746 -0.7464 15.3557 0.0000 30.0931 0.0000
# 6 0.0000 0.0000 0.0000 9.0063 0.0000 10.0657
#
#
#
# Elastic Compliance Matrix: (Units=1/GPa)
#
#
# Indices 1 2 3 4 5 6 
#
# 1 0.010367 -0.005961 -0.004139 0.000000 0.001560 0.000000
# 2 -0.005961 0.051054 -0.004625 0.000000 0.003859 0.000000
# 3 -0.004139 -0.004625 0.009594 0.000000 -0.004849 0.000000
# 4 0.000000 0.000000 0.000000 0.038935 0.000000 -0.034837
# 5 0.001560 0.003859 -0.004849 0.000000 0.035739 0.000000
# 6 0.000000 0.000000 0.000000 -0.034837 0.000000 0.130518
#
#
# Mechanical properties :
#
#
# Convention : Reuss Voigt Hill
#
# Bulk Modulus (GPa) = 24.05950 60.19298 42.12624
# Shear Modulus (GPa) = 15.64882 28.12363 21.88622
#
# Velocity S-wave (km/s) = 2.83211 3.79669 3.34930
# Velocity P-wave (km/s) = 4.79856 7.07615 6.04558
#
# Compressibility (1/GPa) = 0.04156362
#
# Stress axis : x y z
#
# Youngs Moduli (GPa) = 96.46173 19.58691 104.23387
#
# Poissons Ratio (x) = 0.11676 0.43144
# Poissons Ratio (y) = 0.57503 0.48212
# Poissons Ratio (z) = 0.39927 0.09060
#
# Static dielectric constant tensor:
#      x y z
#    x 1.668800 0.000000 -0.011800 
#    y 0.000000 1.665620 0.000000 
#    z -0.011800 0.000000 1.674310 
# 
# From -- ./inp_files/211163.got.cif
#   From: 2010.05.17/outbox.cif.g08.bks.cpg/sg12_106_cif.got.tgz:211163.got - 2010.06.03 13:09:07.
