data_PCOD9210689
_publ_section_title
;
Structure prediction by ZEFSAII (Michael W. Deem and Ramdas Pophale) SiO2 
 PCOD9210689
Probable space group: C 2/M
;
_chemical_formula_sum "Si O2"
_cell_formula_units_Z 48
_cell_length_a 9.117703
_cell_length_b 27.580089
_cell_length_c 18.484632
_cell_angle_alpha 90.000000
_cell_angle_beta 149.104521
_cell_angle_gamma 90.000000
_cell_volume 2386.766785
_symmetry_space_group_name_H-M "C 2/M"
_symmetry_group_IT_number 12
_symmetry_cell_setting 'monoclinic'
loop_
_space_group_symop_operation_xyz
x,y,z
-x,y,-z
-x,-y,-z
x,-y,z
1/2+x,1/2+y,z
1/2-x,1/2+y,-z
1/2-x,1/2-y,-z
1/2+x,1/2-y,z
loop_
_atom_site_type_symbol
_atom_site_label
_atom_site_fract_x
_atom_site_fract_y
_atom_site_fract_z
Si Si1 0.706094 0.895289 0.517971
Si Si2 0.734994 0.500000 0.441424
Si Si3 0.658574 0.500000 0.866395
Si Si4 0.410700 0.838849 0.269234
Si Si5 0.431497 0.761079 0.889689
Si Si6 0.084379 0.918090 0.954647
Si Si7 0.331747 0.861419 0.773513
O O1 0.500000 0.895967 0.500000
O O2 0.580949 0.854519 0.412317
O O3 0.034967 0.884103 0.672128
O O4 0.728795 0.950621 0.498039
O O5 0.479032 0.500000 0.272884
O O6 0.000000 0.500000 0.500000
O O7 0.568629 0.454668 0.880072
O O8 0.000000 0.500000 0.000000
O O9 0.283101 0.784552 0.209058
O O10 0.615999 0.852562 0.289488
O O11 0.136318 0.874053 0.149248
O O12 0.329726 0.808034 0.805447
O O13 0.500000 0.774667 0.000000
O O14 0.750000 0.750000 0.000000
O O15 0.400862 0.894846 0.090269
O O16 0.000000 0.938092 0.000000
#
# Coordination Sequence:
#
# PCOD9210689 Si02
#       7
#     8   4   4   8   8   8   8
#     4  11  25  42  66  94 129 171 219 266 324 382
#     4  10  22  43  61  89 129 167 210 265 325 375
#     4  12  23  37  62  95 130 163 214 275 320 381
#     4  11  23  43  64  93 128 171 215 267 315 389
#     4  12  23  42  69  98 132 169 211 262 328 384
#     4  10  21  39  63  91 126 168 216 263 324 384
#     4  11  24  42  65  96 131 168 214 265 319 385
#
# _framework density 20.110889
#
# number of rings (size 3 to 8) (size 9 to 14) (size 15 to 20)
#    0.000    1.000    3.333    4.250    2.333    2.667 
#    0.000    3.333    0.000    0.000    0.000    0.000 
#    0.000    0.000    0.000    0.000    0.000    0.000 
#
# Total GULP energy -133864.095822 kJ/mol
# GULP energy per Si atom -5577.670659 kJ/mol
# Density = 2.006512 g / cm^3
# Si number density = 20.110889 Si / 1000 Ang^3
#
#
#
# Elastic Constant Matrix: (Units=GPa)
#
#
# Indices 1 2 3 4 5 6 
#
# 1 85.1772 12.8225 14.4887 -0.0016 16.9616 0.0007
# 2 12.8225 89.7620 1.4449 -0.0024 5.8538 -0.0005
# 3 14.4887 1.4449 64.8886 -0.0136 22.5546 0.0051
# 4 -0.0016 -0.0024 -0.0136 52.8296 0.0000 -6.4333
# 5 16.9616 5.8538 22.5546 0.0000 43.0567 -0.0001
# 6 0.0007 -0.0005 0.0051 -6.4333 -0.0001 25.2035
#
#
#
# Elastic Compliance Matrix: (Units=1/GPa)
#
#
# Indices 1 2 3 4 5 6 
#
# 1 0.013052 -0.001569 -0.001426 0.000000 -0.004181 0.000000
# 2 -0.001569 0.011435 0.000515 0.000001 -0.001206 0.000000
# 3 -0.001426 0.000515 0.019008 0.000005 -0.009465 -0.000003
# 4 0.000000 0.000001 0.000005 0.019536 -0.000002 0.004987
# 5 -0.004181 -0.001206 -0.009465 -0.000002 0.029995 0.000001
# 6 0.000000 0.000000 -0.000003 0.004987 0.000001 0.040950
#
#
# Mechanical properties :
#
#
# Convention : Reuss Voigt Hill
#
# Bulk Modulus (GPa) = 25.95030 33.03778 29.49404
# Shear Modulus (GPa) = 32.94245 38.28940 35.61592
#
# Velocity S-wave (km/s) = 4.05166 4.36812 4.21286
# Velocity P-wave (km/s) = 5.90081 6.47334 6.19369
#
# Compressibility (1/GPa) = 0.03853520
#
# Stress axis : x y z
#
# Youngs Moduli (GPa) = 76.61908 87.45037 52.60935
#
# Poissons Ratio (x) = 0.13719 0.07502
# Poissons Ratio (y) = 0.12020 -0.02709
# Poissons Ratio (z) = 0.10925 -0.04504
#
# Static dielectric constant tensor:
#      x y z
#    x 1.646050 0.000000 -0.034640 
#    y 0.000000 1.704160 -0.000010 
#    z -0.034640 -0.000010 1.697630 
# 
# From -- ./inp_files/260443.got.cif
#   From: 2010.05.17/outbox.cif.g08.bks.cpg/sg12_131_cif.got.tgz:260443.got - 2010.06.03 13:09:07.
