data_PCOD9210148
_publ_section_title
;
Structure prediction by ZEFSAII (Michael W. Deem and Ramdas Pophale) SiO2 
 PCOD9210148
Probable space group: C 2/M
;
_chemical_formula_sum "Si O2"
_cell_formula_units_Z 46
_cell_length_a 28.501153
_cell_length_b 14.830897
_cell_length_c 13.175479
_cell_angle_alpha 90.000000
_cell_angle_beta 158.485337
_cell_angle_gamma 90.000000
_cell_volume 2042.460859
_symmetry_space_group_name_H-M "C 2/M"
_symmetry_group_IT_number 12
_symmetry_cell_setting 'monoclinic'
loop_
_space_group_symop_operation_xyz
x,y,z
-x,y,-z
-x,-y,-z
x,-y,z
1/2+x,1/2+y,z
1/2-x,1/2+y,-z
1/2-x,1/2-y,-z
1/2+x,1/2-y,z
loop_
_atom_site_type_symbol
_atom_site_label
_atom_site_fract_x
_atom_site_fract_y
_atom_site_fract_z
Si Si1 0.568175 0.500000 0.373807
Si Si2 0.205452 0.000000 0.070523
Si Si3 0.500000 0.000000 0.000000
Si Si4 0.580937 0.829419 0.029131
Si Si5 0.086361 0.321061 0.792819
Si Si6 0.193148 0.693790 0.734536
Si Si7 0.634668 0.309676 0.417604
Si Si8 0.737776 0.000000 0.046522
O O1 0.591711 0.411017 0.355173
O O2 0.666129 0.500000 0.665473
O O3 0.427515 0.500000 0.138451
O O4 0.279906 0.908136 0.245746
O O5 0.192529 0.000000 0.922013
O O6 0.468012 0.920676 0.019757
O O7 0.727428 0.812455 0.358660
O O8 0.582561 0.835652 0.908989
O O9 0.483787 0.748670 0.860086
O O10 0.938164 0.305839 0.467506
O O11 0.178099 0.235100 0.958723
O O12 0.151001 0.411092 0.879933
O O13 0.165651 0.759968 0.586090
#
# Coordination Sequence:
#
# PCOD9210148 Si02
#       8
#     4   4   2   8   8   8   8   4
#     4  12  20  42  62  90 117 166 215 264 298 368
#     4  12  26  35  53  91 130 157 207 271 326 346
#     4  12  24  38  68 100 138 150 196 238 316 362
#     4  10  21  40  65  97 120 165 194 258 292 377
#     4  10  21  41  65  85 115 165 217 245 307 367
#     4  10  21  39  60  88 117 158 208 264 297 371
#     4  10  21  41  71  87 121 163 218 240 302 363
#     4  12  23  38  59  84 122 167 208 263 318 374
#
# _framework density 22.521851000000002
#
# number of rings (size 3 to 8) (size 9 to 14) (size 15 to 20)
#    0.000    1.391    3.478    4.957    0.000    4.870 
#    0.000    0.870    0.000    1.565    0.000    0.000 
#    0.000    0.000    0.000    0.000    0.000    0.000 
#
# Total GULP energy -128381.097415 kJ/mol
# GULP energy per Si atom -5581.786844 kJ/mol
# Density = 2.247059 g / cm^3
# Si number density = 22.521851 Si / 1000 Ang^3
#
#
#
# Elastic Constant Matrix: (Units=GPa)
#
#
# Indices 1 2 3 4 5 6 
#
# 1 50.7221 32.7776 48.8967 0.0000 -8.1769 0.0000
# 2 32.7776 230.3868 93.5524 0.0000 21.9693 0.0000
# 3 48.8967 93.5524 158.4611 0.0000 55.9099 0.0000
# 4 0.0000 0.0000 0.0000 -5.8403 0.0000 8.8010
# 5 -8.1769 21.9693 55.9099 0.0000 12.0108 0.0000
# 6 0.0000 0.0000 0.0000 8.8010 0.0000 37.8268
#
#
#
# Elastic Compliance Matrix: (Units=1/GPa)
#
#
# Indices 1 2 3 4 5 6 
#
# 1 0.009014 -0.001902 0.007863 0.000000 -0.026986 0.000000
# 2 -0.001902 0.005638 -0.002107 0.000000 -0.001798 0.000000
# 3 0.007863 -0.002107 -0.002926 0.000000 0.022829 0.000000
# 4 0.000000 0.000000 0.000000 -0.126774 0.000000 0.029496
# 5 -0.026986 -0.001798 0.022829 0.000000 -0.038092 0.000000
# 6 0.000000 0.000000 0.000000 0.029496 0.000000 0.019574
#
#
# Mechanical properties :
#
#
# Convention : Reuss Voigt Hill
#
# Bulk Modulus (GPa) = 51.45800 87.78037 69.61918
# Shear Modulus (GPa) = -37.09308 26.42234 -5.33537
#
# Velocity S-wave (km/s) = -4.06270 3.42890 -1.54082
# Velocity P-wave (km/s) = 0.94351 7.39843 5.27385
#
# Compressibility (1/GPa) = 0.01943332
#
# Stress axis : x y z
#
# Youngs Moduli (GPa) = 110.93837 177.35702 -341.74579
#
# Poissons Ratio (x) = 0.33733 2.68712
# Poissons Ratio (y) = 0.21100 -0.72019
# Poissons Ratio (z) = -0.87230 0.37376
#
# Static dielectric constant tensor:
#      x y z
#    x 1.870530 0.000000 -0.022910 
#    y 0.000000 1.762110 0.000000 
#    z -0.022910 0.000000 1.879920 
# 
# From -- ./inp_files/251562.got.cif
#   From: 2010.05.17/outbox.cif.g08.bks.cpg/sg12_126_cif.got.tgz:251562.got - 2010.06.03 13:09:07.
