data_PCOD9210469
_publ_section_title
;
Structure prediction by ZEFSAII (Michael W. Deem and Ramdas Pophale) SiO2 
 PCOD9210469
Probable space group: C 2/M
;
_chemical_formula_sum "Si O2"
_cell_formula_units_Z 64
_cell_length_a 16.138620
_cell_length_b 14.960011
_cell_length_c 13.987171
_cell_angle_alpha 90.000000
_cell_angle_beta 56.154309
_cell_angle_gamma 90.000000
_cell_volume 2804.717028
_symmetry_space_group_name_H-M "C 2/M"
_symmetry_group_IT_number 12
_symmetry_cell_setting 'monoclinic'
loop_
_space_group_symop_operation_xyz
x,y,z
-x,y,-z
-x,-y,-z
x,-y,z
1/2+x,1/2+y,z
1/2-x,1/2+y,-z
1/2-x,1/2-y,-z
1/2+x,1/2-y,z
loop_
_atom_site_type_symbol
_atom_site_label
_atom_site_fract_x
_atom_site_fract_y
_atom_site_fract_z
Si Si1 0.434178 0.842425 0.923039
Si Si2 0.108707 0.150550 0.951573
Si Si3 0.148196 0.399407 0.747340
Si Si4 0.548037 0.600685 0.574345
Si Si5 0.716422 0.404494 0.073322
Si Si6 0.269508 0.899144 0.501056
Si Si7 0.088917 0.754611 0.254899
Si Si8 0.243603 0.286435 0.301324
O O1 0.542101 0.885995 0.867344
O O2 0.335405 0.899377 0.002085
O O3 0.433980 0.815792 0.811525
O O4 0.416895 0.749208 0.989689
O O5 0.173975 0.105168 0.992821
O O6 0.175149 0.159476 0.813858
O O7 0.000000 0.109330 0.000000
O O8 0.185991 0.500000 0.743682
O O9 0.144233 0.392359 0.633776
O O10 0.216603 0.315224 0.728623
O O11 0.500000 0.609078 0.500000
O O12 0.523462 0.500000 0.624147
O O13 0.666971 0.607600 0.505793
O O14 0.502311 0.679938 0.665626
O O15 0.682648 0.500000 0.133960
O O16 0.672964 0.320230 0.156871
O O17 0.266154 0.826785 0.586842
O O18 0.272320 0.000000 0.540601
O O19 0.137150 0.711824 0.317446
#
# Coordination Sequence:
#
# PCOD9210469 Si02
#       8
#     8   8   8   8   8   8   8   8
#     4  11  21  42  63  86 128 168 208 260 311 381
#     4  11  22  41  63  92 127 165 213 260 319 392
#     4  11  24  41  64  93 125 169 217 264 319 381
#     4  10  21  39  62  90 123 159 206 268 322 375
#     4  11  23  40  62  91 127 166 213 266 319 379
#     4  10  24  44  65  95 129 166 221 271 319 382
#     4  11  22  38  62  89 123 165 212 254 321 386
#     4  12  22  41  66  91 132 170 207 268 326 376
#
# _framework density 22.818701000000001
#
# number of rings (size 3 to 8) (size 9 to 14) (size 15 to 20)
#    0.000    1.125    3.750    3.375    1.750    3.750 
#    0.000    0.625    0.000    1.500    0.000    0.000 
#    0.000    0.000    0.000    0.000    0.000    0.000 
#
# Total GULP energy -178974.254744 kJ/mol
# GULP energy per Si atom -5592.945461 kJ/mol
# Density = 2.276676 g / cm^3
# Si number density = 22.818701 Si / 1000 Ang^3
#
#
#
# Elastic Constant Matrix: (Units=GPa)
#
#
# Indices 1 2 3 4 5 6 
#
# 1 67.5959 15.1684 19.0563 0.0000 6.3246 0.0000
# 2 15.1684 63.2752 9.0785 0.0000 0.2086 0.0000
# 3 19.0563 9.0785 81.9755 0.0000 -11.3816 0.0000
# 4 0.0000 0.0000 0.0000 -49.2325 0.0000 -33.7250
# 5 6.3246 0.2086 -11.3816 0.0000 39.0682 0.0000
# 6 0.0000 0.0000 0.0000 -33.7250 0.0000 -17.1404
#
#
#
# Elastic Compliance Matrix: (Units=1/GPa)
#
#
# Indices 1 2 3 4 5 6 
#
# 1 0.017116 -0.003496 -0.004141 0.000000 -0.003959 0.000000
# 2 -0.003496 0.016788 -0.001022 0.000000 0.000179 0.000000
# 3 -0.004141 -0.001022 0.013932 0.000000 0.004735 0.000000
# 4 0.000000 0.000000 0.000000 0.058398 0.000000 -0.114902
# 5 -0.003959 0.000179 0.004735 0.000000 0.027616 0.000000
# 6 0.000000 0.000000 0.000000 -0.114902 0.000000 0.167736
#
#
# Mechanical properties :
#
#
# Convention : Reuss Voigt Hill
#
# Bulk Modulus (GPa) = 32.76729 33.27255 33.01992
# Shear Modulus (GPa) = 15.19406 5.84196 10.51801
#
# Velocity S-wave (km/s) = 2.58323 1.60179 2.14928
# Velocity P-wave (km/s) = 4.82581 4.24663 4.54545
#
# Compressibility (1/GPa) = 0.03051824
#
# Stress axis : x y z
#
# Youngs Moduli (GPa) = 58.42427 59.56624 71.77727
#
# Poissons Ratio (x) = 0.20824 0.29725
# Poissons Ratio (y) = 0.20424 0.07334
# Poissons Ratio (z) = 0.24196 0.06086
#
# Static dielectric constant tensor:
#      x y z
#    x 1.926200 0.000000 -0.016330 
#    y 0.000000 1.841420 0.000000 
#    z -0.016330 0.000000 1.863880 
# 
# From -- ./inp_files/225275.got.cif
#   From: 2010.05.17/outbox.cif.g08.bks.cpg/sg12_113_cif.got.tgz:225275.got - 2010.06.03 13:09:07.
