data_PCOD9210245
_publ_section_title
;
Structure prediction by ZEFSAII (Michael W. Deem and Ramdas Pophale) SiO2 
 PCOD9210245
Probable space group: C 2/M
;
_chemical_formula_sum "Si O2"
_cell_formula_units_Z 48
_cell_length_a 10.219333
_cell_length_b 17.399767
_cell_length_c 12.097792
_cell_angle_alpha 90.000000
_cell_angle_beta 65.191328
_cell_angle_gamma 90.000000
_cell_volume 1952.635237
_symmetry_space_group_name_H-M "C 2/M"
_symmetry_group_IT_number 12
_symmetry_cell_setting 'monoclinic'
loop_
_space_group_symop_operation_xyz
x,y,z
-x,y,-z
-x,-y,-z
x,-y,z
1/2+x,1/2+y,z
1/2-x,1/2+y,-z
1/2-x,1/2-y,-z
1/2+x,1/2-y,z
loop_
_atom_site_type_symbol
_atom_site_label
_atom_site_fract_x
_atom_site_fract_y
_atom_site_fract_z
Si Si1 0.580210 0.885642 0.081839
Si Si2 0.496631 0.272858 0.173010
Si Si3 0.326398 0.413160 0.147854
Si Si4 0.347531 0.137674 0.331108
Si Si5 0.265123 0.912236 0.583572
Si Si6 0.047140 0.852182 0.367422
O O1 0.581638 0.792357 0.077112
O O2 0.737457 0.910076 0.065521
O O3 0.473732 0.904810 0.221326
O O4 0.500000 0.912371 0.000000
O O5 0.439350 0.345197 0.126515
O O6 0.366004 0.224379 0.277241
O O7 0.583912 0.300892 0.248719
O O8 0.384419 0.500000 0.141245
O O9 0.220181 0.399020 0.291206
O O10 0.349085 0.136681 0.462584
O O11 0.193404 0.104813 0.347789
O O12 0.093702 0.899330 0.620612
O O13 0.303932 0.000000 0.546477
O O14 0.000000 0.812851 0.500000
#
# Coordination Sequence:
#
# PCOD9210245 Si02
#       6
#     8   8   8   8   8   8
#     4  10  23  39  58  86 115 157 202 249 288 340
#     4   9  20  36  57  84 116 155 200 236 291 344
#     4  10  21  39  61  86 120 156 192 239 301 356
#     4   9  20  33  55  87 114 153 197 236 285 350
#     4   9  19  35  57  85 119 155 188 238 298 356
#     4   9  17  31  52  81 114 147 185 233 291 346
#
# _framework density 24.582163999999999
#
# number of rings (size 3 to 8) (size 9 to 14) (size 15 to 20)
#    1.000    1.667    0.000    1.000    0.000   12.667 
#    0.000    1.667    0.000    0.500    0.000    0.000 
#    0.000    0.000    0.000    0.000    0.000    0.000 
#
# Total GULP energy -133813.936840 kJ/mol
# GULP energy per Si atom -5575.580702 kJ/mol
# Density = 2.452621 g / cm^3
# Si number density = 24.582164 Si / 1000 Ang^3
#
#
#
# Elastic Constant Matrix: (Units=GPa)
#
#
# Indices 1 2 3 4 5 6 
#
# 1 77.9648 8.4563 37.4787 0.0000 26.3319 0.0000
# 2 8.4563 124.1104 21.4087 0.0000 13.2003 0.0000
# 3 37.4787 21.4087 114.2241 0.0000 22.8682 0.0000
# 4 0.0000 0.0000 0.0000 -135.0383 0.0000 13.1204
# 5 26.3319 13.2003 22.8682 0.0000 43.6355 0.0000
# 6 0.0000 0.0000 0.0000 13.1204 0.0000 38.9159
#
#
#
# Elastic Compliance Matrix: (Units=1/GPa)
#
#
# Indices 1 2 3 4 5 6 
#
# 1 0.017693 0.000429 -0.004158 0.000000 -0.008627 0.000000
# 2 0.000429 0.008480 -0.001301 0.000000 -0.002143 0.000000
# 3 -0.004158 -0.001301 0.010929 0.000000 -0.002824 0.000000
# 4 0.000000 0.000000 0.000000 -0.007170 0.000000 0.002417
# 5 -0.008627 -0.002143 -0.002824 0.000000 0.030251 0.000000
# 6 0.000000 0.000000 0.000000 0.002417 0.000000 0.024881
#
#
# Mechanical properties :
#
#
# Convention : Reuss Voigt Hill
#
# Bulk Modulus (GPa) = 36.98156 50.10962 43.54559
# Shear Modulus (GPa) = 48.01307 6.09966 27.05636
#
# Velocity S-wave (km/s) = 4.42426 1.57693 3.32120
# Velocity P-wave (km/s) = 6.41681 4.87282 5.69736
#
# Compressibility (1/GPa) = 0.02704051
#
# Stress axis : x y z
#
# Youngs Moduli (GPa) = 56.52112 117.91827 91.50366
#
# Poissons Ratio (x) = -0.05064 0.38052
# Poissons Ratio (y) = -0.02427 0.11908
# Poissons Ratio (z) = 0.23504 0.15346
#
# Static dielectric constant tensor:
#      x y z
#    x 1.957370 0.000000 -0.018990 
#    y 0.000000 1.976010 0.000000 
#    z -0.018990 0.000000 1.993140 
# 
# From -- ./inp_files/131075.got.cif
#   From: 2010.05.17/outbox.cif.g08.bks.cpg/sg12_66_cif.got.tgz:131075.got - 2010.06.03 13:09:07.
