data_PCOD9210735
_publ_section_title
;
Structure prediction by ZEFSAII (Michael W. Deem and Ramdas Pophale) SiO2 
 PCOD9210735
Probable space group: C 2/M
;
_chemical_formula_sum "Si O2"
_cell_formula_units_Z 48
_cell_length_a 25.229700
_cell_length_b 20.642521
_cell_length_c 11.617846
_cell_angle_alpha 90.000000
_cell_angle_beta 157.952926
_cell_angle_gamma 90.000000
_cell_volume 2271.213487
_symmetry_space_group_name_H-M "C 2/M"
_symmetry_group_IT_number 12
_symmetry_cell_setting 'monoclinic'
loop_
_space_group_symop_operation_xyz
x,y,z
-x,y,-z
-x,-y,-z
x,-y,z
1/2+x,1/2+y,z
1/2-x,1/2+y,-z
1/2-x,1/2-y,-z
1/2+x,1/2-y,z
loop_
_atom_site_type_symbol
_atom_site_label
_atom_site_fract_x
_atom_site_fract_y
_atom_site_fract_z
Si Si1 0.334814 0.188706 0.133081
Si Si2 0.142129 0.431960 0.705213
Si Si3 0.296880 0.690554 0.378205
Si Si4 0.091804 0.424586 0.331078
Si Si5 0.337415 0.426433 0.634077
Si Si6 0.525048 0.778143 0.922066
O O1 0.500000 0.196562 0.500000
O O2 0.275169 0.129297 0.086171
O O3 0.250000 0.250000 0.000000
O O4 0.292159 0.175769 0.915800
O O5 0.215145 0.500000 0.873227
O O6 0.114548 0.425790 0.514379
O O7 0.000000 0.432309 0.500000
O O8 0.319435 0.625994 0.497492
O O9 0.434851 0.735745 0.650018
O O10 0.188174 0.734504 0.229476
O O11 0.038275 0.500000 0.200011
O O12 0.228616 0.417081 0.522691
O O13 0.006642 0.356305 0.143479
O O14 0.312316 0.500000 0.541384
O O15 0.500000 0.422290 0.000000
O O16 0.500000 0.753945 0.000000
#
# Coordination Sequence:
#
# PCOD9210735 Si02
#       6
#     8   8   8   8   8   8
#     4  11  23  43  63  89 124 164 214 263 318 374
#     4   9  18  36  63  90 119 158 205 260 312 366
#     4  12  25  41  65  94 128 169 213 266 322 387
#     4  10  21  39  63  93 127 163 210 261 318 381
#     4  10  23  43  66  95 133 172 209 260 325 388
#     4  12  24  39  61  95 130 166 206 262 319 385
#
# _framework density 21.134077000000001
#
# number of rings (size 3 to 8) (size 9 to 14) (size 15 to 20)
#    0.000    1.333    1.667    5.000    2.333    1.667 
#    3.000    0.000    0.000    0.500    0.000    0.000 
#    0.000    0.000    0.000    0.000    0.000    0.000 
#
# Total GULP energy -133732.371074 kJ/mol
# GULP energy per Si atom -5572.182128 kJ/mol
# Density = 2.108597 g / cm^3
# Si number density = 21.134077 Si / 1000 Ang^3
#
#
#
# Elastic Constant Matrix: (Units=GPa)
#
#
# Indices 1 2 3 4 5 6 
#
# 1 82.0059 31.8152 24.2633 0.0000 -29.5607 0.0000
# 2 31.8152 144.4175 47.1143 0.0000 -11.6248 0.0000
# 3 24.2633 47.1143 96.5540 0.0000 -13.1892 0.0000
# 4 0.0000 0.0000 0.0000 31.1683 0.0000 -6.0817
# 5 -29.5607 -11.6248 -13.1892 0.0000 36.8436 0.0000
# 6 0.0000 0.0000 0.0000 -6.0817 0.0000 -2.7013
#
#
#
# Elastic Compliance Matrix: (Units=1/GPa)
#
#
# Indices 1 2 3 4 5 6 
#
# 1 0.018483 -0.002465 -0.001601 0.000000 0.013478 0.000000
# 2 -0.002465 0.008616 -0.003663 0.000000 -0.000570 0.000000
# 3 -0.001601 -0.003663 0.012841 0.000000 0.002157 0.000000
# 4 0.000000 0.000000 0.000000 0.022291 0.000000 -0.050187
# 5 0.013478 -0.000570 0.002157 0.000000 0.038548 0.000000
# 6 0.000000 0.000000 0.000000 -0.050187 0.000000 -0.257201
#
#
# Mechanical properties :
#
#
# Convention : Reuss Voigt Hill
#
# Bulk Modulus (GPa) = 40.84379 58.81809 49.83094
# Shear Modulus (GPa) = -37.64945 27.71444 -4.96751
#
# Velocity S-wave (km/s) = -4.22531 3.62520 -1.53479
# Velocity P-wave (km/s) = 2.10626 6.73900 4.52647
#
# Compressibility (1/GPa) = 0.02448353
#
# Stress axis : x y z
#
# Youngs Moduli (GPa) = 54.10492 116.05737 77.87461
#
# Poissons Ratio (x) = 0.28603 0.12466
# Poissons Ratio (y) = 0.13334 0.28525
# Poissons Ratio (z) = 0.08661 0.42512
#
# Static dielectric constant tensor:
#      x y z
#    x 1.814180 0.000000 -0.023200 
#    y 0.000000 1.797320 0.000000 
#    z -0.023200 0.000000 1.770850 
# 
# From -- ./inp_files/184761.got.cif
#   From: 2010.05.17/outbox.cif.g08.bks.cpg/sg12_93_cif.got.tgz:184761.got - 2010.06.03 13:09:07.
