data_PCOD9210576
_publ_section_title
;
Structure prediction by ZEFSAII (Michael W. Deem and Ramdas Pophale) SiO2 
 PCOD9210576
Probable space group: C 2/M
;
_chemical_formula_sum "Si O2"
_cell_formula_units_Z 56
_cell_length_a 18.951369
_cell_length_b 8.815240
_cell_length_c 18.569570
_cell_angle_alpha 90.000000
_cell_angle_beta 75.757157
_cell_angle_gamma 90.000000
_cell_volume 3006.890448
_symmetry_space_group_name_H-M "C 2/M"
_symmetry_group_IT_number 12
_symmetry_cell_setting 'monoclinic'
loop_
_space_group_symop_operation_xyz
x,y,z
-x,y,-z
-x,-y,-z
x,-y,z
1/2+x,1/2+y,z
1/2-x,1/2+y,-z
1/2-x,1/2-y,-z
1/2+x,1/2-y,z
loop_
_atom_site_type_symbol
_atom_site_label
_atom_site_fract_x
_atom_site_fract_y
_atom_site_fract_z
Si Si1 0.029681 0.681394 0.072592
Si Si2 0.256785 0.819868 0.803428
Si Si3 0.416264 0.320056 0.500276
Si Si4 0.406048 0.681804 0.204383
Si Si5 0.687050 0.680292 0.065717
Si Si6 0.138919 0.681239 0.633637
Si Si7 0.206103 0.318858 0.370068
O O1 0.033104 0.500000 0.080728
O O2 0.109251 0.751138 0.063722
O O3 0.972985 0.751346 0.143447
O O4 0.000000 0.714303 0.000000
O O5 0.170761 0.784722 0.816454
O O6 0.293405 0.726384 0.857573
O O7 0.291648 0.790445 0.716319
O O8 0.263552 0.000000 0.817066
O O9 0.500000 0.296731 0.500000
O O10 0.402237 0.500000 0.498774
O O11 0.398381 0.243095 0.428747
O O12 0.363818 0.248006 0.573320
O O13 0.411495 0.500000 0.209169
O O14 0.399351 0.753400 0.285224
O O15 0.685735 0.500000 0.057705
O O16 0.750000 0.750000 0.000000
O O17 0.138592 0.500000 0.635083
O O18 0.221635 0.742431 0.615610
O O19 0.210617 0.500000 0.379531
#
# Coordination Sequence:
#
# PCOD9210576 Si02
#       7
#     8   8   8   8   8   8   8
#     4  11  24  41  62  88 118 154 197 242 289 345
#     4   9  20  39  62  88 119 152 190 240 292 346
#     4  11  24  40  58  83 118 156 196 244 294 346
#     4  10  21  39  63  90 120 153 192 239 291 345
#     4  12  25  40  61  87 119 157 196 241 291 346
#     4  11  22  38  62  88 118 155 195 239 288 347
#     4  10  21  39  63  88 116 152 195 241 290 347
#
# _framework density 18.623891
#
# number of rings (size 3 to 8) (size 9 to 14) (size 15 to 20)
#    0.000    1.429    0.000    6.429    0.000    9.143 
#    0.000    2.857    0.000    0.000    0.000    0.000 
#    0.000    0.000    0.000    0.000    0.000    0.000 
#
# Total GULP energy -156612.695242 kJ/mol
# GULP energy per Si atom -5593.310544 kJ/mol
# Density = 1.858150 g / cm^3
# Si number density = 18.623891 Si / 1000 Ang^3
#
#
#
# Elastic Constant Matrix: (Units=GPa)
#
#
# Indices 1 2 3 4 5 6 
#
# 1 143.8181 104.8517 110.3605 0.0000 -8.6235 0.0000
# 2 104.8517 142.3708 92.3970 0.0000 1.7135 0.0000
# 3 110.3605 92.3970 120.6809 0.0000 -15.0848 0.0000
# 4 0.0000 0.0000 0.0000 34.2743 0.0000 -9.0353
# 5 -8.6235 1.7135 -15.0848 0.0000 33.9572 0.0000
# 6 0.0000 0.0000 0.0000 -9.0353 0.0000 16.4969
#
#
#
# Elastic Compliance Matrix: (Units=1/GPa)
#
#
# Indices 1 2 3 4 5 6 
#
# 1 0.026995 -0.007435 -0.019154 0.000000 -0.001278 0.000000
# 2 -0.007435 0.017166 -0.007081 0.000000 -0.005900 0.000000
# 3 -0.019154 -0.007081 0.032463 0.000000 0.009914 0.000000
# 4 0.000000 0.000000 0.000000 0.034100 0.000000 0.018676
# 5 -0.001278 -0.005900 0.009914 0.000000 0.033826 0.000000
# 6 0.000000 0.000000 0.000000 0.018676 0.000000 0.070846
#
#
# Mechanical properties :
#
#
# Convention : Reuss Voigt Hill
#
# Bulk Modulus (GPa) = 107.71077 113.56536 110.63806
# Shear Modulus (GPa) = 17.49285 23.56304 20.52794
#
# Velocity S-wave (km/s) = 3.06807 3.56083 3.32360
# Velocity P-wave (km/s) = 8.39709 8.83271 8.61765
#
# Compressibility (1/GPa) = 0.00928412
#
# Stress axis : x y z
#
# Youngs Moduli (GPa) = 37.04385 58.25364 30.80448
#
# Poissons Ratio (x) = 0.43312 0.59002
# Poissons Ratio (y) = 0.27543 0.21813
# Poissons Ratio (z) = 0.70952 0.41251
#
# Static dielectric constant tensor:
#      x y z
#    x 1.609060 0.000000 0.002740 
#    y 0.000000 1.618760 0.000000 
#    z 0.002740 0.000000 1.623410 
# 
# From -- ./inp_files/275347.got.cif
#   From: 2010.05.17/outbox.cif.g08.bks.cpg/sg12_138_cif.got.tgz:275347.got - 2010.06.03 13:09:07.
