data_PCOD9210006
_publ_section_title
;
Structure prediction by ZEFSAII (Michael W. Deem and Ramdas Pophale) SiO2 
 PCOD9210006
Probable space group: C 2/M
;
_chemical_formula_sum "Si O2"
_cell_formula_units_Z 56
_cell_length_a 23.678487
_cell_length_b 9.224267
_cell_length_c 15.511748
_cell_angle_alpha 90.000000
_cell_angle_beta 115.971370
_cell_angle_gamma 90.000000
_cell_volume 3045.878098
_symmetry_space_group_name_H-M "C 2/M"
_symmetry_group_IT_number 12
_symmetry_cell_setting 'monoclinic'
loop_
_space_group_symop_operation_xyz
x,y,z
-x,y,-z
-x,-y,-z
x,-y,z
1/2+x,1/2+y,z
1/2-x,1/2+y,-z
1/2-x,1/2-y,-z
1/2+x,1/2-y,z
loop_
_atom_site_type_symbol
_atom_site_label
_atom_site_fract_x
_atom_site_fract_y
_atom_site_fract_z
Si Si1 0.696143 0.827510 0.407866
Si Si2 0.712567 0.327259 0.236825
Si Si3 0.104535 0.329413 0.077966
Si Si4 0.080326 0.669383 0.457444
Si Si5 0.006879 0.329373 0.861371
Si Si6 0.641074 0.171527 0.684513
Si Si7 0.968826 0.828208 0.299390
O O1 0.750000 0.750000 0.500000
O O2 0.695806 0.755207 0.314093
O O3 0.630455 0.808924 0.414172
O O4 0.708208 0.000000 0.410051
O O5 0.706619 0.500000 0.245213
O O6 0.664725 0.269156 0.133215
O O7 0.785086 0.295893 0.263189
O O8 0.121291 0.500000 0.093040
O O9 0.054817 0.302103 0.122084
O O10 0.066083 0.305004 0.964332
O O11 0.061233 0.500000 0.444805
O O12 0.115806 0.698766 0.570691
O O13 0.019858 0.766456 0.400851
O O14 0.005947 0.500000 0.836616
O O15 0.011096 0.232804 0.780098
O O16 0.598504 0.263232 0.720106
O O17 0.632596 0.000000 0.696204
O O18 0.968138 0.000000 0.299932
#
# Coordination Sequence:
#
# PCOD9210006 Si02
#       7
#     8   8   8   8   8   8   8
#     4  11  21  35  56  83 115 149 187 230 276 330
#     4  11  22  37  57  86 118 151 189 229 284 340
#     4   9  19  37  63  91 113 144 187 229 277 337
#     4  10  21  39  59  79 109 154 195 226 277 343
#     4   9  19  39  63  85 114 149 186 225 277 344
#     4  10  22  41  58  75 109 157 198 227 272 342
#     4  12  25  37  55  86 114 142 190 243 287 325
#
# _framework density 18.385501999999999
#
# number of rings (size 3 to 8) (size 9 to 14) (size 15 to 20)
#    0.000    1.714    1.429    4.286    0.000    9.143 
#    0.000    2.143    0.000    0.000    0.000    0.000 
#    0.000    0.000    0.000    0.000    0.000    0.000 
#
# Total GULP energy -156505.760566 kJ/mol
# GULP energy per Si atom -5589.491449 kJ/mol
# Density = 1.834366 g / cm^3
# Si number density = 18.385502 Si / 1000 Ang^3
#
#
#
# Elastic Constant Matrix: (Units=GPa)
#
#
# Indices 1 2 3 4 5 6 
#
# 1 60.2231 54.1112 30.6810 0.0000 14.5586 0.0000
# 2 54.1112 75.7340 42.0662 0.0000 14.7179 0.0000
# 3 30.6810 42.0662 56.6332 0.0000 20.8155 0.0000
# 4 0.0000 0.0000 0.0000 33.4644 0.0000 4.4395
# 5 14.5586 14.7179 20.8155 0.0000 23.7121 0.0000
# 6 0.0000 0.0000 0.0000 4.4395 0.0000 24.8372
#
#
#
# Elastic Compliance Matrix: (Units=1/GPa)
#
#
# Indices 1 2 3 4 5 6 
#
# 1 0.048433 -0.034291 0.003453 0.000000 -0.011484 0.000000
# 2 -0.034291 0.046774 -0.019537 0.000000 0.009172 0.000000
# 3 0.003453 -0.019537 0.039301 0.000000 -0.024494 0.000000
# 4 0.000000 0.000000 0.000000 0.030608 0.000000 -0.005471
# 5 -0.011484 0.009172 -0.024494 0.000000 0.065032 0.000000
# 6 0.000000 0.000000 0.000000 -0.005471 0.000000 0.041240
#
#
# Mechanical properties :
#
#
# Convention : Reuss Voigt Hill
#
# Bulk Modulus (GPa) = 29.62227 49.58967 39.60597
# Shear Modulus (GPa) = 13.04153 20.78485 16.91319
#
# Velocity S-wave (km/s) = 2.66623 3.36594 3.03631
# Velocity P-wave (km/s) = 5.06212 6.49129 5.82073
#
# Compressibility (1/GPa) = 0.03375839
#
# Stress axis : x y z
#
# Youngs Moduli (GPa) = 20.64724 21.37941 25.44454
#
# Poissons Ratio (x) = 0.73312 -0.08787
# Poissons Ratio (y) = 0.70801 0.49711
# Poissons Ratio (z) = -0.07130 0.41769
#
# Static dielectric constant tensor:
#      x y z
#    x 1.620490 0.000000 0.005080 
#    y 0.000000 1.605880 0.000000 
#    z 0.005080 0.000000 1.633420 
# 
# From -- ./inp_files/238974.got.cif
#   From: 2010.05.17/outbox.cif.g08.bks.cpg/sg12_120_cif.got.tgz:238974.got - 2010.06.03 13:09:07.
