data_PCOD9210944
_publ_section_title
;
Structure prediction by ZEFSAII (Michael W. Deem and Ramdas Pophale) SiO2 
 PCOD9210944
Probable space group: C 2/M
;
_chemical_formula_sum "Si O2"
_cell_formula_units_Z 42
_cell_length_a 14.362496
_cell_length_b 17.540480
_cell_length_c 8.340267
_cell_angle_alpha 90.000000
_cell_angle_beta 112.969254
_cell_angle_gamma 90.000000
_cell_volume 1934.533620
_symmetry_space_group_name_H-M "C 2/M"
_symmetry_group_IT_number 12
_symmetry_cell_setting 'monoclinic'
loop_
_space_group_symop_operation_xyz
x,y,z
-x,y,-z
-x,-y,-z
x,-y,z
1/2+x,1/2+y,z
1/2-x,1/2+y,-z
1/2-x,1/2-y,-z
1/2+x,1/2-y,z
loop_
_atom_site_type_symbol
_atom_site_label
_atom_site_fract_x
_atom_site_fract_y
_atom_site_fract_z
Si Si1 0.916541 0.810009 0.322646
Si Si2 0.807125 0.707544 0.735965
Si Si3 0.843411 0.868046 0.926165
Si Si4 0.020703 0.352495 0.341222
Si Si5 0.145843 0.584942 0.962024
Si Si6 0.000000 0.000000 0.000000
O O1 0.813266 0.798356 0.351723
O O2 0.000000 0.845036 0.500000
O O3 0.959266 0.727526 0.301036
O O4 0.887386 0.851011 0.136417
O O5 0.840711 0.791648 0.816795
O O6 0.866540 0.672883 0.625555
O O7 0.838221 0.650575 0.898895
O O8 0.728857 0.896619 0.879939
O O9 0.914793 0.933155 0.906555
O O10 0.000000 0.387056 0.500000
O O11 0.967385 0.406394 0.178073
O O12 0.166297 0.500000 0.036640
#
# Coordination Sequence:
#
# PCOD9210944 Si02
#       6
#     8   8   8   8   8   2
#     4  10  21  39  64  97 130 168 214 267 322 386
#     4  11  22  42  70  94 126 176 219 263 322 388
#     4  11  21  42  65  98 128 168 218 269 317 387
#     4  11  23  38  62  98 128 168 213 265 325 384
#     4  11  22  42  66  93 130 169 218 269 319 381
#     4  12  24  36  70 100 126 168 222 268 322 376
#
# _framework density 21.710657999999999
#
# number of rings (size 3 to 8) (size 9 to 14) (size 15 to 20)
#    0.000    1.143    4.762    2.857    0.000    4.952 
#    3.429    0.476    0.000    1.143    0.000    0.000 
#    0.000    0.000    0.000    0.000    0.000    0.000 
#
# Total GULP energy -117041.449075 kJ/mol
# GULP energy per Si atom -5573.402337 kJ/mol
# Density = 2.166124 g / cm^3
# Si number density = 21.710658 Si / 1000 Ang^3
#
#
#
# Elastic Constant Matrix: (Units=GPa)
#
#
# Indices 1 2 3 4 5 6 
#
# 1 128.8560 15.4601 10.2157 0.0000 7.1451 0.0000
# 2 15.4601 109.8748 2.0037 0.0000 2.7010 0.0000
# 3 10.2157 2.0037 70.4954 0.0000 9.0808 0.0000
# 4 0.0000 0.0000 0.0000 -3.8766 0.0000 7.3213
# 5 7.1451 2.7010 9.0808 0.0000 21.8163 0.0000
# 6 0.0000 0.0000 0.0000 7.3213 0.0000 16.4167
#
#
#
# Elastic Compliance Matrix: (Units=1/GPa)
#
#
# Indices 1 2 3 4 5 6 
#
# 1 0.008077 -0.001068 -0.000863 0.000000 -0.002154 0.000000
# 2 -0.001068 0.009271 -0.000006 0.000000 -0.000795 0.000000
# 3 -0.000863 -0.000006 0.015083 0.000000 -0.005995 0.000000
# 4 0.000000 0.000000 0.000000 -0.140023 0.000000 0.062446
# 5 -0.002154 -0.000795 -0.005995 0.000000 0.049136 0.000000
# 6 0.000000 0.000000 0.000000 0.062446 0.000000 0.033065
#
#
# Mechanical properties :
#
#
# Convention : Reuss Voigt Hill
#
# Bulk Modulus (GPa) = 35.01757 40.50949 37.76353
# Shear Modulus (GPa) = -416.67465 25.64107 -195.51679
#
# Velocity S-wave (km/s) = -13.86861 3.44035 -9.50006
# Velocity P-wave (km/s) = 15.50119 5.87202 10.14412
#
# Compressibility (1/GPa) = 0.02855709
#
# Stress axis : x y z
#
# Youngs Moduli (GPa) = 123.81559 107.86121 66.30111
#
# Poissons Ratio (x) = 0.11517 0.05719
# Poissons Ratio (y) = 0.13220 0.00042
# Poissons Ratio (z) = 0.10680 0.00068
#
# Static dielectric constant tensor:
#      x y z
#    x 1.846620 0.000000 -0.027340 
#    y 0.000000 1.755840 0.000000 
#    z -0.027340 0.000000 1.867690 
# 
# From -- ./inp_files/61330.got.cif
#   From: 2010.05.17/outbox.cif.g08.bks.cpg/sg12_31_cif.got.tgz:61330.got - 2010.06.03 13:09:07.
