data_PCOD9210623
_publ_section_title
;
Structure prediction by ZEFSAII (Michael W. Deem and Ramdas Pophale) SiO2 
 PCOD9210623
Probable space group: C 2/M
;
_chemical_formula_sum "Si O2"
_cell_formula_units_Z 56
_cell_length_a 9.330759
_cell_length_b 17.483800
_cell_length_c 17.882028
_cell_angle_alpha 90.000000
_cell_angle_beta 72.395712
_cell_angle_gamma 90.000000
_cell_volume 2780.603358
_symmetry_space_group_name_H-M "C 2/M"
_symmetry_group_IT_number 12
_symmetry_cell_setting 'monoclinic'
loop_
_space_group_symop_operation_xyz
x,y,z
-x,y,-z
-x,-y,-z
x,-y,z
1/2+x,1/2+y,z
1/2-x,1/2+y,-z
1/2-x,1/2-y,-z
1/2+x,1/2-y,z
loop_
_atom_site_type_symbol
_atom_site_label
_atom_site_fract_x
_atom_site_fract_y
_atom_site_fract_z
Si Si1 0.322051 0.913627 0.127766
Si Si2 0.876947 0.407929 0.583938
Si Si3 0.984351 0.690803 0.705928
Si Si4 0.818548 0.846582 0.700184
Si Si5 0.088751 0.697662 0.108408
Si Si6 0.061820 0.911961 0.565802
Si Si7 0.869730 0.142185 0.971683
O O1 0.231776 0.879777 0.212311
O O2 0.459970 0.855958 0.094321
O O3 0.215566 0.910626 0.073041
O O4 0.373455 0.000000 0.134782
O O5 0.874187 0.500000 0.595240
O O6 0.919737 0.368153 0.655224
O O7 0.713493 0.381187 0.579741
O O8 0.000000 0.391173 0.500000
O O9 0.928110 0.773995 0.689883
O O10 0.921582 0.684552 0.800897
O O11 0.163857 0.678194 0.683978
O O12 0.918994 0.908498 0.642298
O O13 0.066437 0.785307 0.085981
O O14 0.247628 0.674192 0.049274
O O15 0.000000 0.873120 0.500000
O O16 0.101540 0.000000 0.541123
O O17 0.000000 0.105661 0.000000
#
# Coordination Sequence:
#
# PCOD9210623 Si02
#       7
#     8   8   8   8   8   8   8
#     4  11  24  42  64  93 130 170 214 272 334 393
#     4  10  22  41  65  96 133 170 214 269 329 389
#     4  11  23  38  64  91 126 167 214 264 321 390
#     4  11  23  40  62  92 126 165 216 270 324 393
#     4  10  22  40  62  92 124 171 215 263 320 400
#     4  10  21  39  63  89 124 168 210 258 321 387
#     4  11  22  38  66  91 126 166 218 264 325 388
#
# _framework density 20.139514999999999
#
# number of rings (size 3 to 8) (size 9 to 14) (size 15 to 20)
#    0.000    1.429    1.429    4.286    2.000    7.143 
#    0.000    2.857    0.000    0.000    0.000    0.000 
#    0.000    0.000    0.000    0.000    0.000    0.000 
#
# Total GULP energy -156343.793009 kJ/mol
# GULP energy per Si atom -5583.706893 kJ/mol
# Density = 2.009368 g / cm^3
# Si number density = 20.139515 Si / 1000 Ang^3
#
#
#
# Elastic Constant Matrix: (Units=GPa)
#
#
# Indices 1 2 3 4 5 6 
#
# 1 136.7697 22.2424 57.2334 0.0000 17.4118 0.0000
# 2 22.2424 72.8970 18.5081 0.0000 4.4452 0.0000
# 3 57.2334 18.5081 100.6376 0.0000 8.3821 0.0000
# 4 0.0000 0.0000 0.0000 39.5715 0.0000 1.3266
# 5 17.4118 4.4452 8.3821 0.0000 36.1023 0.0000
# 6 0.0000 0.0000 0.0000 1.3266 0.0000 26.4830
#
#
#
# Elastic Compliance Matrix: (Units=1/GPa)
#
#
# Indices 1 2 3 4 5 6 
#
# 1 0.010198 -0.001573 -0.005218 0.000000 -0.003513 0.000000
# 2 -0.001573 0.014682 -0.001752 0.000000 -0.000642 0.000000
# 3 -0.005218 -0.001752 0.013255 0.000000 -0.000345 0.000000
# 4 0.000000 0.000000 0.000000 0.025313 0.000000 -0.001268
# 5 -0.003513 -0.000642 -0.000345 0.000000 0.029553 0.000000
# 6 0.000000 0.000000 0.000000 -0.001268 0.000000 0.037824
#
#
# Mechanical properties :
#
#
# Convention : Reuss Voigt Hill
#
# Bulk Modulus (GPa) = 47.50692 56.25246 51.87969
# Shear Modulus (GPa) = 32.27331 34.58605 33.42968
#
# Velocity S-wave (km/s) = 4.00745 4.14856 4.07861
# Velocity P-wave (km/s) = 6.71215 7.13718 6.92793
#
# Compressibility (1/GPa) = 0.02104956
#
# Stress axis : x y z
#
# Youngs Moduli (GPa) = 98.05749 68.11117 75.44262
#
# Poissons Ratio (x) = 0.10711 0.39365
# Poissons Ratio (y) = 0.15421 0.13219
# Poissons Ratio (z) = 0.51165 0.11935
#
# Static dielectric constant tensor:
#      x y z
#    x 1.716880 0.000000 0.014020 
#    y 0.000000 1.729970 0.000000 
#    z 0.014020 0.000000 1.722060 
# 
# From -- ./inp_files/257053.got.cif
#   From: 2010.05.17/outbox.cif.g08.bks.cpg/sg12_129_cif.got.tgz:257053.got - 2010.06.03 13:09:07.
