data_PCOD9210288
_publ_section_title
;
Structure prediction by ZEFSAII (Michael W. Deem and Ramdas Pophale) SiO2 
 PCOD9210288
Probable space group: C 2/M
;
_chemical_formula_sum "Si O2"
_cell_formula_units_Z 56
_cell_length_a 25.999854
_cell_length_b 7.804879
_cell_length_c 13.724541
_cell_angle_alpha 90.000000
_cell_angle_beta 67.957118
_cell_angle_gamma 90.000000
_cell_volume 2581.483223
_symmetry_space_group_name_H-M "C 2/M"
_symmetry_group_IT_number 12
_symmetry_cell_setting 'monoclinic'
loop_
_space_group_symop_operation_xyz
x,y,z
-x,y,-z
-x,-y,-z
x,-y,z
1/2+x,1/2+y,z
1/2-x,1/2+y,-z
1/2-x,1/2-y,-z
1/2+x,1/2-y,z
loop_
_atom_site_type_symbol
_atom_site_label
_atom_site_fract_x
_atom_site_fract_y
_atom_site_fract_z
Si Si1 0.510908 0.298088 0.384659
Si Si2 0.080485 0.208354 0.700808
Si Si3 0.296930 0.294690 0.389653
Si Si4 0.251849 0.710512 0.213668
Si Si5 0.937783 0.298199 0.063008
Si Si6 0.367016 0.802457 0.759982
Si Si7 0.839212 0.801759 0.994648
O O1 0.500000 0.224676 0.500000
O O2 0.497827 0.500000 0.399619
O O3 0.468725 0.227559 0.333538
O O4 0.574592 0.281684 0.307167
O O5 0.141751 0.262725 0.622739
O O6 0.074271 0.271951 0.815116
O O7 0.078447 0.000000 0.705781
O O8 0.299144 0.500000 0.380893
O O9 0.250000 0.250000 0.500000
O O10 0.280824 0.231993 0.292889
O O11 0.252389 0.500000 0.211379
O O12 0.188142 0.767763 0.253101
O O13 0.287147 0.766009 0.094246
O O14 0.935964 0.500000 0.040024
O O15 0.891764 0.208986 0.029515
O O16 0.000000 0.233746 0.000000
O O17 0.372872 0.000000 0.727351
O O18 0.353625 0.791107 0.884344
O O19 0.828656 0.000000 0.977402
#
# Coordination Sequence:
#
# PCOD9210288 Si02
#       7
#     8   8   8   8   8   8   8
#     4  10  23  42  63  88 118 158 206 248 289 350
#     4  10  21  40  63  85 117 158 199 243 293 350
#     4  10  21  39  61  89 118 152 197 246 297 352
#     4   9  20  39  61  86 121 157 195 241 296 356
#     4  11  23  37  57  88 123 155 194 246 296 350
#     4  11  23  39  60  89 123 158 196 246 301 353
#     4  11  21  39  63  87 119 159 199 241 292 355
#
# _framework density 21.692954
#
# number of rings (size 3 to 8) (size 9 to 14) (size 15 to 20)
#    0.000    1.714    1.429    2.571    2.000    4.857 
#    0.000    2.857    0.000    0.000    0.000    0.000 
#    0.000    0.000    0.000    0.000    0.000    0.000 
#
# Total GULP energy -156519.999277 kJ/mol
# GULP energy per Si atom -5589.999974 kJ/mol
# Density = 2.164358 g / cm^3
# Si number density = 21.692954 Si / 1000 Ang^3
#
#
#
# Elastic Constant Matrix: (Units=GPa)
#
#
# Indices 1 2 3 4 5 6 
#
# 1 130.2866 -2.1886 22.5964 0.0000 -17.0683 0.0000
# 2 -2.1886 26.8976 -10.3957 0.0000 3.4774 0.0000
# 3 22.5964 -10.3957 81.4826 0.0000 -19.8416 0.0000
# 4 0.0000 0.0000 0.0000 24.8389 0.0000 -2.3988
# 5 -17.0683 3.4774 -19.8416 0.0000 36.6815 0.0000
# 6 0.0000 0.0000 0.0000 -2.3988 0.0000 13.7506
#
#
#
# Elastic Compliance Matrix: (Units=1/GPa)
#
#
# Indices 1 2 3 4 5 6 
#
# 1 0.008349 -0.000339 -0.001618 0.000000 0.003042 0.000000
# 2 -0.000339 0.039163 0.004777 0.000000 -0.001286 0.000000
# 3 -0.001618 0.004777 0.015015 0.000000 0.006916 0.000000
# 4 0.000000 0.000000 0.000000 0.040949 0.000000 0.007143
# 5 0.003042 -0.001286 0.006916 0.000000 0.032540 0.000000
# 6 0.000000 0.000000 0.000000 0.007143 0.000000 0.073970
#
#
# Mechanical properties :
#
#
# Convention : Reuss Voigt Hill
#
# Bulk Modulus (GPa) = 14.66979 28.74346 21.70663
# Shear Modulus (GPa) = 22.01983 30.29784 26.15884
#
# Velocity S-wave (km/s) = 3.18947 3.74126 3.47633
# Velocity P-wave (km/s) = 4.51008 5.65169 5.11284
#
# Compressibility (1/GPa) = 0.06816729
#
# Stress axis : x y z
#
# Youngs Moduli (GPa) = 119.77807 25.53424 66.60079
#
# Poissons Ratio (x) = 0.00866 0.10775
# Poissons Ratio (y) = 0.04063 -0.31817
# Poissons Ratio (z) = 0.19378 -0.12199
#
# Static dielectric constant tensor:
#      x y z
#    x 1.790480 0.000000 -0.006630 
#    y 0.000000 1.800850 0.000000 
#    z -0.006630 0.000000 1.746070 
# 
# From -- ./inp_files/180812.got.cif
#   From: 2010.05.17/outbox.cif.g08.bks.cpg/sg12_91_cif.got.tgz:180812.got - 2010.06.03 13:09:07.
