data_PCOD9210315
_publ_section_title
;
Structure prediction by ZEFSAII (Michael W. Deem and Ramdas Pophale) SiO2 
 PCOD9210315
Probable space group: C 2/M
;
_chemical_formula_sum "Si O2"
_cell_formula_units_Z 50
_cell_length_a 29.426325
_cell_length_b 7.767164
_cell_length_c 29.424420
_cell_angle_alpha 90.000000
_cell_angle_beta 160.817049
_cell_angle_gamma 90.000000
_cell_volume 2209.810180
_symmetry_space_group_name_H-M "C 2/M"
_symmetry_group_IT_number 12
_symmetry_cell_setting 'monoclinic'
loop_
_space_group_symop_operation_xyz
x,y,z
-x,y,-z
-x,-y,-z
x,-y,z
1/2+x,1/2+y,z
1/2-x,1/2+y,-z
1/2-x,1/2-y,-z
1/2+x,1/2-y,z
loop_
_atom_site_type_symbol
_atom_site_label
_atom_site_fract_x
_atom_site_fract_y
_atom_site_fract_z
Si Si1 0.364570 0.704641 0.230682
Si Si2 0.825149 0.207048 0.618194
Si Si3 0.000000 0.500000 0.000000
Si Si4 0.633988 0.687126 0.078689
Si Si5 0.835854 0.799391 0.346365
Si Si6 0.343983 0.206770 0.454514
Si Si7 0.603065 0.706595 0.840880
O O1 0.342006 0.500000 0.207490
O O2 0.227884 0.786976 0.122747
O O3 0.497480 0.737920 0.387724
O O4 0.403144 0.770708 0.216888
O O5 0.750000 0.250000 0.500000
O O6 0.744598 0.272526 0.586264
O O7 0.980434 0.272245 0.757110
O O8 0.827233 0.000000 0.624740
O O9 0.964667 0.346628 0.004097
O O10 0.565255 0.500000 0.012231
O O11 0.745947 0.694784 0.225753
O O12 0.793351 0.773293 0.358211
O O13 0.000000 0.762296 0.500000
O O14 0.811686 0.000000 0.310657
O O15 0.340344 0.000000 0.449970
O O16 0.587305 0.500000 0.823596
O O17 0.750000 0.750000 0.000000
#
# Coordination Sequence:
#
# PCOD9210315 Si02
#       7
#     8   8   2   8   8   8   8
#     4  11  21  40  66  95 129 172 222 278 340 413
#     4  10  21  39  61  91 128 165 217 278 335 402
#     4  12  26  52  66  94 136 176 242 278 328 410
#     4  12  25  45  72  98 133 182 226 282 339 402
#     4  11  22  39  64  95 134 171 213 275 340 405
#     4  11  22  35  61  99 131 166 218 278 344 417
#     4  10  23  42  64  90 131 177 223 279 338 408
#
# _framework density 22.626377000000002
#
# number of rings (size 3 to 8) (size 9 to 14) (size 15 to 20)
#    0.000    1.120    4.800    1.680    0.000    3.200 
#    2.880    0.000    0.000    0.000    0.000    0.000 
#    0.000    0.000    0.000    0.000    0.000    0.000 
#
# Total GULP energy -139628.681383 kJ/mol
# GULP energy per Si atom -5585.147255 kJ/mol
# Density = 2.257488 g / cm^3
# Si number density = 22.626377 Si / 1000 Ang^3
#
#
#
# Elastic Constant Matrix: (Units=GPa)
#
#
# Indices 1 2 3 4 5 6 
#
# 1 123.0372 6.0702 11.0147 0.0001 24.2090 0.0001
# 2 6.0702 100.9484 8.7961 -0.0027 16.7061 -0.0012
# 3 11.0147 8.7961 27.7542 -0.0030 7.3364 -0.0016
# 4 0.0001 -0.0027 -0.0030 23.3392 -0.0012 -0.0020
# 5 24.2090 16.7061 7.3364 -0.0012 42.5233 -0.0003
# 6 0.0001 -0.0012 -0.0016 -0.0020 -0.0003 21.5428
#
#
#
# Elastic Compliance Matrix: (Units=1/GPa)
#
#
# Indices 1 2 3 4 5 6 
#
# 1 0.009326 0.000498 -0.002519 -0.000001 -0.005071 0.000000
# 2 0.000498 0.010772 -0.002533 0.000001 -0.004078 0.000000
# 3 -0.002519 -0.002533 0.038968 0.000005 -0.004294 0.000003
# 4 -0.000001 0.000001 0.000005 0.042846 0.000000 0.000004
# 5 -0.005071 -0.004078 -0.004294 0.000000 0.028746 0.000000
# 6 0.000000 0.000000 0.000003 0.000004 0.000000 0.046419
#
#
# Mechanical properties :
#
#
# Convention : Reuss Voigt Hill
#
# Bulk Modulus (GPa) = 20.01705 33.72243 26.86974
# Shear Modulus (GPa) = 24.65008 32.53832 28.59420
#
# Velocity S-wave (km/s) = 3.30425 3.79630 3.55879
# Velocity P-wave (km/s) = 4.83977 5.84400 5.36543
#
# Compressibility (1/GPa) = 0.04995741
#
# Stress axis : x y z
#
# Youngs Moduli (GPa) = 107.22432 92.83513 25.66199
#
# Poissons Ratio (x) = -0.04621 0.06464
# Poissons Ratio (y) = -0.05338 0.06501
# Poissons Ratio (z) = 0.27007 0.23519
#
# Static dielectric constant tensor:
#      x y z
#    x 1.877120 0.000080 0.057730 
#    y 0.000080 2.095500 0.000460 
#    z 0.057730 0.000460 1.867180 
# 
# From -- ./inp_files/384863.got.cif
#   From: 2010.05.17/outbox.cif.g08.bks.cpg/sg12_193_cif.got.tgz:384863.got - 2010.06.03 13:09:07.
