data_PCOD9210123
_publ_section_title
;
Structure prediction by ZEFSAII (Michael W. Deem and Ramdas Pophale) SiO2 
 PCOD9210123
Probable space group: C 2/M
;
_chemical_formula_sum "Si O2"
_cell_formula_units_Z 40
_cell_length_a 16.057127
_cell_length_b 10.563506
_cell_length_c 11.741364
_cell_angle_alpha 90.000000
_cell_angle_beta 67.532999
_cell_angle_gamma 90.000000
_cell_volume 1840.404751
_symmetry_space_group_name_H-M "C 2/M"
_symmetry_group_IT_number 12
_symmetry_cell_setting 'monoclinic'
loop_
_space_group_symop_operation_xyz
x,y,z
-x,y,-z
-x,-y,-z
x,-y,z
1/2+x,1/2+y,z
1/2-x,1/2+y,-z
1/2-x,1/2-y,-z
1/2+x,1/2-y,z
loop_
_atom_site_type_symbol
_atom_site_label
_atom_site_fract_x
_atom_site_fract_y
_atom_site_fract_z
Si Si1 0.015250 0.218319 0.745797
Si Si2 0.000000 0.288640 0.500000
Si Si3 0.678255 0.268361 0.138968
Si Si4 0.415495 0.000000 0.253329
Si Si5 0.721286 0.000000 0.127702
Si Si6 0.730360 0.000000 0.849254
Si Si7 0.649645 0.000000 0.466930
Si Si8 0.651505 0.500000 0.747047
O O1 0.033481 0.366417 0.763062
O O2 0.000383 0.210356 0.617040
O O3 0.918799 0.186145 0.851535
O O4 0.093349 0.124014 0.745464
O O5 0.912439 0.379813 0.535031
O O6 0.717261 0.371214 0.205146
O O7 0.671519 0.127375 0.191280
O O8 0.750000 0.250000 0.000000
O O9 0.364362 0.000000 0.161166
O O10 0.347827 0.000000 0.396476
O O11 0.818674 0.000000 0.136101
O O12 0.723429 0.000000 0.989915
O O13 0.750794 0.000000 0.366301
#
# Coordination Sequence:
#
# PCOD9210123 Si02
#       8
#     8   4   8   4   4   4   4   4
#     4  11  23  39  61  92 122 155 200 251 300 355
#     4   9  20  39  64  86 118 164 204 236 292 376
#     4  10  21  40  61  83 116 162 203 239 296 359
#     4  10  22  40  62  89 117 153 206 250 286 354
#     4  10  21  40  61  81 115 167 202 234 298 362
#     4  10  21  39  60  85 115 155 199 245 295 346
#     4   9  20  39  63  90 120 160 198 243 304 363
#     4  12  24  37  60  95 128 151 193 259 311 349
#
# _framework density 21.734349999999999
#
# number of rings (size 3 to 8) (size 9 to 14) (size 15 to 20)
#    0.000    1.800    0.000    4.200    0.000    5.200 
#    0.000   24.000    0.000    0.000    0.000    0.000 
#    0.000    0.000    0.000    0.000    0.000    0.000 
#
# Total GULP energy -111593.355545 kJ/mol
# GULP energy per Si atom -5579.667777 kJ/mol
# Density = 2.168488 g / cm^3
# Si number density = 21.734350 Si / 1000 Ang^3
#
#
#
# Elastic Constant Matrix: (Units=GPa)
#
#
# Indices 1 2 3 4 5 6 
#
# 1 150.9256 33.1744 55.6491 0.0000 -1.4572 0.0000
# 2 33.1744 105.2349 0.5384 0.0000 3.8773 0.0000
# 3 55.6491 0.5384 93.8502 0.0000 0.9940 0.0000
# 4 0.0000 0.0000 0.0000 -10.2201 0.0000 4.7774
# 5 -1.4572 3.8773 0.9940 0.0000 52.2791 0.0000
# 6 0.0000 0.0000 0.0000 4.7774 0.0000 34.1893
#
#
#
# Elastic Compliance Matrix: (Units=1/GPa)
#
#
# Indices 1 2 3 4 5 6 
#
# 1 0.009305 -0.002927 -0.005507 0.000000 0.000581 0.000000
# 2 -0.002927 0.010449 0.001685 0.000000 -0.000889 0.000000
# 3 -0.005507 0.001685 0.013917 0.000000 -0.000543 0.000000
# 4 0.000000 0.000000 0.000000 -0.091847 0.000000 0.012834
# 5 0.000581 -0.000889 -0.000543 0.000000 0.019221 0.000000
# 6 0.000000 0.000000 0.000000 0.012834 0.000000 0.027456
#
#
# Mechanical properties :
#
#
# Convention : Reuss Voigt Hill
#
# Bulk Modulus (GPa) = 49.56945 58.74831 54.15888
# Shear Modulus (GPa) = 573.24656 32.62624 302.93640
#
# Velocity S-wave (km/s) = 16.25804 3.87865 11.81880
# Velocity P-wave (km/s) = 19.37236 6.86640 14.53334
#
# Compressibility (1/GPa) = 0.02017371
#
# Stress axis : x y z
#
# Youngs Moduli (GPa) = 107.46686 95.70056 71.85587
#
# Poissons Ratio (x) = 0.28008 0.39571
# Poissons Ratio (y) = 0.31451 -0.12106
# Poissons Ratio (z) = 0.59181 -0.16124
#
# Static dielectric constant tensor:
#      x y z
#    x 1.765450 0.000000 0.006800 
#    y 0.000000 1.846490 0.000000 
#    z 0.006800 0.000000 1.667310 
# 
# From -- ./inp_files/140914.got.cif
#   From: 2010.05.17/outbox.cif.g08.bks.cpg/sg12_71_cif.got.tgz:140914.got - 2010.06.03 13:09:07.
