data_PCOD9210690
_publ_section_title
;
Structure prediction by ZEFSAII (Michael W. Deem and Ramdas Pophale) SiO2 
 PCOD9210690
Probable space group: C 2/M
;
_chemical_formula_sum "Si O2"
_cell_formula_units_Z 48
_cell_length_a 14.749992
_cell_length_b 28.568331
_cell_length_c 9.257968
_cell_angle_alpha 90.000000
_cell_angle_beta 36.431746
_cell_angle_gamma 90.000000
_cell_volume 2316.753819
_symmetry_space_group_name_H-M "C 2/M"
_symmetry_group_IT_number 12
_symmetry_cell_setting 'monoclinic'
loop_
_space_group_symop_operation_xyz
x,y,z
-x,y,-z
-x,-y,-z
x,-y,z
1/2+x,1/2+y,z
1/2-x,1/2+y,-z
1/2-x,1/2-y,-z
1/2+x,1/2-y,z
loop_
_atom_site_type_symbol
_atom_site_label
_atom_site_fract_x
_atom_site_fract_y
_atom_site_fract_z
Si Si1 0.659758 0.948210 0.876066
Si Si2 0.704148 0.185928 0.444610
Si Si3 0.174834 0.891695 0.873307
Si Si4 0.681318 0.217543 0.793490
Si Si5 0.867782 0.054896 0.334641
Si Si6 0.868697 0.643731 0.894684
O O1 0.781874 0.937350 0.594586
O O2 0.695832 0.000000 0.894484
O O3 0.500000 0.952581 0.000000
O O4 0.638950 0.904373 0.006088
O O5 0.835275 0.153247 0.215865
O O6 0.726505 0.191670 0.587332
O O7 0.720665 0.235027 0.339422
O O8 0.539321 0.161378 0.638920
O O9 0.229571 0.929799 0.682463
O O10 0.277876 0.870927 0.868319
O O11 0.023409 0.915511 0.129596
O O12 0.500000 0.228217 0.000000
O O13 0.695684 0.185027 0.916734
O O14 0.901758 0.000000 0.280006
#
# Coordination Sequence:
#
# PCOD9210690 Si02
#       6
#     8   8   8   8   8   8
#     4  10  21  40  66  92 122 165 209 257 321 395
#     4  10  21  39  63  91 126 171 215 261 312 385
#     4  11  22  36  62  90 125 162 203 263 327 370
#     4   9  20  39  65  91 124 171 224 263 313 375
#     4  10  23  43  65  92 125 167 219 266 319 398
#     4  11  22  39  62  95 130 167 211 271 319 378
#
# _framework density 20.718644999999999
#
# number of rings (size 3 to 8) (size 9 to 14) (size 15 to 20)
#    0.000    1.833    0.000    5.000    2.333    2.667 
#    3.000    2.500    0.000    8.000    0.000    0.000 
#    0.000    0.000    0.000    0.000    0.000    0.000 
#
# Total GULP energy -133757.809215 kJ/mol
# GULP energy per Si atom -5573.242051 kJ/mol
# Density = 2.067149 g / cm^3
# Si number density = 20.718645 Si / 1000 Ang^3
#
#
#
# Elastic Constant Matrix: (Units=GPa)
#
#
# Indices 1 2 3 4 5 6 
#
# 1 58.1829 68.1798 53.7587 0.0000 2.3919 0.0000
# 2 68.1798 159.3579 100.2882 0.0000 3.2235 0.0000
# 3 53.7587 100.2882 126.4759 0.0000 2.6023 0.0000
# 4 0.0000 0.0000 0.0000 57.0174 0.0000 -2.7480
# 5 2.3919 3.2235 2.6023 0.0000 15.6062 0.0000
# 6 0.0000 0.0000 0.0000 -2.7480 0.0000 -1.0581
#
#
#
# Elastic Compliance Matrix: (Units=1/GPa)
#
#
# Indices 1 2 3 4 5 6 
#
# 1 0.036900 -0.011779 -0.006300 0.000000 -0.002172 0.000000
# 2 -0.011779 0.016299 -0.007913 0.000000 -0.000242 0.000000
# 3 -0.006300 -0.007913 0.016863 0.000000 -0.000212 0.000000
# 4 0.000000 0.000000 0.000000 0.015588 0.000000 -0.040480
# 5 -0.002172 -0.000242 -0.000212 0.000000 0.064495 0.000000
# 6 0.000000 0.000000 0.000000 -0.040480 0.000000 -0.839926
#
#
# Mechanical properties :
#
#
# Convention : Reuss Voigt Hill
#
# Bulk Modulus (GPa) = 55.31119 87.60778 71.45948
# Shear Modulus (GPa) = -7.91424 22.43242 7.25909
#
# Velocity S-wave (km/s) = -1.95657 3.29404 1.87383
# Velocity P-wave (km/s) = 4.65296 7.53949 6.26474
#
# Compressibility (1/GPa) = 0.01807952
#
# Stress axis : x y z
#
# Youngs Moduli (GPa) = 27.10060 61.35259 59.30082
#
# Poissons Ratio (x) = 0.72265 0.37358
# Poissons Ratio (y) = 0.31921 0.46924
# Poissons Ratio (z) = 0.17073 0.48548
#
# Static dielectric constant tensor:
#      x y z
#    x 1.917330 0.000000 0.288100 
#    y 0.000000 1.789520 0.000000 
#    z 0.288100 0.000000 2.401100 
# 
# From -- ./inp_files/67328.got.cif
#   From: 2010.05.17/outbox.cif.g08.bks.cpg/sg12_34_cif.got.tgz:67328.got - 2010.06.03 13:09:07.
