data_PCOD9210213
_publ_section_title
;
Structure prediction by ZEFSAII (Michael W. Deem and Ramdas Pophale) SiO2 
 PCOD9210213
Probable space group: C 2/M
;
_chemical_formula_sum "Si O2"
_cell_formula_units_Z 48
_cell_length_a 29.794927
_cell_length_b 7.712835
_cell_length_c 8.481514
_cell_angle_alpha 90.000000
_cell_angle_beta 88.961939
_cell_angle_gamma 90.000000
_cell_volume 1948.760498
_symmetry_space_group_name_H-M "C 2/M"
_symmetry_group_IT_number 12
_symmetry_cell_setting 'monoclinic'
loop_
_space_group_symop_operation_xyz
x,y,z
-x,y,-z
-x,-y,-z
x,-y,z
1/2+x,1/2+y,z
1/2-x,1/2+y,-z
1/2-x,1/2-y,-z
1/2+x,1/2-y,z
loop_
_atom_site_type_symbol
_atom_site_label
_atom_site_fract_x
_atom_site_fract_y
_atom_site_fract_z
Si Si1 0.728553 0.707949 0.833523
Si Si2 0.314453 0.789051 0.655892
Si Si3 0.641746 0.296278 0.679081
Si Si4 0.393564 0.199755 0.857885
Si Si5 0.474332 0.699422 0.653414
Si Si6 0.556169 0.200050 0.841974
O O1 0.725881 0.500000 0.820551
O O2 0.764174 0.769033 0.699426
O O3 0.678526 0.773164 0.802234
O O4 0.750000 0.750000 0.000000
O O5 0.334968 0.727765 0.490887
O O6 0.347422 0.725981 0.794065
O O7 0.315406 0.000000 0.655280
O O8 0.633815 0.500000 0.704454
O O9 0.593934 0.207517 0.703803
O O10 0.429712 0.208254 0.714658
O O11 0.384664 0.000000 0.900154
O O12 0.418421 0.277895 0.007666
O O13 0.500000 0.774019 0.500000
O O14 0.462306 0.500000 0.618380
O O15 0.511319 0.707478 0.789188
O O16 0.544056 0.000000 0.875111
#
# Coordination Sequence:
#
# PCOD9210213 Si02
#       6
#     8   8   8   8   8   8
#     4  10  22  39  60  87 119 155 196 241 288 341
#     4  10  21  39  61  85 116 155 196 237 285 344
#     4  11  23  38  58  88 121 152 192 241 291 341
#     4  10  22  39  60  86 114 149 195 240 284 341
#     4  11  24  40  59  86 119 152 189 237 291 344
#     4  11  23  40  62  86 115 153 195 238 286 344
#
# _framework density 24.631039999999999
#
# number of rings (size 3 to 8) (size 9 to 14) (size 15 to 20)
#    0.000    1.500    0.000    4.500    0.000   11.333 
#    0.000    0.000    0.000    0.000    0.000    0.000 
#    0.000    0.000    0.000    0.000    0.000    0.000 
#
# Total GULP energy -134359.479251 kJ/mol
# GULP energy per Si atom -5598.311635 kJ/mol
# Density = 2.457498 g / cm^3
# Si number density = 24.631040 Si / 1000 Ang^3
#
#
#
# Elastic Constant Matrix: (Units=GPa)
#
#
# Indices 1 2 3 4 5 6 
#
# 1 108.2580 2.0576 -9.9230 0.0000 -1.6974 0.0000
# 2 2.0576 57.4280 -7.3312 0.0000 -2.1522 0.0000
# 3 -9.9230 -7.3312 64.3768 0.0000 -2.3460 0.0000
# 4 0.0000 0.0000 0.0000 22.5279 0.0000 1.3949
# 5 -1.6974 -2.1522 -2.3460 0.0000 45.6101 0.0000
# 6 0.0000 0.0000 0.0000 1.3949 0.0000 1.7239
#
#
#
# Elastic Compliance Matrix: (Units=1/GPa)
#
#
# Indices 1 2 3 4 5 6 
#
# 1 0.009379 -0.000136 0.001445 0.000000 0.000417 0.000000
# 2 -0.000136 0.017712 0.002030 0.000000 0.000935 0.000000
# 3 0.001445 0.002030 0.016023 0.000000 0.000974 0.000000
# 4 0.000000 0.000000 0.000000 0.046731 0.000000 -0.037813
# 5 0.000417 0.000935 0.000974 0.000000 0.022035 0.000000
# 6 0.000000 0.000000 0.000000 -0.037813 0.000000 0.610689
#
#
# Mechanical properties :
#
#
# Convention : Reuss Voigt Hill
#
# Bulk Modulus (GPa) = 20.08302 22.18551 21.13426
# Shear Modulus (GPa) = 6.82606 30.32299 18.57452
#
# Velocity S-wave (km/s) = 1.66654 3.51249 2.74909
# Velocity P-wave (km/s) = 3.44592 5.04746 4.32153
#
# Compressibility (1/GPa) = 0.04979331
#
# Stress axis : x y z
#
# Youngs Moduli (GPa) = 106.62347 56.45828 62.41022
#
# Poissons Ratio (x) = 0.00767 -0.09021
# Poissons Ratio (y) = 0.01449 -0.12670
# Poissons Ratio (z) = -0.15411 -0.11462
#
# Static dielectric constant tensor:
#      x y z
#    x 1.918760 0.000000 0.021450 
#    y 0.000000 1.917540 0.000000 
#    z 0.021450 0.000000 2.005870 
# 
# From -- ./inp_files/108744.got.cif
#   From: 2010.05.17/outbox.cif.g08.bks.cpg/sg12_55_cif.got.tgz:108744.got - 2010.06.03 13:09:07.
