data_PCOD9210935
_publ_section_title
;
Structure prediction by ZEFSAII (Michael W. Deem and Ramdas Pophale) SiO2 
 PCOD9210935
Probable space group: C 2/M
;
_chemical_formula_sum "Si O2"
_cell_formula_units_Z 60
_cell_length_a 20.247941
_cell_length_b 9.388948
_cell_length_c 27.641285
_cell_angle_alpha 90.000000
_cell_angle_beta 142.307874
_cell_angle_gamma 90.000000
_cell_volume 3212.879678
_symmetry_space_group_name_H-M "C 2/M"
_symmetry_group_IT_number 12
_symmetry_cell_setting 'monoclinic'
loop_
_space_group_symop_operation_xyz
x,y,z
-x,y,-z
-x,-y,-z
x,-y,z
1/2+x,1/2+y,z
1/2-x,1/2+y,-z
1/2-x,1/2-y,-z
1/2+x,1/2-y,z
loop_
_atom_site_type_symbol
_atom_site_label
_atom_site_fract_x
_atom_site_fract_y
_atom_site_fract_z
Si Si1 0.377070 0.671284 0.915178
Si Si2 0.212782 0.832260 0.241257
Si Si3 0.959120 0.667680 0.349042
Si Si4 0.221193 0.228891 0.908777
Si Si5 0.504303 0.664495 0.728697
Si Si6 0.679311 0.168265 0.320462
Si Si7 0.705810 0.000000 0.969654
Si Si8 0.078036 0.166468 0.499644
O O1 0.362537 0.500000 0.910961
O O2 0.350553 0.707671 0.844336
O O3 0.296190 0.744242 0.905604
O O4 0.500000 0.704979 0.000000
O O5 0.339721 0.816680 0.302833
O O6 0.180879 0.736328 0.268009
O O7 0.192052 0.000000 0.239809
O O8 0.977614 0.500000 0.351180
O O9 0.965394 0.754433 0.303040
O O10 0.043820 0.732896 0.435994
O O11 0.200893 0.375707 0.924907
O O12 0.106851 0.170415 0.823780
O O13 0.278420 0.122921 0.979043
O O14 0.476337 0.500000 0.702917
O O15 0.406349 0.747823 0.696941
O O16 0.799002 0.184864 0.412219
O O17 0.654199 0.000000 0.303813
O O18 0.000000 0.196054 0.500000
O O19 0.061774 0.000000 0.476733
#
# Coordination Sequence:
#
# PCOD9210935 Si02
#       8
#     8   8   8   8   8   8   4   8
#     4  10  21  40  66  92 128 170 215 262 314 378
#     4  10  21  39  64  96 132 172 219 264 320 385
#     4  11  23  39  69 100 129 175 218 267 325 387
#     4  11  22  44  64  94 125 176 212 268 321 386
#     4  12  26  44  68  93 132 176 219 270 326 393
#     4  11  25  43  66  99 132 170 215 272 327 385
#     4  10  24  38  68  94 128 160 224 264 324 382
#     4  10  21  41  67  96 134 173 215 265 325 390
#
# _framework density 18.674835000000002
#
# number of rings (size 3 to 8) (size 9 to 14) (size 15 to 20)
#    0.000    1.333    4.000    1.200    1.867    4.533 
#    3.600    0.333    0.000    0.000    0.000    0.000 
#    0.000    0.000    0.000    0.000    0.000    0.000 
#
# Total GULP energy -167117.378108 kJ/mol
# GULP energy per Si atom -5570.579270 kJ/mol
# Density = 1.863233 g / cm^3
# Si number density = 18.674835 Si / 1000 Ang^3
#
#
#
# Elastic Constant Matrix: (Units=GPa)
#
#
# Indices 1 2 3 4 5 6 
#
# 1 43.4777 30.6895 -3.6684 0.0000 1.0443 0.0000
# 2 30.6895 109.3695 19.1430 0.0000 -11.8854 0.0000
# 3 -3.6684 19.1430 50.3497 0.0000 -8.4108 0.0000
# 4 0.0000 0.0000 0.0000 5.1092 0.0000 -12.4536
# 5 1.0443 -11.8854 -8.4108 0.0000 30.3893 0.0000
# 6 0.0000 0.0000 0.0000 -12.4536 0.0000 24.2365
#
#
#
# Elastic Compliance Matrix: (Units=1/GPa)
#
#
# Indices 1 2 3 4 5 6 
#
# 1 0.030513 -0.009880 0.005409 0.000000 -0.003416 0.000000
# 2 -0.009880 0.013251 -0.005070 0.000000 0.004119 0.000000
# 3 0.005409 -0.005070 0.022878 0.000000 0.004163 0.000000
# 4 0.000000 0.000000 0.000000 -0.775294 0.000000 -0.398374
# 5 -0.003416 0.004119 0.004163 0.000000 0.035787 0.000000
# 6 0.000000 0.000000 0.000000 -0.398374 0.000000 -0.163438
#
#
# Mechanical properties :
#
#
# Convention : Reuss Voigt Hill
#
# Bulk Modulus (GPa) = 21.02609 32.83612 26.93110
# Shear Modulus (GPa) = -6.23932 22.41585 8.08827
#
# Velocity S-wave (km/s) = -1.82983 3.46833 2.08339
# Velocity P-wave (km/s) = 2.61134 5.80175 4.49886
#
# Compressibility (1/GPa) = 0.04755996
#
# Stress axis : x y z
#
# Youngs Moduli (GPa) = 32.77338 75.46835 43.70982
#
# Poissons Ratio (x) = 0.74562 -0.23642
# Poissons Ratio (y) = 0.32380 0.22160
# Poissons Ratio (z) = -0.17727 0.38260
#
# Static dielectric constant tensor:
#      x y z
#    x 1.612840 0.000000 0.010600 
#    y 0.000000 1.626840 0.000000 
#    z 0.010600 0.000000 1.635500 
# 
# From -- ./inp_files/365523.got.cif
#   From: 2010.05.17/outbox.cif.g08.bks.cpg/sg12_183_cif.got.tgz:365523.got - 2010.06.03 13:09:07.
