data_PCOD9210306
_publ_section_title
;
Structure prediction by ZEFSAII (Michael W. Deem and Ramdas Pophale) SiO2 
 PCOD9210306
Probable space group: C 2/M
;
_chemical_formula_sum "Si O2"
_cell_formula_units_Z 60
_cell_length_a 24.926824
_cell_length_b 21.625220
_cell_length_c 12.683436
_cell_angle_alpha 90.000000
_cell_angle_beta 25.530507
_cell_angle_gamma 90.000000
_cell_volume 2946.681691
_symmetry_space_group_name_H-M "C 2/M"
_symmetry_group_IT_number 12
_symmetry_cell_setting 'monoclinic'
loop_
_space_group_symop_operation_xyz
x,y,z
-x,y,-z
-x,-y,-z
x,-y,z
1/2+x,1/2+y,z
1/2-x,1/2+y,-z
1/2-x,1/2-y,-z
1/2+x,1/2-y,z
loop_
_atom_site_type_symbol
_atom_site_label
_atom_site_fract_x
_atom_site_fract_y
_atom_site_fract_z
Si Si1 0.786332 0.821583 0.572504
Si Si2 0.664425 0.706307 0.084592
Si Si3 0.090349 0.682784 0.095324
Si Si4 0.005122 0.432317 0.365126
Si Si5 0.154402 0.682800 0.597427
Si Si6 0.237554 0.114237 0.781695
Si Si7 0.500000 0.611359 0.500000
Si Si8 0.465919 0.569101 0.326116
O O1 0.838026 0.756672 0.436208
O O2 0.685026 0.836633 0.661574
O O3 0.885320 0.875924 0.416962
O O4 0.716822 0.810730 0.806135
O O5 0.568513 0.752695 0.195695
O O6 0.604140 0.656816 0.268770
O O7 0.750000 0.750000 0.000000
O O8 0.740000 0.669366 0.862590
O O9 0.087062 0.624577 0.178943
O O10 0.981102 0.667835 0.206785
O O11 0.053376 0.500000 0.247199
O O12 0.863384 0.424389 0.575381
O O13 0.000000 0.429903 0.500000
O O14 0.253476 0.647302 0.347318
O O15 0.108959 0.079339 0.034495
O O16 0.460754 0.575251 0.463430
O O17 0.424953 0.500000 0.369234
#
# Coordination Sequence:
#
# PCOD9210306 Si02
#       8
#     8   8   8   8   8   8   4   8
#     4  11  23  40  63  93 120 165 205 259 316 375
#     4  11  21  32  57  92 126 156 199 257 314 371
#     4  11  22  38  60  90 126 160 202 259 315 369
#     4  10  22  39  60  87 123 169 210 245 299 374
#     4  10  22  40  64  89 125 155 208 262 321 368
#     4  10  21  39  61  90 121 162 206 263 309 367
#     4  10  23  36  58  88 123 164 200 242 316 372
#     4  11  24  43  63  90 129 169 210 253 310 387
#
# _framework density 20.361886999999999
#
# number of rings (size 3 to 8) (size 9 to 14) (size 15 to 20)
#    0.000    1.467    1.333    4.200    4.667    2.133 
#    0.000    6.667    0.000    4.000    0.000    0.000 
#    0.000    0.000    0.000    0.000    0.000    0.000 
#
# Total GULP energy -167466.403306 kJ/mol
# GULP energy per Si atom -5582.213444 kJ/mol
# Density = 2.031554 g / cm^3
# Si number density = 20.361887 Si / 1000 Ang^3
#
#
#
# Elastic Constant Matrix: (Units=GPa)
#
#
# Indices 1 2 3 4 5 6 
#
# 1 76.3419 23.6313 3.0707 -0.0004 2.1840 0.0004
# 2 23.6313 109.7115 16.3867 0.0000 6.9366 0.0002
# 3 3.0707 16.3867 49.2550 -0.0004 10.2660 0.0006
# 4 -0.0004 0.0000 -0.0004 18.2857 0.0005 4.9886
# 5 2.1840 6.9366 10.2660 0.0005 27.0154 -0.0005
# 6 0.0004 0.0002 0.0006 4.9886 -0.0005 33.9725
#
#
#
# Elastic Compliance Matrix: (Units=1/GPa)
#
#
# Indices 1 2 3 4 5 6 
#
# 1 0.014040 -0.003030 0.000225 0.000000 -0.000443 0.000000
# 2 -0.003030 0.010291 -0.002971 0.000000 -0.001269 0.000000
# 3 0.000225 -0.002971 0.022938 0.000001 -0.007972 -0.000001
# 4 0.000000 0.000000 0.000001 0.056970 -0.000001 -0.008366
# 5 -0.000443 -0.001269 -0.007972 -0.000001 0.040407 0.000001
# 6 0.000000 0.000000 -0.000001 -0.008366 0.000001 0.030664
#
#
# Mechanical properties :
#
#
# Convention : Reuss Voigt Hill
#
# Bulk Modulus (GPa) = 27.99610 35.72064 31.85837
# Shear Modulus (GPa) = 25.15496 28.66938 26.91217
#
# Velocity S-wave (km/s) = 3.51863 3.75639 3.63945
# Velocity P-wave (km/s) = 5.50334 6.03282 5.77416
#
# Compressibility (1/GPa) = 0.03571926
#
# Stress axis : x y z
#
# Youngs Moduli (GPa) = 71.22277 97.16928 43.59514
#
# Poissons Ratio (x) = 0.29441 -0.00981
# Poissons Ratio (y) = 0.21579 0.12950
# Poissons Ratio (z) = -0.01602 0.28864
#
# Static dielectric constant tensor:
#      x y z
#    x 1.762290 0.000000 -0.006050 
#    y 0.000000 1.737200 0.000000 
#    z -0.006050 0.000000 1.744320 
# 
# From -- ./inp_files/178013.got.cif
#   From: 2010.05.17/outbox.cif.g08.bks.cpg/sg12_90_cif.got.tgz:178013.got - 2010.06.03 13:09:07.
