data_PCOD9210584
_publ_section_title
;
Structure prediction by ZEFSAII (Michael W. Deem and Ramdas Pophale) SiO2 
 PCOD9210584
Probable space group: C 2/M
;
_chemical_formula_sum "Si O2"
_cell_formula_units_Z 60
_cell_length_a 15.495690
_cell_length_b 15.069826
_cell_length_c 12.017665
_cell_angle_alpha 90.000000
_cell_angle_beta 112.587916
_cell_angle_gamma 90.000000
_cell_volume 2591.062979
_symmetry_space_group_name_H-M "C 2/M"
_symmetry_group_IT_number 12
_symmetry_cell_setting 'monoclinic'
loop_
_space_group_symop_operation_xyz
x,y,z
-x,y,-z
-x,-y,-z
x,-y,z
1/2+x,1/2+y,z
1/2-x,1/2+y,-z
1/2-x,1/2-y,-z
1/2+x,1/2-y,z
loop_
_atom_site_type_symbol
_atom_site_label
_atom_site_fract_x
_atom_site_fract_y
_atom_site_fract_z
Si Si1 0.498848 0.840159 0.688518
Si Si2 0.916930 0.099154 0.390762
Si Si3 0.189060 0.148703 0.218767
Si Si4 0.564824 0.000000 0.216994
Si Si5 0.718464 0.857206 0.213137
Si Si6 0.137840 0.393713 0.562697
Si Si7 0.714802 0.351172 0.993710
Si Si8 0.986655 0.851817 0.192468
O O1 0.578127 0.851210 0.633531
O O2 0.402307 0.853439 0.571212
O O3 0.504424 0.748318 0.755476
O O4 0.506627 0.921804 0.776080
O O5 0.815160 0.141418 0.330813
O O6 0.000000 0.146007 0.500000
O O7 0.956870 0.094541 0.286508
O O8 0.903603 0.000000 0.430944
O O9 0.185630 0.255338 0.200066
O O10 0.255144 0.124355 0.354638
O O11 0.083911 0.118335 0.189043
O O12 0.235574 0.113509 0.127124
O O13 0.640955 0.077359 0.220315
O O14 0.744299 0.889632 0.100514
O O15 0.120330 0.500000 0.547418
O O16 0.602428 0.353963 0.931419
O O17 0.750000 0.250000 0.000000
#
# Coordination Sequence:
#
# PCOD9210584 Si02
#       8
#     8   8   8   4   8   8   8   8
#     4  11  22  40  63  93 128 168 208 268 328 382
#     4  10  22  39  57  86 125 164 201 254 307 367
#     4  11  23  40  64  92 125 166 214 263 314 381
#     4  12  20  39  65  91 127 154 204 276 316 370
#     4  10  21  39  63  88 119 164 207 254 324 372
#     4  11  23  41  61  90 132 175 211 259 327 385
#     4   9  20  42  65  87 123 166 207 262 320 380
#     4  11  23  38  67  94 122 165 217 258 314 389
#
# _framework density 23.156518999999999
#
# number of rings (size 3 to 8) (size 9 to 14) (size 15 to 20)
#    0.000    1.467    3.333    3.200    3.733    2.133 
#    1.200    0.000    0.000    9.600    0.000    0.000 
#    0.000    0.000    0.000    0.000    0.000    0.000 
#
# Total GULP energy -167156.445357 kJ/mol
# GULP energy per Si atom -5571.881512 kJ/mol
# Density = 2.310381 g / cm^3
# Si number density = 23.156519 Si / 1000 Ang^3
#
#
#
# Elastic Constant Matrix: (Units=GPa)
#
#
# Indices 1 2 3 4 5 6 
#
# 1 67.0244 -12.2310 -11.8282 0.0000 -2.4099 0.0000
# 2 -12.2310 81.7784 -5.3165 0.0000 -8.3293 0.0000
# 3 -11.8282 -5.3165 47.2491 0.0000 10.3102 0.0000
# 4 0.0000 0.0000 0.0000 -18.8111 0.0000 -58.8925
# 5 -2.4099 -8.3293 10.3102 0.0000 22.3042 0.0000
# 6 0.0000 0.0000 0.0000 -58.8925 0.0000 4.6677
#
#
#
# Elastic Compliance Matrix: (Units=1/GPa)
#
#
# Indices 1 2 3 4 5 6 
#
# 1 0.016196 0.002781 0.004181 0.000000 0.000856 0.000000
# 2 0.002781 0.013197 0.001157 0.000000 0.004694 0.000000
# 3 0.004181 0.001157 0.024633 0.000000 -0.010503 0.000000
# 4 0.000000 0.000000 0.000000 -0.001313 0.000000 -0.016561
# 5 0.000856 0.004694 -0.010503 0.000000 0.051535 0.000000
# 6 0.000000 0.000000 0.000000 -0.016561 0.000000 0.005290
#
#
# Mechanical properties :
#
#
# Convention : Reuss Voigt Hill
#
# Bulk Modulus (GPa) = 14.23199 15.25562 14.74380
# Shear Modulus (GPa) = 42.83665 16.66067 29.74866
#
# Velocity S-wave (km/s) = 4.30568 2.68522 3.58813
# Velocity P-wave (km/s) = 5.55679 4.02694 4.85253
#
# Compressibility (1/GPa) = 0.07026424
#
# Stress axis : x y z
#
# Youngs Moduli (GPa) = 61.74348 75.77212 40.59594
#
# Poissons Ratio (x) = -0.21075 -0.16972
# Poissons Ratio (y) = -0.17173 -0.04697
# Poissons Ratio (z) = -0.25813 -0.08766
#
# Static dielectric constant tensor:
#      x y z
#    x 1.846950 0.000000 -0.007770 
#    y 0.000000 1.888010 0.000000 
#    z -0.007770 0.000000 1.933740 
# 
# From -- ./inp_files/146196.got.cif
#   From: 2010.05.17/outbox.cif.g08.bks.cpg/sg12_74_cif.got.tgz:146196.got - 2010.06.03 13:09:07.
