data_PCOD9210752
_publ_section_title
;
Structure prediction by ZEFSAII (Michael W. Deem and Ramdas Pophale) SiO2 
 PCOD9210752
Probable space group: C 2/M
;
_chemical_formula_sum "Si O2"
_cell_formula_units_Z 42
_cell_length_a 20.429134
_cell_length_b 16.559128
_cell_length_c 5.253016
_cell_angle_alpha 90.000000
_cell_angle_beta 81.554077
_cell_angle_gamma 90.000000
_cell_volume 1757.763585
_symmetry_space_group_name_H-M "C 2/M"
_symmetry_group_IT_number 12
_symmetry_cell_setting 'monoclinic'
loop_
_space_group_symop_operation_xyz
x,y,z
-x,y,-z
-x,-y,-z
x,-y,z
1/2+x,1/2+y,z
1/2-x,1/2+y,-z
1/2-x,1/2-y,-z
1/2+x,1/2-y,z
loop_
_atom_site_type_symbol
_atom_site_label
_atom_site_fract_x
_atom_site_fract_y
_atom_site_fract_z
Si Si1 0.644108 0.500000 0.790626
Si Si2 0.823777 0.263842 0.838263
Si Si3 0.669080 0.136694 0.682437
Si Si4 0.565074 0.635384 0.095829
Si Si5 0.226619 0.000000 0.251819
Si Si6 0.500000 0.500000 0.500000
Si Si7 0.974117 0.408373 0.271931
O O1 0.600952 0.579494 0.862884
O O2 0.701200 0.500000 0.975846
O O3 0.668964 0.500000 0.490706
O O4 0.817990 0.301822 0.559082
O O5 0.876636 0.190959 0.820253
O O6 0.750000 0.250000 0.000000
O O7 0.850493 0.324492 0.037124
O O8 0.730169 0.078587 0.706052
O O9 0.603805 0.087684 0.649892
O O10 0.537859 0.570852 0.311357
O O11 0.500000 0.674590 0.000000
O O12 0.002767 0.500000 0.254870
O O13 0.000000 0.361291 0.500000
O O14 0.000000 0.370935 0.000000
#
# Coordination Sequence:
#
# PCOD9210752 Si02
#       7
#     4   8   8   8   4   2   8
#     4  11  26  44  77 106 141 187 248 322 389 444
#     4  12  28  48  71 107 155 201 241 309 387 463
#     4  12  25  45  70 103 143 198 252 296 375 448
#     4  11  27  48  76 112 151 193 256 318 394 457
#     4  12  24  45  73 108 147 196 257 311 364 464
#     4  10  24  48  80 110 148 192 258 326 382 438
#     4  10  21  39  63  94 133 176 230 298 346 407
#
# _framework density 23.893996000000001
#
# number of rings (size 3 to 8) (size 9 to 14) (size 15 to 20)
#    0.000    0.762    0.952    6.286    8.000    2.286 
#    0.000    0.000    0.000    0.000    0.000    0.000 
#    0.000    0.000    0.000    0.000    0.000    0.000 
#
# Total GULP energy -117136.768457 kJ/mol
# GULP energy per Si atom -5577.941355 kJ/mol
# Density = 2.383961 g / cm^3
# Si number density = 23.893996 Si / 1000 Ang^3
#
#
#
# Elastic Constant Matrix: (Units=GPa)
#
#
# Indices 1 2 3 4 5 6 
#
# 1 152.3341 35.8970 19.7180 0.0000 13.6012 0.0000
# 2 35.8970 92.3165 14.9015 0.0000 2.3034 0.0000
# 3 19.7180 14.9015 113.3039 0.0000 7.7548 0.0000
# 4 0.0000 0.0000 0.0000 -46.4936 0.0000 -176.5717
# 5 13.6012 2.3034 7.7548 0.0000 41.0302 0.0000
# 6 0.0000 0.0000 0.0000 -176.5717 0.0000 -529.6286
#
#
#
# Elastic Compliance Matrix: (Units=1/GPa)
#
#
# Indices 1 2 3 4 5 6 
#
# 1 0.007507 -0.002736 -0.000797 0.000000 -0.002184 0.000000
# 2 -0.002736 0.012069 -0.001142 0.000000 0.000445 0.000000
# 3 -0.000797 -0.001142 0.009211 0.000000 -0.001413 0.000000
# 4 0.000000 0.000000 0.000000 0.080820 0.000000 -0.026944
# 5 -0.002184 0.000445 -0.001413 0.000000 0.025338 0.000000
# 6 0.000000 0.000000 0.000000 -0.026944 0.000000 0.007095
#
#
# Mechanical properties :
#
#
# Convention : Reuss Voigt Hill
#
# Bulk Modulus (GPa) = 51.44442 55.44306 53.44374
# Shear Modulus (GPa) = 31.67153 -87.85586 -28.09217
#
# Velocity S-wave (km/s) = 3.64469 -6.07032 -3.43257
# Velocity P-wave (km/s) = 6.26807 5.08701 2.58951
#
# Compressibility (1/GPa) = 0.01943845
#
# Stress axis : x y z
#
# Youngs Moduli (GPa) = 133.20034 82.85424 108.56139
#
# Poissons Ratio (x) = 0.22670 0.08654
# Poissons Ratio (y) = 0.36445 0.12394
# Poissons Ratio (z) = 0.10618 0.09459
#
# Static dielectric constant tensor:
#      x y z
#    x 2.042980 0.000000 0.080020 
#    y 0.000000 0.340130 0.000000 
#    z 0.080020 0.000000 1.860710 
# 
# From -- ./inp_files/20375.got.cif
#   From: 2010.05.17/outbox.cif.g08.bks.cpg/sg12_11_cif.got.tgz:20375.got - 2010.06.03 13:09:07.
