data_PCOD9210258
_publ_section_title
;
Structure prediction by ZEFSAII (Michael W. Deem and Ramdas Pophale) SiO2 
 PCOD9210258
Probable space group: C 2/M
;
_chemical_formula_sum "Si O2"
_cell_formula_units_Z 48
_cell_length_a 30.368743
_cell_length_b 7.892290
_cell_length_c 9.828844
_cell_angle_alpha 90.000000
_cell_angle_beta 98.185112
_cell_angle_gamma 90.000000
_cell_volume 2331.769194
_symmetry_space_group_name_H-M "C 2/M"
_symmetry_group_IT_number 12
_symmetry_cell_setting 'monoclinic'
loop_
_space_group_symop_operation_xyz
x,y,z
-x,y,-z
-x,-y,-z
x,-y,z
1/2+x,1/2+y,z
1/2-x,1/2+y,-z
1/2-x,1/2-y,-z
1/2+x,1/2-y,z
loop_
_atom_site_type_symbol
_atom_site_label
_atom_site_fract_x
_atom_site_fract_y
_atom_site_fract_z
Si Si1 0.621908 0.295033 0.955979
Si Si2 0.783581 0.203626 0.897180
Si Si3 0.876459 0.799199 0.354951
Si Si4 0.224971 0.297328 0.625732
Si Si5 0.459343 0.202094 0.575643
Si Si6 0.959735 0.296017 0.888367
O O1 0.623590 0.500000 0.949119
O O2 0.616423 0.233700 0.797235
O O3 0.668243 0.231498 0.039284
O O4 0.583850 0.245329 0.044151
O O5 0.758875 0.270872 0.754140
O O6 0.787503 0.000000 0.885485
O O7 0.750000 0.250000 0.000000
O O8 0.825407 0.766923 0.376901
O O9 0.912864 0.729903 0.476585
O O10 0.883226 0.000000 0.354766
O O11 0.221988 0.500000 0.636452
O O12 0.250000 0.250000 0.500000
O O13 0.500000 0.269789 0.500000
O O14 0.459362 0.268022 0.731776
O O15 0.465916 0.000000 0.588956
O O16 0.963715 0.500000 0.882261
O O17 0.000000 0.230769 0.000000
#
# Coordination Sequence:
#
# PCOD9210258 Si02
#       6
#     8   8   8   8   8   8
#     4  10  22  39  60  88 121 156 197 246 296 350
#     4  10  21  39  61  87 119 158 202 245 294 347
#     4  11  23  40  62  88 121 160 202 247 299 357
#     4  11  24  40  61  89 123 162 203 248 300 353
#     4  10  22  41  64  90 122 157 197 247 300 359
#     4  10  22  40  63  91 118 152 197 244 297 356
#
# _framework density 20.585228000000001
#
# number of rings (size 3 to 8) (size 9 to 14) (size 15 to 20)
#    0.000    1.667    1.667    2.000    2.333    5.333 
#    0.000    0.000    0.000    0.000    0.000    0.000 
#    0.000    0.000    0.000    0.000    0.000    0.000 
#
# Total GULP energy -133988.244886 kJ/mol
# GULP energy per Si atom -5582.843537 kJ/mol
# Density = 2.053838 g / cm^3
# Si number density = 20.585228 Si / 1000 Ang^3
#
#
#
# Elastic Constant Matrix: (Units=GPa)
#
#
# Indices 1 2 3 4 5 6 
#
# 1 184.1489 -7.9157 120.9992 0.0000 4.1122 0.0000
# 2 -7.9157 13.1075 -3.2686 0.0000 1.1189 0.0000
# 3 120.9992 -3.2686 239.1577 0.0000 0.8036 0.0000
# 4 0.0000 0.0000 0.0000 15.8994 0.0000 -10.2860
# 5 4.1122 1.1189 0.8036 0.0000 39.3640 0.0000
# 6 0.0000 0.0000 0.0000 -10.2860 0.0000 25.2888
#
#
#
# Elastic Compliance Matrix: (Units=1/GPa)
#
#
# Indices 1 2 3 4 5 6 
#
# 1 0.008370 0.004091 -0.004176 0.000000 -0.000905 0.000000
# 2 0.004091 0.078743 -0.000985 0.000000 -0.002646 0.000000
# 3 -0.004176 -0.000985 0.006280 0.000000 0.000336 0.000000
# 4 0.000000 0.000000 0.000000 0.085356 0.000000 0.034718
# 5 -0.000905 -0.002646 0.000336 0.000000 0.025567 0.000000
# 6 0.000000 0.000000 0.000000 0.034718 0.000000 0.053664
#
#
# Mechanical properties :
#
#
# Convention : Reuss Voigt Hill
#
# Bulk Modulus (GPa) = 10.95854 72.89377 41.92615
# Shear Modulus (GPa) = 17.20953 37.88373 27.54663
#
# Velocity S-wave (km/s) = 2.89453 4.29457 3.66208
# Velocity P-wave (km/s) = 4.06277 7.75104 6.18808
#
# Compressibility (1/GPa) = 0.09125307
#
# Stress axis : x y z
#
# Youngs Moduli (GPa) = 119.46943 12.69959 159.24785
#
# Poissons Ratio (x) = -0.05195 0.66501
# Poissons Ratio (y) = -0.48873 0.15680
# Poissons Ratio (z) = 0.49890 0.01250
#
# Static dielectric constant tensor:
#      x y z
#    x 1.906980 0.000000 -0.219230 
#    y 0.000000 1.755570 0.000000 
#    z -0.219230 0.000000 1.826050 
# 
# From -- ./inp_files/108656.got.cif
#   From: 2010.05.17/outbox.cif.g08.bks.cpg/sg12_55_cif.got.tgz:108656.got - 2010.06.03 13:09:07.
