data_PCOD9210388
_publ_section_title
;
Structure prediction by ZEFSAII (Michael W. Deem and Ramdas Pophale) SiO2 
 PCOD9210388
Probable space group: C 2/M
;
_chemical_formula_sum "Si O2"
_cell_formula_units_Z 48
_cell_length_a 27.453412
_cell_length_b 8.903729
_cell_length_c 15.580227
_cell_angle_alpha 90.000000
_cell_angle_beta 139.118373
_cell_angle_gamma 90.000000
_cell_volume 2492.588756
_symmetry_space_group_name_H-M "C 2/M"
_symmetry_group_IT_number 12
_symmetry_cell_setting 'monoclinic'
loop_
_space_group_symop_operation_xyz
x,y,z
-x,y,-z
-x,-y,-z
x,-y,z
1/2+x,1/2+y,z
1/2-x,1/2+y,-z
1/2-x,1/2-y,-z
1/2+x,1/2-y,z
loop_
_atom_site_type_symbol
_atom_site_label
_atom_site_fract_x
_atom_site_fract_y
_atom_site_fract_z
Si Si1 0.470600 0.679188 0.056253
Si Si2 0.453653 0.819731 0.352860
Si Si3 0.309156 0.180080 0.833112
Si Si4 0.208919 0.179443 0.863873
Si Si5 0.271499 0.179849 0.437358
Si Si6 0.555313 0.820077 0.325825
O O1 0.462513 0.500000 0.052843
O O2 0.527769 0.738477 0.203597
O O3 0.500000 0.714155 0.000000
O O4 0.390891 0.757213 0.962228
O O5 0.500000 0.784227 0.500000
O O6 0.374702 0.739681 0.249922
O O7 0.501699 0.778257 0.333257
O O8 0.442060 0.000000 0.335159
O O9 0.253498 0.219722 0.836647
O O10 0.278156 0.250882 0.704215
O O11 0.312195 0.000000 0.829366
O O12 0.209367 0.000000 0.872029
O O13 0.250000 0.250000 0.000000
O O14 0.250000 0.250000 0.500000
O O15 0.358871 0.213058 0.538416
O O16 0.261704 0.000000 0.426295
O O17 0.549536 0.000000 0.305249
#
# Coordination Sequence:
#
# PCOD9210388 Si02
#       6
#     8   8   8   8   8   8
#     4  11  24  40  60  87 117 152 196 244 294 348
#     4  10  21  39  62  87 117 154 195 238 289 351
#     4  11  24  41  61  87 120 157 198 243 292 350
#     4  11  24  40  60  88 120 155 197 245 295 348
#     4  11  23  40  63  90 121 157 197 242 293 349
#     4  10  22  39  60  87 118 154 194 238 291 349
#
# _framework density 19.257086999999999
#
# number of rings (size 3 to 8) (size 9 to 14) (size 15 to 20)
#    0.000    1.333    0.000    5.000    0.000   14.333 
#    0.000    0.000    0.000    0.000    0.000    0.000 
#    0.000    0.000    0.000    0.000    0.000    0.000 
#
# Total GULP energy -134283.458847 kJ/mol
# GULP energy per Si atom -5595.144119 kJ/mol
# Density = 1.921326 g / cm^3
# Si number density = 19.257087 Si / 1000 Ang^3
#
#
#
# Elastic Constant Matrix: (Units=GPa)
#
#
# Indices 1 2 3 4 5 6 
#
# 1 58.3497 18.4781 -20.0583 0.0000 2.8027 0.0000
# 2 18.4781 26.4554 11.3988 0.0000 0.9605 0.0000
# 3 -20.0583 11.3988 55.8816 0.0000 -3.3775 0.0000
# 4 0.0000 0.0000 0.0000 27.8887 0.0000 4.3591
# 5 2.8027 0.9605 -3.3775 0.0000 42.5966 0.0000
# 6 0.0000 0.0000 0.0000 4.3591 0.0000 31.3497
#
#
#
# Elastic Compliance Matrix: (Units=1/GPa)
#
#
# Indices 1 2 3 4 5 6 
#
# 1 0.033289 -0.031133 0.018297 0.000000 -0.000037 0.000000
# 2 -0.031133 0.070670 -0.025686 0.000000 -0.001582 0.000000
# 3 0.018297 -0.025686 0.029807 0.000000 0.001739 0.000000
# 4 0.000000 0.000000 0.000000 0.036653 0.000000 -0.005097
# 5 -0.000037 -0.001582 0.001739 0.000000 0.023652 0.000000
# 6 0.000000 0.000000 0.000000 -0.005097 0.000000 0.032607
#
#
# Mechanical properties :
#
#
# Convention : Reuss Voigt Hill
#
# Bulk Modulus (GPa) = 17.63003 17.81377 17.72190
# Shear Modulus (GPa) = 15.49763 29.09154 22.29458
#
# Velocity S-wave (km/s) = 2.83993 3.89098 3.40624
# Velocity P-wave (km/s) = 4.46415 5.42742 4.96918
#
# Compressibility (1/GPa) = 0.05672140
#
# Stress axis : x y z
#
# Youngs Moduli (GPa) = 30.03999 14.15032 33.54891
#
# Poissons Ratio (x) = 0.44055 -0.61385
# Poissons Ratio (y) = 0.93525 0.86174
# Poissons Ratio (z) = -0.54965 0.36347
#
# Static dielectric constant tensor:
#      x y z
#    x 1.653830 0.000000 0.000740 
#    y 0.000000 1.644000 0.000000 
#    z 0.000740 0.000000 1.616490 
# 
# From -- ./inp_files/244913.got.cif
#   From: 2010.05.17/outbox.cif.g08.bks.cpg/sg12_123_cif.got.tgz:244913.got - 2010.06.03 13:09:07.
