data_PCOD9210588
_publ_section_title
;
Structure prediction by ZEFSAII (Michael W. Deem and Ramdas Pophale) SiO2 
 PCOD9210588
Probable space group: C 2/M
;
_chemical_formula_sum "Si O2"
_cell_formula_units_Z 64
_cell_length_a 13.704141
_cell_length_b 13.543878
_cell_length_c 31.375267
_cell_angle_alpha 90.000000
_cell_angle_beta 148.026403
_cell_angle_gamma 90.000000
_cell_volume 3083.695935
_symmetry_space_group_name_H-M "C 2/M"
_symmetry_group_IT_number 12
_symmetry_cell_setting 'monoclinic'
loop_
_space_group_symop_operation_xyz
x,y,z
-x,y,-z
-x,-y,-z
x,-y,z
1/2+x,1/2+y,z
1/2-x,1/2+y,-z
1/2-x,1/2-y,-z
1/2+x,1/2-y,z
loop_
_atom_site_type_symbol
_atom_site_label
_atom_site_fract_x
_atom_site_fract_y
_atom_site_fract_z
Si Si1 0.109387 0.612790 0.930821
Si Si2 0.008014 0.748581 0.301704
Si Si3 0.728623 0.612962 0.241784
Si Si4 0.682121 0.692568 0.909334
Si Si5 0.231339 0.115731 0.839547
Si Si6 0.029277 0.390615 0.582724
Si Si7 0.100125 0.887436 0.415174
Si Si8 0.883786 0.180556 0.417070
O O1 0.140938 0.500000 0.929401
O O2 0.163843 0.693197 0.915812
O O3 0.896221 0.623298 0.866364
O O4 0.224573 0.637598 0.016208
O O5 0.829646 0.684300 0.246351
O O6 0.948127 0.830371 0.245411
O O7 0.071895 0.808047 0.367463
O O8 0.167391 0.675123 0.345151
O O9 0.724089 0.500000 0.225499
O O10 0.523026 0.650191 0.173088
O O11 0.852334 0.616509 0.330395
O O12 0.784081 0.669283 0.903050
O O13 0.198850 0.000000 0.835883
O O14 0.060987 0.500000 0.575759
O O15 0.810282 0.380607 0.509889
O O16 0.084730 0.298749 0.574641
O O17 0.960889 0.864684 0.402134
O O18 0.071599 0.000000 0.389178
O O19 0.000000 0.141322 0.500000
#
# Coordination Sequence:
#
# PCOD9210588 Si02
#       8
#     8   8   8   8   8   8   8   8
#     4  10  22  42  70  99 131 169 209 257 316 380
#     4  12  24  40  62  90 127 167 212 266 318 373
#     4  11  22  39  62  89 125 167 209 256 317 379
#     4  11  22  41  69  97 132 167 211 259 317 375
#     4  11  23  40  65  98 128 165 215 265 313 376
#     4  10  21  39  63  88 120 162 209 262 316 369
#     4  11  24  43  63  88 124 168 214 265 319 376
#     4  12  23  37  62  87 122 160 214 263 320 371
#
# _framework density 20.754315999999999
#
# number of rings (size 3 to 8) (size 9 to 14) (size 15 to 20)
#    0.000    1.000    3.750    3.750    0.000    4.000 
#    0.000    0.625    0.000    1.500    0.000    0.000 
#    0.000    0.000    0.000    0.000    0.000    0.000 
#
# Total GULP energy -178968.306498 kJ/mol
# GULP energy per Si atom -5592.759578 kJ/mol
# Density = 2.070708 g / cm^3
# Si number density = 20.754316 Si / 1000 Ang^3
#
#
#
# Elastic Constant Matrix: (Units=GPa)
#
#
# Indices 1 2 3 4 5 6 
#
# 1 40.0567 -2.3908 0.8906 0.0000 -1.5929 0.0000
# 2 -2.3908 93.6873 13.1176 0.0000 -6.6540 0.0000
# 3 0.8906 13.1176 75.9559 0.0000 0.0458 0.0000
# 4 0.0000 0.0000 0.0000 19.3532 0.0000 1.3246
# 5 -1.5929 -6.6540 0.0458 0.0000 30.8713 0.0000
# 6 0.0000 0.0000 0.0000 1.3246 0.0000 16.0115
#
#
#
# Elastic Compliance Matrix: (Units=1/GPa)
#
#
# Indices 1 2 3 4 5 6 
#
# 1 0.025081 0.000805 -0.000434 0.000000 0.001468 0.000000
# 2 0.000805 0.011139 -0.001935 0.000000 0.002445 0.000000
# 3 -0.000434 -0.001935 0.013505 0.000000 -0.000459 0.000000
# 4 0.000000 0.000000 0.000000 0.051965 0.000000 -0.004299
# 5 0.001468 0.002445 -0.000459 0.000000 0.032996 0.000000
# 6 0.000000 0.000000 0.000000 -0.004299 0.000000 0.062811
#
#
# Mechanical properties :
#
#
# Convention : Reuss Voigt Hill
#
# Bulk Modulus (GPa) = 21.46035 25.88165 23.67100
# Shear Modulus (GPa) = 23.13142 26.45271 24.79206
#
# Velocity S-wave (km/s) = 3.34209 3.57398 3.45998
# Velocity P-wave (km/s) = 5.02547 5.43403 5.23374
#
# Compressibility (1/GPa) = 0.04659756
#
# Stress axis : x y z
#
# Youngs Moduli (GPa) = 39.87126 89.77550 74.04664
#
# Poissons Ratio (x) = -0.07228 0.03214
# Poissons Ratio (y) = -0.03210 0.14325
# Poissons Ratio (z) = 0.01730 0.17368
#
# Static dielectric constant tensor:
#      x y z
#    x 1.745670 0.000000 0.010960 
#    y 0.000000 1.731790 0.000000 
#    z 0.010960 0.000000 1.749290 
# 
# From -- ./inp_files/358454.got.cif
#   From: 2010.05.17/outbox.cif.g08.bks.cpg/sg12_180_cif.got.tgz:358454.got - 2010.06.03 13:09:07.
