data_PCOD9210242
_publ_section_title
;
Structure prediction by ZEFSAII (Michael W. Deem and Ramdas Pophale) SiO2 
 PCOD9210242
Probable space group: C 2/M
;
_chemical_formula_sum "Si O2"
_cell_formula_units_Z 48
_cell_length_a 21.238657
_cell_length_b 7.438767
_cell_length_c 14.530877
_cell_angle_alpha 90.000000
_cell_angle_beta 108.040469
_cell_angle_gamma 90.000000
_cell_volume 2182.862451
_symmetry_space_group_name_H-M "C 2/M"
_symmetry_group_IT_number 12
_symmetry_cell_setting 'monoclinic'
loop_
_space_group_symop_operation_xyz
x,y,z
-x,y,-z
-x,-y,-z
x,-y,z
1/2+x,1/2+y,z
1/2-x,1/2+y,-z
1/2-x,1/2-y,-z
1/2+x,1/2-y,z
loop_
_atom_site_type_symbol
_atom_site_label
_atom_site_fract_x
_atom_site_fract_y
_atom_site_fract_z
Si Si1 0.989511 0.000000 0.838846
Si Si2 0.145237 0.717392 0.748321
Si Si3 0.357427 0.790289 0.562679
Si Si4 0.500343 0.782446 0.315362
Si Si5 0.396925 0.500000 0.955140
Si Si6 0.743214 0.217730 0.639327
Si Si7 0.672783 0.789177 0.967009
O O1 0.996307 0.175276 0.778760
O O2 0.043560 0.000000 0.943843
O O3 0.920725 0.000000 0.862128
O O4 0.149221 0.500000 0.751167
O O5 0.208349 0.778781 0.717901
O O6 0.147082 0.775115 0.855336
O O7 0.072180 0.761620 0.675751
O O8 0.432636 0.723693 0.602274
O O9 0.308274 0.715479 0.462802
O O10 0.316273 0.773791 0.639476
O O11 0.363663 0.000000 0.543131
O O12 0.502681 0.000000 0.304382
O O13 0.356475 0.676325 0.963029
O O14 0.744485 0.000000 0.640110
O O15 0.658901 0.000000 0.969584
O O16 0.750000 0.750000 0.000000
#
# Coordination Sequence:
#
# PCOD9210242 Si02
#       7
#     4   8   8   8   4   8   8
#     4  11  24  40  64  84 119 160 196 245 301 359
#     4   9  19  36  59  85 111 151 197 240 291 347
#     4   9  19  35  55  84 119 153 188 239 293 347
#     4  10  21  39  61  86 119 153 198 247 293 350
#     4  11  24  42  60  91 116 156 203 239 305 360
#     4   9  18  35  58  82 115 154 193 236 291 352
#     4  11  22  40  63  88 122 155 194 250 300 353
#
# _framework density 21.989476
#
# number of rings (size 3 to 8) (size 9 to 14) (size 15 to 20)
#    0.000    2.167    2.500    0.000    1.167    2.667 
#    3.000    6.667    0.000    1.000    0.000    0.000 
#    0.000    0.000    0.000    0.000    0.000    0.000 
#
# Total GULP energy -133915.347413 kJ/mol
# GULP energy per Si atom -5579.806142 kJ/mol
# Density = 2.193943 g / cm^3
# Si number density = 21.989476 Si / 1000 Ang^3
#
#
#
# Elastic Constant Matrix: (Units=GPa)
#
#
# Indices 1 2 3 4 5 6 
#
# 1 60.1162 -8.0503 -2.2169 0.0000 6.6430 0.0000
# 2 -8.0503 77.8614 -2.5656 0.0000 -4.3476 0.0000
# 3 -2.2169 -2.5656 11.1911 0.0000 4.6807 0.0000
# 4 0.0000 0.0000 0.0000 12.8504 0.0000 -0.4939
# 5 6.6430 -4.3476 4.6807 0.0000 42.7664 0.0000
# 6 0.0000 0.0000 0.0000 -0.4939 0.0000 27.7190
#
#
#
# Elastic Compliance Matrix: (Units=1/GPa)
#
#
# Indices 1 2 3 4 5 6 
#
# 1 0.017406 0.001797 0.005150 0.000000 -0.003085 0.000000
# 2 0.001797 0.013171 0.003073 0.000000 0.000723 0.000000
# 3 0.005150 0.003073 0.095665 0.000000 -0.010958 0.000000
# 4 0.000000 0.000000 0.000000 0.077872 0.000000 0.001387
# 5 -0.003085 0.000723 -0.010958 0.000000 0.025135 0.000000
# 6 0.000000 0.000000 0.000000 0.001387 0.000000 0.036101
#
#
# Mechanical properties :
#
#
# Convention : Reuss Voigt Hill
#
# Bulk Modulus (GPa) = 6.83613 13.72256 10.27935
# Shear Modulus (GPa) = 17.00279 27.46725 22.23502
#
# Velocity S-wave (km/s) = 2.78371 3.53811 3.18333
# Velocity P-wave (km/s) = 3.66710 4.79009 4.26571
#
# Compressibility (1/GPa) = 0.14628163
#
# Stress axis : x y z
#
# Youngs Moduli (GPa) = 57.45176 75.92558 10.45320
#
# Poissons Ratio (x) = -0.13645 -0.05384
# Poissons Ratio (y) = -0.10325 -0.03212
# Poissons Ratio (z) = -0.29589 -0.23331
#
# Static dielectric constant tensor:
#      x y z
#    x 1.826680 0.000000 0.021220 
#    y 0.000000 1.804550 0.000000 
#    z 0.021220 0.000000 1.830550 
# 
# From -- ./inp_files/230497.got.cif
#   From: 2010.05.17/outbox.cif.g08.bks.cpg/sg12_116_cif.got.tgz:230497.got - 2010.06.03 13:09:07.
