data_PCOD9210403
_publ_section_title
;
Structure prediction by ZEFSAII (Michael W. Deem and Ramdas Pophale) SiO2 
 PCOD9210403
Probable space group: C 2/M
;
_chemical_formula_sum "Si O2"
_cell_formula_units_Z 56
_cell_length_a 21.478689
_cell_length_b 8.643458
_cell_length_c 31.629188
_cell_angle_alpha 90.000000
_cell_angle_beta 151.077975
_cell_angle_gamma 90.000000
_cell_volume 2839.792375
_symmetry_space_group_name_H-M "C 2/M"
_symmetry_group_IT_number 12
_symmetry_cell_setting 'monoclinic'
loop_
_space_group_symop_operation_xyz
x,y,z
-x,y,-z
-x,-y,-z
x,-y,z
1/2+x,1/2+y,z
1/2-x,1/2+y,-z
1/2-x,1/2-y,-z
1/2+x,1/2-y,z
loop_
_atom_site_type_symbol
_atom_site_label
_atom_site_fract_x
_atom_site_fract_y
_atom_site_fract_z
Si Si1 0.623863 0.814499 0.044526
Si Si2 0.760820 0.813980 0.573386
Si Si3 0.737489 0.814685 0.797338
Si Si4 0.125254 0.184743 0.950219
Si Si5 0.148041 0.683785 0.217486
Si Si6 0.444872 0.814665 0.618253
Si Si7 0.649564 0.187236 0.596604
O O1 0.738278 0.750417 0.141652
O O2 0.627542 0.000000 0.042706
O O3 0.500000 0.773000 0.000000
O O4 0.626606 0.741526 0.999789
O O5 0.646501 0.759593 0.474114
O O6 0.890154 0.752038 0.629286
O O7 0.727880 0.767229 0.601098
O O8 0.762337 0.000000 0.573443
O O9 0.828554 0.735916 0.816931
O O10 0.591920 0.776005 0.698008
O O11 0.755687 0.000000 0.807278
O O12 0.988973 0.244246 0.850255
O O13 0.127289 0.000000 0.950009
O O14 0.250000 0.250000 0.000000
O O15 0.140203 0.500000 0.215321
O O16 0.270249 0.744105 0.316880
O O17 0.434954 0.000000 0.614131
O O18 0.500000 0.232667 0.500000
O O19 0.649192 0.000000 0.600960
#
# Coordination Sequence:
#
# PCOD9210403 Si02
#       7
#     8   8   8   8   8   8   8
#     4  11  23  41  66  95 129 163 204 258 314 375
#     4   9  18  34  56  81 114 155 198 246 301 359
#     4  11  22  38  63  91 120 160 210 257 310 373
#     4  12  26  46  71  97 130 171 217 267 328 391
#     4  12  25  41  62  92 128 164 208 263 322 384
#     4   9  19  35  56  84 116 152 196 248 301 358
#     4  10  21  39  62  87 121 166 212 257 311 378
#
# _framework density 19.719750999999999
#
# number of rings (size 3 to 8) (size 9 to 14) (size 15 to 20)
#    0.000    1.429    1.429    4.286    0.000    6.000 
#    0.000    5.714    0.000    0.000    0.000    0.000 
#    0.000    0.000    0.000    0.000    0.000    0.000 
#
# Total GULP energy -156419.512798 kJ/mol
# GULP energy per Si atom -5586.411171 kJ/mol
# Density = 1.967487 g / cm^3
# Si number density = 19.719751 Si / 1000 Ang^3
#
#
#
# Elastic Constant Matrix: (Units=GPa)
#
#
# Indices 1 2 3 4 5 6 
#
# 1 114.9763 41.7223 49.2386 0.0000 3.1978 0.0000
# 2 41.7223 74.0297 43.3164 0.0000 9.4602 0.0002
# 3 49.2386 43.3164 99.8584 0.0001 1.6550 0.0000
# 4 0.0000 0.0000 0.0001 22.2151 0.0000 -4.9736
# 5 3.1978 9.4602 1.6550 0.0000 31.9873 0.0000
# 6 0.0000 0.0002 0.0000 -4.9736 0.0000 31.6461
#
#
#
# Elastic Compliance Matrix: (Units=1/GPa)
#
#
# Indices 1 2 3 4 5 6 
#
# 1 0.012024 -0.004485 -0.003989 0.000000 0.000331 0.000000
# 2 -0.004485 0.020595 -0.006634 0.000000 -0.005299 0.000000
# 3 -0.003989 -0.006634 0.014832 0.000000 0.001593 0.000000
# 4 0.000000 0.000000 0.000000 0.046656 0.000000 0.007333
# 5 0.000331 -0.005299 0.001593 0.000000 0.032714 0.000000
# 6 0.000000 0.000000 0.000000 0.007333 0.000000 0.032752
#
#
# Mechanical properties :
#
#
# Convention : Reuss Voigt Hill
#
# Bulk Modulus (GPa) = 58.02122 61.93545 59.97834
# Shear Modulus (GPa) = 25.57094 27.47550 26.52322
#
# Velocity S-wave (km/s) = 3.60490 3.73674 3.67141
# Velocity P-wave (km/s) = 6.84207 7.07769 6.96087
#
# Compressibility (1/GPa) = 0.01723507
#
# Stress axis : x y z
#
# Youngs Moduli (GPa) = 83.16759 48.55596 67.41975
#
# Poissons Ratio (x) = 0.21777 0.26893
# Poissons Ratio (y) = 0.37299 0.44729
# Poissons Ratio (z) = 0.33174 0.32214
#
# Static dielectric constant tensor:
#      x y z
#    x 1.682920 0.000000 -0.001390 
#    y 0.000000 1.661350 0.000000 
#    z -0.001390 0.000000 1.724640 
# 
# From -- ./inp_files/329440.got.cif
#   From: 2010.05.17/outbox.cif.g08.bks.cpg/sg12_165_cif.got.tgz:329440.got - 2010.06.03 13:09:07.
