data_PCOD9210240
_publ_section_title
;
Structure prediction by ZEFSAII (Michael W. Deem and Ramdas Pophale) SiO2 
 PCOD9210240
Probable space group: C 2/M
;
_chemical_formula_sum "Si O2"
_cell_formula_units_Z 64
_cell_length_a 20.667212
_cell_length_b 8.091192
_cell_length_c 33.738984
_cell_angle_alpha 90.000000
_cell_angle_beta 146.636552
_cell_angle_gamma 90.000000
_cell_volume 3102.759085
_symmetry_space_group_name_H-M "C 2/M"
_symmetry_group_IT_number 12
_symmetry_cell_setting 'monoclinic'
loop_
_space_group_symop_operation_xyz
x,y,z
-x,y,-z
-x,-y,-z
x,-y,z
1/2+x,1/2+y,z
1/2-x,1/2+y,-z
1/2-x,1/2-y,-z
1/2+x,1/2-y,z
loop_
_atom_site_type_symbol
_atom_site_label
_atom_site_fract_x
_atom_site_fract_y
_atom_site_fract_z
Si Si1 0.954485 0.693647 0.293027
Si Si2 0.007885 0.697521 0.049843
Si Si3 0.171725 0.800384 0.277216
Si Si4 0.722327 0.299048 0.213829
Si Si5 0.267885 0.307731 0.964427
Si Si6 0.367558 0.300534 0.440470
Si Si7 0.069575 0.806998 0.805275
Si Si8 0.781686 0.700001 0.560635
O O1 0.964797 0.500000 0.307954
O O2 0.852919 0.762148 0.269403
O O3 0.912202 0.713305 0.226402
O O4 0.086126 0.763399 0.363124
O O5 0.992787 0.500000 0.042933
O O6 0.129633 0.741816 0.133457
O O7 0.901251 0.777581 0.019415
O O8 0.000000 0.751884 0.000000
O O9 0.185831 0.743518 0.239127
O O10 0.279193 0.746060 0.359888
O O11 0.048643 0.744670 0.233529
O O12 0.169334 0.000000 0.275182
O O13 0.722617 0.500000 0.213566
O O14 0.239012 0.500000 0.946486
O O15 0.179894 0.212197 0.890461
O O16 0.250000 0.250000 0.000000
O O17 0.500000 0.239334 0.500000
O O18 0.372832 0.500000 0.445108
O O19 0.309064 0.241082 0.451883
O O20 0.053160 0.000000 0.787300
O O21 0.782024 0.500000 0.563292
O O22 0.750000 0.750000 0.500000
#
# Coordination Sequence:
#
# PCOD9210240 Si02
#       8
#     8   8   8   8   8   8   8   8
#     4  10  21  39  61  86 118 160 203 248 304 364
#     4  11  24  42  63  91 126 163 208 257 309 368
#     4  10  22  39  60  87 118 155 198 247 296 356
#     4  10  22  39  60  87 119 157 204 251 304 364
#     4  12  25  41  64  92 124 162 205 253 309 368
#     4  10  22  40  61  87 120 158 198 243 297 358
#     4  11  22  38  61  89 120 155 200 250 303 361
#     4  10  22  39  60  88 122 157 201 248 299 359
#
# _framework density 20.626802999999999
#
# number of rings (size 3 to 8) (size 9 to 14) (size 15 to 20)
#    0.000    1.500    1.250    3.375    1.750    6.750 
#    0.000    0.000    0.000    0.000    0.000    0.000 
#    0.000    0.000    0.000    0.000    0.000    0.000 
#
# Total GULP energy -178885.549450 kJ/mol
# GULP energy per Si atom -5590.173420 kJ/mol
# Density = 2.057986 g / cm^3
# Si number density = 20.626803 Si / 1000 Ang^3
#
#
#
# Elastic Constant Matrix: (Units=GPa)
#
#
# Indices 1 2 3 4 5 6 
#
# 1 115.8570 4.9755 20.0941 -0.0006 1.5955 0.0006
# 2 4.9755 17.2783 -10.3435 -0.0012 3.4646 0.0010
# 3 20.0941 -10.3435 85.9276 -0.0002 1.3202 0.0003
# 4 -0.0006 -0.0012 -0.0002 26.1871 0.0002 6.6327
# 5 1.5955 3.4646 1.3202 0.0002 42.3737 -0.0003
# 6 0.0006 0.0010 0.0003 6.6327 -0.0003 -9.3293
#
#
#
# Elastic Compliance Matrix: (Units=1/GPa)
#
#
# Indices 1 2 3 4 5 6 
#
# 1 0.009281 -0.004300 -0.002689 0.000000 0.000086 0.000000
# 2 -0.004300 0.065592 0.008985 0.000001 -0.005481 0.000008
# 3 -0.002689 0.008985 0.013364 0.000000 -0.001050 0.000001
# 4 0.000000 0.000001 0.000000 0.032360 0.000000 0.023006
# 5 0.000086 -0.005481 -0.001050 0.000000 0.024077 -0.000001
# 6 0.000000 0.000008 0.000001 0.023006 -0.000001 -0.090832
#
#
# Mechanical properties :
#
#
# Convention : Reuss Voigt Hill
#
# Bulk Modulus (GPa) = 10.84240 27.61280 19.22760
# Shear Modulus (GPa) = 62.03974 25.46874 43.75424
#
# Velocity S-wave (km/s) = 5.49022 3.51770 4.61068
# Velocity P-wave (km/s) = 6.74225 5.46945 6.13892
#
# Compressibility (1/GPa) = 0.09223051
#
# Stress axis : x y z
#
# Youngs Moduli (GPa) = 107.74427 15.24565 74.82598
#
# Poissons Ratio (x) = 0.06555 0.20123
# Poissons Ratio (y) = 0.46328 -0.67234
# Poissons Ratio (z) = 0.28976 -0.13699
#
# Static dielectric constant tensor:
#      x y z
#    x 1.726020 0.000000 0.020310 
#    y 0.000000 1.718460 0.000000 
#    z 0.020310 0.000000 1.682000 
# 
# From -- ./inp_files/378295.got.cif
#   From: 2010.05.17/outbox.cif.g08.bks.cpg/sg12_190_cif.got.tgz:378295.got - 2010.06.03 13:09:07.
