data_PCOD9210020
_publ_section_title
;
Structure prediction by ZEFSAII (Michael W. Deem and Ramdas Pophale) SiO2 
 PCOD9210020
Probable space group: C 2/M
;
_chemical_formula_sum "Si O2"
_cell_formula_units_Z 64
_cell_length_a 19.840653
_cell_length_b 8.919507
_cell_length_c 24.496197
_cell_angle_alpha 90.000000
_cell_angle_beta 126.735987
_cell_angle_gamma 90.000000
_cell_volume 3474.120540
_symmetry_space_group_name_H-M "C 2/M"
_symmetry_group_IT_number 12
_symmetry_cell_setting 'monoclinic'
loop_
_space_group_symop_operation_xyz
x,y,z
-x,y,-z
-x,-y,-z
x,-y,z
1/2+x,1/2+y,z
1/2-x,1/2+y,-z
1/2-x,1/2-y,-z
1/2+x,1/2-y,z
loop_
_atom_site_type_symbol
_atom_site_label
_atom_site_fract_x
_atom_site_fract_y
_atom_site_fract_z
Si Si1 0.378828 0.681345 0.817698
Si Si2 0.227466 0.321200 0.546638
Si Si3 0.214954 0.318958 0.809617
Si Si4 0.115398 0.817942 0.305575
Si Si5 0.963058 0.181267 0.311240
Si Si6 0.549868 0.324770 0.467674
Si Si7 0.213810 0.820519 0.037632
Si Si8 0.466659 0.829555 0.045333
O O1 0.384273 0.500000 0.823248
O O2 0.293544 0.724552 0.808641
O O3 0.380763 0.728130 0.755412
O O4 0.460028 0.752984 0.884718
O O5 0.231301 0.500000 0.545132
O O6 0.250000 0.250000 0.500000
O O7 0.298912 0.270067 0.623433
O O8 0.134247 0.269063 0.515091
O O9 0.208703 0.500000 0.804957
O O10 0.127301 0.249917 0.746983
O O11 0.237700 0.274927 0.883100
O O12 0.034080 0.770618 0.301448
O O13 0.113642 0.000000 0.305268
O O14 0.996732 0.221727 0.388261
O O15 0.956541 0.000000 0.306196
O O16 0.500000 0.314090 0.500000
O O17 0.572477 0.500000 0.469500
O O18 0.217188 0.000000 0.036042
O O19 0.250000 0.750000 0.000000
O O20 0.118188 0.765397 0.995411
O O21 0.449965 0.000000 0.056211
O O22 0.500000 0.835795 0.000000
#
# Coordination Sequence:
#
# PCOD9210020 Si02
#       8
#     8   8   8   8   8   8   8   8
#     4  10  21  40  63  86 116 158 198 240 296 351
#     4  11  21  38  63  88 118 154 199 249 296 351
#     4  10  23  40  59  86 121 153 195 246 290 347
#     4   9  20  38  60  86 115 152 196 242 294 351
#     4  10  21  39  59  82 119 159 196 240 295 353
#     4  10  22  40  60  86 121 159 200 245 295 350
#     4  11  24  42  63  89 120 157 198 244 297 351
#     4  11  23  40  63  91 121 153 197 248 293 349
#
# _framework density 18.421928999999999
#
# number of rings (size 3 to 8) (size 9 to 14) (size 15 to 20)
#    0.000    1.750    2.500    1.125    3.500    2.750 
#    0.000    1.250    0.000    0.000    0.000    0.000 
#    0.000    0.000    0.000    0.000    0.000    0.000 
#
# Total GULP energy -178666.810965 kJ/mol
# GULP energy per Si atom -5583.337843 kJ/mol
# Density = 1.838000 g / cm^3
# Si number density = 18.421929 Si / 1000 Ang^3
#
#
#
# Elastic Constant Matrix: (Units=GPa)
#
#
# Indices 1 2 3 4 5 6 
#
# 1 100.2489 32.9880 79.5871 0.0000 0.9611 0.0000
# 2 32.9880 35.5746 41.3844 0.0000 2.3974 0.0000
# 3 79.5871 41.3844 188.5376 0.0000 4.4198 0.0000
# 4 0.0000 0.0000 0.0000 25.5100 0.0000 9.2104
# 5 0.9611 2.3974 4.4198 0.0000 38.8845 0.0000
# 6 0.0000 0.0000 0.0000 9.2104 0.0000 29.3087
#
#
#
# Elastic Compliance Matrix: (Units=1/GPa)
#
#
# Indices 1 2 3 4 5 6 
#
# 1 0.017396 -0.010233 -0.005116 0.000000 0.000782 0.000000
# 2 -0.010233 0.043844 -0.005261 0.000000 -0.001852 0.000000
# 3 -0.005116 -0.005261 0.008631 0.000000 -0.000530 0.000000
# 4 0.000000 0.000000 0.000000 0.044217 0.000000 -0.013895
# 5 0.000782 -0.001852 -0.000530 0.000000 0.025872 0.000000
# 6 0.000000 0.000000 0.000000 -0.013895 0.000000 0.038486
#
#
# Mechanical properties :
#
#
# Convention : Reuss Voigt Hill
#
# Bulk Modulus (GPa) = 34.90192 70.25337 52.57765
# Shear Modulus (GPa) = 21.81354 30.10073 25.95714
#
# Velocity S-wave (km/s) = 3.44482 4.04662 3.75778
# Velocity P-wave (km/s) = 5.89995 7.74932 6.88699
#
# Compressibility (1/GPa) = 0.02865172
#
# Stress axis : x y z
#
# Youngs Moduli (GPa) = 57.48371 22.80838 115.86692
#
# Poissons Ratio (x) = 0.23340 0.59273
# Poissons Ratio (y) = 0.58823 0.60954
# Poissons Ratio (z) = 0.29406 0.11999
#
# Static dielectric constant tensor:
#      x y z
#    x 1.620310 0.000000 -0.028240 
#    y 0.000000 1.629750 0.000000 
#    z -0.028240 0.000000 1.617580 
# 
# From -- ./inp_files/346304.got.cif
#   From: 2010.05.17/outbox.cif.g08.bks.cpg/sg12_174_cif.got.tgz:346304.got - 2010.06.03 13:09:07.
