data_PCOD9210180
_publ_section_title
;
Structure prediction by ZEFSAII (Michael W. Deem and Ramdas Pophale) SiO2 
 PCOD9210180
Probable space group: C 2/M
;
_chemical_formula_sum "Si O2"
_cell_formula_units_Z 56
_cell_length_a 14.621398
_cell_length_b 14.517704
_cell_length_c 24.098315
_cell_angle_alpha 90.000000
_cell_angle_beta 29.582046
_cell_angle_gamma 90.000000
_cell_volume 2525.280961
_symmetry_space_group_name_H-M "C 2/M"
_symmetry_group_IT_number 12
_symmetry_cell_setting 'monoclinic'
loop_
_space_group_symop_operation_xyz
x,y,z
-x,y,-z
-x,-y,-z
x,-y,z
1/2+x,1/2+y,z
1/2-x,1/2+y,-z
1/2-x,1/2-y,-z
1/2+x,1/2-y,z
loop_
_atom_site_type_symbol
_atom_site_label
_atom_site_fract_x
_atom_site_fract_y
_atom_site_fract_z
Si Si1 0.692174 0.394582 0.958436
Si Si2 0.154461 0.106326 0.468188
Si Si3 0.615090 0.107315 0.384604
Si Si4 0.900803 0.217934 0.675198
Si Si5 0.789046 0.711919 0.108975
Si Si6 0.114626 0.607472 0.751463
Si Si7 0.956600 0.892380 0.848531
O O1 0.664109 0.500000 0.955896
O O2 0.691992 0.321097 0.910276
O O3 0.897722 0.388389 0.876458
O O4 0.552535 0.368630 0.081406
O O5 0.340159 0.131362 0.336737
O O6 0.000000 0.114030 0.500000
O O7 0.084057 0.166839 0.555970
O O8 0.164028 0.000000 0.480180
O O9 0.500000 0.135243 0.500000
O O10 0.577694 0.175975 0.353654
O O11 0.833257 0.115638 0.282597
O O12 0.575225 0.000000 0.393224
O O13 0.837261 0.197351 0.770643
O O14 0.732976 0.174260 0.727191
O O15 0.681852 0.669168 0.113484
O O16 0.000000 0.674620 0.000000
O O17 0.173932 0.500000 0.727877
O O18 0.901282 0.000000 0.873675
#
# Coordination Sequence:
#
# PCOD9210180 Si02
#       7
#     8   8   8   8   8   8   8
#     4  10  21  39  61  80 106 148 193 233 273 327
#     4   8  15  29  51  80 110 140 178 222 271 328
#     4  10  21  39  62  83 107 148 198 236 267 319
#     4  11  20  32  55  83 115 148 179 229 288 334
#     4  12  25  37  55  86 120 149 180 229 286 337
#     4   9  17  33  59  85 107 141 190 235 274 327
#     4  10  22  41  62  82 109 148 191 233 277 331
#
# _framework density 22.175751000000002
#
# number of rings (size 3 to 8) (size 9 to 14) (size 15 to 20)
#    0.000    2.000    0.000    5.571    0.000    2.286 
#    0.000    2.857    0.000    5.143    0.000    0.000 
#    0.000    0.000    0.000    0.000    0.000    0.000 
#
# Total GULP energy -156522.460652 kJ/mol
# GULP energy per Si atom -5590.087880 kJ/mol
# Density = 2.212528 g / cm^3
# Si number density = 22.175751 Si / 1000 Ang^3
#
#
#
# Elastic Constant Matrix: (Units=GPa)
#
#
# Indices 1 2 3 4 5 6 
#
# 1 26.7129 17.7945 10.8951 0.0004 12.3991 -0.0007
# 2 17.7945 65.0790 15.6208 -0.0008 13.9350 0.0002
# 3 10.8951 15.6208 117.2385 -0.0098 15.8554 -0.0008
# 4 0.0004 -0.0008 -0.0098 28.6583 0.0008 6.9463
# 5 12.3991 13.9350 15.8554 0.0008 28.6553 0.0012
# 6 -0.0007 0.0002 -0.0008 6.9463 0.0012 4.5844
#
#
#
# Elastic Compliance Matrix: (Units=1/GPa)
#
#
# Indices 1 2 3 4 5 6 
#
# 1 0.052859 -0.010503 -0.001200 -0.000006 -0.017100 0.000022
# 2 -0.010503 0.019410 -0.001025 0.000001 -0.004327 -0.000003
# 3 -0.001200 -0.001025 0.009339 0.000004 -0.004150 -0.000004
# 4 -0.000006 0.000001 0.000004 0.055147 0.000002 -0.083559
# 5 -0.017100 -0.004327 -0.004150 0.000002 0.046697 -0.000017
# 6 0.000022 -0.000003 -0.000004 -0.083559 -0.000017 0.344739
#
#
# Mechanical properties :
#
#
# Convention : Reuss Voigt Hill
#
# Bulk Modulus (GPa) = 17.80912 33.07234 25.44073
# Shear Modulus (GPa) = 8.73567 23.36094 16.04831
#
# Velocity S-wave (km/s) = 1.98692 3.24920 2.69306
# Velocity P-wave (km/s) = 3.64858 5.38726 4.60080
#
# Compressibility (1/GPa) = 0.05615102
#
# Stress axis : x y z
#
# Youngs Moduli (GPa) = 18.91842 51.51856 107.07883
#
# Poissons Ratio (x) = 0.54112 0.12851
# Poissons Ratio (y) = 0.19871 0.10975
# Poissons Ratio (z) = 0.02270 0.05280
#
# Static dielectric constant tensor:
#      x y z
#    x 1.807440 0.000000 -0.015540 
#    y 0.000000 1.822260 0.000000 
#    z -0.015540 0.000000 1.827660 
# 
# From -- ./inp_files/340304.got.cif
#   From: 2010.05.17/outbox.cif.g08.bks.cpg/sg12_171_cif.got.tgz:340304.got - 2010.06.03 13:09:07.
