data_PCOD9210960
_publ_section_title
;
Structure prediction by ZEFSAII (Michael W. Deem and Ramdas Pophale) SiO2 
 PCOD9210960
Probable space group: C 2/M
;
_chemical_formula_sum "Si O2"
_cell_formula_units_Z 40
_cell_length_a 8.467962
_cell_length_b 14.187565
_cell_length_c 13.212969
_cell_angle_alpha 90.000000
_cell_angle_beta 77.335832
_cell_angle_gamma 90.000000
_cell_volume 1548.784352
_symmetry_space_group_name_H-M "C 2/M"
_symmetry_group_IT_number 12
_symmetry_cell_setting 'monoclinic'
loop_
_space_group_symop_operation_xyz
x,y,z
-x,y,-z
-x,-y,-z
x,-y,z
1/2+x,1/2+y,z
1/2-x,1/2+y,-z
1/2-x,1/2-y,-z
1/2+x,1/2-y,z
loop_
_atom_site_type_symbol
_atom_site_label
_atom_site_fract_x
_atom_site_fract_y
_atom_site_fract_z
Si Si1 0.808003 0.217022 0.829702
Si Si2 0.682578 0.108296 0.022588
Si Si3 0.589279 0.898065 0.732222
Si Si4 0.865147 0.192877 0.602626
Si Si5 0.156308 0.400754 0.405523
O O1 0.801417 0.316240 0.888616
O O2 0.637225 0.187092 0.799281
O O3 0.918615 0.199353 0.714212
O O4 0.812784 0.141189 0.919633
O O5 0.707629 0.000000 0.048862
O O6 0.500000 0.115157 0.000000
O O7 0.728977 0.886591 0.627132
O O8 0.423596 0.899614 0.695036
O O9 0.609947 0.000000 0.780598
O O10 0.781955 0.294603 0.592296
O O11 0.000000 0.175557 0.500000
O O12 0.248917 0.500000 0.403493
O O13 0.000000 0.404013 0.500000
#
# Coordination Sequence:
#
# PCOD9210960 Si02
#       5
#     8   8   8   8   8
#     4   9  21  36  55  91 118 143 188 243 283 337
#     4  10  21  39  65  87 107 145 195 246 294 334
#     4   9  19  35  55  78 114 155 190 230 277 331
#     4   9  20  34  54  86 117 152 185 228 280 346
#     4   9  18  33  54  80 111 151 194 234 273 321
#
# _framework density 25.826705
#
# number of rings (size 3 to 8) (size 9 to 14) (size 15 to 20)
#    1.200    1.600    0.000    0.600    2.800    4.400 
#    0.000    0.000    0.000   22.200    0.000    0.000 
#    0.000    0.000    0.000    0.000    0.000    0.000 
#
# Total GULP energy -111396.638625 kJ/mol
# GULP energy per Si atom -5569.831931 kJ/mol
# Density = 2.576792 g / cm^3
# Si number density = 25.826705 Si / 1000 Ang^3
#
#
#
# Elastic Constant Matrix: (Units=GPa)
#
#
# Indices 1 2 3 4 5 6 
#
# 1 43.9474 34.0174 37.2785 0.0000 16.9689 0.0000
# 2 34.0174 179.7398 57.5984 0.0000 18.9446 0.0000
# 3 37.2785 57.5984 207.6336 0.0000 -21.4589 0.0000
# 4 0.0000 0.0000 0.0000 35.9621 0.0000 15.1947
# 5 16.9689 18.9446 -21.4589 0.0000 49.5682 0.0000
# 6 0.0000 0.0000 0.0000 15.1947 0.0000 23.5375
#
#
#
# Elastic Compliance Matrix: (Units=1/GPa)
#
#
# Indices 1 2 3 4 5 6 
#
# 1 0.037005 -0.003126 -0.007289 0.000000 -0.014629 0.000000
# 2 -0.003126 0.006901 -0.001586 0.000000 -0.002254 0.000000
# 3 -0.007289 -0.001586 0.007208 0.000000 0.006222 0.000000
# 4 0.000000 0.000000 0.000000 0.038236 0.000000 -0.024683
# 5 -0.014629 -0.002254 0.006222 0.000000 0.028737 0.000000
# 6 0.000000 0.000000 0.000000 -0.024683 0.000000 0.058420
#
#
# Mechanical properties :
#
#
# Convention : Reuss Voigt Hill
#
# Bulk Modulus (GPa) = 36.88325 76.56768 56.72547
# Shear Modulus (GPa) = 23.86111 41.97534 32.91822
#
# Velocity S-wave (km/s) = 3.04286 4.03584 3.57400
# Velocity P-wave (km/s) = 5.16308 7.17136 6.24843
#
# Compressibility (1/GPa) = 0.02711257
#
# Stress axis : x y z
#
# Youngs Moduli (GPa) = 27.02324 144.90497 138.73928
#
# Poissons Ratio (x) = 0.45298 1.01121
# Poissons Ratio (y) = 0.08448 0.22005
# Poissons Ratio (z) = 0.19696 0.22983
#
# Static dielectric constant tensor:
#      x y z
#    x 2.110640 0.000000 0.002200 
#    y 0.000000 2.122960 0.000000 
#    z 0.002200 0.000000 2.203550 
# 
# From -- ./inp_files/203852.got.cif
#   From: 2010.05.17/outbox.cif.g08.bks.cpg/sg12_102_cif.got.tgz:203852.got - 2010.06.03 13:09:07.
