data_PCOD9210912
_publ_section_title
;
Structure prediction by ZEFSAII (Michael W. Deem and Ramdas Pophale) SiO2 
 PCOD9210912
Probable space group: C 2/M
;
_chemical_formula_sum "Si O2"
_cell_formula_units_Z 56
_cell_length_a 9.140236
_cell_length_b 29.397946
_cell_length_c 11.799227
_cell_angle_alpha 90.000000
_cell_angle_beta 51.070536
_cell_angle_gamma 90.000000
_cell_volume 2466.396852
_symmetry_space_group_name_H-M "C 2/M"
_symmetry_group_IT_number 12
_symmetry_cell_setting 'monoclinic'
loop_
_space_group_symop_operation_xyz
x,y,z
-x,y,-z
-x,-y,-z
x,-y,z
1/2+x,1/2+y,z
1/2-x,1/2+y,-z
1/2-x,1/2-y,-z
1/2+x,1/2-y,z
loop_
_atom_site_type_symbol
_atom_site_label
_atom_site_fract_x
_atom_site_fract_y
_atom_site_fract_z
Si Si1 0.659144 0.771766 0.158017
Si Si2 0.023898 0.549767 0.201581
Si Si3 0.973775 0.816128 0.643920
Si Si4 0.319006 0.926102 0.657491
Si Si5 0.931235 0.648013 0.156322
Si Si6 0.131460 0.948135 0.529629
Si Si7 0.192604 0.677117 0.354056
O O1 0.571809 0.729297 0.264862
O O2 0.513103 0.812038 0.196843
O O3 0.775340 0.795325 0.205998
O O4 0.750000 0.750000 0.000000
O O5 0.029606 0.500000 0.140493
O O6 0.011772 0.597389 0.140817
O O7 0.832653 0.551252 0.369382
O O8 0.188551 0.551556 0.216095
O O9 0.794253 0.849370 0.737751
O O10 0.000000 0.806449 0.500000
O O11 0.164509 0.830996 0.612317
O O12 0.500000 0.944591 0.500000
O O13 0.153408 0.930637 0.646834
O O14 0.357501 0.873353 0.663560
O O15 0.000000 0.662315 0.000000
O O16 0.000000 0.924585 0.500000
O O17 0.063842 0.000000 0.576606
O O18 0.000000 0.697400 0.500000
#
# Coordination Sequence:
#
# PCOD9210912 Si02
#       7
#     8   8   8   8   8   8   8
#     4  12  25  49  70  98 141 192 235 291 353 430
#     4  10  21  39  64  94 132 182 231 281 345 421
#     4  12  28  43  72 106 145 186 238 299 357 417
#     4   9  18  33  57  88 131 173 217 269 334 411
#     4  12  26  47  70 103 140 183 238 290 355 428
#     4   9  18  31  55  93 133 171 218 277 339 405
#     4  11  24  42  68 103 141 183 233 290 354 419
#
# _framework density 22.705186000000001
#
# number of rings (size 3 to 8) (size 9 to 14) (size 15 to 20)
#    0.000    1.286    2.857    2.571    6.000    3.714 
#    0.000    0.000    0.000    0.000    0.000    1.000 
#    0.000    0.000    0.000    0.000    0.000    0.000 
#
# Total GULP energy -156129.152508 kJ/mol
# GULP energy per Si atom -5576.041161 kJ/mol
# Density = 2.265351 g / cm^3
# Si number density = 22.705186 Si / 1000 Ang^3
#
#
#
# Elastic Constant Matrix: (Units=GPa)
#
#
# Indices 1 2 3 4 5 6 
#
# 1 145.4043 18.8762 33.4703 0.0000 23.8482 0.0000
# 2 18.8762 115.0255 17.7738 0.0000 10.0602 0.0000
# 3 33.4703 17.7738 85.3508 0.0000 19.7463 0.0000
# 4 0.0000 0.0000 0.0000 25.1977 0.0000 11.5888
# 5 23.8482 10.0602 19.7463 0.0000 26.4397 0.0000
# 6 0.0000 0.0000 0.0000 11.5888 0.0000 21.8950
#
#
#
# Elastic Compliance Matrix: (Units=1/GPa)
#
#
# Indices 1 2 3 4 5 6 
#
# 1 0.008340 -0.000572 -0.001767 0.000000 -0.005985 0.000000
# 2 -0.000572 0.009154 -0.001203 0.000000 -0.002068 0.000000
# 3 -0.001767 -0.001203 0.014730 0.000000 -0.008950 0.000000
# 4 0.000000 0.000000 0.000000 0.052455 0.000000 -0.027764
# 5 -0.005985 -0.002068 -0.008950 0.000000 0.050692 0.000000
# 6 0.000000 0.000000 0.000000 -0.027764 0.000000 0.060368
#
#
# Mechanical properties :
#
#
# Convention : Reuss Voigt Hill
#
# Bulk Modulus (GPa) = 39.77671 54.00236 46.88953
# Shear Modulus (GPa) = 23.67380 33.08383 28.37882
#
# Velocity S-wave (km/s) = 3.23253 3.82135 3.53920
# Velocity P-wave (km/s) = 5.61152 6.58073 6.11536
#
# Compressibility (1/GPa) = 0.02514034
#
# Stress axis : x y z
#
# Youngs Moduli (GPa) = 119.90405 109.23610 67.88710
#
# Poissons Ratio (x) = 0.06250 0.11993
# Poissons Ratio (y) = 0.06860 0.08170
# Poissons Ratio (z) = 0.21182 0.13146
#
# Static dielectric constant tensor:
#      x y z
#    x 1.959970 0.000000 -0.013040 
#    y 0.000000 1.911120 0.000000 
#    z -0.013040 0.000000 1.826590 
# 
# From -- ./inp_files/125587.got.cif
#   From: 2010.05.17/outbox.cif.g08.bks.cpg/sg12_63_cif.got.tgz:125587.got - 2010.06.03 13:09:07.
