data_PCOD9210826
_publ_section_title
;
Structure prediction by ZEFSAII (Michael W. Deem and Ramdas Pophale) SiO2 
 PCOD9210826
Probable space group: C 2/M
;
_chemical_formula_sum "Si O2"
_cell_formula_units_Z 56
_cell_length_a 24.887829
_cell_length_b 18.540188
_cell_length_c 8.304771
_cell_angle_alpha 90.000000
_cell_angle_beta 131.864857
_cell_angle_gamma 90.000000
_cell_volume 2853.792725
_symmetry_space_group_name_H-M "C 2/M"
_symmetry_group_IT_number 12
_symmetry_cell_setting 'monoclinic'
loop_
_space_group_symop_operation_xyz
x,y,z
-x,y,-z
-x,-y,-z
x,-y,z
1/2+x,1/2+y,z
1/2-x,1/2+y,-z
1/2-x,1/2-y,-z
1/2+x,1/2-y,z
loop_
_atom_site_type_symbol
_atom_site_label
_atom_site_fract_x
_atom_site_fract_y
_atom_site_fract_z
Si Si1 0.174945 0.285333 0.406535
Si Si2 0.916374 0.000000 0.777243
Si Si3 0.419060 0.083293 0.280927
Si Si4 0.919060 0.416707 0.895313
Si Si5 0.081757 0.153385 0.607674
Si Si6 0.418243 0.653385 0.780647
Si Si7 0.325055 0.214667 0.206756
Si Si8 0.583626 0.500000 0.611747
O O1 0.250000 0.250000 0.500000
O O2 0.143847 0.362130 0.286123
O O3 0.118565 0.225242 0.233179
O O4 0.176089 0.287793 0.602179
O O5 0.884368 0.923390 0.767131
O O6 0.915709 0.000000 0.581418
O O7 0.000000 0.000000 0.000000
O O8 0.500000 0.105526 0.500000
O O9 0.356153 0.137870 0.210736
O O10 0.407831 0.000000 0.313747
O O11 0.419752 0.083515 0.089504
O O12 0.907831 0.500000 0.817576
O O13 0.000000 0.394474 0.000000
O O14 0.084571 0.154622 0.419141
O O15 0.118565 0.225242 0.741082
O O16 0.115632 0.076610 0.729660
O O17 0.000000 0.153052 0.500000
O O18 0.500000 0.653052 0.000000
O O19 0.250000 0.250000 0.000000
O O20 0.500000 0.500000 0.500000
#
# Coordination Sequence:
#
# PCOD9210826 Si02
#       8
#     8   4   8   8   8   8   8   4
#     4  11  23  38  55  81 117 154 194 239 293 352
#     4   8  14  28  48  72 100 128 165 208 253 308
#     4  10  21  39  64  91 117 151 197 249 304 360
#     4  10  21  39  64  91 117 151 197 249 304 360
#     4   9  18  32  53  78 104 139 180 224 271 324
#     4   9  18  32  53  78 104 139 180 224 271 324
#     4  11  23  38  55  81 117 154 194 239 293 352
#     4   8  14  28  48  72 100 128 165 208 253 308
#
# _framework density 19.623009
#
# number of rings (size 3 to 8) (size 9 to 14) (size 15 to 20)
#    0.000    2.286    0.000    2.571    0.000    6.286 
#    2.571    0.000    0.000    0.000    0.000    0.000 
#    0.000    0.000    0.000    0.000    0.000    0.000 
#
# Total GULP energy -155935.179702 kJ/mol
# GULP energy per Si atom -5569.113561 kJ/mol
# Density = 1.957835 g / cm^3
# Si number density = 19.623009 Si / 1000 Ang^3
#
#
#
# Elastic Constant Matrix: (Units=GPa)
#
#
# Indices 1 2 3 4 5 6 
#
# 1 64.5552 44.7477 10.6938 0.0000 11.8125 0.0000
# 2 44.7477 148.1100 46.0232 0.0000 20.2729 0.0000
# 3 10.6938 46.0232 66.0153 0.0000 11.3926 0.0000
# 4 0.0000 0.0000 0.0000 25.4377 0.0000 0.8865
# 5 11.8125 20.2729 11.3926 0.0000 20.6293 0.0000
# 6 0.0000 0.0000 0.0000 0.8865 0.0000 25.3820
#
#
#
# Elastic Compliance Matrix: (Units=1/GPa)
#
#
# Indices 1 2 3 4 5 6 
#
# 1 0.020509 -0.005838 0.001972 0.000000 -0.007096 0.000000
# 2 -0.005838 0.010931 -0.005967 0.000000 -0.004105 0.000000
# 3 0.001972 -0.005967 0.020086 0.000000 -0.006358 0.000000
# 4 0.000000 0.000000 0.000000 0.039360 0.000000 -0.001375
# 5 -0.007096 -0.004105 -0.006358 0.000000 0.060083 0.000000
# 6 0.000000 0.000000 0.000000 -0.001375 0.000000 0.039446
#
#
# Mechanical properties :
#
#
# Convention : Reuss Voigt Hill
#
# Bulk Modulus (GPa) = 31.38647 53.51222 42.44935
# Shear Modulus (GPa) = 22.65519 26.10416 24.37968
#
# Velocity S-wave (km/s) = 3.40151 3.65126 3.52860
# Velocity P-wave (km/s) = 5.60861 6.71602 6.18714
#
# Compressibility (1/GPa) = 0.03186086
#
# Stress axis : x y z
#
# Youngs Moduli (GPa) = 48.75921 91.47884 49.78675
#
# Poissons Ratio (x) = 0.53404 -0.09819
# Poissons Ratio (y) = 0.28465 0.29708
# Poissons Ratio (z) = -0.09616 0.54585
#
# Static dielectric constant tensor:
#      x y z
#    x 1.719900 0.000000 0.036560 
#    y 0.000000 1.770780 0.000000 
#    z 0.036560 0.000000 1.722200 
# 
# From -- ./inp_files/106001.got.cif
#   From: 2010.05.17/outbox.cif.g08.bks.cpg/sg12_54_cif.got.tgz:106001.got - 2010.06.03 13:09:07.
