data_PCOD9210572
_publ_section_title
;
Structure prediction by ZEFSAII (Michael W. Deem and Ramdas Pophale) SiO2 
 PCOD9210572
Probable space group: C 2/M
;
_chemical_formula_sum "Si O2"
_cell_formula_units_Z 48
_cell_length_a 14.754237
_cell_length_b 8.988644
_cell_length_c 24.979172
_cell_angle_alpha 90.000000
_cell_angle_beta 40.465741
_cell_angle_gamma 90.000000
_cell_volume 2149.953967
_symmetry_space_group_name_H-M "C 2/M"
_symmetry_group_IT_number 12
_symmetry_cell_setting 'monoclinic'
loop_
_space_group_symop_operation_xyz
x,y,z
-x,y,-z
-x,-y,-z
x,-y,z
1/2+x,1/2+y,z
1/2-x,1/2+y,-z
1/2-x,1/2-y,-z
1/2+x,1/2-y,z
loop_
_atom_site_type_symbol
_atom_site_label
_atom_site_fract_x
_atom_site_fract_y
_atom_site_fract_z
Si Si1 0.427764 0.676242 0.802312
Si Si2 0.654671 0.674369 0.319811
Si Si3 0.650461 0.172193 0.872997
Si Si4 0.334621 0.824046 0.575645
Si Si5 0.089358 0.323592 0.633282
Si Si6 0.899453 0.173333 0.936500
O O1 0.444953 0.500000 0.779495
O O2 0.263516 0.712468 0.867332
O O3 0.513447 0.778134 0.723297
O O4 0.463754 0.693382 0.847939
O O5 0.639923 0.500000 0.339776
O O6 0.758208 0.686419 0.222684
O O7 0.708716 0.764426 0.346491
O O8 0.507209 0.743580 0.367205
O O9 0.509774 0.262691 0.928865
O O10 0.612737 0.000000 0.896747
O O11 0.500000 0.795488 0.500000
O O12 0.244264 0.740621 0.571513
O O13 0.310260 0.000000 0.581881
O O14 0.089625 0.500000 0.624813
O O15 0.878481 0.000000 0.955300
O O16 0.750000 0.250000 0.000000
#
# Coordination Sequence:
#
# PCOD9210572 Si02
#       6
#     8   8   8   8   8   8
#     4   9  20  39  60  81 110 149 188 229 280 336
#     4  10  21  39  63  88 115 149 190 237 285 338
#     4   9  19  37  59  82 108 141 183 229 277 330
#     4  11  24  40  58  83 117 155 193 236 286 339
#     4  11  22  37  61  89 116 149 189 236 287 340
#     4  11  23  37  55  80 112 149 185 227 279 334
#
# _framework density 22.326059999999998
#
# number of rings (size 3 to 8) (size 9 to 14) (size 15 to 20)
#    0.000    1.833    0.000    5.000    0.000   10.000 
#    0.000    3.333    0.000    0.000    0.000    0.000 
#    0.000    0.000    0.000    0.000    0.000    0.000 
#
# Total GULP energy -134284.453991 kJ/mol
# GULP energy per Si atom -5595.185583 kJ/mol
# Density = 2.227524 g / cm^3
# Si number density = 22.326060 Si / 1000 Ang^3
#
#
#
# Elastic Constant Matrix: (Units=GPa)
#
#
# Indices 1 2 3 4 5 6 
#
# 1 113.8214 22.3556 14.2227 0.0000 -30.4102 0.0000
# 2 22.3556 56.1517 26.2356 0.0000 -26.5356 0.0001
# 3 14.2227 26.2356 58.4847 0.0000 -18.5243 0.0000
# 4 0.0000 0.0000 0.0000 26.3811 0.0000 -10.7545
# 5 -30.4102 -26.5356 -18.5243 0.0000 38.5358 0.0000
# 6 0.0000 0.0001 0.0000 -10.7545 0.0000 31.0726
#
#
#
# Elastic Compliance Matrix: (Units=1/GPa)
#
#
# Indices 1 2 3 4 5 6 
#
# 1 0.011142 -0.000496 0.000224 0.000000 0.008559 0.000000
# 2 -0.000496 0.029249 -0.007956 0.000000 0.015925 0.000000
# 3 0.000224 -0.007956 0.022334 0.000000 0.005434 0.000000
# 4 0.000000 0.000000 0.000000 0.044133 0.000000 0.015275
# 5 0.008559 0.015925 0.005434 0.000000 0.046282 0.000000
# 6 0.000000 0.000000 0.000000 0.015275 0.000000 0.037469
#
#
# Mechanical properties :
#
#
# Convention : Reuss Voigt Hill
#
# Bulk Modulus (GPa) = 21.61288 39.34283 30.47785
# Shear Modulus (GPa) = 22.47296 30.24084 26.35690
#
# Velocity S-wave (km/s) = 3.17611 3.68436 3.43963
# Velocity P-wave (km/s) = 4.81163 5.97993 5.42731
#
# Compressibility (1/GPa) = 0.04626871
#
# Stress axis : x y z
#
# Youngs Moduli (GPa) = 89.75254 34.18865 44.77401
#
# Poissons Ratio (x) = 0.01695 -0.01002
# Poissons Ratio (y) = 0.04451 0.35624
# Poissons Ratio (z) = -0.02008 0.27202
#
# Static dielectric constant tensor:
#      x y z
#    x 1.828410 0.000000 0.005510 
#    y 0.000000 1.746880 0.000000 
#    z 0.005510 0.000000 1.887470 
# 
# From -- ./inp_files/360217.got.cif
#   From: 2010.05.17/outbox.cif.g08.bks.cpg/sg12_181_cif.got.tgz:360217.got - 2010.06.03 13:09:07.
