data_PCOD9210740
_publ_section_title
;
Structure prediction by ZEFSAII (Michael W. Deem and Ramdas Pophale) SiO2 
 PCOD9210740
Probable space group: C 2/M
;
_chemical_formula_sum "Si O2"
_cell_formula_units_Z 32
_cell_length_a 25.549051
_cell_length_b 8.026132
_cell_length_c 24.069058
_cell_angle_alpha 90.000000
_cell_angle_beta 20.086856
_cell_angle_gamma 90.000000
_cell_volume 1695.104264
_symmetry_space_group_name_H-M "C 2/M"
_symmetry_group_IT_number 12
_symmetry_cell_setting 'monoclinic'
loop_
_space_group_symop_operation_xyz
x,y,z
-x,y,-z
-x,-y,-z
x,-y,z
1/2+x,1/2+y,z
1/2-x,1/2+y,-z
1/2-x,1/2-y,-z
1/2+x,1/2-y,z
loop_
_atom_site_type_symbol
_atom_site_label
_atom_site_fract_x
_atom_site_fract_y
_atom_site_fract_z
Si Si1 0.924528 0.696108 0.818153
Si Si2 0.107297 0.810878 0.743414
Si Si3 0.069254 0.000000 0.992312
Si Si4 0.438423 0.314653 0.432435
Si Si5 0.933126 0.500000 0.628394
O O1 0.930465 0.500000 0.800048
O O2 0.997488 0.792216 0.693699
O O3 0.017318 0.734803 0.781613
O O4 0.750000 0.750000 0.000000
O O5 0.256541 0.710103 0.610786
O O6 0.995875 0.844519 0.906736
O O7 0.158487 0.000000 0.676426
O O8 0.250397 0.000000 0.810126
O O9 0.000000 0.000000 0.000000
O O10 0.476012 0.500000 0.415541
O O11 0.507630 0.165184 0.399546
O O12 0.000000 0.500000 0.500000
#
# Coordination Sequence:
#
# PCOD9210740 Si02
#       5
#     8   8   4   8   4
#     4  12  23  38  60  95 138 177 222 275 334 400
#     4  10  21  39  63  93 129 171 222 268 332 390
#     4  10  22  42  70  94 130 178 219 272 337 390
#     4  12  24  42  67  97 134 175 222 273 336 398
#     4  12  24  46  72  98 134 174 225 280 331 398
#
# _framework density 18.877894000000001
#
# number of rings (size 3 to 8) (size 9 to 14) (size 15 to 20)
#    0.750    0.000    2.500    6.750    0.000    0.500 
#    0.000    1.250    0.000    5.250    0.000    0.000 
#    0.000    0.000    0.000    0.000    0.000    0.000 
#
# Total GULP energy -89409.249019 kJ/mol
# GULP energy per Si atom -5588.078064 kJ/mol
# Density = 1.883493 g / cm^3
# Si number density = 18.877894 Si / 1000 Ang^3
#
#
#
# Elastic Constant Matrix: (Units=GPa)
#
#
# Indices 1 2 3 4 5 6 
#
# 1 134.0601 43.5105 74.7947 -0.0010 -3.3814 -0.0001
# 2 43.5105 141.5722 36.9948 -0.0050 -9.1410 0.0011
# 3 74.7947 36.9948 162.3368 -0.0044 -0.1416 0.0011
# 4 -0.0010 -0.0050 -0.0044 24.2938 0.0008 -1.7299
# 5 -3.3814 -9.1410 -0.1416 0.0008 37.9675 0.0002
# 6 -0.0001 0.0011 0.0011 -1.7299 0.0002 29.2135
#
#
#
# Elastic Compliance Matrix: (Units=1/GPa)
#
#
# Indices 1 2 3 4 5 6 
#
# 1 0.010607 -0.002079 -0.004413 -0.000001 0.000428 0.000000
# 2 -0.002079 0.008044 -0.000874 0.000001 0.001748 0.000000
# 3 -0.004413 -0.000874 0.008392 0.000001 -0.000572 0.000000
# 4 -0.000001 0.000001 0.000001 0.041337 -0.000001 0.002448
# 5 0.000428 0.001748 -0.000572 -0.000001 0.026795 0.000000
# 6 0.000000 0.000000 0.000000 0.002448 0.000000 0.034376
#
#
# Mechanical properties :
#
#
# Convention : Reuss Voigt Hill
#
# Bulk Modulus (GPa) = 81.22664 83.17434 82.20049
# Shear Modulus (GPa) = 33.69609 37.13958 35.41783
#
# Velocity S-wave (km/s) = 4.22945 4.44030 4.33616
# Velocity P-wave (km/s) = 8.18363 8.39304 8.28900
#
# Compressibility (1/GPa) = 0.01231123
#
# Stress axis : x y z
#
# Youngs Moduli (GPa) = 94.27789 124.32095 119.16432
#
# Poissons Ratio (x) = 0.25848 0.52585
# Poissons Ratio (y) = 0.19602 0.10410
# Poissons Ratio (z) = 0.41603 0.10861
#
# Static dielectric constant tensor:
#      x y z
#    x 1.620610 0.000000 0.010500 
#    y 0.000000 1.705340 0.000000 
#    z 0.010500 0.000000 1.637620 
# 
# From -- ./inp_files/348720.got.cif
#   From: 2010.05.17/outbox.cif.g08.bks.cpg/sg12_175_cif.got.tgz:348720.got - 2010.06.03 13:09:07.
