data_PCOD9210128
_publ_section_title
;
Structure prediction by ZEFSAII (Michael W. Deem and Ramdas Pophale) SiO2 
 PCOD9210128
Probable space group: C 2/M
;
_chemical_formula_sum "Si O2"
_cell_formula_units_Z 56
_cell_length_a 20.566931
_cell_length_b 8.631964
_cell_length_c 19.922586
_cell_angle_alpha 90.000000
_cell_angle_beta 57.131193
_cell_angle_gamma 90.000000
_cell_volume 2970.710933
_symmetry_space_group_name_H-M "C 2/M"
_symmetry_group_IT_number 12
_symmetry_cell_setting 'monoclinic'
loop_
_space_group_symop_operation_xyz
x,y,z
-x,y,-z
-x,-y,-z
x,-y,z
1/2+x,1/2+y,z
1/2-x,1/2+y,-z
1/2-x,1/2-y,-z
1/2+x,1/2-y,z
loop_
_atom_site_type_symbol
_atom_site_label
_atom_site_fract_x
_atom_site_fract_y
_atom_site_fract_z
Si Si1 0.874229 0.814167 0.738271
Si Si2 0.086460 0.188777 0.435416
Si Si3 0.639177 0.187109 0.748211
Si Si4 0.964842 0.314178 0.809535
Si Si5 0.167903 0.814021 0.019533
Si Si6 0.295839 0.314830 0.149089
Si Si7 0.764847 0.812629 0.565768
O O1 0.889553 0.765805 0.653110
O O2 0.938788 0.751146 0.752326
O O3 0.791016 0.750570 0.806772
O O4 0.872869 0.000000 0.741942
O O5 0.152130 0.238320 0.451072
O O6 0.000000 0.242700 0.500000
O O7 0.085714 0.000000 0.437133
O O8 0.551767 0.234393 0.779693
O O9 0.665369 0.250177 0.805515
O O10 0.699032 0.235747 0.656259
O O11 0.642160 0.000000 0.749586
O O12 0.961972 0.500000 0.809366
O O13 0.902177 0.253822 0.898093
O O14 0.168484 0.000000 0.025907
O O15 0.250000 0.750000 0.000000
O O16 0.161535 0.773524 0.944267
O O17 0.292132 0.500000 0.155188
O O18 0.750000 0.750000 0.500000
O O19 0.764257 0.000000 0.563792
#
# Coordination Sequence:
#
# PCOD9210128 Si02
#       7
#     8   8   8   8   8   8   8
#     4  11  21  37  63  88 119 162 202 244 301 360
#     4   9  19  36  59  88 119 152 197 247 294 354
#     4  10  23  43  62  84 122 166 202 243 303 364
#     4  11  24  40  60  89 123 158 204 254 296 354
#     4  11  23  39  61  90 123 158 197 250 306 356
#     4  11  23  39  63  90 119 154 200 252 298 355
#     4  10  21  39  60  85 120 157 196 244 299 360
#
# _framework density 18.850707
#
# number of rings (size 3 to 8) (size 9 to 14) (size 15 to 20)
#    0.000    1.571    2.857    1.714    2.000    4.000 
#    0.000    2.857    0.000    2.143    0.000    0.000 
#    0.000    0.000    0.000    0.000    0.000    0.000 
#
# Total GULP energy -156460.517663 kJ/mol
# GULP energy per Si atom -5587.875631 kJ/mol
# Density = 1.880780 g / cm^3
# Si number density = 18.850707 Si / 1000 Ang^3
#
#
#
# Elastic Constant Matrix: (Units=GPa)
#
#
# Indices 1 2 3 4 5 6 
#
# 1 169.8204 32.4530 76.4374 -0.0001 9.4511 -0.0001
# 2 32.4530 18.6795 25.9298 -0.0001 5.9840 -0.0005
# 3 76.4374 25.9298 125.5257 0.0000 15.4036 0.0000
# 4 -0.0001 -0.0001 0.0000 26.9120 0.0000 9.5452
# 5 9.4511 5.9840 15.4036 0.0000 39.2675 0.0000
# 6 -0.0001 -0.0005 0.0000 9.5452 0.0000 27.9092
#
#
#
# Elastic Compliance Matrix: (Units=1/GPa)
#
#
# Indices 1 2 3 4 5 6 
#
# 1 0.009793 -0.012440 -0.003506 0.000000 0.000914 0.000000
# 2 -0.012440 0.092063 -0.010598 0.000000 -0.006878 0.000002
# 3 -0.003506 -0.010598 0.012595 0.000000 -0.002482 0.000000
# 4 0.000000 0.000000 0.000000 0.042288 0.000000 -0.014463
# 5 0.000914 -0.006878 -0.002482 0.000000 0.027268 0.000000
# 6 0.000000 0.000002 0.000000 -0.014463 0.000000 0.040777
#
#
# Mechanical properties :
#
#
# Convention : Reuss Voigt Hill
#
# Bulk Modulus (GPa) = 16.29650 64.85179 40.57414
# Shear Modulus (GPa) = 16.76018 30.76478 23.76248
#
# Velocity S-wave (km/s) = 2.98501 4.04421 3.55429
# Velocity P-wave (km/s) = 4.53257 7.50234 6.19795
#
# Compressibility (1/GPa) = 0.06136286
#
# Stress axis : x y z
#
# Youngs Moduli (GPa) = 102.11343 10.86214 79.39639
#
# Poissons Ratio (x) = 0.13513 0.27834
# Poissons Ratio (y) = 1.27033 0.84144
# Poissons Ratio (z) = 0.35798 0.11512
#
# Static dielectric constant tensor:
#      x y z
#    x 1.628690 0.000000 -0.000670 
#    y 0.000000 1.641550 0.000000 
#    z -0.000670 0.000000 1.640350 
# 
# From -- ./inp_files/281029.got.cif
#   From: 2010.05.17/outbox.cif.g08.bks.cpg/sg12_141_cif.got.tgz:281029.got - 2010.06.03 13:09:07.
