data_PCOD9210527
_publ_section_title
;
Structure prediction by ZEFSAII (Michael W. Deem and Ramdas Pophale) SiO2 
 PCOD9210527
Probable space group: C 2/M
;
_chemical_formula_sum "Si O2"
_cell_formula_units_Z 44
_cell_length_a 10.952278
_cell_length_b 28.531748
_cell_length_c 7.594849
_cell_angle_alpha 90.000000
_cell_angle_beta 136.278951
_cell_angle_gamma 90.000000
_cell_volume 1640.298981
_symmetry_space_group_name_H-M "C 2/M"
_symmetry_group_IT_number 12
_symmetry_cell_setting 'monoclinic'
loop_
_space_group_symop_operation_xyz
x,y,z
-x,y,-z
-x,-y,-z
x,-y,z
1/2+x,1/2+y,z
1/2-x,1/2+y,-z
1/2-x,1/2-y,-z
1/2+x,1/2-y,z
loop_
_atom_site_type_symbol
_atom_site_label
_atom_site_fract_x
_atom_site_fract_y
_atom_site_fract_z
Si Si1 0.951378 0.550711 0.243308
Si Si2 0.801930 0.273884 0.366647
Si Si3 0.375806 0.145062 0.633901
Si Si4 0.968058 0.055419 0.175143
Si Si5 0.722353 0.189774 0.096569
Si Si6 0.500000 0.629031 0.500000
O O1 0.990649 0.500000 0.206463
O O2 0.073065 0.591733 0.302173
O O3 0.000000 0.549054 0.500000
O O4 0.743001 0.560294 0.009824
O O5 0.750000 0.250000 0.500000
O O6 0.693064 0.244235 0.110288
O O7 0.000000 0.263325 0.500000
O O8 0.771845 0.328959 0.369829
O O9 0.304902 0.162434 0.745457
O O10 0.567642 0.170688 0.815833
O O11 0.058434 0.090284 0.409691
O O12 0.014702 0.000000 0.249658
O O13 0.000000 0.065461 0.000000
O O14 0.911132 0.166498 0.266657
#
# Coordination Sequence:
#
# PCOD9210527 Si02
#       6
#     8   8   8   8   8   4
#     4  10  21  39  62  93 132 175 224 276 329 406
#     4  10  21  40  63  90 125 170 220 279 347 408
#     4  10  21  41  63  90 130 174 220 280 346 405
#     4  10  23  42  65  97 135 181 231 286 346 412
#     4  10  22  39  62  92 131 170 221 285 334 423
#     4  12  21  42  66  94 138 176 225 280 354 406
#
# _framework density 26.824380000000001
#
# number of rings (size 3 to 8) (size 9 to 14) (size 15 to 20)
#    0.000    1.818    2.727    0.818    2.545    0.727 
#    0.000    2.727    4.000    0.000    0.000    0.000 
#    0.000    0.000    0.000    0.000    0.000    0.000 
#
# Total GULP energy -122685.139230 kJ/mol
# GULP energy per Si atom -5576.597238 kJ/mol
# Density = 2.676333 g / cm^3
# Si number density = 26.824380 Si / 1000 Ang^3
#
#
#
# Elastic Constant Matrix: (Units=GPa)
#
#
# Indices 1 2 3 4 5 6 
#
# 1 104.5699 24.5796 16.6060 0.0000 -17.5016 0.0000
# 2 24.5796 171.6280 23.3679 0.0000 3.0520 0.0000
# 3 16.6060 23.3679 67.4915 0.0000 -4.4263 0.0000
# 4 0.0000 0.0000 0.0000 40.2576 0.0000 -16.6841
# 5 -17.5016 3.0520 -4.4263 0.0000 50.9253 0.0000
# 6 0.0000 0.0000 0.0000 -16.6841 0.0000 2.5592
#
#
#
# Elastic Compliance Matrix: (Units=1/GPa)
#
#
# Indices 1 2 3 4 5 6 
#
# 1 0.010795 -0.001344 -0.001953 0.000000 0.003621 0.000000
# 2 -0.001344 0.006298 -0.001916 0.000000 -0.001006 0.000000
# 3 -0.001953 -0.001916 0.016015 0.000000 0.000836 0.000000
# 4 0.000000 0.000000 0.000000 -0.014596 0.000000 -0.095157
# 5 0.003621 -0.001006 0.000836 0.000000 0.021014 0.000000
# 6 0.000000 0.000000 0.000000 -0.095157 0.000000 -0.229607
#
#
# Mechanical properties :
#
#
# Convention : Reuss Voigt Hill
#
# Bulk Modulus (GPa) = 44.08845 52.53294 48.31070
# Shear Modulus (GPa) = -29.05403 37.35747 4.15172
#
# Velocity S-wave (km/s) = -3.29465 3.73590 1.24543
# Velocity P-wave (km/s) = 1.41375 6.18351 4.48522
#
# Compressibility (1/GPa) = 0.02268168
#
# Stress axis : x y z
#
# Youngs Moduli (GPa) = 92.63401 158.78496 62.44021
#
# Poissons Ratio (x) = 0.21348 0.12195
# Poissons Ratio (y) = 0.12454 0.11962
# Poissons Ratio (z) = 0.18093 0.30418
#
# Static dielectric constant tensor:
#      x y z
#    x 2.064540 0.000000 -0.153950 
#    y 0.000000 2.199100 0.000000 
#    z -0.153950 0.000000 1.905920 
# 
# From -- ./inp_files/53421.got.cif
#   From: 2010.05.17/outbox.cif.g08.bks.cpg/sg12_27_cif.got.tgz:53421.got - 2010.06.03 13:09:07.
