data_PCOD9210653
_publ_section_title
;
Structure prediction by ZEFSAII (Michael W. Deem and Ramdas Pophale) SiO2 
 PCOD9210653
Probable space group: C 2/M
;
_chemical_formula_sum "Si O2"
_cell_formula_units_Z 48
_cell_length_a 27.916635
_cell_length_b 19.833675
_cell_length_c 12.523863
_cell_angle_alpha 90.000000
_cell_angle_beta 20.183543
_cell_angle_gamma 90.000000
_cell_volume 2392.542677
_symmetry_space_group_name_H-M "C 2/M"
_symmetry_group_IT_number 12
_symmetry_cell_setting 'monoclinic'
loop_
_space_group_symop_operation_xyz
x,y,z
-x,y,-z
-x,-y,-z
x,-y,z
1/2+x,1/2+y,z
1/2-x,1/2+y,-z
1/2-x,1/2-y,-z
1/2+x,1/2-y,z
loop_
_atom_site_type_symbol
_atom_site_label
_atom_site_fract_x
_atom_site_fract_y
_atom_site_fract_z
Si Si1 0.339727 0.424420 0.798945
Si Si2 0.523399 0.785869 0.233912
Si Si3 0.771064 0.794049 0.060254
Si Si4 0.630762 0.291703 0.804249
Si Si5 0.333792 0.573282 0.346122
Si Si6 0.707536 0.080276 0.846740
O O1 0.500000 0.422799 0.500000
O O2 0.286677 0.500000 0.928367
O O3 0.309519 0.409805 0.736336
O O4 0.270159 0.369943 0.020270
O O5 0.357831 0.785635 0.590078
O O6 0.587464 0.735638 0.188352
O O7 0.576371 0.749429 0.017546
O O8 0.590750 0.861012 0.101755
O O9 0.750000 0.750000 0.000000
O O10 0.750000 0.250000 0.500000
O O11 0.691741 0.367415 0.685285
O O12 0.500000 0.297723 0.000000
O O13 0.273897 0.500000 0.442735
O O14 0.281064 0.590348 0.576872
O O15 0.500000 0.566269 0.000000
O O16 0.665166 0.000000 0.938272
#
# Coordination Sequence:
#
# PCOD9210653 Si02
#       6
#     8   8   8   8   8   8
#     4  10  22  40  64  93 128 166 207 258 312 370
#     4  12  25  41  63  93 122 169 211 258 312 375
#     4  12  25  40  62  91 130 165 209 257 310 368
#     4  11  22  39  63  90 124 160 206 258 313 369
#     4   9  19  35  60  91 121 158 206 254 305 369
#     4  10  21  39  63  90 123 164 211 256 308 378
#
# _framework density 20.062338
#
# number of rings (size 3 to 8) (size 9 to 14) (size 15 to 20)
#    0.000    1.333    3.333    2.500    2.333    0.667 
#    0.000    2.500    0.000    4.000    0.000    0.000 
#    0.000    0.000    0.000    0.000    0.000    0.000 
#
# Total GULP energy -133785.037184 kJ/mol
# GULP energy per Si atom -5574.376549 kJ/mol
# Density = 2.001667 g / cm^3
# Si number density = 20.062338 Si / 1000 Ang^3
#
#
#
# Elastic Constant Matrix: (Units=GPa)
#
#
# Indices 1 2 3 4 5 6 
#
# 1 39.4640 24.4314 -8.3933 -0.0002 6.3169 -0.0001
# 2 24.4314 143.0466 31.0072 0.0007 11.7312 -0.0002
# 3 -8.3933 31.0072 61.4588 0.0013 15.6219 -0.0001
# 4 -0.0002 0.0007 0.0013 28.7370 -0.0002 5.0930
# 5 6.3169 11.7312 15.6219 -0.0002 26.5873 -0.0001
# 6 -0.0001 -0.0002 -0.0001 5.0930 -0.0001 29.3572
#
#
#
# Elastic Compliance Matrix: (Units=1/GPa)
#
#
# Indices 1 2 3 4 5 6 
#
# 1 0.034116 -0.007329 0.011280 0.000000 -0.011500 0.000000
# 2 -0.007329 0.009464 -0.006062 0.000000 0.001127 0.000000
# 3 0.011280 -0.006062 0.024536 -0.000001 -0.014422 0.000000
# 4 0.000000 0.000000 -0.000001 0.035902 0.000001 -0.006229
# 5 -0.011500 0.001127 -0.014422 0.000001 0.048320 0.000000
# 6 0.000000 0.000000 0.000000 -0.006229 0.000000 0.035144
#
#
# Mechanical properties :
#
#
# Convention : Reuss Voigt Hill
#
# Bulk Modulus (GPa) = 15.65100 37.56222 26.60661
# Shear Modulus (GPa) = 23.47384 30.06457 26.76921
#
# Velocity S-wave (km/s) = 3.42430 3.87532 3.65677
# Velocity P-wave (km/s) = 4.84279 6.22796 5.57854
#
# Compressibility (1/GPa) = 0.06389369
#
# Stress axis : x y z
#
# Youngs Moduli (GPa) = 29.31142 105.66303 40.75678
#
# Poissons Ratio (x) = 0.77438 -0.45973
# Poissons Ratio (y) = 0.21482 0.24708
# Poissons Ratio (z) = -0.33063 0.64055
#
# Static dielectric constant tensor:
#      x y z
#    x 1.671870 0.000000 -0.013170 
#    y 0.000000 1.797200 0.000000 
#    z -0.013170 0.000000 1.675520 
# 
# From -- ./inp_files/184772.got.cif
#   From: 2010.05.17/outbox.cif.g08.bks.cpg/sg12_93_cif.got.tgz:184772.got - 2010.06.03 13:09:07.
