data_PCOD9210678
_publ_section_title
;
Structure prediction by ZEFSAII (Michael W. Deem and Ramdas Pophale) SiO2 
 PCOD9210678
Probable space group: C 2/M
;
_chemical_formula_sum "Si O2"
_cell_formula_units_Z 48
_cell_length_a 19.778149
_cell_length_b 8.713390
_cell_length_c 20.191850
_cell_angle_alpha 90.000000
_cell_angle_beta 43.785985
_cell_angle_gamma 90.000000
_cell_volume 2407.875590
_symmetry_space_group_name_H-M "C 2/M"
_symmetry_group_IT_number 12
_symmetry_cell_setting 'monoclinic'
loop_
_space_group_symop_operation_xyz
x,y,z
-x,y,-z
-x,-y,-z
x,-y,z
1/2+x,1/2+y,z
1/2-x,1/2+y,-z
1/2-x,1/2-y,-z
1/2+x,1/2-y,z
loop_
_atom_site_type_symbol
_atom_site_label
_atom_site_fract_x
_atom_site_fract_y
_atom_site_fract_z
Si Si1 0.100429 0.686606 0.895628
Si Si2 0.641391 0.317168 0.584332
Si Si3 0.647621 0.321746 0.093260
Si Si4 0.942999 0.317690 0.220260
Si Si5 0.813781 0.820920 0.780276
Si Si6 0.007599 0.682529 0.418439
O O1 0.095850 0.500000 0.901814
O O2 0.106497 0.728689 0.813948
O O3 0.201317 0.732644 0.859028
O O4 0.000000 0.743599 0.000000
O O5 0.644726 0.500000 0.579807
O O6 0.750000 0.250000 0.500000
O O7 0.598295 0.264280 0.685611
O O8 0.571054 0.258560 0.575173
O O9 0.640610 0.500000 0.078090
O O10 0.556643 0.225242 0.131463
O O11 0.645195 0.315261 0.174601
O O12 0.750000 0.250000 0.000000
O O13 0.932443 0.500000 0.236568
O O14 0.885126 0.724653 0.683913
O O15 0.815427 0.000000 0.757795
O O16 0.992512 0.500000 0.426619
O O17 0.000000 0.734053 0.500000
#
# Coordination Sequence:
#
# PCOD9210678 Si02
#       6
#     8   8   8   8   8   8
#     4   9  19  37  61  91 126 167 212 255 305 373
#     4  12  26  45  68  95 128 168 214 263 321 387
#     4  11  22  37  61  91 123 165 211 262 316 379
#     4  11  22  39  64  94 128 165 208 264 320 378
#     4  10  21  39  63  91 123 166 214 257 310 376
#     4  11  25  44  66  96 129 164 208 263 323 381
#
# _framework density 19.934584000000001
#
# number of rings (size 3 to 8) (size 9 to 14) (size 15 to 20)
#    0.000    1.333    1.667    4.000    2.333    4.667 
#    0.000    0.833    0.000    3.500    0.000    0.000 
#    0.000    0.000    0.000    0.000    0.000    0.000 
#
# Total GULP energy -134160.648133 kJ/mol
# GULP energy per Si atom -5590.027006 kJ/mol
# Density = 1.988921 g / cm^3
# Si number density = 19.934584 Si / 1000 Ang^3
#
#
#
# Elastic Constant Matrix: (Units=GPa)
#
#
# Indices 1 2 3 4 5 6 
#
# 1 75.8542 15.9655 2.5007 0.0000 -6.6077 0.0000
# 2 15.9655 66.9402 17.6403 0.0000 10.1830 0.0000
# 3 2.5007 17.6403 82.4212 0.0000 -3.2434 0.0000
# 4 0.0000 0.0000 0.0000 32.4382 0.0000 -10.9273
# 5 -6.6077 10.1830 -3.2434 0.0000 35.4022 0.0000
# 6 0.0000 0.0000 0.0000 -10.9273 0.0000 15.9019
#
#
#
# Elastic Compliance Matrix: (Units=1/GPa)
#
#
# Indices 1 2 3 4 5 6 
#
# 1 0.014390 -0.004195 0.000617 0.000000 0.003949 0.000000
# 2 -0.004195 0.017943 -0.003961 0.000000 -0.006307 0.000000
# 3 0.000617 -0.003961 0.013058 0.000000 0.002451 0.000000
# 4 0.000000 0.000000 0.000000 0.040113 0.000000 0.027565
# 5 0.003949 -0.006307 0.002451 0.000000 0.031023 0.000000
# 6 0.000000 0.000000 0.000000 0.027565 0.000000 0.081827
#
#
# Mechanical properties :
#
#
# Convention : Reuss Voigt Hill
#
# Bulk Modulus (GPa) = 32.99089 33.04763 33.01926
# Shear Modulus (GPa) = 22.36764 29.35572 25.86168
#
# Velocity S-wave (km/s) = 3.35334 3.84161 3.60575
# Velocity P-wave (km/s) = 5.61949 6.02423 5.82538
#
# Compressibility (1/GPa) = 0.03031139
#
# Stress axis : x y z
#
# Youngs Moduli (GPa) = 69.49335 55.73338 76.57963
#
# Poissons Ratio (x) = 0.23382 -0.04723
# Poissons Ratio (y) = 0.29155 0.30334
# Poissons Ratio (z) = -0.04286 0.22076
#
# Static dielectric constant tensor:
#      x y z
#    x 1.695410 0.000000 0.001370 
#    y 0.000000 1.678950 0.000000 
#    z 0.001370 0.000000 1.700340 
# 
# From -- ./inp_files/319551.got.cif
#   From: 2010.05.17/outbox.cif.g08.bks.cpg/sg12_160_cif.got.tgz:319551.got - 2010.06.03 13:09:07.
