data_PCOD9210171
_publ_section_title
;
Structure prediction by ZEFSAII (Michael W. Deem and Ramdas Pophale) SiO2 
 PCOD9210171
Probable space group: C 2/M
;
_chemical_formula_sum "Si O2"
_cell_formula_units_Z 56
_cell_length_a 20.880881
_cell_length_b 25.396390
_cell_length_c 10.478921
_cell_angle_alpha 90.000000
_cell_angle_beta 145.854714
_cell_angle_gamma 90.000000
_cell_volume 3119.085201
_symmetry_space_group_name_H-M "C 2/M"
_symmetry_group_IT_number 12
_symmetry_cell_setting 'monoclinic'
loop_
_space_group_symop_operation_xyz
x,y,z
-x,y,-z
-x,-y,-z
x,-y,z
1/2+x,1/2+y,z
1/2-x,1/2+y,-z
1/2-x,1/2-y,-z
1/2+x,1/2-y,z
loop_
_atom_site_type_symbol
_atom_site_label
_atom_site_fract_x
_atom_site_fract_y
_atom_site_fract_z
Si Si1 0.841982 0.096023 0.650671
Si Si2 0.479823 0.247788 0.315351
Si Si3 0.111833 0.144076 0.775280
Si Si4 0.691885 0.289221 0.503122
Si Si5 0.914750 0.938528 0.046696
Si Si6 0.120828 0.439523 0.128369
Si Si7 0.170340 0.657344 0.045434
O O1 0.852940 0.158526 0.643150
O O2 0.725322 0.075840 0.394606
O O3 0.950629 0.069214 0.761525
O O4 0.850978 0.081754 0.814183
O O5 0.500000 0.242974 0.500000
O O6 0.401494 0.300050 0.174246
O O7 0.592659 0.261095 0.420683
O O8 0.420879 0.195085 0.170156
O O9 0.115143 0.097132 0.881622
O O10 0.222418 0.147136 0.869435
O O11 0.000000 0.138507 0.500000
O O12 0.750000 0.250000 0.500000
O O13 0.782804 0.311169 0.754489
O O14 0.891003 0.000000 0.027441
O O15 0.135732 0.500000 0.112314
O O16 0.123811 0.398099 0.018360
O O17 0.000000 0.434730 0.000000
#
# Coordination Sequence:
#
# PCOD9210171 Si02
#       7
#     8   8   8   8   8   8   8
#     4  10  21  39  60  92 127 152 201 251 307 364
#     4  11  23  41  60  84 124 161 198 241 305 363
#     4  11  21  41  59  85 124 163 201 242 298 361
#     4  11  24  37  62  94 120 157 200 251 301 360
#     4  11  22  36  64  94 122 160 197 251 314 359
#     4  10  22  42  63  85 120 161 202 252 301 358
#     4  11  24  39  63  88 118 158 202 247 298 366
#
# _framework density 17.953982
#
# number of rings (size 3 to 8) (size 9 to 14) (size 15 to 20)
#    0.000    1.286    4.286    3.000    6.000    0.857 
#    0.000    0.000    0.000    0.429    0.000    0.000 
#    0.000    0.000    0.000    0.000    0.000    0.000 
#
# Total GULP energy -156416.156747 kJ/mol
# GULP energy per Si atom -5586.291312 kJ/mol
# Density = 1.791312 g / cm^3
# Si number density = 17.953982 Si / 1000 Ang^3
#
#
#
# Elastic Constant Matrix: (Units=GPa)
#
#
# Indices 1 2 3 4 5 6 
#
# 1 113.5196 92.3132 27.8659 0.0000 -7.8421 0.0000
# 2 92.3132 173.0145 71.7942 0.0000 -8.9862 0.0000
# 3 27.8659 71.7942 65.4461 0.0000 -6.2988 0.0000
# 4 0.0000 0.0000 0.0000 11.1384 0.0000 -16.3807
# 5 -7.8421 -8.9862 -6.2988 0.0000 22.0188 0.0000
# 6 0.0000 0.0000 0.0000 -16.3807 0.0000 2.1497
#
#
#
# Elastic Compliance Matrix: (Units=1/GPa)
#
#
# Indices 1 2 3 4 5 6 
#
# 1 0.016520 -0.010757 0.005049 0.000000 0.002938 0.000000
# 2 -0.010757 0.017637 -0.014852 0.000000 -0.000882 0.000000
# 3 0.005049 -0.014852 0.029833 0.000000 0.004271 0.000000
# 4 0.000000 0.000000 0.000000 -0.008796 0.000000 -0.067029
# 5 0.002938 -0.000882 0.004271 0.000000 0.047324 0.000000
# 6 0.000000 0.000000 0.000000 -0.067029 0.000000 -0.045578
#
#
# Mechanical properties :
#
#
# Convention : Reuss Voigt Hill
#
# Bulk Modulus (GPa) = 43.72424 81.76964 62.74694
# Shear Modulus (GPa) = 47.31112 17.72849 32.51981
#
# Velocity S-wave (km/s) = 5.13892 3.14577 4.26054
# Velocity P-wave (km/s) = 7.72125 7.67055 7.69594
#
# Compressibility (1/GPa) = 0.02287061
#
# Stress axis : x y z
#
# Youngs Moduli (GPa) = 60.53216 56.70056 33.51944
#
# Poissons Ratio (x) = 0.60993 -0.16925
# Poissons Ratio (y) = 0.65115 0.49783
# Poissons Ratio (z) = -0.30564 0.84211
#
# Static dielectric constant tensor:
#      x y z
#    x 1.593420 0.000000 -0.001620 
#    y 0.000000 1.611680 0.000000 
#    z -0.001620 0.000000 1.613440 
# 
# From -- ./inp_files/80072.got.cif
#   From: 2010.05.17/outbox.cif.g08.bks.cpg/sg12_41_cif.got.tgz:80072.got - 2010.06.03 13:09:07.
