data_PCOD9210643
_publ_section_title
;
Structure prediction by ZEFSAII (Michael W. Deem and Ramdas Pophale) SiO2 
 PCOD9210643
Probable space group: C 2/M
;
_chemical_formula_sum "Si O2"
_cell_formula_units_Z 64
_cell_length_a 30.530545
_cell_length_b 8.153525
_cell_length_c 16.485220
_cell_angle_alpha 90.000000
_cell_angle_beta 132.983686
_cell_angle_gamma 90.000000
_cell_volume 3002.046779
_symmetry_space_group_name_H-M "C 2/M"
_symmetry_group_IT_number 12
_symmetry_cell_setting 'monoclinic'
loop_
_space_group_symop_operation_xyz
x,y,z
-x,y,-z
-x,-y,-z
x,-y,z
1/2+x,1/2+y,z
1/2-x,1/2+y,-z
1/2-x,1/2-y,-z
1/2+x,1/2-y,z
loop_
_atom_site_type_symbol
_atom_site_label
_atom_site_fract_x
_atom_site_fract_y
_atom_site_fract_z
Si Si1 0.348460 0.303205 0.787055
Si Si2 0.822197 0.691263 0.283784
Si Si3 0.993758 0.691869 0.263360
Si Si4 0.116788 0.301173 0.340350
Si Si5 0.446446 0.307151 0.373830
Si Si6 0.786239 0.698394 0.414785
Si Si7 0.603375 0.691479 0.979737
Si Si8 0.780496 0.688021 0.956535
O O1 0.343899 0.500000 0.790222
O O2 0.385752 0.261394 0.754342
O O3 0.280954 0.239526 0.685362
O O4 0.377258 0.243051 0.907315
O O5 0.804635 0.500000 0.254946
O O6 0.884883 0.718744 0.318753
O O7 0.824345 0.732297 0.381675
O O8 0.770014 0.793867 0.175824
O O9 0.997773 0.500000 0.289250
O O10 0.966083 0.780783 0.306158
O O11 0.059562 0.750849 0.320726
O O12 0.950300 0.716063 0.131924
O O13 0.117008 0.500000 0.339035
O O14 0.177508 0.241678 0.461299
O O15 0.500000 0.249054 0.500000
O O16 0.437031 0.500000 0.376997
O O17 0.782452 0.500000 0.417594
O O18 0.587115 0.500000 0.966102
O O19 0.661963 0.709379 0.997356
O O20 0.799287 0.500000 0.989895
O O21 0.750000 0.750000 0.000000
#
# Coordination Sequence:
#
# PCOD9210643 Si02
#       8
#     8   8   8   8   8   8   8   8
#     4  10  21  39  63  90 122 158 203 253 311 369
#     4  11  21  38  63  89 122 161 203 248 303 366
#     4  11  24  42  62  89 123 164 211 256 308 369
#     4  10  22  39  62  90 121 158 205 256 307 365
#     4  11  24  41  61  90 127 164 208 258 307 364
#     4   9  18  37  62  90 123 158 199 249 304 368
#     4  11  23  42  64  88 122 163 206 255 307 366
#     4  12  24  39  60  88 121 157 200 248 304 364
#
# _framework density 21.318788000000001
#
# number of rings (size 3 to 8) (size 9 to 14) (size 15 to 20)
#    0.000    1.375    1.250    4.500    0.000    4.500 
#    0.000    3.750    0.000    0.000    0.000    0.000 
#    0.000    0.000    0.000    0.000    0.000    0.000 
#
# Total GULP energy -178962.086351 kJ/mol
# GULP energy per Si atom -5592.565198 kJ/mol
# Density = 2.127027 g / cm^3
# Si number density = 21.318788 Si / 1000 Ang^3
#
#
#
# Elastic Constant Matrix: (Units=GPa)
#
#
# Indices 1 2 3 4 5 6 
#
# 1 55.0966 -8.1801 -2.6520 0.0000 -6.8867 0.0000
# 2 -8.1801 22.5124 -4.9202 0.0000 -1.0245 0.0000
# 3 -2.6520 -4.9202 85.1693 0.0000 -6.0609 0.0000
# 4 0.0000 0.0000 0.0000 1.3216 0.0000 0.1943
# 5 -6.8867 -1.0245 -6.0609 0.0000 37.6911 0.0000
# 6 0.0000 0.0000 0.0000 0.1943 0.0000 23.7236
#
#
#
# Elastic Compliance Matrix: (Units=1/GPa)
#
#
# Indices 1 2 3 4 5 6 
#
# 1 0.019865 0.007698 0.001352 0.000000 0.004056 0.000000
# 2 0.007698 0.048074 0.003247 0.000000 0.003236 0.000000
# 3 0.001352 0.003247 0.012134 0.000000 0.002286 0.000000
# 4 0.000000 0.000000 0.000000 0.757577 0.000000 -0.006204
# 5 0.004056 0.003236 0.002286 0.000000 0.027728 0.000000
# 6 0.000000 0.000000 0.000000 -0.006204 0.000000 0.042203
#
#
# Mechanical properties :
#
#
# Convention : Reuss Voigt Hill
#
# Bulk Modulus (GPa) = 9.55409 14.58598 12.07004
# Shear Modulus (GPa) = 5.44736 24.44929 14.94832
#
# Velocity S-wave (km/s) = 1.60023 3.39018 2.65085
# Velocity P-wave (km/s) = 2.81169 4.70968 3.87858
#
# Compressibility (1/GPa) = 0.10466720
#
# Stress axis : x y z
#
# Youngs Moduli (GPa) = 50.33992 20.80126 82.41504
#
# Poissons Ratio (x) = -0.16013 -0.11142
# Poissons Ratio (y) = -0.38753 -0.26761
# Poissons Ratio (z) = -0.06806 -0.06754
#
# Static dielectric constant tensor:
#      x y z
#    x 1.742980 0.000000 0.000790 
#    y 0.000000 1.762780 0.000000 
#    z 0.000790 0.000000 1.779000 
# 
# From -- ./inp_files/249965.got.cif
#   From: 2010.05.17/outbox.cif.g08.bks.cpg/sg12_125_cif.got.tgz:249965.got - 2010.06.03 13:09:07.
