data_PCOD9210595
_publ_section_title
;
Structure prediction by ZEFSAII (Michael W. Deem and Ramdas Pophale) SiO2 
 PCOD9210595
Probable space group: C 2/M
;
_chemical_formula_sum "Si O2"
_cell_formula_units_Z 54
_cell_length_a 20.952600
_cell_length_b 20.864811
_cell_length_c 6.786667
_cell_angle_alpha 90.000000
_cell_angle_beta 78.053979
_cell_angle_gamma 90.000000
_cell_volume 2902.686134
_symmetry_space_group_name_H-M "C 2/M"
_symmetry_group_IT_number 12
_symmetry_cell_setting 'monoclinic'
loop_
_space_group_symop_operation_xyz
x,y,z
-x,y,-z
-x,-y,-z
x,-y,z
1/2+x,1/2+y,z
1/2-x,1/2+y,-z
1/2-x,1/2-y,-z
1/2+x,1/2-y,z
loop_
_atom_site_type_symbol
_atom_site_label
_atom_site_fract_x
_atom_site_fract_y
_atom_site_fract_z
Si Si1 0.059982 0.631637 0.838806
Si Si2 0.605173 0.574837 0.245642
Si Si3 0.341322 0.805510 0.951941
Si Si4 0.000000 0.118651 0.000000
Si Si5 0.500000 0.000000 0.000000
Si Si6 0.301040 0.660039 0.078423
Si Si7 0.928372 0.280119 0.526591
Si Si8 0.389801 0.655677 0.364153
O O1 0.061056 0.659408 0.620290
O O2 0.127078 0.652270 0.897332
O O3 0.000000 0.663841 0.000000
O O4 0.043993 0.557145 0.868016
O O5 0.620112 0.500000 0.259593
O O6 0.543824 0.581444 0.133938
O O7 0.594667 0.607831 0.465628
O O8 0.662896 0.614825 0.102900
O O9 0.275896 0.836873 0.907252
O O10 0.395774 0.799885 0.749197
O O11 0.325462 0.733372 0.032650
O O12 0.948086 0.156852 0.166049
O O13 0.325898 0.638371 0.277930
O O14 0.883281 0.226304 0.457510
O O15 0.000000 0.249078 0.500000
#
# Coordination Sequence:
#
# PCOD9210595 Si02
#       8
#     8   8   8   4   2   8   8   8
#     4  10  21  39  63  88 123 161 198 253 319 377
#     4  11  23  42  62  86 128 171 209 255 313 375
#     4  11  22  41  64  92 123 162 209 265 319 364
#     4  10  23  37  60  89 122 167 204 258 302 365
#     4   8  20  42  62  90 132 162 190 250 334 392
#     4  10  24  41  61  90 125 166 213 262 311 376
#     4  12  21  33  63  97 120 156 202 261 315 367
#     4  11  23  36  60  94 127 159 209 259 311 368
#
# _framework density 18.603459000000001
#
# number of rings (size 3 to 8) (size 9 to 14) (size 15 to 20)
#    0.444    0.889    4.444    1.556    3.111    5.333 
#    1.333    3.333    0.000    0.000    0.000    0.000 
#    0.000    0.000    0.000    0.000    0.000    0.000 
#
# Total GULP energy -150330.624507 kJ/mol
# GULP energy per Si atom -5567.800908 kJ/mol
# Density = 1.856112 g / cm^3
# Si number density = 18.603459 Si / 1000 Ang^3
#
#
#
# Elastic Constant Matrix: (Units=GPa)
#
#
# Indices 1 2 3 4 5 6 
#
# 1 91.2209 6.1974 22.2705 0.0000 15.9711 0.0000
# 2 6.1974 91.8630 16.0558 0.0000 11.7800 0.0000
# 3 22.2705 16.0558 81.2475 0.0000 21.1486 0.0000
# 4 0.0000 0.0000 0.0000 24.0703 0.0000 -1.5330
# 5 15.9711 11.7800 21.1486 0.0000 22.3857 0.0000
# 6 0.0000 0.0000 0.0000 -1.5330 0.0000 14.2546
#
#
#
# Elastic Compliance Matrix: (Units=1/GPa)
#
#
# Indices 1 2 3 4 5 6 
#
# 1 0.012675 0.000414 -0.001519 0.000000 -0.007826 0.000000
# 2 0.000414 0.011741 -0.000993 0.000000 -0.005536 0.000000
# 3 -0.001519 -0.000993 0.016580 0.000000 -0.014057 0.000000
# 4 0.000000 0.000000 0.000000 0.041831 0.000000 0.004499
# 5 -0.007826 -0.005536 -0.014057 0.000000 0.066449 0.000000
# 6 0.000000 0.000000 0.000000 0.004499 0.000000 0.070637
#
#
# Mechanical properties :
#
#
# Convention : Reuss Voigt Hill
#
# Bulk Modulus (GPa) = 27.17346 39.26432 33.21889
# Shear Modulus (GPa) = 21.15277 26.79596 23.97437
#
# Velocity S-wave (km/s) = 3.37565 3.79935 3.59375
# Velocity P-wave (km/s) = 5.46185 6.35598 5.92580
#
# Compressibility (1/GPa) = 0.03680061
#
# Stress axis : x y z
#
# Youngs Moduli (GPa) = 78.89342 85.16961 60.31454
#
# Poissons Ratio (x) = -0.03526 0.09163
# Poissons Ratio (y) = -0.03266 0.05987
# Poissons Ratio (z) = 0.11985 0.08455
#
# Static dielectric constant tensor:
#      x y z
#    x 1.674900 0.000000 0.025180 
#    y 0.000000 1.611990 0.000000 
#    z 0.025180 0.000000 1.651740 
# 
# From -- ./inp_files/21637.got.cif
#   From: 2010.05.17/outbox.cif.g08.bks.cpg/sg12_11_cif.got.tgz:21637.got - 2010.06.03 13:09:07.
