data_PCOD9210044
_publ_section_title
;
Structure prediction by ZEFSAII (Michael W. Deem and Ramdas Pophale) SiO2 
 PCOD9210044
Probable space group: C 2/M
;
_chemical_formula_sum "Si O2"
_cell_formula_units_Z 28
_cell_length_a 14.346387
_cell_length_b 15.482246
_cell_length_c 8.347264
_cell_angle_alpha 90.000000
_cell_angle_beta 47.996251
_cell_angle_gamma 90.000000
_cell_volume 1377.743988
_symmetry_space_group_name_H-M "C 2/M"
_symmetry_group_IT_number 12
_symmetry_cell_setting 'monoclinic'
loop_
_space_group_symop_operation_xyz
x,y,z
-x,y,-z
-x,-y,-z
x,-y,z
1/2+x,1/2+y,z
1/2-x,1/2+y,-z
1/2-x,1/2-y,-z
1/2+x,1/2-y,z
loop_
_atom_site_type_symbol
_atom_site_label
_atom_site_fract_x
_atom_site_fract_y
_atom_site_fract_z
Si Si1 0.271995 0.824203 0.604484
Si Si2 0.500000 0.275411 0.500000
Si Si3 0.342070 0.000000 0.983478
Si Si4 0.180428 0.160588 0.040553
Si Si5 0.360852 0.000000 0.346518
O O1 0.250000 0.750000 0.500000
O O2 0.394173 0.787916 0.554359
O O3 0.168301 0.838554 0.862347
O O4 0.300343 0.914144 0.487610
O O5 0.443789 0.334103 0.707714
O O6 0.339509 0.000000 0.179856
O O7 0.269839 0.082745 0.994986
O O8 0.491065 0.000000 0.778057
O O9 0.250000 0.250000 0.000000
#
# Coordination Sequence:
#
# PCOD9210044 Si02
#       5
#     8   4   4   8   4
#     4  11  23  39  63  93 124 159 205 252 303 366
#     4  10  22  40  62  86 126 168 198 250 310 356
#     4  11  23  38  62  91 120 162 209 250 301 366
#     4  10  21  39  59  85 120 159 202 247 301 361
#     4  11  21  37  62  91 122 158 205 257 301 354
#
# _framework density 20.323080000000001
#
# number of rings (size 3 to 8) (size 9 to 14) (size 15 to 20)
#    0.000    1.429    0.000    7.714    0.000    5.714 
#    0.000    1.429    0.000    5.143    0.000    0.000 
#    0.000    0.000    0.000    0.000    0.000    0.000 
#
# Total GULP energy -78169.827448 kJ/mol
# GULP energy per Si atom -5583.559103 kJ/mol
# Density = 2.027682 g / cm^3
# Si number density = 20.323080 Si / 1000 Ang^3
#
#
#
# Elastic Constant Matrix: (Units=GPa)
#
#
# Indices 1 2 3 4 5 6 
#
# 1 58.6201 36.9430 29.4095 0.0000 20.2812 0.0000
# 2 36.9430 182.6388 68.4728 0.0000 19.9141 0.0000
# 3 29.4095 68.4728 177.7018 0.0000 38.8532 0.0000
# 4 0.0000 0.0000 0.0000 34.3874 0.0000 1.3425
# 5 20.2812 19.9141 38.8532 0.0000 28.8157 0.0000
# 6 0.0000 0.0000 0.0000 1.3425 0.0000 39.4918
#
#
#
# Elastic Compliance Matrix: (Units=1/GPa)
#
#
# Indices 1 2 3 4 5 6 
#
# 1 0.024318 -0.003488 0.000758 0.000000 -0.015727 0.000000
# 2 -0.003488 0.006950 -0.002251 0.000000 0.000687 0.000000
# 3 0.000758 -0.002251 0.008715 0.000000 -0.010729 0.000000
# 4 0.000000 0.000000 0.000000 0.029119 0.000000 -0.000990
# 5 -0.015727 0.000687 -0.010729 0.000000 0.059764 0.000000
# 6 0.000000 0.000000 0.000000 -0.000990 0.000000 0.025355
#
#
# Mechanical properties :
#
#
# Convention : Reuss Voigt Hill
#
# Bulk Modulus (GPa) = 33.31003 76.51238 54.91120
# Shear Modulus (GPa) = 28.70423 39.48135 34.09279
#
# Velocity S-wave (km/s) = 3.76226 4.41237 4.10022
# Velocity P-wave (km/s) = 5.94127 7.98050 7.03517
#
# Compressibility (1/GPa) = 0.03002099
#
# Stress axis : x y z
#
# Youngs Moduli (GPa) = 41.12134 143.88846 114.74435
#
# Poissons Ratio (x) = 0.50193 -0.08699
# Poissons Ratio (y) = 0.14345 0.25827
# Poissons Ratio (z) = -0.03118 0.32387
#
# Static dielectric constant tensor:
#      x y z
#    x 1.669100 0.000000 0.005020 
#    y 0.000000 1.652470 0.000000 
#    z 0.005020 0.000000 1.808440 
# 
# From -- ./inp_files/45499.got.cif
#   From: 2010.05.17/outbox.cif.g08.bks.cpg/sg12_23_cif.got.tgz:45499.got - 2010.06.03 13:09:07.
