data_PCOD9210426
_publ_section_title
;
Structure prediction by ZEFSAII (Michael W. Deem and Ramdas Pophale) SiO2 
 PCOD9210426
Probable space group: C 2/M
;
_chemical_formula_sum "Si O2"
_cell_formula_units_Z 58
_cell_length_a 24.122777
_cell_length_b 7.523008
_cell_length_c 25.410094
_cell_angle_alpha 90.000000
_cell_angle_beta 34.989206
_cell_angle_gamma 90.000000
_cell_volume 2644.231828
_symmetry_space_group_name_H-M "C 2/M"
_symmetry_group_IT_number 12
_symmetry_cell_setting 'monoclinic'
loop_
_space_group_symop_operation_xyz
x,y,z
-x,y,-z
-x,-y,-z
x,-y,z
1/2+x,1/2+y,z
1/2-x,1/2+y,-z
1/2-x,1/2-y,-z
1/2+x,1/2-y,z
loop_
_atom_site_type_symbol
_atom_site_label
_atom_site_fract_x
_atom_site_fract_y
_atom_site_fract_z
Si Si1 0.811947 0.710327 0.900371
Si Si2 0.033718 0.202334 0.724560
Si Si3 0.854034 0.706895 0.258904
Si Si4 0.785847 0.207476 0.803570
Si Si5 0.867155 0.214735 0.568884
Si Si6 0.406493 0.781700 0.105277
Si Si7 0.500000 0.000000 0.500000
Si Si8 0.994503 0.783199 0.368181
O O1 0.823829 0.500000 0.886026
O O2 0.918535 0.791779 0.822844
O O3 0.766184 0.778588 0.881471
O O4 0.750000 0.750000 0.000000
O O5 0.046215 0.281122 0.656403
O O6 0.087277 0.280110 0.732950
O O7 0.067516 0.000000 0.695716
O O8 0.842136 0.500000 0.256617
O O9 0.744131 0.769452 0.350091
O O10 0.906663 0.778720 0.165954
O O11 0.694936 0.278288 0.841834
O O12 0.894752 0.280690 0.712024
O O13 0.792850 0.000000 0.783337
O O14 0.918017 0.340905 0.571181
O O15 0.925230 0.261932 0.470171
O O16 0.876226 0.000000 0.571345
O O17 0.408134 0.000000 0.101535
O O18 0.500000 0.721888 0.000000
O O19 0.998246 0.000000 0.362490
#
# Coordination Sequence:
#
# PCOD9210426 Si02
#       8
#     8   8   8   8   8   8   2   8
#     4  11  22  37  58  86 117 154 203 257 316 368
#     4  10  21  39  62  88 123 162 203 259 315 377
#     4  10  22  39  61  92 126 168 212 250 317 376
#     4   9  18  35  59  85 114 155 202 251 307 371
#     4  10  23  43  65  94 133 171 212 266 318 380
#     4   9  19  35  57  86 120 162 206 247 303 377
#     4  12  26  40  64 102 126 168 226 260 324 370
#     4   8  17  37  61  86 119 163 204 249 322 376
#
# _framework density 21.934536999999999
#
# number of rings (size 3 to 8) (size 9 to 14) (size 15 to 20)
#    0.000    2.345    0.000    2.690    4.828    0.552 
#    6.207    0.690    0.000    0.828    0.000    0.000 
#    0.000    0.000    0.000    0.000    0.000    0.000 
#
# Total GULP energy -161621.728978 kJ/mol
# GULP energy per Si atom -5573.163068 kJ/mol
# Density = 2.188461 g / cm^3
# Si number density = 21.934537 Si / 1000 Ang^3
#
#
#
# Elastic Constant Matrix: (Units=GPa)
#
#
# Indices 1 2 3 4 5 6 
#
# 1 132.8963 3.6638 63.4008 0.0171 3.8624 -0.0133
# 2 3.6638 66.3123 7.9125 0.0233 -3.7454 -0.0389
# 3 63.4008 7.9125 125.9145 0.0139 24.5750 -0.0102
# 4 0.0171 0.0233 0.0139 10.2105 -0.0119 -2.7375
# 5 3.8624 -3.7454 24.5750 -0.0119 28.1408 0.0074
# 6 -0.0133 -0.0389 -0.0102 -2.7375 0.0074 12.3309
#
#
#
# Elastic Compliance Matrix: (Units=1/GPa)
#
#
# Indices 1 2 3 4 5 6 
#
# 1 0.010226 0.000356 -0.005915 -0.000004 0.003809 0.000004
# 2 0.000356 0.015488 -0.001863 -0.000018 0.003639 0.000042
# 3 -0.005915 -0.001863 0.013172 -0.000016 -0.010939 0.000002
# 4 -0.000004 -0.000018 -0.000016 0.104136 0.000050 0.023118
# 5 0.003809 0.003639 -0.010939 0.000050 0.045050 -0.000009
# 6 0.000004 0.000042 0.000002 0.023118 -0.000009 0.086229
#
#
# Mechanical properties :
#
#
# Convention : Reuss Voigt Hill
#
# Bulk Modulus (GPa) = 41.59182 52.78635 47.18908
# Shear Modulus (GPa) = 16.82596 26.81285 21.81941
#
# Velocity S-wave (km/s) = 2.77266 3.50008 3.15739
# Velocity P-wave (km/s) = 5.40862 6.36017 5.90360
#
# Compressibility (1/GPa) = 0.02404319
#
# Stress axis : x y z
#
# Youngs Moduli (GPa) = 97.79087 64.56462 75.91748
#
# Poissons Ratio (x) = -0.02298 0.44903
# Poissons Ratio (y) = -0.03481 0.14142
# Poissons Ratio (z) = 0.57841 0.12027
#
# Static dielectric constant tensor:
#      x y z
#    x 1.819160 0.000000 0.037870 
#    y 0.000000 1.840370 -0.000010 
#    z 0.037870 -0.000010 1.804940 
# 
# From -- ./inp_files/346505.got.cif
#   From: 2010.05.17/outbox.cif.g08.bks.cpg/sg12_174_cif.got.tgz:346505.got - 2010.06.03 13:09:07.
