data_PCOD9210367
_publ_section_title
;
Structure prediction by ZEFSAII (Michael W. Deem and Ramdas Pophale) SiO2 
 PCOD9210367
Probable space group: C 2/M
;
_chemical_formula_sum "Si O2"
_cell_formula_units_Z 40
_cell_length_a 16.926053
_cell_length_b 14.979341
_cell_length_c 12.590859
_cell_angle_alpha 90.000000
_cell_angle_beta 144.705581
_cell_angle_gamma 90.000000
_cell_volume 1844.441388
_symmetry_space_group_name_H-M "C 2/M"
_symmetry_group_IT_number 12
_symmetry_cell_setting 'monoclinic'
loop_
_space_group_symop_operation_xyz
x,y,z
-x,y,-z
-x,-y,-z
x,-y,z
1/2+x,1/2+y,z
1/2-x,1/2+y,-z
1/2-x,1/2-y,-z
1/2+x,1/2-y,z
loop_
_atom_site_type_symbol
_atom_site_label
_atom_site_fract_x
_atom_site_fract_y
_atom_site_fract_z
Si Si1 0.278439 0.270055 0.856528
Si Si2 0.052472 0.400292 0.680309
Si Si3 0.008276 0.902292 0.832623
Si Si4 0.274406 0.173499 0.441409
Si Si5 0.383744 0.397316 0.288490
O O1 0.172852 0.328766 0.811105
O O2 0.241975 0.286000 0.693952
O O3 0.245526 0.168078 0.846910
O O4 0.422446 0.317181 0.035833
O O5 0.099225 0.500000 0.760569
O O6 0.000000 0.403851 0.500000
O O7 0.924391 0.369322 0.609443
O O8 0.047821 0.894937 0.752405
O O9 0.847030 0.896477 0.673898
O O10 0.058807 0.000000 0.927063
O O11 0.250000 0.250000 0.500000
O O12 0.500000 0.366484 0.500000
O O13 0.349153 0.500000 0.275415
#
# Coordination Sequence:
#
# PCOD9210367 Si02
#       5
#     8   8   8   8   8
#     4  11  21  37  60  86 118 152 193 245 294 345
#     4   9  18  33  55  82 114 154 196 237 286 346
#     4  11  23  38  61  91 120 152 193 245 302 350
#     4  11  22  36  56  83 120 162 198 235 287 348
#     4  10  21  39  62  86 115 155 201 242 285 350
#
# _framework density 21.686783999999999
#
# number of rings (size 3 to 8) (size 9 to 14) (size 15 to 20)
#    0.000    1.600    0.000    6.600    0.000    3.200 
#    0.000    1.000    0.000    3.600    0.000    0.000 
#    0.000    0.000    0.000    0.000    0.000    0.000 
#
# Total GULP energy -111863.535128 kJ/mol
# GULP energy per Si atom -5593.176756 kJ/mol
# Density = 2.163742 g / cm^3
# Si number density = 21.686784 Si / 1000 Ang^3
#
#
#
# Elastic Constant Matrix: (Units=GPa)
#
#
# Indices 1 2 3 4 5 6 
#
# 1 85.9171 39.1846 22.0201 0.0000 9.9885 0.0000
# 2 39.1846 122.8528 26.7521 0.0000 10.9737 0.0000
# 3 22.0201 26.7521 54.0219 0.0000 12.3285 0.0000
# 4 0.0000 0.0000 0.0000 22.0890 0.0000 2.0885
# 5 9.9885 10.9737 12.3285 0.0000 41.2173 0.0000
# 6 0.0000 0.0000 0.0000 2.0885 0.0000 24.1266
#
#
#
# Elastic Compliance Matrix: (Units=1/GPa)
#
#
# Indices 1 2 3 4 5 6 
#
# 1 0.014433 -0.003662 -0.003750 0.000000 -0.001401 0.000000
# 2 -0.003662 0.010104 -0.003327 0.000000 -0.000808 0.000000
# 3 -0.003750 -0.003327 0.022836 0.000000 -0.005036 0.000000
# 4 0.000000 0.000000 0.000000 0.045645 0.000000 -0.003951
# 5 -0.001401 -0.000808 -0.005036 0.000000 0.026323 0.000000
# 6 0.000000 0.000000 0.000000 -0.003951 0.000000 0.041790
#
#
# Mechanical properties :
#
#
# Convention : Reuss Voigt Hill
#
# Bulk Modulus (GPa) = 38.61523 48.74506 43.68014
# Shear Modulus (GPa) = 26.14499 29.14224 27.64361
#
# Velocity S-wave (km/s) = 3.47590 3.66974 3.57413
# Velocity P-wave (km/s) = 5.82698 6.36251 6.10063
#
# Compressibility (1/GPa) = 0.02589652
#
# Stress axis : x y z
#
# Youngs Moduli (GPa) = 69.28475 98.96710 43.78977
#
# Poissons Ratio (x) = 0.36240 0.16421
# Poissons Ratio (y) = 0.25371 0.14568
# Poissons Ratio (z) = 0.25982 0.32925
#
# Static dielectric constant tensor:
#      x y z
#    x 1.754960 0.000000 -0.016170 
#    y 0.000000 1.802470 0.000000 
#    z -0.016170 0.000000 1.829490 
# 
# From -- ./inp_files/225820.got.cif
#   From: 2010.05.17/outbox.cif.g08.bks.cpg/sg12_113_cif.got.tgz:225820.got - 2010.06.03 13:09:07.
