data_PCOD9210332
_publ_section_title
;
Structure prediction by ZEFSAII (Michael W. Deem and Ramdas Pophale) SiO2 
 PCOD9210332
Probable space group: C 2/M
;
_chemical_formula_sum "Si O2"
_cell_formula_units_Z 48
_cell_length_a 16.598359
_cell_length_b 31.987406
_cell_length_c 8.475273
_cell_angle_alpha 90.000000
_cell_angle_beta 147.354494
_cell_angle_gamma 90.000000
_cell_volume 2427.396885
_symmetry_space_group_name_H-M "C 2/M"
_symmetry_group_IT_number 12
_symmetry_cell_setting 'monoclinic'
loop_
_space_group_symop_operation_xyz
x,y,z
-x,y,-z
-x,-y,-z
x,-y,z
1/2+x,1/2+y,z
1/2-x,1/2+y,-z
1/2-x,1/2-y,-z
1/2+x,1/2-y,z
loop_
_atom_site_type_symbol
_atom_site_label
_atom_site_fract_x
_atom_site_fract_y
_atom_site_fract_z
Si Si1 0.403960 0.330730 0.498315
Si Si2 0.658188 0.760222 0.691643
Si Si3 0.325824 0.903634 0.893824
Si Si4 0.683177 0.094709 0.473521
Si Si5 0.366429 0.673499 0.871341
Si Si6 0.181574 0.547957 0.797120
O O1 0.500000 0.330415 0.500000
O O2 0.360590 0.281821 0.443301
O O3 0.260747 0.359759 0.247908
O O4 0.526639 0.347607 0.822815
O O5 0.500000 0.774831 0.500000
O O6 0.747835 0.795240 0.747505
O O7 0.750000 0.750000 0.000000
O O8 0.294233 0.923474 0.667033
O O9 0.504899 0.897638 0.195513
O O10 0.276787 0.928525 0.970803
O O11 0.775276 0.137831 0.631811
O O12 0.725684 0.068836 0.701823
O O13 0.500000 0.697021 0.000000
O O14 0.232841 0.500000 0.886226
O O15 0.000000 0.547836 0.500000
#
# Coordination Sequence:
#
# PCOD9210332 Si02
#       6
#     8   8   8   8   8   8
#     4  11  22  40  61  85 118 164 209 256 313 372
#     4  11  24  42  61  88 122 167 218 264 317 371
#     4  10  21  39  61  94 123 161 210 257 309 372
#     4  10  22  38  63  90 125 164 206 255 313 373
#     4  12  24  41  61  90 123 166 210 259 319 368
#     4   9  19  36  63  97 127 157 201 257 314 373
#
# _framework density 19.774267999999999
#
# number of rings (size 3 to 8) (size 9 to 14) (size 15 to 20)
#    0.000    1.500    5.000    1.000    2.333    2.000 
#    3.000    3.333    0.000    5.000    0.000    0.000 
#    0.000    0.000    0.000    0.000    0.000    0.000 
#
# Total GULP energy -133643.043257 kJ/mol
# GULP energy per Si atom -5568.460136 kJ/mol
# Density = 1.972926 g / cm^3
# Si number density = 19.774268 Si / 1000 Ang^3
#
#
#
# Elastic Constant Matrix: (Units=GPa)
#
#
# Indices 1 2 3 4 5 6 
#
# 1 109.0058 72.4173 50.7136 0.0000 -9.5109 0.0000
# 2 72.4173 90.5531 40.7448 0.0000 -5.2342 0.0000
# 3 50.7136 40.7448 93.0695 0.0000 -18.2285 0.0000
# 4 0.0000 0.0000 0.0000 3.4823 0.0000 14.8113
# 5 -9.5109 -5.2342 -18.2285 0.0000 38.9253 0.0000
# 6 0.0000 0.0000 0.0000 14.8113 0.0000 2.1234
#
#
#
# Elastic Compliance Matrix: (Units=1/GPa)
#
#
# Indices 1 2 3 4 5 6 
#
# 1 0.021444 -0.014843 -0.005011 0.000000 0.000897 0.000000
# 2 -0.014843 0.024066 -0.002780 0.000000 -0.001692 0.000000
# 3 -0.005011 -0.002780 0.015831 0.000000 0.005815 0.000000
# 4 0.000000 0.000000 0.000000 -0.010017 0.000000 0.069871
# 5 0.000897 -0.001692 0.005815 0.000000 0.028405 0.000000
# 6 0.000000 0.000000 0.000000 0.069871 0.000000 -0.016427
#
#
# Mechanical properties :
#
#
# Convention : Reuss Voigt Hill
#
# Bulk Modulus (GPa) = 62.21045 68.93109 65.57077
# Shear Modulus (GPa) = 43.88755 17.48971 30.68863
#
# Velocity S-wave (km/s) = 4.71619 2.97723 3.94375
# Velocity P-wave (km/s) = 7.82210 6.83763 7.34637
#
# Compressibility (1/GPa) = 0.01607447
#
# Stress axis : x y z
#
# Youngs Moduli (GPa) = 46.63280 41.55228 63.16646
#
# Poissons Ratio (x) = 0.61675 0.31655
# Poissons Ratio (y) = 0.69215 0.17557
# Poissons Ratio (z) = 0.23369 0.11550
#
# Static dielectric constant tensor:
#      x y z
#    x 1.805990 0.000000 -0.111860 
#    y 0.000000 1.703900 0.000000 
#    z -0.111860 0.000000 1.706620 
# 
# From -- ./inp_files/80850.got.cif
#   From: 2010.05.17/outbox.cif.g08.bks.cpg/sg12_41_cif.got.tgz:80850.got - 2010.06.03 13:09:07.
