data_PCOD9210078
_publ_section_title
;
Structure prediction by ZEFSAII (Michael W. Deem and Ramdas Pophale) SiO2 
 PCOD9210078
Probable space group: C 2/M
;
_chemical_formula_sum "Si O2"
_cell_formula_units_Z 56
_cell_length_a 26.988739
_cell_length_b 8.494286
_cell_length_c 17.860173
_cell_angle_alpha 90.000000
_cell_angle_beta 43.886000
_cell_angle_gamma 90.000000
_cell_volume 2838.375285
_symmetry_space_group_name_H-M "C 2/M"
_symmetry_group_IT_number 12
_symmetry_cell_setting 'monoclinic'
loop_
_space_group_symop_operation_xyz
x,y,z
-x,y,-z
-x,-y,-z
x,-y,z
1/2+x,1/2+y,z
1/2-x,1/2+y,-z
1/2-x,1/2-y,-z
1/2+x,1/2-y,z
loop_
_atom_site_type_symbol
_atom_site_label
_atom_site_fract_x
_atom_site_fract_y
_atom_site_fract_z
Si Si1 0.327258 0.812128 0.390967
Si Si2 0.559484 0.192006 0.608237
Si Si3 0.406302 0.186993 0.832864
Si Si4 0.184280 0.188986 0.758916
Si Si5 0.144054 0.185949 0.964559
Si Si6 0.846335 0.689767 0.632180
Si Si7 0.797732 0.183838 0.836295
O O1 0.250000 0.750000 0.500000
O O2 0.386943 0.755152 0.384446
O O3 0.341230 0.761153 0.290745
O O4 0.325581 0.000000 0.397063
O O5 0.479445 0.241873 0.714294
O O6 0.592477 0.238516 0.492516
O O7 0.559666 0.000000 0.608390
O O8 0.339886 0.269019 0.864524
O O9 0.399220 0.000000 0.830671
O O10 0.405175 0.227442 0.921863
O O11 0.143083 0.240106 0.879115
O O12 0.268609 0.224903 0.680071
O O13 0.179187 0.000000 0.759765
O O14 0.225569 0.218015 0.902028
O O15 0.129969 0.000000 0.982118
O O16 0.849711 0.500000 0.639724
O O17 0.847133 0.773709 0.711144
O O18 0.779397 0.000000 0.856798
#
# Coordination Sequence:
#
# PCOD9210078 Si02
#       7
#     8   8   8   8   8   8   8
#     4  11  20  34  57  85 113 143 181 224 271 323
#     4   9  20  37  56  79 112 150 185 222 270 332
#     4  11  22  38  58  79 107 148 191 227 271 324
#     4   9  18  34  57  83 110 141 180 227 275 320
#     4  10  21  39  60  81 110 145 184 229 274 323
#     4   9  17  35  57  79 111 147 185 224 270 326
#     4  11  22  36  56  84 113 141 183 231 277 325
#
# _framework density 19.729597999999999
#
# number of rings (size 3 to 8) (size 9 to 14) (size 15 to 20)
#    0.000    2.000    1.429    3.857    0.000    3.429 
#    0.000    7.857    0.000    4.286    0.000    0.000 
#    0.000    0.000    0.000    0.000    0.000    0.000 
#
# Total GULP energy -156380.304950 kJ/mol
# GULP energy per Si atom -5585.010891 kJ/mol
# Density = 1.968469 g / cm^3
# Si number density = 19.729598 Si / 1000 Ang^3
#
#
#
# Elastic Constant Matrix: (Units=GPa)
#
#
# Indices 1 2 3 4 5 6 
#
# 1 34.7837 -0.1437 1.7334 -0.0030 19.5344 0.0008
# 2 -0.1437 13.2750 -3.2171 -0.0097 6.3670 0.0054
# 3 1.7334 -3.2171 89.3815 -0.0067 24.1112 0.0036
# 4 -0.0030 -0.0097 -0.0067 27.4079 0.0034 10.8236
# 5 19.5344 6.3670 24.1112 0.0034 29.0547 -0.0017
# 6 0.0008 0.0054 0.0036 10.8236 -0.0017 24.8897
#
#
#
# Elastic Compliance Matrix: (Units=1/GPa)
#
#
# Indices 1 2 3 4 5 6 
#
# 1 0.066296 0.037915 0.018481 0.000049 -0.068218 -0.000039
# 2 0.037915 0.113951 0.021876 0.000086 -0.068616 -0.000071
# 3 0.018481 0.021876 0.020952 0.000028 -0.034607 -0.000023
# 4 0.000049 0.000086 0.000028 0.044051 -0.000081 -0.019156
# 5 -0.068218 -0.068616 -0.034607 -0.000081 0.124038 0.000066
# 6 -0.000039 -0.000071 -0.000023 -0.019156 0.000066 0.048508
#
#
# Mechanical properties :
#
#
# Convention : Reuss Voigt Hill
#
# Bulk Modulus (GPa) = 2.79529 14.90949 8.85239
# Shear Modulus (GPa) = 13.14063 25.54163 19.34113
#
# Velocity S-wave (km/s) = 2.58357 3.60194 3.13439
# Velocity P-wave (km/s) = 3.21242 4.98718 4.19473
#
# Compressibility (1/GPa) = 0.35774410
#
# Stress axis : x y z
#
# Youngs Moduli (GPa) = 15.08392 8.77569 47.72732
#
# Poissons Ratio (x) = -0.33273 -0.88206
# Poissons Ratio (y) = -0.57191 -1.04407
# Poissons Ratio (z) = -0.27877 -0.19198
#
# Static dielectric constant tensor:
#      x y z
#    x 1.674350 0.000000 0.016730 
#    y 0.000000 1.670240 0.000000 
#    z 0.016730 0.000000 1.720000 
# 
# From -- ./inp_files/288261.got.cif
#   From: 2010.05.17/outbox.cif.g08.bks.cpg/sg12_145_cif.got.tgz:288261.got - 2010.06.03 13:09:07.
