data_PCOD9210470
_publ_section_title
;
Structure prediction by ZEFSAII (Michael W. Deem and Ramdas Pophale) SiO2 
 PCOD9210470
Probable space group: C 2/M
;
_chemical_formula_sum "Si O2"
_cell_formula_units_Z 58
_cell_length_a 20.917526
_cell_length_b 14.084799
_cell_length_c 26.082096
_cell_angle_alpha 90.000000
_cell_angle_beta 159.991597
_cell_angle_gamma 90.000000
_cell_volume 2629.239219
_symmetry_space_group_name_H-M "C 2/M"
_symmetry_group_IT_number 12
_symmetry_cell_setting 'monoclinic'
loop_
_space_group_symop_operation_xyz
x,y,z
-x,y,-z
-x,-y,-z
x,-y,z
1/2+x,1/2+y,z
1/2-x,1/2+y,-z
1/2-x,1/2-y,-z
1/2+x,1/2-y,z
loop_
_atom_site_type_symbol
_atom_site_label
_atom_site_fract_x
_atom_site_fract_y
_atom_site_fract_z
Si Si1 0.961287 0.392452 0.198307
Si Si2 0.655537 0.395251 0.057361
Si Si3 0.697162 0.720706 0.364660
Si Si4 0.195251 0.812525 0.661310
Si Si5 0.416342 0.152258 0.347216
Si Si6 0.817465 0.113349 0.102786
Si Si7 0.500000 0.000000 0.500000
Si Si8 0.542856 0.816304 0.973405
O O1 0.024986 0.500000 0.237318
O O2 0.813727 0.392594 0.133112
O O3 0.130937 0.321859 0.336342
O O4 0.838302 0.358608 0.056945
O O5 0.562398 0.500000 0.983458
O O6 0.765053 0.385428 0.193348
O O7 0.537971 0.298863 0.962509
O O8 0.748600 0.744766 0.344173
O O9 0.516679 0.654731 0.235945
O O10 0.882643 0.673455 0.527239
O O11 0.149257 0.750521 0.676896
O O12 0.000000 0.862201 0.500000
O O13 0.382432 0.865962 0.818267
O O14 0.451838 0.081368 0.420492
O O15 0.741163 0.151935 0.099545
O O16 0.827900 0.000000 0.111169
O O17 0.500000 0.837630 0.000000
#
# Coordination Sequence:
#
# PCOD9210470 Si02
#       8
#     8   8   8   8   8   8   2   8
#     4  10  21  39  62  90 123 163 208 271 326 381
#     4  11  23  39  59  95 131 162 213 267 325 380
#     4  11  20  38  67  86 128 167 220 258 321 385
#     4  10  21  39  62  95 124 170 210 258 319 397
#     4  11  23  37  61  93 130 173 211 267 320 391
#     4  11  24  40  64  93 123 169 221 262 324 390
#     4  12  20  40  56  94 134 176 212 254 328 396
#     4  12  23  41  67  90 128 167 213 272 331 374
#
# _framework density 22.059612999999999
#
# number of rings (size 3 to 8) (size 9 to 14) (size 15 to 20)
#    0.000    1.103    6.897    1.241    0.966    1.103 
#    1.241    0.000    0.000    7.448    0.000    0.000 
#    0.000    0.000    0.000    0.000    0.000    0.000 
#
# Total GULP energy -161711.345595 kJ/mol
# GULP energy per Si atom -5576.253296 kJ/mol
# Density = 2.200940 g / cm^3
# Si number density = 22.059613 Si / 1000 Ang^3
#
#
#
# Elastic Constant Matrix: (Units=GPa)
#
#
# Indices 1 2 3 4 5 6 
#
# 1 96.6622 -5.0430 5.0635 -0.0081 12.7387 -0.0006
# 2 -5.0430 61.8612 10.2322 -0.0285 2.0623 -0.0001
# 3 5.0635 10.2322 76.9091 0.0252 16.7275 0.0085
# 4 -0.0081 -0.0285 0.0252 -9.2776 -0.0004 -8.3249
# 5 12.7387 2.0623 16.7275 -0.0004 28.8585 -0.0012
# 6 -0.0006 -0.0001 0.0085 -8.3249 -0.0012 12.4648
#
#
#
# Elastic Compliance Matrix: (Units=1/GPa)
#
#
# Indices 1 2 3 4 5 6 
#
# 1 0.011058 0.001031 0.000243 -0.000007 -0.005096 -0.000005
# 2 0.001031 0.016625 -0.002200 -0.000037 -0.000368 -0.000023
# 3 0.000243 -0.002200 0.015182 0.000036 -0.008750 0.000013
# 4 -0.000007 -0.000037 0.000036 -0.067396 -0.000018 -0.045012
# 5 -0.005096 -0.000368 -0.008750 -0.000018 0.042000 -0.000002
# 6 -0.000005 -0.000023 0.000013 -0.045012 -0.000002 0.050164
#
#
# Mechanical properties :
#
#
# Convention : Reuss Voigt Hill
#
# Bulk Modulus (GPa) = 24.38157 28.43755 26.40956
# Shear Modulus (GPa) = 60.12883 21.42112 40.77497
#
# Velocity S-wave (km/s) = 5.22653 3.11956 4.30397
# Velocity P-wave (km/s) = 6.89193 5.08869 6.05778
#
# Compressibility (1/GPa) = 0.04101458
#
# Stress axis : x y z
#
# Youngs Moduli (GPa) = 90.43289 60.14897 65.86678
#
# Poissons Ratio (x) = -0.06202 -0.01601
# Poissons Ratio (y) = -0.09325 0.14489
# Poissons Ratio (z) = -0.02199 0.13231
#
# Static dielectric constant tensor:
#      x y z
#    x 1.821640 0.000000 0.010440 
#    y 0.000000 1.804440 -0.000010 
#    z 0.010440 -0.000010 1.849590 
# 
# From -- ./inp_files/366564.got.cif
#   From: 2010.05.17/outbox.cif.g08.bks.cpg/sg12_184_cif.got.tgz:366564.got - 2010.06.03 13:09:07.
