data_PCOD9210379
_publ_section_title
;
Structure prediction by ZEFSAII (Michael W. Deem and Ramdas Pophale) SiO2 
 PCOD9210379
Probable space group: C 2/M
;
_chemical_formula_sum "Si O2"
_cell_formula_units_Z 48
_cell_length_a 8.934951
_cell_length_b 18.159293
_cell_length_c 18.873656
_cell_angle_alpha 90.000000
_cell_angle_beta 138.111400
_cell_angle_gamma 90.000000
_cell_volume 2044.647318
_symmetry_space_group_name_H-M "C 2/M"
_symmetry_group_IT_number 12
_symmetry_cell_setting 'monoclinic'
loop_
_space_group_symop_operation_xyz
x,y,z
-x,y,-z
-x,-y,-z
x,-y,z
1/2+x,1/2+y,z
1/2-x,1/2+y,-z
1/2-x,1/2-y,-z
1/2+x,1/2-y,z
loop_
_atom_site_type_symbol
_atom_site_label
_atom_site_fract_x
_atom_site_fract_y
_atom_site_fract_z
Si Si1 0.075557 0.084826 0.908777
Si Si2 0.583529 0.355466 0.752559
Si Si3 0.581071 0.911421 0.725498
Si Si4 0.938086 0.311925 0.060146
Si Si5 0.884849 0.704479 0.387452
Si Si6 0.604867 0.622200 0.612291
O O1 0.102387 0.100611 0.833436
O O2 0.826538 0.111896 0.841388
O O3 0.075202 0.000000 0.921751
O O4 0.289238 0.117149 0.023661
O O5 0.382733 0.299389 0.696854
O O6 0.527507 0.403505 0.663115
O O7 0.818498 0.313828 0.819151
O O8 0.549509 0.854840 0.648838
O O9 0.366566 0.897466 0.698171
O O10 0.591019 0.000000 0.711355
O O11 0.750000 0.250000 0.000000
O O12 0.000000 0.311485 0.000000
O O13 0.948453 0.789992 0.401193
O O14 0.000000 0.679055 0.500000
O O15 0.500000 0.596479 0.500000
#
# Coordination Sequence:
#
# PCOD9210379 Si02
#       6
#     8   8   8   8   8   8
#     4   9  21  43  63  86 123 165 207 247 306 382
#     4  10  22  35  60  91 117 162 205 257 303 367
#     4  10  22  39  61  88 125 166 201 259 323 367
#     4  10  23  37  60  95 120 157 200 259 310 356
#     4  10  21  39  62  86 120 168 218 256 307 374
#     4  11  23  38  61  93 127 167 210 265 316 365
#
# _framework density 23.475932
#
# number of rings (size 3 to 8) (size 9 to 14) (size 15 to 20)
#    0.000    2.000    0.000    2.000    9.333    7.000 
#    0.000    3.333    0.000    2.500    0.000    0.000 
#    0.000    0.000    0.000    0.000    0.000    0.000 
#
# Total GULP energy -133901.234470 kJ/mol
# GULP energy per Si atom -5579.218103 kJ/mol
# Density = 2.342250 g / cm^3
# Si number density = 23.475932 Si / 1000 Ang^3
#
#
#
# Elastic Constant Matrix: (Units=GPa)
#
#
# Indices 1 2 3 4 5 6 
#
# 1 77.5403 -1.2863 8.9036 0.0001 5.0336 0.0001
# 2 -1.2863 51.1519 -10.3696 0.0000 7.1292 0.0000
# 3 8.9036 -10.3696 53.4606 0.0002 1.6784 0.0001
# 4 0.0001 0.0000 0.0002 22.5507 0.0001 8.7833
# 5 5.0336 7.1292 1.6784 0.0001 33.6819 0.0000
# 6 0.0001 0.0000 0.0001 8.7833 0.0000 12.3974
#
#
#
# Elastic Compliance Matrix: (Units=1/GPa)
#
#
# Indices 1 2 3 4 5 6 
#
# 1 0.013267 0.000171 -0.002116 0.000000 -0.001913 0.000000
# 2 0.000171 0.021060 0.004204 0.000000 -0.004693 0.000000
# 3 -0.002116 0.004204 0.019922 0.000000 -0.001566 0.000000
# 4 0.000000 0.000000 0.000000 0.061245 0.000000 -0.043391
# 5 -0.001913 -0.004693 -0.001566 0.000000 0.031047 0.000000
# 6 0.000000 0.000000 0.000000 -0.043391 0.000000 0.111404
#
#
# Mechanical properties :
#
#
# Convention : Reuss Voigt Hill
#
# Bulk Modulus (GPa) = 17.01637 19.62757 18.32197
# Shear Modulus (GPa) = 18.31397 26.05298 22.18347
#
# Velocity S-wave (km/s) = 2.79609 3.33494 3.07733
# Velocity P-wave (km/s) = 4.20575 4.81747 4.52196
#
# Compressibility (1/GPa) = 0.05876693
#
# Stress axis : x y z
#
# Youngs Moduli (GPa) = 75.37742 47.48296 50.19479
#
# Poissons Ratio (x) = -0.00813 0.10622
# Poissons Ratio (y) = -0.01291 -0.21101
# Poissons Ratio (z) = 0.15951 -0.19961
#
# Static dielectric constant tensor:
#      x y z
#    x 1.943630 0.000000 0.019860 
#    y 0.000000 1.919110 0.000000 
#    z 0.019860 0.000000 2.054610 
# 
# From -- ./inp_files/301820.got.cif
#   From: 2010.05.17/outbox.cif.g08.bks.cpg/sg12_151_cif.got.tgz:301820.got - 2010.06.03 13:09:07.
