data_PCOD9210687
_publ_section_title
;
Structure prediction by ZEFSAII (Michael W. Deem and Ramdas Pophale) SiO2 
 PCOD9210687
Probable space group: C 2/M
;
_chemical_formula_sum "Si O2"
_cell_formula_units_Z 56
_cell_length_a 27.890809
_cell_length_b 19.294850
_cell_length_c 5.215996
_cell_angle_alpha 90.000000
_cell_angle_beta 114.253126
_cell_angle_gamma 90.000000
_cell_volume 2559.237567
_symmetry_space_group_name_H-M "C 2/M"
_symmetry_group_IT_number 12
_symmetry_cell_setting 'monoclinic'
loop_
_space_group_symop_operation_xyz
x,y,z
-x,y,-z
-x,-y,-z
x,-y,z
1/2+x,1/2+y,z
1/2-x,1/2+y,-z
1/2-x,1/2-y,-z
1/2+x,1/2-y,z
loop_
_atom_site_type_symbol
_atom_site_label
_atom_site_fract_x
_atom_site_fract_y
_atom_site_fract_z
Si Si1 0.463987 0.500000 0.671547
Si Si2 0.220289 0.318705 0.842870
Si Si3 0.552651 0.111097 0.454653
Si Si4 0.898459 0.500000 0.754583
Si Si5 0.874984 0.887591 0.542336
Si Si6 0.387954 0.227911 0.661810
Si Si7 0.643191 0.118680 0.038006
Si Si8 0.306657 0.419742 0.889193
O O1 0.500000 0.500000 0.500000
O O2 0.425608 0.434083 0.597731
O O3 0.500000 0.500000 0.000000
O O4 0.167727 0.294475 0.584352
O O5 0.258196 0.366873 0.760053
O O6 0.250000 0.250000 0.000000
O O7 0.198351 0.364123 0.031027
O O8 0.500000 0.105291 0.500000
O O9 0.565811 0.187916 0.385231
O O10 0.558624 0.060490 0.228954
O O11 0.601952 0.087102 0.741725
O O12 0.856507 0.561935 0.740277
O O13 0.891275 0.809454 0.648065
O O14 0.842776 0.915151 0.716714
O O15 0.838788 0.893262 0.209709
O O16 0.382757 0.191282 0.927014
O O17 0.291424 0.500000 0.896451
#
# Coordination Sequence:
#
# PCOD9210687 Si02
#       8
#     4   8   8   4   8   8   8   8
#     4  12  26  50  76 108 141 183 239 306 369 428
#     4  11  23  41  67  98 133 183 227 279 353 413
#     4  10  22  41  63  94 129 172 228 280 348 415
#     4  10  21  39  63  91 125 176 210 280 339 402
#     4  12  25  48  73 102 141 183 237 290 362 424
#     4  10  24  42  66  97 136 179 227 289 341 427
#     4  10  23  41  61  93 136 170 230 283 334 421
#     4  12  25  44  72 103 142 185 234 291 344 433
#
# _framework density 21.881516999999999
#
# number of rings (size 3 to 8) (size 9 to 14) (size 15 to 20)
#    0.000    1.143    2.857    2.357    5.000    4.571 
#    7.714    0.000    0.000    0.000    0.000    0.000 
#    0.000    0.000    0.000    0.000    0.000    0.000 
#
# Total GULP energy -156096.050905 kJ/mol
# GULP energy per Si atom -5574.858961 kJ/mol
# Density = 2.183171 g / cm^3
# Si number density = 21.881517 Si / 1000 Ang^3
#
#
#
# Elastic Constant Matrix: (Units=GPa)
#
#
# Indices 1 2 3 4 5 6 
#
# 1 156.7492 58.7470 15.1078 0.0000 -17.5372 0.0000
# 2 58.7470 177.3281 -4.4864 0.0000 -0.7163 0.0000
# 3 15.1078 -4.4864 59.4687 0.0000 -7.8206 0.0000
# 4 0.0000 0.0000 0.0000 10.1041 0.0000 20.1754
# 5 -17.5372 -0.7163 -7.8206 0.0000 30.0847 0.0000
# 6 0.0000 0.0000 0.0000 20.1754 0.0000 -4.2994
#
#
#
# Elastic Compliance Matrix: (Units=1/GPa)
#
#
# Indices 1 2 3 4 5 6 
#
# 1 0.008014 -0.002681 -0.001690 0.000000 0.004168 0.000000
# 2 -0.002681 0.006549 0.001025 0.000000 -0.001140 0.000000
# 3 -0.001690 0.001025 0.017805 0.000000 0.003668 0.000000
# 4 0.000000 0.000000 0.000000 0.009544 0.000000 0.044786
# 5 0.004168 -0.001140 0.003668 0.000000 0.036595 0.000000
# 6 0.000000 0.000000 0.000000 0.044786 0.000000 -0.022429
#
#
# Mechanical properties :
#
#
# Convention : Reuss Voigt Hill
#
# Bulk Modulus (GPa) = 38.94726 59.14251 49.04489
# Shear Modulus (GPa) = 70.10014 28.78972 49.44493
#
# Velocity S-wave (km/s) = 5.66620 3.63121 4.75875
# Velocity P-wave (km/s) = 7.78752 6.68342 7.25650
#
# Compressibility (1/GPa) = 0.02567575
#
# Stress axis : x y z
#
# Youngs Moduli (GPa) = 124.78914 152.70234 56.16549
#
# Poissons Ratio (x) = 0.40935 0.09491
# Poissons Ratio (y) = 0.33452 -0.05758
# Poissons Ratio (z) = 0.21088 -0.15654
#
# Static dielectric constant tensor:
#      x y z
#    x 1.784740 0.000000 -0.030500 
#    y 0.000000 1.801880 0.000000 
#    z -0.030500 0.000000 1.945900 
# 
# From -- ./inp_files/25698.got.cif
#   From: 2010.05.17/outbox.cif.g08.bks.cpg/sg12_13_cif.got.tgz:25698.got - 2010.06.03 13:09:07.
