data_PCOD9210296
_publ_section_title
;
Structure prediction by ZEFSAII (Michael W. Deem and Ramdas Pophale) SiO2 
 PCOD9210296
Probable space group: C 2/M
;
_chemical_formula_sum "Si O2"
_cell_formula_units_Z 44
_cell_length_a 10.882129
_cell_length_b 23.971935
_cell_length_c 14.292600
_cell_angle_alpha 90.000000
_cell_angle_beta 140.143938
_cell_angle_gamma 90.000000
_cell_volume 2389.418015
_symmetry_space_group_name_H-M "C 2/M"
_symmetry_group_IT_number 12
_symmetry_cell_setting 'monoclinic'
loop_
_space_group_symop_operation_xyz
x,y,z
-x,y,-z
-x,-y,-z
x,-y,z
1/2+x,1/2+y,z
1/2-x,1/2+y,-z
1/2-x,1/2-y,-z
1/2+x,1/2-y,z
loop_
_atom_site_type_symbol
_atom_site_label
_atom_site_fract_x
_atom_site_fract_y
_atom_site_fract_z
Si Si1 0.166203 0.786784 0.675177
Si Si2 0.579527 0.781800 0.343736
Si Si3 0.037225 0.589135 0.295753
Si Si4 0.849858 0.390255 0.846925
Si Si5 0.281525 0.500000 0.906678
Si Si6 0.364108 0.500000 0.514826
Si Si7 0.809650 0.000000 0.148370
O O1 0.359978 0.775034 0.729592
O O2 0.177339 0.849564 0.719899
O O3 0.000000 0.783651 0.500000
O O4 0.111341 0.746536 0.727709
O O5 0.750000 0.750000 0.500000
O O6 0.559717 0.848323 0.348406
O O7 0.050709 0.593743 0.191486
O O8 0.223184 0.552888 0.430610
O O9 0.844261 0.553545 0.201302
O O10 0.787833 0.444910 0.866038
O O11 0.000000 0.358260 0.000000
O O12 0.500000 0.500000 0.000000
O O13 0.294704 0.500000 0.027920
O O14 0.500000 0.500000 0.500000
O O15 0.484553 0.500000 0.680392
#
# Coordination Sequence:
#
# PCOD9210296 Si02
#       7
#     8   8   8   8   4   4   4
#     4   9  20  37  57  83 117 155 199 245 299 358
#     4   9  19  36  59  85 117 157 195 247 304 359
#     4  10  21  39  61  89 125 156 198 255 310 360
#     4  11  20  34  59  87 120 146 192 253 302 357
#     4  11  24  46  58  82 127 175 209 244 300 373
#     4  11  21  31  62 102 118 141 195 262 317 367
#     4  12  22  34  60  93 117 154 194 242 313 364
#
# _framework density 18.414525999999999
#
# number of rings (size 3 to 8) (size 9 to 14) (size 15 to 20)
#    0.000    1.818    3.636    0.818    7.636    0.000 
#    3.273    8.182    0.000    0.000    0.000    0.000 
#    0.000    0.000    0.000    0.000    0.000    0.000 
#
# Total GULP energy -122518.211779 kJ/mol
# GULP energy per Si atom -5569.009626 kJ/mol
# Density = 1.837261 g / cm^3
# Si number density = 18.414526 Si / 1000 Ang^3
#
#
#
# Elastic Constant Matrix: (Units=GPa)
#
#
# Indices 1 2 3 4 5 6 
#
# 1 95.6923 74.3149 16.8277 0.0000 15.6587 0.0000
# 2 74.3149 132.9027 17.3650 0.0000 10.7310 0.0000
# 3 16.8277 17.3650 65.1574 0.0000 6.9303 0.0000
# 4 0.0000 0.0000 0.0000 6.2904 0.0000 -5.3610
# 5 15.6587 10.7310 6.9303 0.0000 25.8244 0.0000
# 6 0.0000 0.0000 0.0000 -5.3610 0.0000 24.4637
#
#
#
# Elastic Compliance Matrix: (Units=1/GPa)
#
#
# Indices 1 2 3 4 5 6 
#
# 1 0.020001 -0.010377 -0.001615 0.000000 -0.007382 0.000000
# 2 -0.010377 0.013375 -0.000991 0.000000 0.001000 0.000000
# 3 -0.001615 -0.000991 0.016347 0.000000 -0.002996 0.000000
# 4 0.000000 0.000000 0.000000 0.195483 0.000000 0.042839
# 5 -0.007382 0.001000 -0.002996 0.000000 0.043588 0.000000
# 6 0.000000 0.000000 0.000000 0.042839 0.000000 0.050265
#
#
# Mechanical properties :
#
#
# Convention : Reuss Voigt Hill
#
# Bulk Modulus (GPa) = 42.09065 56.75196 49.42130
# Shear Modulus (GPa) = 13.40686 23.66535 18.53610
#
# Velocity S-wave (km/s) = 2.70118 3.58878 3.17614
# Velocity P-wave (km/s) = 5.71275 6.93242 6.35193
#
# Compressibility (1/GPa) = 0.02375825
#
# Stress axis : x y z
#
# Youngs Moduli (GPa) = 49.99838 74.76439 61.17228
#
# Poissons Ratio (x) = 0.77580 0.09878
# Poissons Ratio (y) = 0.51882 0.06063
# Poissons Ratio (z) = 0.08074 0.07410
#
# Static dielectric constant tensor:
#      x y z
#    x 1.666820 0.000000 0.021760 
#    y 0.000000 1.653200 0.000000 
#    z 0.021760 0.000000 1.700150 
# 
# From -- ./inp_files/208474.got.cif
#   From: 2010.05.17/outbox.cif.g08.bks.cpg/sg12_105_cif.got.tgz:208474.got - 2010.06.03 13:09:07.
