data_PCOD9210040
_publ_section_title
;
Structure prediction by ZEFSAII (Michael W. Deem and Ramdas Pophale) SiO2 
 PCOD9210040
Probable space group: C 2/M
;
_chemical_formula_sum "Si O2"
_cell_formula_units_Z 64
_cell_length_a 24.717076
_cell_length_b 17.484894
_cell_length_c 14.588537
_cell_angle_alpha 90.000000
_cell_angle_beta 148.703348
_cell_angle_gamma 90.000000
_cell_volume 3275.153245
_symmetry_space_group_name_H-M "C 2/M"
_symmetry_group_IT_number 12
_symmetry_cell_setting 'monoclinic'
loop_
_space_group_symop_operation_xyz
x,y,z
-x,y,-z
-x,-y,-z
x,-y,z
1/2+x,1/2+y,z
1/2-x,1/2+y,-z
1/2-x,1/2-y,-z
1/2+x,1/2-y,z
loop_
_atom_site_type_symbol
_atom_site_label
_atom_site_fract_x
_atom_site_fract_y
_atom_site_fract_z
Si Si1 0.762773 0.320364 0.404155
Si Si2 0.142968 0.801556 0.048627
Si Si3 0.569530 0.913763 0.438160
Si Si4 0.343086 0.409337 0.250523
Si Si5 0.141974 0.666798 0.904041
Si Si6 0.704891 0.089279 0.812235
Si Si7 0.476457 0.407552 0.618602
Si Si8 0.408253 0.312514 0.696361
O O1 0.714198 0.284598 0.240536
O O2 0.829246 0.394616 0.474563
O O3 0.670319 0.341380 0.339458
O O4 0.844802 0.260330 0.565490
O O5 0.187990 0.883641 0.080449
O O6 0.152113 0.744947 0.974827
O O7 0.022548 0.796623 0.902495
O O8 0.477458 0.858432 0.274211
O O9 0.612145 0.905095 0.603387
O O10 0.531614 0.000000 0.372438
O O11 0.353691 0.500000 0.265142
O O12 0.398963 0.383381 0.424140
O O13 0.410743 0.383215 0.259935
O O14 0.223540 0.387167 0.074915
O O15 0.178836 0.650327 0.853464
O O16 0.710737 0.000000 0.851546
O O17 0.475777 0.500000 0.627415
O O18 0.437500 0.367998 0.654244
#
# Coordination Sequence:
#
# PCOD9210040 Si02
#       8
#     8   8   8   8   8   8   8   8
#     4  10  23  41  58  83 114 152 200 252 298 350
#     4  11  23  38  60  87 115 149 203 248 295 351
#     4  10  21  39  59  84 122 160 196 241 294 355
#     4   9  18  33  55  85 122 154 183 232 294 354
#     4  12  20  34  58  89 115 156 200 237 288 353
#     4  10  22  38  57  86 126 161 190 235 294 358
#     4   9  19  35  56  85 117 151 191 236 293 354
#     4  11  21  39  61  81 110 155 197 247 306 340
#
# _framework density 19.541070000000001
#
# number of rings (size 3 to 8) (size 9 to 14) (size 15 to 20)
#    0.000    1.750    1.250    4.500    0.000    3.000 
#    0.000    1.250    0.000    3.750    0.000    4.375 
#    0.000    0.000    0.000    0.000    0.000    0.000 
#
# Total GULP energy -178370.853058 kJ/mol
# GULP energy per Si atom -5574.089158 kJ/mol
# Density = 1.949659 g / cm^3
# Si number density = 19.541070 Si / 1000 Ang^3
#
#
#
# Elastic Constant Matrix: (Units=GPa)
#
#
# Indices 1 2 3 4 5 6 
#
# 1 78.6071 17.5347 14.5594 0.0000 17.7251 0.0000
# 2 17.5347 15.6033 8.4568 0.0000 3.4158 0.0000
# 3 14.5594 8.4568 102.9097 0.0000 13.0556 0.0000
# 4 0.0000 0.0000 0.0000 18.4015 0.0000 -9.0862
# 5 17.7251 3.4158 13.0556 0.0000 32.9366 0.0000
# 6 0.0000 0.0000 0.0000 -9.0862 0.0000 20.2605
#
#
#
# Elastic Compliance Matrix: (Units=1/GPa)
#
#
# Indices 1 2 3 4 5 6 
#
# 1 0.018900 -0.019434 -0.000044 0.000000 -0.008138 0.000000
# 2 -0.019434 0.087858 -0.004887 0.000000 0.003284 0.000000
# 3 -0.000044 -0.004887 0.010590 0.000000 -0.003667 0.000000
# 4 0.000000 0.000000 0.000000 0.069800 0.000000 0.031303
# 5 -0.008138 0.003284 -0.003667 0.000000 0.035854 0.000000
# 6 0.000000 0.000000 0.000000 0.031303 0.000000 0.063396
#
#
# Mechanical properties :
#
#
# Convention : Reuss Voigt Hill
#
# Bulk Modulus (GPa) = 14.57345 30.91357 22.74351
# Shear Modulus (GPa) = 13.96642 24.75766 19.36204
#
# Velocity S-wave (km/s) = 2.67633 3.56329 3.15117
# Velocity P-wave (km/s) = 4.12606 5.72569 4.99039
#
# Compressibility (1/GPa) = 0.06861792
#
# Stress axis : x y z
#
# Youngs Moduli (GPa) = 52.91055 11.38196 94.42524
#
# Poissons Ratio (x) = 0.22119 0.00420
# Poissons Ratio (y) = 1.02825 0.46147
# Poissons Ratio (z) = 0.00235 0.05563
#
# Static dielectric constant tensor:
#      x y z
#    x 1.701670 0.000000 -0.011220 
#    y 0.000000 1.672360 0.000000 
#    z -0.011220 0.000000 1.709060 
# 
# From -- ./inp_files/241499.got.cif
#   From: 2010.05.17/outbox.cif.g08.bks.cpg/sg12_121_cif.got.tgz:241499.got - 2010.06.03 13:09:07.
