data_PCOD9210950
_publ_section_title
;
Structure prediction by ZEFSAII (Michael W. Deem and Ramdas Pophale) SiO2 
 PCOD9210950
Probable space group: C 2/M
;
_chemical_formula_sum "Si O2"
_cell_formula_units_Z 50
_cell_length_a 8.461657
_cell_length_b 26.068160
_cell_length_c 11.567880
_cell_angle_alpha 90.000000
_cell_angle_beta 62.705338
_cell_angle_gamma 90.000000
_cell_volume 2267.541175
_symmetry_space_group_name_H-M "C 2/M"
_symmetry_group_IT_number 12
_symmetry_cell_setting 'monoclinic'
loop_
_space_group_symop_operation_xyz
x,y,z
-x,y,-z
-x,-y,-z
x,-y,z
1/2+x,1/2+y,z
1/2-x,1/2+y,-z
1/2-x,1/2-y,-z
1/2+x,1/2-y,z
loop_
_atom_site_type_symbol
_atom_site_label
_atom_site_fract_x
_atom_site_fract_y
_atom_site_fract_z
Si Si1 0.668338 0.674719 0.879831
Si Si2 0.773999 0.574988 0.722841
Si Si3 0.533040 0.417146 0.351453
Si Si4 0.385464 0.694651 0.654022
Si Si5 0.710585 0.000000 0.817711
Si Si6 0.711031 0.000000 0.080561
Si Si7 0.003223 0.727849 0.803176
Si Si8 0.500000 0.000000 0.500000
O O1 0.759654 0.635512 0.757813
O O2 0.833690 0.695083 0.902935
O O3 0.574805 0.725582 0.857602
O O4 0.500000 0.648929 0.000000
O O5 0.629621 0.562785 0.671171
O O6 0.736478 0.548092 0.858219
O O7 0.945871 0.545738 0.613797
O O8 0.500000 0.419301 0.500000
O O9 0.561550 0.358559 0.305234
O O10 0.705116 0.450348 0.268772
O O11 0.500000 0.697554 0.500000
O O12 0.435835 0.743555 0.711803
O O13 0.173457 0.694208 0.712598
O O14 0.501093 0.000000 0.870339
O O15 0.778776 0.000000 0.927378
#
# Coordination Sequence:
#
# PCOD9210950 Si02
#       8
#     8   8   8   8   4   4   8   2
#     4  11  24  43  70 103 142 188 245 299 361 438
#     4  11  25  45  72 102 136 191 235 296 365 436
#     4  11  25  41  67  98 137 183 229 289 355 420
#     4  10  21  39  64  97 141 181 235 285 349 421
#     4  11  25  46  66  96 133 170 224 296 354 424
#     4  10  27  44  68  99 130 174 230 290 358 428
#     4  10  22  42  64 101 140 190 234 294 362 420
#     4  10  26  46  68 100 142 174 242 304 356 432
#
# _framework density 22.050318000000001
#
# number of rings (size 3 to 8) (size 9 to 14) (size 15 to 20)
#    0.000    1.440    1.600    2.160    8.960    1.920 
#    5.760    0.000    0.000    0.000    0.000    0.000 
#    0.000    0.000    0.000    0.000    0.000    0.000 
#
# Total GULP energy -139232.908762 kJ/mol
# GULP energy per Si atom -5569.316350 kJ/mol
# Density = 2.200013 g / cm^3
# Si number density = 22.050318 Si / 1000 Ang^3
#
#
#
# Elastic Constant Matrix: (Units=GPa)
#
#
# Indices 1 2 3 4 5 6 
#
# 1 94.7956 10.6170 22.0669 0.0000 9.1249 0.0000
# 2 10.6170 79.6682 34.7191 0.0000 4.8941 0.0000
# 3 22.0669 34.7191 88.2197 0.0000 -9.8158 0.0000
# 4 0.0000 0.0000 0.0000 34.3566 0.0000 5.6998
# 5 9.1249 4.8941 -9.8158 0.0000 24.0694 0.0000
# 6 0.0000 0.0000 0.0000 5.6998 0.0000 19.6340
#
#
#
# Elastic Compliance Matrix: (Units=1/GPa)
#
#
# Indices 1 2 3 4 5 6 
#
# 1 0.011999 0.000475 -0.003881 0.000000 -0.006228 0.000000
# 2 0.000475 0.015976 -0.007110 0.000000 -0.006328 0.000000
# 3 -0.003881 -0.007110 0.016162 0.000000 0.009508 0.000000
# 4 0.000000 0.000000 0.000000 0.030579 0.000000 -0.008877
# 5 -0.006228 -0.006328 0.009508 0.000000 0.049072 0.000000
# 6 0.000000 0.000000 0.000000 -0.008877 0.000000 0.053509
#
#
# Mechanical properties :
#
#
# Convention : Reuss Voigt Hill
#
# Bulk Modulus (GPa) = 43.28224 44.16551 43.72388
# Shear Modulus (GPa) = 24.26799 28.63070 26.44935
#
# Velocity S-wave (km/s) = 3.32109 3.60728 3.46714
# Velocity P-wave (km/s) = 5.86324 6.11742 5.99168
#
# Compressibility (1/GPa) = 0.02310416
#
# Stress axis : x y z
#
# Youngs Moduli (GPa) = 83.34139 62.59307 61.87171
#
# Poissons Ratio (x) = -0.02973 0.24014
# Poissons Ratio (y) = -0.03959 0.43993
# Poissons Ratio (z) = 0.32347 0.44506
#
# Static dielectric constant tensor:
#      x y z
#    x 1.841650 0.000000 -0.021890 
#    y 0.000000 1.831680 0.000000 
#    z -0.021890 0.000000 1.823980 
# 
# From -- ./inp_files/124197.got.cif
#   From: 2010.05.17/outbox.cif.g08.bks.cpg/sg12_63_cif.got.tgz:124197.got - 2010.06.03 13:09:07.
