data_PCOD9210565
_publ_section_title
;
Structure prediction by ZEFSAII (Michael W. Deem and Ramdas Pophale) SiO2 
 PCOD9210565
Probable space group: C 2/M
;
_chemical_formula_sum "Si O2"
_cell_formula_units_Z 48
_cell_length_a 8.726246
_cell_length_b 19.265552
_cell_length_c 13.871547
_cell_angle_alpha 90.000000
_cell_angle_beta 98.908351
_cell_angle_gamma 90.000000
_cell_volume 2303.897704
_symmetry_space_group_name_H-M "C 2/M"
_symmetry_group_IT_number 12
_symmetry_cell_setting 'monoclinic'
loop_
_space_group_symop_operation_xyz
x,y,z
-x,y,-z
-x,-y,-z
x,-y,z
1/2+x,1/2+y,z
1/2-x,1/2+y,-z
1/2-x,1/2-y,-z
1/2+x,1/2-y,z
loop_
_atom_site_type_symbol
_atom_site_label
_atom_site_fract_x
_atom_site_fract_y
_atom_site_fract_z
Si Si1 0.126294 0.579419 0.738565
Si Si2 0.636521 0.081023 0.439102
Si Si3 0.878212 0.195220 0.406348
Si Si4 0.577103 0.923581 0.110095
Si Si5 0.652743 0.218414 0.077853
Si Si6 0.855975 0.798765 0.718375
O O1 0.178880 0.500000 0.735178
O O2 0.254727 0.631770 0.715622
O O3 0.962045 0.585062 0.668131
O O4 0.071115 0.596756 0.839735
O O5 0.500000 0.103204 0.500000
O O6 0.786915 0.128840 0.441819
O O7 0.674547 0.000000 0.464430
O O8 0.744183 0.247872 0.360119
O O9 0.000000 0.219695 0.500000
O O10 0.982697 0.186303 0.320161
O O11 0.695458 0.859374 0.118601
O O12 0.636291 0.000000 0.147876
O O13 0.500000 0.932861 0.000000
O O14 0.631937 0.264589 0.173059
O O15 0.500000 0.208033 0.000000
O O16 0.750000 0.250000 0.000000
#
# Coordination Sequence:
#
# PCOD9210565 Si02
#       6
#     8   8   8   8   8   8
#     4  10  21  39  63  87 116 157 204 255 308 366
#     4  10  22  42  65  89 120 159 206 256 308 371
#     4  12  25  39  61  90 126 167 206 253 310 370
#     4   9  17  32  56  83 111 148 196 244 294 357
#     4  11  22  38  61  89 121 159 204 256 312 367
#     4  12  24  40  61  90 128 163 207 258 310 372
#
# _framework density 20.834257999999998
#
# number of rings (size 3 to 8) (size 9 to 14) (size 15 to 20)
#    0.000    1.333    0.000    7.500    0.000    2.333 
#    0.000    0.000    0.000    4.000    0.000    0.000 
#    0.000    0.000    0.000    0.000    0.000    0.000 
#
# Total GULP energy -133781.247127 kJ/mol
# GULP energy per Si atom -5574.218630 kJ/mol
# Density = 2.078684 g / cm^3
# Si number density = 20.834258 Si / 1000 Ang^3
#
#
#
# Elastic Constant Matrix: (Units=GPa)
#
#
# Indices 1 2 3 4 5 6 
#
# 1 91.8948 63.2574 38.8450 0.0000 -29.2841 0.0000
# 2 63.2574 137.5789 23.8815 0.0000 -21.7149 0.0000
# 3 38.8450 23.8815 101.1854 0.0000 -11.4812 0.0000
# 4 0.0000 0.0000 0.0000 16.7842 0.0000 -16.1519
# 5 -29.2841 -21.7149 -11.4812 0.0000 35.1785 0.0000
# 6 0.0000 0.0000 0.0000 -16.1519 0.0000 35.1571
#
#
#
# Elastic Compliance Matrix: (Units=1/GPa)
#
#
# Indices 1 2 3 4 5 6 
#
# 1 0.022010 -0.007283 -0.005360 0.000000 0.012077 0.000000
# 2 -0.007283 0.010656 0.000353 0.000000 0.000630 0.000000
# 3 -0.005360 0.000353 0.011813 0.000000 -0.000389 0.000000
# 4 0.000000 0.000000 0.000000 0.106796 0.000000 0.049064
# 5 0.012077 0.000630 -0.000389 0.000000 0.038741 0.000000
# 6 0.000000 0.000000 0.000000 0.049064 0.000000 0.050985
#
#
# Mechanical properties :
#
#
# Convention : Reuss Voigt Hill
#
# Bulk Modulus (GPa) = 50.25954 64.73633 57.49794
# Shear Modulus (GPa) = 18.36784 31.06898 24.71841
#
# Velocity S-wave (km/s) = 2.97243 3.86585 3.44820
# Velocity P-wave (km/s) = 5.99636 7.14604 6.59630
#
# Compressibility (1/GPa) = 0.01989672
#
# Stress axis : x y z
#
# Youngs Moduli (GPa) = 45.43388 93.84803 84.65024
#
# Poissons Ratio (x) = 0.68353 0.45375
# Poissons Ratio (y) = 0.33091 -0.02985
# Poissons Ratio (z) = 0.24354 -0.03309
#
# Static dielectric constant tensor:
#      x y z
#    x 1.644580 0.000000 0.110270 
#    y 0.000000 2.126150 0.000000 
#    z 0.110270 0.000000 1.538800 
# 
# From -- ./inp_files/195939.got.cif
#   From: 2010.05.17/outbox.cif.g08.bks.cpg/sg12_98_cif.got.tgz:195939.got - 2010.06.03 13:09:07.
