data_PCOD9210456
_publ_section_title
;
Structure prediction by ZEFSAII (Michael W. Deem and Ramdas Pophale) SiO2 
 PCOD9210456
Probable space group: C 2/M
;
_chemical_formula_sum "Si O2"
_cell_formula_units_Z 56
_cell_length_a 8.744168
_cell_length_b 31.241555
_cell_length_c 12.160311
_cell_angle_alpha 90.000000
_cell_angle_beta 124.305014
_cell_angle_gamma 90.000000
_cell_volume 2744.110622
_symmetry_space_group_name_H-M "C 2/M"
_symmetry_group_IT_number 12
_symmetry_cell_setting 'monoclinic'
loop_
_space_group_symop_operation_xyz
x,y,z
-x,y,-z
-x,-y,-z
x,-y,z
1/2+x,1/2+y,z
1/2-x,1/2+y,-z
1/2-x,1/2-y,-z
1/2+x,1/2-y,z
loop_
_atom_site_type_symbol
_atom_site_label
_atom_site_fract_x
_atom_site_fract_y
_atom_site_fract_z
Si Si1 0.027093 0.948819 0.640084
Si Si2 0.282080 0.897871 0.897401
Si Si3 0.530359 0.242701 0.250692
Si Si4 0.719795 0.547310 0.085159
Si Si5 0.191710 0.410706 0.647602
Si Si6 0.289289 0.199005 0.872773
Si Si7 0.176119 0.311521 0.648260
O O1 0.205664 0.926411 0.766681
O O2 0.000000 0.939298 0.500000
O O3 0.853721 0.930787 0.638827
O O4 0.038539 0.000000 0.658227
O O5 0.219491 0.849242 0.854434
O O6 0.500000 0.895772 0.000000
O O7 0.230749 0.919143 0.991331
O O8 0.671739 0.214448 0.235949
O O9 0.362922 0.270965 0.131591
O O10 0.667173 0.281380 0.343672
O O11 0.411635 0.211316 0.280010
O O12 0.800930 0.500000 0.092721
O O13 0.804514 0.564714 0.233825
O O14 0.500000 0.541908 0.000000
O O15 0.235062 0.360632 0.689681
O O16 0.000000 0.414044 0.500000
O O17 0.500000 0.202357 0.000000
O O18 0.000000 0.313800 0.500000
#
# Coordination Sequence:
#
# PCOD9210456 Si02
#       7
#     8   8   8   8   8   8   8
#     4  11  25  45  66  94 132 170 215 270 328 391
#     4  11  25  42  67  97 133 171 219 265 326 382
#     4  10  21  39  62  89 125 166 211 256 318 374
#     4  11  24  44  69  93 128 172 219 271 321 387
#     4  11  25  43  68  99 130 169 219 267 327 385
#     4  10  22  39  60  91 127 164 210 262 313 377
#     4  10  22  39  63  91 126 165 211 261 313 378
#
# _framework density 20.407340000000001
#
# number of rings (size 3 to 8) (size 9 to 14) (size 15 to 20)
#    0.000    1.429    1.429    2.571    6.000    3.429 
#    0.000    3.571    0.000    0.000    0.000    0.000 
#    0.000    0.000    0.000    0.000    0.000    0.000 
#
# Total GULP energy -155982.350186 kJ/mol
# GULP energy per Si atom -5570.798221 kJ/mol
# Density = 2.036089 g / cm^3
# Si number density = 20.407340 Si / 1000 Ang^3
#
#
#
# Elastic Constant Matrix: (Units=GPa)
#
#
# Indices 1 2 3 4 5 6 
#
# 1 42.5860 45.9421 12.3454 0.0000 -7.8113 0.0000
# 2 45.9421 162.9426 65.5501 0.0000 -16.0254 0.0000
# 3 12.3454 65.5501 100.4167 0.0000 -1.4232 0.0000
# 4 0.0000 0.0000 0.0000 35.5082 0.0000 -4.0497
# 5 -7.8113 -16.0254 -1.4232 0.0000 30.9923 0.0000
# 6 0.0000 0.0000 0.0000 -4.0497 0.0000 46.8347
#
#
#
# Elastic Compliance Matrix: (Units=1/GPa)
#
#
# Indices 1 2 3 4 5 6 
#
# 1 0.034675 -0.010502 0.002641 0.000000 0.003430 0.000000
# 2 -0.010502 0.012046 -0.006526 0.000000 0.003282 0.000000
# 3 0.002641 -0.006526 0.013864 0.000000 -0.002072 0.000000
# 4 0.000000 0.000000 0.000000 0.028443 0.000000 0.002459
# 5 0.003430 0.003282 -0.002072 0.000000 0.034733 0.000000
# 6 0.000000 0.000000 0.000000 0.002459 0.000000 0.021564
#
#
# Mechanical properties :
#
#
# Convention : Reuss Voigt Hill
#
# Bulk Modulus (GPa) = 31.43451 61.51337 46.47394
# Shear Modulus (GPa) = 27.07047 34.80755 30.93901
#
# Velocity S-wave (km/s) = 3.64607 4.13442 3.89790
# Velocity P-wave (km/s) = 5.75866 7.28007 6.56359
#
# Compressibility (1/GPa) = 0.03181217
#
# Stress axis : x y z
#
# Youngs Moduli (GPa) = 28.83935 83.01340 72.12690
#
# Poissons Ratio (x) = 0.87178 -0.19048
# Poissons Ratio (y) = 0.30286 0.47070
# Poissons Ratio (z) = -0.07616 0.54174
#
# Static dielectric constant tensor:
#      x y z
#    x 1.740690 0.000000 -0.025000 
#    y 0.000000 1.801860 0.000000 
#    z -0.025000 0.000000 1.756040 
# 
# From -- ./inp_files/125846.got.cif
#   From: 2010.05.17/outbox.cif.g08.bks.cpg/sg12_63_cif.got.tgz:125846.got - 2010.06.03 13:09:07.
