data_PCOD9210736
_publ_section_title
;
Structure prediction by ZEFSAII (Michael W. Deem and Ramdas Pophale) SiO2 
 PCOD9210736
Probable space group: C 2/M
;
_chemical_formula_sum "Si O2"
_cell_formula_units_Z 48
_cell_length_a 14.158894
_cell_length_b 11.020961
_cell_length_c 28.391487
_cell_angle_alpha 90.000000
_cell_angle_beta 151.021581
_cell_angle_gamma 90.000000
_cell_volume 2146.411196
_symmetry_space_group_name_H-M "C 2/M"
_symmetry_group_IT_number 12
_symmetry_cell_setting 'monoclinic'
loop_
_space_group_symop_operation_xyz
x,y,z
-x,y,-z
-x,-y,-z
x,-y,z
1/2+x,1/2+y,z
1/2-x,1/2+y,-z
1/2-x,1/2-y,-z
1/2+x,1/2-y,z
loop_
_atom_site_type_symbol
_atom_site_label
_atom_site_fract_x
_atom_site_fract_y
_atom_site_fract_z
Si Si1 0.796845 0.132849 0.730061
Si Si2 0.441002 0.691233 0.693197
Si Si3 0.338967 0.859115 0.507824
Si Si4 0.603089 0.252871 0.979741
Si Si5 0.315877 0.127558 0.800089
Si Si6 0.765134 0.636072 0.141875
O O1 0.915430 0.135742 0.733305
O O2 0.569571 0.142777 0.616742
O O3 0.842477 0.253277 0.779866
O O4 0.826892 0.000000 0.766066
O O5 0.238147 0.675315 0.577714
O O6 0.602567 0.632399 0.729848
O O7 0.541176 0.822424 0.746179
O O8 0.250000 0.750000 0.500000
O O9 0.277453 0.000000 0.491141
O O10 0.468211 0.137419 0.909688
O O11 0.428267 0.351819 0.909973
O O12 0.750000 0.250000 0.000000
O O13 0.721565 0.273141 0.079386
O O14 0.344133 0.000000 0.786702
O O15 0.781607 0.500000 0.131387
#
# Coordination Sequence:
#
# PCOD9210736 Si02
#       6
#     8   8   8   8   8   8
#     4  11  24  41  67  98 127 173 224 264 320 393
#     4  11  23  42  66  94 130 171 213 269 326 385
#     4  11  23  42  67  95 130 171 217 267 323 387
#     4  10  21  39  63  93 127 170 214 265 322 383
#     4  11  24  42  65  96 134 171 212 270 329 384
#     4  10  23  43  66  95 131 174 222 271 324 389
#
# _framework density 22.362911
#
# number of rings (size 3 to 8) (size 9 to 14) (size 15 to 20)
#    0.000    1.333    1.667    4.000    0.000    8.667 
#    0.000   10.000    0.000    3.000    0.000    0.000 
#    0.000    0.000    0.000    0.000    0.000    0.000 
#
# Total GULP energy -133781.019076 kJ/mol
# GULP energy per Si atom -5574.209128 kJ/mol
# Density = 2.231201 g / cm^3
# Si number density = 22.362911 Si / 1000 Ang^3
#
#
#
# Elastic Constant Matrix: (Units=GPa)
#
#
# Indices 1 2 3 4 5 6 
#
# 1 108.5369 52.0078 13.9901 0.0002 -4.3889 0.0000
# 2 52.0078 169.8011 58.0515 -0.0004 -20.3457 0.0000
# 3 13.9901 58.0515 96.6749 -0.0017 -8.7030 0.0001
# 4 0.0002 -0.0004 -0.0017 10.8446 0.0002 -10.7663
# 5 -4.3889 -20.3457 -8.7030 0.0002 37.0203 0.0000
# 6 0.0000 0.0000 0.0001 -10.7663 0.0000 11.1662
#
#
#
# Elastic Compliance Matrix: (Units=1/GPa)
#
#
# Indices 1 2 3 4 5 6 
#
# 1 0.010831 -0.003562 0.000522 -0.000005 -0.000551 -0.000005
# 2 -0.003562 0.008945 -0.004548 -0.000009 0.003425 -0.000008
# 3 0.000522 -0.004548 0.013056 0.000041 0.000632 0.000040
# 4 -0.000005 -0.000009 0.000041 2.156206 -0.000007 2.078991
# 5 -0.000551 0.003425 0.000632 -0.000007 0.028978 -0.000007
# 6 -0.000005 -0.000008 0.000040 2.078991 -0.000007 2.094097
#
#
# Mechanical properties :
#
#
# Convention : Reuss Voigt Hill
#
# Bulk Modulus (GPa) = 56.63538 69.23463 62.93500
# Shear Modulus (GPa) = 1.15389 28.53712 14.84550
#
# Velocity S-wave (km/s) = 0.71910 3.57612 2.57931
# Velocity P-wave (km/s) = 5.10588 6.93385 6.08886
#
# Compressibility (1/GPa) = 0.01765681
#
# Stress axis : x y z
#
# Youngs Moduli (GPa) = 92.33128 111.79096 76.59231
#
# Poissons Ratio (x) = 0.39816 -0.03997
# Poissons Ratio (y) = 0.32885 0.34832
# Poissons Ratio (z) = -0.04818 0.50840
#
# Static dielectric constant tensor:
#      x y z
#    x 1.873880 0.000000 -0.004520 
#    y 0.000000 1.615000 0.000000 
#    z -0.004520 0.000000 1.880460 
# 
# From -- ./inp_files/376157.got.cif
#   From: 2010.05.17/outbox.cif.g08.bks.cpg/sg12_189_cif.got.tgz:376157.got - 2010.06.03 13:09:07.
