data_PCOD9210418
_publ_section_title
;
Structure prediction by ZEFSAII (Michael W. Deem and Ramdas Pophale) SiO2 
 PCOD9210418
Probable space group: C 2/M
;
_chemical_formula_sum "Si O2"
_cell_formula_units_Z 40
_cell_length_a 24.948084
_cell_length_b 10.655395
_cell_length_c 12.211334
_cell_angle_alpha 90.000000
_cell_angle_beta 32.911340
_cell_angle_gamma 90.000000
_cell_volume 1763.770332
_symmetry_space_group_name_H-M "C 2/M"
_symmetry_group_IT_number 12
_symmetry_cell_setting 'monoclinic'
loop_
_space_group_symop_operation_xyz
x,y,z
-x,y,-z
-x,-y,-z
x,-y,z
1/2+x,1/2+y,z
1/2-x,1/2+y,-z
1/2-x,1/2-y,-z
1/2+x,1/2-y,z
loop_
_atom_site_type_symbol
_atom_site_label
_atom_site_fract_x
_atom_site_fract_y
_atom_site_fract_z
Si Si1 0.755114 0.634782 0.840610
Si Si2 0.167357 0.267605 0.790910
Si Si3 0.507036 0.858473 0.234627
Si Si4 0.125395 0.143658 0.638108
Si Si5 0.405635 0.284564 0.720023
O O1 0.803754 0.500000 0.762360
O O2 0.716016 0.666116 0.788265
O O3 0.830600 0.736916 0.756391
O O4 0.660460 0.637321 0.082851
O O5 0.117782 0.197237 0.774274
O O6 0.258451 0.349632 0.590650
O O7 0.091180 0.343360 0.996977
O O8 0.554445 0.829238 0.271856
O O9 0.466947 0.000000 0.297358
O O10 0.567837 0.744699 0.662468
O O11 0.090161 0.000000 0.687994
O O12 0.500000 0.344070 0.500000
#
# Coordination Sequence:
#
# PCOD9210418 Si02
#       5
#     8   8   8   8   8
#     4  10  21  39  62  88 120 158 203 254 304 358
#     4  10  23  41  63  89 123 160 202 250 306 363
#     4  11  24  41  63  91 124 163 204 248 302 364
#     4  11  24  41  64  93 124 161 205 252 302 359
#     4  10  22  39  59  88 121 157 202 250 304 363
#
# _framework density 22.67869
#
# number of rings (size 3 to 8) (size 9 to 14) (size 15 to 20)
#    0.000    1.600    0.000    3.600    0.000   14.000 
#    0.000    7.000    0.000    0.000    0.000    0.000 
#    0.000    0.000    0.000    0.000    0.000    0.000 
#
# Total GULP energy -111815.817082 kJ/mol
# GULP energy per Si atom -5590.790854 kJ/mol
# Density = 2.262707 g / cm^3
# Si number density = 22.678690 Si / 1000 Ang^3
#
#
#
# Elastic Constant Matrix: (Units=GPa)
#
#
# Indices 1 2 3 4 5 6 
#
# 1 83.4788 27.6717 11.8756 0.0000 8.1797 0.0000
# 2 27.6717 119.1042 -5.6734 0.0000 -6.3962 0.0000
# 3 11.8756 -5.6734 132.2962 0.0000 -6.1504 0.0000
# 4 0.0000 0.0000 0.0000 -9.7082 0.0000 -16.9975
# 5 8.1797 -6.3962 -6.1504 0.0000 35.8043 0.0000
# 6 0.0000 0.0000 0.0000 -16.9975 0.0000 6.3959
#
#
#
# Elastic Compliance Matrix: (Units=1/GPa)
#
#
# Indices 1 2 3 4 5 6 
#
# 1 0.013754 -0.003487 -0.001572 0.000000 -0.004035 0.000000
# 2 -0.003487 0.009387 0.000837 0.000000 0.002617 0.000000
# 3 -0.001572 0.000837 0.007822 0.000000 0.001852 0.000000
# 4 0.000000 0.000000 0.000000 -0.018221 0.000000 -0.048425
# 5 -0.004035 0.002617 0.001852 0.000000 0.029637 0.000000
# 6 0.000000 0.000000 0.000000 -0.048425 0.000000 0.027658
#
#
# Mechanical properties :
#
#
# Convention : Reuss Voigt Hill
#
# Bulk Modulus (GPa) = 44.40632 44.73632 44.57132
# Shear Modulus (GPa) = 58.14917 26.56544 42.35730
#
# Velocity S-wave (km/s) = 5.06913 3.42626 4.32639
# Velocity P-wave (km/s) = 7.34061 5.95158 6.68229
#
# Compressibility (1/GPa) = 0.02251931
#
# Stress axis : x y z
#
# Youngs Moduli (GPa) = 72.70639 106.53494 127.84618
#
# Poissons Ratio (x) = 0.37149 0.20094
# Poissons Ratio (y) = 0.25353 -0.10704
# Poissons Ratio (z) = 0.11428 -0.08919
#
# Static dielectric constant tensor:
#      x y z
#    x 1.786400 0.000000 -0.024450 
#    y 0.000000 1.804180 0.000000 
#    z -0.024450 0.000000 1.881600 
# 
# From -- ./inp_files/181835.got.cif
#   From: 2010.05.17/outbox.cif.g08.bks.cpg/sg12_91_cif.got.tgz:181835.got - 2010.06.03 13:09:07.
