data_PCOD9210272
_publ_section_title
;
Structure prediction by ZEFSAII (Michael W. Deem and Ramdas Pophale) SiO2 
 PCOD9210272
Probable space group: C 2/M
;
_chemical_formula_sum "Si O2"
_cell_formula_units_Z 48
_cell_length_a 21.705888
_cell_length_b 11.297241
_cell_length_c 27.181424
_cell_angle_alpha 90.000000
_cell_angle_beta 159.261451
_cell_angle_gamma 90.000000
_cell_volume 2360.223646
_symmetry_space_group_name_H-M "C 2/M"
_symmetry_group_IT_number 12
_symmetry_cell_setting 'monoclinic'
loop_
_space_group_symop_operation_xyz
x,y,z
-x,y,-z
-x,-y,-z
x,-y,z
1/2+x,1/2+y,z
1/2-x,1/2+y,-z
1/2-x,1/2-y,-z
1/2+x,1/2-y,z
loop_
_atom_site_type_symbol
_atom_site_label
_atom_site_fract_x
_atom_site_fract_y
_atom_site_fract_z
Si Si1 0.600007 0.130146 0.198355
Si Si2 0.231135 0.128658 0.425119
Si Si3 0.705405 0.132907 0.643819
Si Si4 0.843561 0.364347 0.918463
Si Si5 0.160927 0.629403 0.913872
Si Si6 0.037740 0.703234 0.720253
O O1 0.707718 0.249085 0.268926
O O2 0.525856 0.129952 0.198321
O O3 0.684073 0.000000 0.251895
O O4 0.429476 0.134268 0.036628
O O5 0.259579 0.141991 0.388397
O O6 0.416403 0.136226 0.591017
O O7 0.098582 0.219811 0.349860
O O8 0.153005 0.000000 0.375975
O O9 0.500000 0.137029 0.500000
O O10 0.767099 0.000000 0.705737
O O11 0.801381 0.500000 0.872961
O O12 0.675086 0.283735 0.793815
O O13 0.000000 0.323370 0.000000
O O14 0.242750 0.500000 0.987926
O O15 0.140142 0.634698 0.839616
O O16 0.250000 0.750000 0.000000
#
# Coordination Sequence:
#
# PCOD9210272 Si02
#       6
#     8   8   8   8   8   8
#     4  10  21  39  61  88 118 150 198 248 294 349
#     4  10  22  38  58  85 116 155 199 244 292 350
#     4  10  22  40  61  86 120 158 197 242 296 355
#     4  10  22  39  59  86 120 157 199 248 299 356
#     4  11  22  37  60  89 118 150 192 245 296 352
#     4  11  21  38  60  85 116 159 194 248 295 357
#
# _framework density 20.337054999999999
#
# number of rings (size 3 to 8) (size 9 to 14) (size 15 to 20)
#    0.000    1.667    3.333    1.000    2.333    1.667 
#    0.000    0.833    0.000    2.500    0.000    0.000 
#    0.000    0.000    0.000    0.000    0.000    0.000 
#
# Total GULP energy -133801.937474 kJ/mol
# GULP energy per Si atom -5575.080728 kJ/mol
# Density = 2.029077 g / cm^3
# Si number density = 20.337055 Si / 1000 Ang^3
#
#
#
# Elastic Constant Matrix: (Units=GPa)
#
#
# Indices 1 2 3 4 5 6 
#
# 1 39.6380 4.8915 -0.9880 0.0214 14.7785 -0.0011
# 2 4.8915 166.5926 47.0055 0.0148 6.5904 0.0007
# 3 -0.9880 47.0055 41.3346 0.0192 5.7601 0.0048
# 4 0.0214 0.0148 0.0192 108.9199 -0.0020 -4.2302
# 5 14.7785 6.5904 5.7601 -0.0020 31.7041 0.0017
# 6 -0.0011 0.0007 0.0048 -4.2302 0.0017 14.9354
#
#
#
# Elastic Compliance Matrix: (Units=1/GPa)
#
#
# Indices 1 2 3 4 5 6 
#
# 1 0.031156 -0.001651 0.004718 -0.000007 -0.015037 0.000001
# 2 -0.001651 0.008926 -0.010300 0.000001 0.000785 0.000003
# 3 0.004718 -0.010300 0.036962 -0.000007 -0.006774 -0.000012
# 4 -0.000007 0.000001 -0.000007 0.009283 0.000005 0.002629
# 5 -0.015037 0.000785 -0.006774 0.000005 0.039618 -0.000002
# 6 0.000001 0.000003 -0.000012 0.002629 -0.000002 0.067700
#
#
# Mechanical properties :
#
#
# Convention : Reuss Voigt Hill
#
# Bulk Modulus (GPa) = 15.97992 38.82036 27.40014
# Shear Modulus (GPa) = 21.83678 44.22230 33.02954
#
# Velocity S-wave (km/s) = 3.28036 4.66818 4.03439
# Velocity P-wave (km/s) = 4.71405 6.94160 5.93330
#
# Compressibility (1/GPa) = 0.06257852
#
# Stress axis : x y z
#
# Youngs Moduli (GPa) = 32.09649 112.02904 27.05450
#
# Poissons Ratio (x) = 0.18497 -0.12764
# Poissons Ratio (y) = 0.05300 0.27866
# Poissons Ratio (z) = -0.15143 1.15388
#
# Static dielectric constant tensor:
#      x y z
#    x 1.736700 0.000000 -0.027540 
#    y 0.000000 1.783800 0.000000 
#    z -0.027540 0.000000 1.711390 
# 
# From -- ./inp_files/172909.got.cif
#   From: 2010.05.17/outbox.cif.g08.bks.cpg/sg12_87_cif.got.tgz:172909.got - 2010.06.03 13:09:07.
