data_PCOD9210481
_publ_section_title
;
Structure prediction by ZEFSAII (Michael W. Deem and Ramdas Pophale) SiO2 
 PCOD9210481
Probable space group: C 2/M
;
_chemical_formula_sum "Si O2"
_cell_formula_units_Z 56
_cell_length_a 20.404868
_cell_length_b 8.769734
_cell_length_c 19.839298
_cell_angle_alpha 90.000000
_cell_angle_beta 122.714751
_cell_angle_gamma 90.000000
_cell_volume 2986.994305
_symmetry_space_group_name_H-M "C 2/M"
_symmetry_group_IT_number 12
_symmetry_cell_setting 'monoclinic'
loop_
_space_group_symop_operation_xyz
x,y,z
-x,y,-z
-x,-y,-z
x,-y,z
1/2+x,1/2+y,z
1/2-x,1/2+y,-z
1/2-x,1/2-y,-z
1/2+x,1/2-y,z
loop_
_atom_site_type_symbol
_atom_site_label
_atom_site_fract_x
_atom_site_fract_y
_atom_site_fract_z
Si Si1 0.779383 0.817967 0.307974
Si Si2 0.447665 0.817722 0.646543
Si Si3 0.611159 0.318292 0.245497
Si Si4 0.987650 0.315301 0.070870
Si Si5 0.917597 0.183705 0.487845
Si Si6 0.166185 0.316828 0.937038
Si Si7 0.871420 0.682876 0.237676
O O1 0.698185 0.737429 0.278011
O O2 0.845982 0.775747 0.399412
O O3 0.812789 0.767750 0.254422
O O4 0.768782 0.000000 0.304274
O O5 0.413454 0.744226 0.694948
O O6 0.409919 0.757006 0.556987
O O7 0.539637 0.779671 0.694175
O O8 0.440183 0.000000 0.647197
O O9 0.607053 0.500000 0.242803
O O10 0.552399 0.252032 0.156680
O O11 0.992275 0.500000 0.077636
O O12 0.902585 0.267880 0.050747
O O13 0.000000 0.271190 0.000000
O O14 0.000000 0.231208 0.500000
O O15 0.919501 0.000000 0.495593
O O16 0.170571 0.500000 0.942940
O O17 0.142115 0.275829 0.847570
O O18 0.250000 0.250000 0.000000
O O19 0.861372 0.500000 0.239080
#
# Coordination Sequence:
#
# PCOD9210481 Si02
#       7
#     8   8   8   8   8   8   8
#     4  11  24  41  64  91 126 166 207 255 312 373
#     4  11  22  40  67  92 123 167 210 253 311 373
#     4  12  26  43  64  91 127 165 210 260 309 370
#     4  10  22  43  67  91 124 166 208 252 309 372
#     4  10  21  39  62  94 128 160 207 261 311 366
#     4  10  22  40  61  92 128 161 203 254 304 364
#     4  10  21  39  62  90 126 162 205 257 305 364
#
# _framework density 18.747944
#
# number of rings (size 3 to 8) (size 9 to 14) (size 15 to 20)
#    0.000    1.429    2.857    2.143    2.000    4.000 
#    0.000    0.000    0.000    0.000    0.000    0.000 
#    0.000    0.000    0.000    0.000    0.000    0.000 
#
# Total GULP energy -156527.252225 kJ/mol
# GULP energy per Si atom -5590.259008 kJ/mol
# Density = 1.870527 g / cm^3
# Si number density = 18.747944 Si / 1000 Ang^3
#
#
#
# Elastic Constant Matrix: (Units=GPa)
#
#
# Indices 1 2 3 4 5 6 
#
# 1 162.8277 49.0827 83.6390 0.0000 -8.7797 0.0000
# 2 49.0827 32.7159 36.6460 0.0000 -6.6101 0.0000
# 3 83.6390 36.6460 130.7893 0.0000 -17.2899 0.0000
# 4 0.0000 0.0000 0.0000 29.9532 0.0000 -3.3164
# 5 -8.7797 -6.6101 -17.2899 0.0000 36.7345 0.0000
# 6 0.0000 0.0000 0.0000 -3.3164 0.0000 31.9736
#
#
#
# Elastic Compliance Matrix: (Units=1/GPa)
#
#
# Indices 1 2 3 4 5 6 
#
# 1 0.012579 -0.014495 -0.004191 0.000000 -0.001574 0.000000
# 2 -0.014495 0.061432 -0.007400 0.000000 0.004107 0.000000
# 3 -0.004191 -0.007400 0.012893 0.000000 0.003735 0.000000
# 4 0.000000 0.000000 0.000000 0.033773 0.000000 0.003503
# 5 -0.001574 0.004107 0.003735 0.000000 0.029343 0.000000
# 6 0.000000 0.000000 0.000000 0.003503 0.000000 0.031639
#
#
# Mechanical properties :
#
#
# Convention : Reuss Voigt Hill
#
# Bulk Modulus (GPa) = 28.79234 73.89650 51.34442
# Shear Modulus (GPa) = 20.37417 30.19660 25.28538
#
# Velocity S-wave (km/s) = 3.30015 4.01766 3.67645
# Velocity P-wave (km/s) = 5.46921 7.81175 6.74299
#
# Compressibility (1/GPa) = 0.03473146
#
# Stress axis : x y z
#
# Youngs Moduli (GPa) = 79.49975 16.27812 77.56162
#
# Poissons Ratio (x) = 0.23596 0.32503
# Poissons Ratio (y) = 1.15239 0.57396
# Poissons Ratio (z) = 0.33315 0.12046
#
# Static dielectric constant tensor:
#      x y z
#    x 1.624980 0.000000 0.000570 
#    y 0.000000 1.634530 0.000000 
#    z 0.000570 0.000000 1.624440 
# 
# From -- ./inp_files/275570.got.cif
#   From: 2010.05.17/outbox.cif.g08.bks.cpg/sg12_138_cif.got.tgz:275570.got - 2010.06.03 13:09:07.
