data_PCOD9210226
_publ_section_title
;
Structure prediction by ZEFSAII (Michael W. Deem and Ramdas Pophale) SiO2 
 PCOD9210226
Probable space group: C 2/M
;
_chemical_formula_sum "Si O2"
_cell_formula_units_Z 60
_cell_length_a 26.693424
_cell_length_b 21.722234
_cell_length_c 8.394347
_cell_angle_alpha 90.000000
_cell_angle_beta 139.889145
_cell_angle_gamma 90.000000
_cell_volume 3135.902947
_symmetry_space_group_name_H-M "C 2/M"
_symmetry_group_IT_number 12
_symmetry_cell_setting 'monoclinic'
loop_
_space_group_symop_operation_xyz
x,y,z
-x,y,-z
-x,-y,-z
x,-y,z
1/2+x,1/2+y,z
1/2-x,1/2+y,-z
1/2-x,1/2-y,-z
1/2+x,1/2-y,z
loop_
_atom_site_type_symbol
_atom_site_label
_atom_site_fract_x
_atom_site_fract_y
_atom_site_fract_z
Si Si1 0.213130 0.312409 0.599606
Si Si2 0.768912 0.065892 0.866835
Si Si3 0.168255 0.570698 0.941538
Si Si4 0.430427 0.430591 0.440491
Si Si5 0.000000 0.630482 0.500000
Si Si6 0.460533 0.197114 0.732853
Si Si7 0.571559 0.662398 0.280950
Si Si8 0.249496 0.819049 0.664649
O O1 0.261826 0.373320 0.747242
O O2 0.129460 0.322002 0.474111
O O3 0.250118 0.248223 0.751063
O O4 0.205210 0.308149 0.389841
O O5 0.708948 0.070167 0.867790
O O6 0.755622 0.000000 0.750819
O O7 0.853493 0.065533 0.149156
O O8 0.175206 0.500000 0.021160
O O9 0.078412 0.590198 0.705256
O O10 0.212864 0.623554 0.151586
O O11 0.500000 0.407547 0.500000
O O12 0.450243 0.500000 0.543581
O O13 0.415776 0.385431 0.548512
O O14 0.004929 0.669880 0.346795
O O15 0.457014 0.271360 0.723557
O O16 0.500000 0.179587 0.000000
O O17 0.656728 0.670845 0.408633
O O18 0.500000 0.639877 0.000000
#
# Coordination Sequence:
#
# PCOD9210226 Si02
#       8
#     8   8   8   8   4   8   8   8
#     4  10  21  40  61  89 122 158 205 252 310 381
#     4  10  21  39  61  85 122 159 199 256 304 369
#     4  11  23  41  62  90 123 161 213 260 307 372
#     4  10  22  39  57  83 118 155 198 251 308 375
#     4  12  23  40  68  92 119 178 208 256 325 366
#     4  10  22  40  59  92 130 155 206 263 307 370
#     4  10  22  38  58  89 119 156 200 252 308 374
#     4  10  22  39  64  87 121 163 198 260 319 361
#
# _framework density 19.133246
#
# number of rings (size 3 to 8) (size 9 to 14) (size 15 to 20)
#    0.000    1.733    2.667    1.000    2.800    3.467 
#    0.000    0.000    0.000    2.000    0.000    0.000 
#    0.000    0.000    0.000    0.000    0.000    0.000 
#
# Total GULP energy -167239.074138 kJ/mol
# GULP energy per Si atom -5574.635805 kJ/mol
# Density = 1.908970 g / cm^3
# Si number density = 19.133246 Si / 1000 Ang^3
#
#
#
# Elastic Constant Matrix: (Units=GPa)
#
#
# Indices 1 2 3 4 5 6 
#
# 1 86.5568 11.3660 6.5205 0.0000 12.3381 0.0000
# 2 11.3660 107.8048 43.5791 0.0000 -7.8329 0.0000
# 3 6.5205 43.5791 65.0025 0.0000 10.9523 0.0000
# 4 0.0000 0.0000 0.0000 34.9080 0.0000 -1.8671
# 5 12.3381 -7.8329 10.9523 0.0000 30.0979 0.0000
# 6 0.0000 0.0000 0.0000 -1.8671 0.0000 68.5974
#
#
#
# Elastic Compliance Matrix: (Units=1/GPa)
#
#
# Indices 1 2 3 4 5 6 
#
# 1 0.012655 -0.002341 0.001360 0.000000 -0.006292 0.000000
# 2 -0.002341 0.014630 -0.011055 0.000000 0.008790 0.000000
# 3 0.001360 -0.011055 0.024755 0.000000 -0.012443 0.000000
# 4 0.000000 0.000000 0.000000 0.028688 0.000000 0.000781
# 5 -0.006292 0.008790 -0.012443 0.000000 0.042619 0.000000
# 6 0.000000 0.000000 0.000000 0.000781 0.000000 0.014599
#
#
# Mechanical properties :
#
#
# Convention : Reuss Voigt Hill
#
# Bulk Modulus (GPa) = 35.75331 42.47724 39.11528
# Shear Modulus (GPa) = 29.18146 39.91389 34.54768
#
# Velocity S-wave (km/s) = 3.90958 4.57234 4.25389
# Velocity P-wave (km/s) = 6.25354 7.07983 6.67948
#
# Compressibility (1/GPa) = 0.02796943
#
# Stress axis : x y z
#
# Youngs Moduli (GPa) = 79.02046 68.35155 40.39542
#
# Poissons Ratio (x) = 0.16003 -0.05495
# Poissons Ratio (y) = 0.18501 0.44655
# Poissons Ratio (z) = -0.10750 0.75560
#
# Static dielectric constant tensor:
#      x y z
#    x 1.638700 0.000000 -0.015730 
#    y 0.000000 1.715810 0.000000 
#    z -0.015730 0.000000 1.652410 
# 
# From -- ./inp_files/106573.got.cif
#   From: 2010.05.17/outbox.cif.g08.bks.cpg/sg12_54_cif.got.tgz:106573.got - 2010.06.03 13:09:07.
