data_PCOD9210455
_publ_section_title
;
Structure prediction by ZEFSAII (Michael W. Deem and Ramdas Pophale) SiO2 
 PCOD9210455
Probable space group: C 2/M
;
_chemical_formula_sum "Si O2"
_cell_formula_units_Z 64
_cell_length_a 25.844133
_cell_length_b 15.239381
_cell_length_c 12.002530
_cell_angle_alpha 90.000000
_cell_angle_beta 42.473587
_cell_angle_gamma 90.000000
_cell_volume 3192.029172
_symmetry_space_group_name_H-M "C 2/M"
_symmetry_group_IT_number 12
_symmetry_cell_setting 'monoclinic'
loop_
_space_group_symop_operation_xyz
x,y,z
-x,y,-z
-x,-y,-z
x,-y,z
1/2+x,1/2+y,z
1/2-x,1/2+y,-z
1/2-x,1/2-y,-z
1/2+x,1/2-y,z
loop_
_atom_site_type_symbol
_atom_site_label
_atom_site_fract_x
_atom_site_fract_y
_atom_site_fract_z
Si Si1 0.160297 0.104183 0.481360
Si Si2 0.080970 0.269491 0.035112
Si Si3 0.307573 0.190109 0.337046
Si Si4 0.583673 0.898650 0.423513
Si Si5 0.591596 0.601009 0.353147
Si Si6 0.013084 0.101258 0.846801
Si Si7 0.937671 0.395567 0.280029
Si Si8 0.160343 0.734849 0.136419
O O1 0.246074 0.134681 0.364517
O O2 0.124412 0.131322 0.420637
O O3 0.099086 0.128992 0.674564
O O4 0.161107 0.000000 0.479877
O O5 0.042652 0.174431 0.113817
O O6 0.129222 0.297495 0.066775
O O7 0.011869 0.338830 0.127002
O O8 0.136162 0.264356 0.840785
O O9 0.250000 0.250000 0.500000
O O10 0.363303 0.134686 0.328956
O O11 0.500000 0.892196 0.500000
O O12 0.576700 0.877980 0.565604
O O13 0.635826 0.832312 0.272022
O O14 0.609536 0.000000 0.372082
O O15 0.500000 0.603165 0.500000
O O16 0.615253 0.500000 0.295169
O O17 0.621818 0.671146 0.218909
O O18 0.000492 0.000000 0.828016
O O19 0.000000 0.102242 0.000000
O O20 0.950882 0.500000 0.245217
O O21 0.250000 0.750000 0.000000
#
# Coordination Sequence:
#
# PCOD9210455 Si02
#       8
#     8   8   8   8   8   8   8   8
#     4  10  21  39  62  89 125 166 210 267 329 385
#     4  12  25  42  65  98 128 172 223 278 326 392
#     4  12  26  41  65  96 136 174 216 272 341 400
#     4  10  22  45  71  97 130 176 226 274 331 401
#     4  10  22  40  65  95 126 169 221 268 320 389
#     4  10  21  40  64  90 125 169 216 263 317 387
#     4  11  25  45  72  99 131 177 232 281 328 398
#     4  12  26  40  65  96 136 172 214 269 341 396
#
# _framework density 20.049942000000001
#
# number of rings (size 3 to 8) (size 9 to 14) (size 15 to 20)
#    0.000    1.125    1.250    4.875    5.250    3.500 
#    0.000    0.625    0.000    0.000    0.000    0.000 
#    0.000    0.000    0.000    0.000    0.000    0.000 
#
# Total GULP energy -178849.591572 kJ/mol
# GULP energy per Si atom -5589.049737 kJ/mol
# Density = 2.000431 g / cm^3
# Si number density = 20.049942 Si / 1000 Ang^3
#
#
#
# Elastic Constant Matrix: (Units=GPa)
#
#
# Indices 1 2 3 4 5 6 
#
# 1 137.7195 34.7295 41.4963 0.0000 -15.3013 0.0000
# 2 34.7295 81.9846 67.0822 0.0000 -7.5623 0.0000
# 3 41.4963 67.0822 111.6679 0.0000 -17.1391 0.0000
# 4 0.0000 0.0000 0.0000 -69.9510 0.0000 18.9541
# 5 -15.3013 -7.5623 -17.1391 0.0000 23.7311 0.0000
# 6 0.0000 0.0000 0.0000 18.9541 0.0000 24.7650
#
#
#
# Elastic Compliance Matrix: (Units=1/GPa)
#
#
# Indices 1 2 3 4 5 6 
#
# 1 0.008650 -0.002293 -0.001229 0.000000 0.003959 0.000000
# 2 -0.002293 0.024802 -0.014689 0.000000 -0.004184 0.000000
# 3 -0.001229 -0.014689 0.019565 0.000000 0.008657 0.000000
# 4 0.000000 0.000000 0.000000 -0.011840 0.000000 0.009062
# 5 0.003959 -0.004184 0.008657 0.000000 0.049610 0.000000
# 6 0.000000 0.000000 0.000000 0.009062 0.000000 0.033444
#
#
# Mechanical properties :
#
#
# Convention : Reuss Voigt Hill
#
# Bulk Modulus (GPa) = 60.26543 68.66535 64.46539
# Shear Modulus (GPa) = 30.08695 8.24661 19.16678
#
# Velocity S-wave (km/s) = 3.87796 2.03026 3.09520
# Velocity P-wave (km/s) = 7.08339 6.31011 6.70790
#
# Compressibility (1/GPa) = 0.01659326
#
# Stress axis : x y z
#
# Youngs Moduli (GPa) = 115.61251 40.31883 51.11198
#
# Poissons Ratio (x) = 0.09246 0.06282
# Poissons Ratio (y) = 0.26514 0.75081
# Poissons Ratio (z) = 0.14208 0.59226
#
# Static dielectric constant tensor:
#      x y z
#    x 1.852700 0.000000 -0.004170 
#    y 0.000000 1.718330 0.000000 
#    z -0.004170 0.000000 1.695140 
# 
# From -- ./inp_files/183773.got.cif
#   From: 2010.05.17/outbox.cif.g08.bks.cpg/sg12_92_cif.got.tgz:183773.got - 2010.06.03 13:09:07.
