data_PCOD9210105
_publ_section_title
;
Structure prediction by ZEFSAII (Michael W. Deem and Ramdas Pophale) SiO2 
 PCOD9210105
Probable space group: C 2/M
;
_chemical_formula_sum "Si O2"
_cell_formula_units_Z 56
_cell_length_a 11.965440
_cell_length_b 14.727134
_cell_length_c 18.054809
_cell_angle_alpha 90.000000
_cell_angle_beta 117.851025
_cell_angle_gamma 90.000000
_cell_volume 2813.022902
_symmetry_space_group_name_H-M "C 2/M"
_symmetry_group_IT_number 12
_symmetry_cell_setting 'monoclinic'
loop_
_space_group_symop_operation_xyz
x,y,z
-x,y,-z
-x,-y,-z
x,-y,z
1/2+x,1/2+y,z
1/2-x,1/2+y,-z
1/2-x,1/2-y,-z
1/2+x,1/2-y,z
loop_
_atom_site_type_symbol
_atom_site_label
_atom_site_fract_x
_atom_site_fract_y
_atom_site_fract_z
Si Si1 0.041692 0.110411 0.432719
Si Si2 0.635685 0.711238 0.016272
Si Si3 0.215616 0.209009 0.206868
Si Si4 0.819334 0.896299 0.248672
Si Si5 0.822466 0.389733 0.492102
Si Si6 0.426978 0.109347 0.360276
Si Si7 0.475033 0.602041 0.148792
O O1 0.181603 0.144820 0.459605
O O2 0.000000 0.144254 0.500000
O O3 0.936114 0.127827 0.338647
O O4 0.049584 0.000000 0.438468
O O5 0.699747 0.690514 0.114488
O O6 0.500000 0.759680 0.000000
O O7 0.750000 0.750000 0.000000
O O8 0.582012 0.631365 0.947528
O O9 0.219338 0.316204 0.223725
O O10 0.342519 0.162412 0.275716
O O11 0.092187 0.165556 0.205288
O O12 0.871177 0.893383 0.180859
O O13 0.778829 0.000000 0.252681
O O14 0.820524 0.500000 0.496646
O O15 0.868098 0.371091 0.423113
O O16 0.927128 0.361482 0.584749
O O17 0.420653 0.000000 0.346072
O O18 0.524164 0.500000 0.160660
#
# Coordination Sequence:
#
# PCOD9210105 Si02
#       7
#     8   8   8   8   8   8   8
#     4   9  17  32  52  74 105 152 205 244 285 349
#     4  10  21  39  63  91 128 164 203 257 318 365
#     4  11  21  35  60  90 122 150 202 259 303 354
#     4  10  21  39  60  83 117 164 207 247 305 373
#     4   8  15  31  53  77 113 155 190 241 303 363
#     4   9  17  31  54  85 118 150 189 246 315 359
#     4  10  21  39  67  93 120 161 207 250 305 372
#
# _framework density 19.907409000000001
#
# number of rings (size 3 to 8) (size 9 to 14) (size 15 to 20)
#    0.000    2.429    1.429    2.143    0.000    5.429 
#    5.143    0.714    0.000    8.571    0.000    0.000 
#    0.000    0.000    0.000    0.000    0.000    0.000 
#
# Total GULP energy -156073.928470 kJ/mol
# GULP energy per Si atom -5574.068874 kJ/mol
# Density = 1.986210 g / cm^3
# Si number density = 19.907409 Si / 1000 Ang^3
#
#
#
# Elastic Constant Matrix: (Units=GPa)
#
#
# Indices 1 2 3 4 5 6 
#
# 1 69.5072 36.9576 8.5317 0.0000 11.1970 0.0000
# 2 36.9576 101.1565 31.3776 0.0000 22.2788 0.0000
# 3 8.5317 31.3776 123.6328 0.0000 16.7435 0.0000
# 4 0.0000 0.0000 0.0000 19.9707 0.0000 11.3035
# 5 11.1970 22.2788 16.7435 0.0000 20.1487 0.0000
# 6 0.0000 0.0000 0.0000 11.3035 0.0000 21.5736
#
#
#
# Elastic Compliance Matrix: (Units=1/GPa)
#
#
# Indices 1 2 3 4 5 6 
#
# 1 0.018127 -0.005961 0.000827 0.000000 -0.004169 0.000000
# 2 -0.005961 0.015291 -0.001835 0.000000 -0.012070 0.000000
# 3 0.000827 -0.001835 0.009335 0.000000 -0.006188 0.000000
# 4 0.000000 0.000000 0.000000 0.071183 0.000000 -0.037297
# 5 -0.004169 -0.012070 -0.006188 0.000000 0.070436 0.000000
# 6 0.000000 0.000000 0.000000 -0.037297 0.000000 0.065895
#
#
# Mechanical properties :
#
#
# Convention : Reuss Voigt Hill
#
# Bulk Modulus (GPa) = 34.70446 49.78114 42.24280
# Shear Modulus (GPa) = 18.26086 26.83391 22.54739
#
# Velocity S-wave (km/s) = 3.03197 3.67541 3.36908
# Velocity P-wave (km/s) = 5.45233 6.56294 6.03324
#
# Compressibility (1/GPa) = 0.02881474
#
# Stress axis : x y z
#
# Youngs Moduli (GPa) = 55.16776 65.39839 107.12225
#
# Poissons Ratio (x) = 0.38982 -0.08854
# Poissons Ratio (y) = 0.32884 0.19655
# Poissons Ratio (z) = -0.04560 0.11999
#
# Static dielectric constant tensor:
#      x y z
#    x 1.776920 0.000000 -0.018300 
#    y 0.000000 1.728480 0.000000 
#    z -0.018300 0.000000 1.689410 
# 
# From -- ./inp_files/263393.got.cif
#   From: 2010.05.17/outbox.cif.g08.bks.cpg/sg12_132_cif.got.tgz:263393.got - 2010.06.03 13:09:07.
