data_PCOD9210427
_publ_section_title
;
Structure prediction by ZEFSAII (Michael W. Deem and Ramdas Pophale) SiO2 
 PCOD9210427
Probable space group: C 2/M
;
_chemical_formula_sum "Si O2"
_cell_formula_units_Z 44
_cell_length_a 9.187732
_cell_length_b 24.746548
_cell_length_c 11.353337
_cell_angle_alpha 90.000000
_cell_angle_beta 136.759136
_cell_angle_gamma 90.000000
_cell_volume 1768.395579
_symmetry_space_group_name_H-M "C 2/M"
_symmetry_group_IT_number 12
_symmetry_cell_setting 'monoclinic'
loop_
_space_group_symop_operation_xyz
x,y,z
-x,y,-z
-x,-y,-z
x,-y,z
1/2+x,1/2+y,z
1/2-x,1/2+y,-z
1/2-x,1/2-y,-z
1/2+x,1/2-y,z
loop_
_atom_site_type_symbol
_atom_site_label
_atom_site_fract_x
_atom_site_fract_y
_atom_site_fract_z
Si Si1 0.138374 0.828912 0.463590
Si Si2 0.605122 0.061722 0.832980
Si Si3 0.371467 0.555944 0.546992
Si Si4 0.691281 0.733374 0.834049
Si Si5 0.000000 0.366141 0.000000
Si Si6 0.895667 0.658349 0.310021
O O1 0.087949 0.886702 0.371769
O O2 0.387454 0.831109 0.637643
O O3 0.000000 0.824118 0.500000
O O4 0.053872 0.782311 0.331007
O O5 0.373993 0.055159 0.634777
O O6 0.564232 0.093511 0.931348
O O7 0.713640 0.105220 0.808658
O O8 0.688356 0.000000 0.895274
O O9 0.500000 0.556558 0.500000
O O10 0.424922 0.500000 0.642321
O O11 0.812648 0.678052 0.872156
O O12 0.734396 0.786641 0.781667
O O13 0.750000 0.750000 0.000000
O O14 0.000000 0.651244 0.500000
#
# Coordination Sequence:
#
# PCOD9210427 Si02
#       6
#     8   8   8   8   4   8
#     4  10  21  39  62  88 123 168 221 271 316 375
#     4  10  21  39  62  92 124 167 220 274 324 383
#     4   8  14  28  53  82 112 145 199 259 309 357
#     4  12  25  38  60  91 135 172 216 269 330 394
#     4  12  23  40  62  96 135 172 216 268 338 388
#     4  11  24  42  64  94 130 177 219 263 332 396
#
# _framework density 24.881311
#
# number of rings (size 3 to 8) (size 9 to 14) (size 15 to 20)
#    0.000    1.636    1.818    4.636    2.545    0.364 
#    0.000    0.909    0.000    0.000    0.000    1.909 
#    0.000    0.000    0.000    0.000    0.000    0.000 
#
# Total GULP energy -122742.494878 kJ/mol
# GULP energy per Si atom -5579.204313 kJ/mol
# Density = 2.482468 g / cm^3
# Si number density = 24.881311 Si / 1000 Ang^3
#
#
#
# Elastic Constant Matrix: (Units=GPa)
#
#
# Indices 1 2 3 4 5 6 
#
# 1 54.0881 7.9433 10.7481 0.0000 -14.9222 0.0000
# 2 7.9433 278.0516 49.1591 0.0000 -30.8221 0.0000
# 3 10.7481 49.1591 81.6035 0.0000 -23.8605 0.0000
# 4 0.0000 0.0000 0.0000 35.5922 0.0000 -2.2699
# 5 -14.9222 -30.8221 -23.8605 0.0000 47.7732 0.0000
# 6 0.0000 0.0000 0.0000 -2.2699 0.0000 12.6213
#
#
#
# Elastic Compliance Matrix: (Units=1/GPa)
#
#
# Indices 1 2 3 4 5 6 
#
# 1 0.020314 0.000276 -0.001094 0.000000 0.005977 0.000000
# 2 0.000276 0.004139 -0.002019 0.000000 0.001748 0.000000
# 3 -0.001094 -0.002019 0.015380 0.000000 0.006037 0.000000
# 4 0.000000 0.000000 0.000000 0.028422 0.000000 0.005112
# 5 0.005977 0.001748 0.006037 0.000000 0.026943 0.000000
# 6 0.000000 0.000000 0.000000 0.005112 0.000000 0.080150
#
#
# Mechanical properties :
#
#
# Convention : Reuss Voigt Hill
#
# Bulk Modulus (GPa) = 29.27478 61.04933 45.16206
# Shear Modulus (GPa) = 25.98635 42.25687 34.12161
#
# Velocity S-wave (km/s) = 3.23524 4.12556 3.70723
# Velocity P-wave (km/s) = 5.07415 6.87627 6.04277
#
# Compressibility (1/GPa) = 0.03415909
#
# Stress axis : x y z
#
# Youngs Moduli (GPa) = 49.22671 241.58743 65.02014
#
# Poissons Ratio (x) = -0.06658 0.07114
# Poissons Ratio (y) = -0.01357 0.13125
# Poissons Ratio (z) = 0.05386 0.48768
#
# Static dielectric constant tensor:
#      x y z
#    x 2.085270 0.000000 0.043280 
#    y 0.000000 2.078610 0.000000 
#    z 0.043280 0.000000 2.007570 
# 
# From -- ./inp_files/136087.got.cif
#   From: 2010.05.17/outbox.cif.g08.bks.cpg/sg12_69_cif.got.tgz:136087.got - 2010.06.03 13:09:07.
