data_PCOD9210615
_publ_section_title
;
Structure prediction by ZEFSAII (Michael W. Deem and Ramdas Pophale) SiO2 
 PCOD9210615
Probable space group: C 2/M
;
_chemical_formula_sum "Si O2"
_cell_formula_units_Z 40
_cell_length_a 31.178987
_cell_length_b 8.727028
_cell_length_c 11.612272
_cell_angle_alpha 90.000000
_cell_angle_beta 138.966819
_cell_angle_gamma 90.000000
_cell_volume 2074.329026
_symmetry_space_group_name_H-M "C 2/M"
_symmetry_group_IT_number 12
_symmetry_cell_setting 'monoclinic'
loop_
_space_group_symop_operation_xyz
x,y,z
-x,y,-z
-x,-y,-z
x,-y,z
1/2+x,1/2+y,z
1/2-x,1/2+y,-z
1/2-x,1/2-y,-z
1/2+x,1/2-y,z
loop_
_atom_site_type_symbol
_atom_site_label
_atom_site_fract_x
_atom_site_fract_y
_atom_site_fract_z
Si Si1 0.858565 0.317265 0.485645
Si Si2 0.984043 0.313439 0.597316
Si Si3 0.228005 0.181904 0.076486
Si Si4 0.676636 0.681814 0.347544
Si Si5 0.886427 0.683134 0.009309
O O1 0.866637 0.500000 0.521442
O O2 0.787709 0.293702 0.285787
O O3 0.859556 0.232714 0.609219
O O4 0.914695 0.266214 0.510267
O O5 0.983129 0.500000 0.590004
O O6 0.000000 0.259307 0.500000
O O7 0.042025 0.269674 0.801815
O O8 0.164697 0.266404 0.996500
O O9 0.216357 0.000000 0.044282
O O10 0.250000 0.250000 0.000000
O O11 0.682194 0.500000 0.351856
O O12 0.750000 0.750000 0.500000
O O13 0.637987 0.742886 0.158397
O O14 0.885357 0.500000 0.994724
#
# Coordination Sequence:
#
# PCOD9210615 Si02
#       5
#     8   8   8   8   8
#     4  10  21  39  63  89 120 161 207 251 301 358
#     4   9  19  38  63  91 123 162 204 248 298 363
#     4  11  22  36  59  88 120 158 205 256 305 361
#     4  12  24  40  62  89 123 160 204 255 311 367
#     4  11  22  38  63  91 122 159 203 254 307 361
#
# _framework density 19.283342999999999
#
# number of rings (size 3 to 8) (size 9 to 14) (size 15 to 20)
#    0.000    1.400    2.000    4.200    0.000    4.800 
#    0.000    6.000    0.000    4.200    0.000    0.000 
#    0.000    0.000    0.000    0.000    0.000    0.000 
#
# Total GULP energy -111801.181188 kJ/mol
# GULP energy per Si atom -5590.059059 kJ/mol
# Density = 1.923945 g / cm^3
# Si number density = 19.283343 Si / 1000 Ang^3
#
#
#
# Elastic Constant Matrix: (Units=GPa)
#
#
# Indices 1 2 3 4 5 6 
#
# 1 69.2759 2.0871 -12.1368 0.0000 -2.5614 0.0000
# 2 2.0871 46.9284 16.5263 0.0000 -3.1146 0.0000
# 3 -12.1368 16.5263 43.8558 0.0000 -1.5804 0.0000
# 4 0.0000 0.0000 0.0000 24.2677 0.0000 -6.1415
# 5 -2.5614 -3.1146 -1.5804 0.0000 42.8587 0.0000
# 6 0.0000 0.0000 0.0000 -6.1415 0.0000 32.5064
#
#
#
# Elastic Compliance Matrix: (Units=1/GPa)
#
#
# Indices 1 2 3 4 5 6 
#
# 1 0.015463 -0.002472 0.005245 0.000000 0.000938 0.000000
# 2 -0.002472 0.025055 -0.010079 0.000000 0.001301 0.000000
# 3 0.005245 -0.010079 0.028074 0.000000 0.000616 0.000000
# 4 0.000000 0.000000 0.000000 0.043276 0.000000 0.008176
# 5 0.000938 0.001301 0.000616 0.000000 0.023506 0.000000
# 6 0.000000 0.000000 0.000000 0.008176 0.000000 0.032308
#
#
# Mechanical properties :
#
#
# Convention : Reuss Voigt Hill
#
# Bulk Modulus (GPa) = 18.52585 19.22368 18.87476
# Shear Modulus (GPa) = 24.96416 30.16546 27.56481
#
# Velocity S-wave (km/s) = 3.60195 3.95945 3.78492
# Velocity P-wave (km/s) = 5.18910 5.55821 5.37682
#
# Compressibility (1/GPa) = 0.05397864
#
# Stress axis : x y z
#
# Youngs Moduli (GPa) = 64.67021 39.91264 35.62058
#
# Poissons Ratio (x) = 0.09868 -0.18682
# Poissons Ratio (y) = 0.15989 0.35901
# Poissons Ratio (z) = -0.33918 0.40227
#
# Static dielectric constant tensor:
#      x y z
#    x 1.637030 0.000000 -0.009250 
#    y 0.000000 1.655330 0.000000 
#    z -0.009250 0.000000 1.654220 
# 
# From -- ./inp_files/151672.got.cif
#   From: 2010.05.17/outbox.cif.g08.bks.cpg/sg12_76_cif.got.tgz:151672.got - 2010.06.03 13:09:07.
