data_PCOD9210517
_publ_section_title
;
Structure prediction by ZEFSAII (Michael W. Deem and Ramdas Pophale) SiO2 
 PCOD9210517
Probable space group: C 2/M
;
_chemical_formula_sum "Si O2"
_cell_formula_units_Z 50
_cell_length_a 13.340326
_cell_length_b 28.812445
_cell_length_c 14.306246
_cell_angle_alpha 90.000000
_cell_angle_beta 158.502078
_cell_angle_gamma 90.000000
_cell_volume 2015.151440
_symmetry_space_group_name_H-M "C 2/M"
_symmetry_group_IT_number 12
_symmetry_cell_setting 'monoclinic'
loop_
_space_group_symop_operation_xyz
x,y,z
-x,y,-z
-x,-y,-z
x,-y,z
1/2+x,1/2+y,z
1/2-x,1/2+y,-z
1/2-x,1/2-y,-z
1/2+x,1/2-y,z
loop_
_atom_site_type_symbol
_atom_site_label
_atom_site_fract_x
_atom_site_fract_y
_atom_site_fract_z
Si Si1 0.000000 0.500000 0.000000
Si Si2 0.285548 0.230373 0.882391
Si Si3 0.697026 0.446181 0.261540
Si Si4 0.020984 0.693952 0.286713
Si Si5 0.269896 0.897564 0.048606
Si Si6 0.267154 0.049789 0.623014
Si Si7 0.946744 0.141273 0.317056
O O1 0.091768 0.538841 0.156866
O O2 0.036245 0.264565 0.691258
O O3 0.195173 0.182905 0.751409
O O4 0.500000 0.254347 0.000000
O O5 0.420998 0.214361 0.099007
O O6 0.720616 0.500000 0.310703
O O7 0.527247 0.417444 0.189248
O O8 0.000000 0.429185 0.500000
O O9 0.500000 0.444243 0.000000
O O10 0.317662 0.670577 0.533623
O O11 0.839448 0.649589 0.162264
O O12 0.271451 0.879271 0.944315
O O13 0.498919 0.937657 0.250277
O O14 0.087089 0.095353 0.476829
O O15 0.117760 0.000000 0.470294
#
# Coordination Sequence:
#
# PCOD9210517 Si02
#       7
#     2   8   8   8   8   8   8
#     4   8  20  44  58  96 130 170 220 278 320 392
#     4  10  21  41  64  92 125 164 211 269 340 411
#     4  10  23  40  62  94 133 177 230 286 333 406
#     4   9  21  41  61  91 130 161 206 277 331 411
#     4  10  21  39  62  92 128 169 217 268 340 398
#     4   9  20  40  62  88 130 171 213 268 326 396
#     4  10  21  40  65  94 122 172 215 269 328 409
#
# _framework density 24.81203
#
# number of rings (size 3 to 8) (size 9 to 14) (size 15 to 20)
#    0.480    1.920    0.000    0.960    4.480    2.560 
#   15.840    0.800    0.000    0.480    0.000    0.000 
#    0.000    0.000    0.000    0.000    0.000    0.000 
#
# Total GULP energy -139349.124814 kJ/mol
# GULP energy per Si atom -5573.964993 kJ/mol
# Density = 2.475556 g / cm^3
# Si number density = 24.812030 Si / 1000 Ang^3
#
#
#
# Elastic Constant Matrix: (Units=GPa)
#
#
# Indices 1 2 3 4 5 6 
#
# 1 44.5766 33.9032 4.1403 0.0017 14.5709 0.0009
# 2 33.9032 171.0456 34.8511 0.0003 10.0395 0.0000
# 3 4.1403 34.8511 68.7760 0.0050 15.7374 0.0017
# 4 0.0017 0.0003 0.0050 49.3111 0.0010 -0.6800
# 5 14.5709 10.0395 15.7374 0.0010 40.4042 0.0011
# 6 0.0009 0.0000 0.0017 -0.6800 0.0011 15.5821
#
#
#
# Elastic Compliance Matrix: (Units=1/GPa)
#
#
# Indices 1 2 3 4 5 6 
#
# 1 0.030305 -0.006138 0.003774 -0.000001 -0.010874 -0.000001
# 2 -0.006138 0.007767 -0.003987 0.000001 0.001836 0.000001
# 3 0.003774 -0.003987 0.018024 -0.000002 -0.007391 -0.000002
# 4 -0.000001 0.000001 -0.000002 0.020292 0.000000 0.000886
# 5 -0.010874 0.001836 -0.007391 0.000000 0.031094 -0.000001
# 6 -0.000001 0.000001 -0.000002 0.000886 -0.000001 0.064215
#
#
# Mechanical properties :
#
#
# Convention : Reuss Voigt Hill
#
# Bulk Modulus (GPa) = 23.04358 47.79858 35.42108
# Shear Modulus (GPa) = 25.14294 35.15972 30.15133
#
# Velocity S-wave (km/s) = 3.18675 3.76845 3.48974
# Velocity P-wave (km/s) = 4.77995 6.18393 5.52670
#
# Compressibility (1/GPa) = 0.04339603
#
# Stress axis : x y z
#
# Youngs Moduli (GPa) = 32.99775 128.74234 55.48118
#
# Poissons Ratio (x) = 0.79016 -0.20938
# Poissons Ratio (y) = 0.20252 0.22119
# Poissons Ratio (z) = -0.12453 0.51326
#
# Static dielectric constant tensor:
#      x y z
#    x 2.037130 0.000000 -0.029870 
#    y 0.000000 1.997590 0.000000 
#    z -0.029870 0.000000 2.030970 
# 
# From -- ./inp_files/273254.got.cif
#   From: 2010.05.17/outbox.cif.g08.bks.cpg/sg12_137_cif.got.tgz:273254.got - 2010.06.03 13:09:07.
