data_PCOD9210537
_publ_section_title
;
Structure prediction by ZEFSAII (Michael W. Deem and Ramdas Pophale) SiO2 
 PCOD9210537
Probable space group: C 2/M
;
_chemical_formula_sum "Si O2"
_cell_formula_units_Z 58
_cell_length_a 11.996262
_cell_length_b 17.092136
_cell_length_c 25.359769
_cell_angle_alpha 90.000000
_cell_angle_beta 27.587968
_cell_angle_gamma 90.000000
_cell_volume 2408.084170
_symmetry_space_group_name_H-M "C 2/M"
_symmetry_group_IT_number 12
_symmetry_cell_setting 'monoclinic'
loop_
_space_group_symop_operation_xyz
x,y,z
-x,y,-z
-x,-y,-z
x,-y,z
1/2+x,1/2+y,z
1/2-x,1/2+y,-z
1/2-x,1/2-y,-z
1/2+x,1/2-y,z
loop_
_atom_site_type_symbol
_atom_site_label
_atom_site_fract_x
_atom_site_fract_y
_atom_site_fract_z
Si Si1 0.500000 0.000000 0.500000
Si Si2 0.705636 0.847845 0.471198
Si Si3 0.747882 0.172219 0.574862
Si Si4 0.618098 0.845837 0.190383
Si Si5 0.756163 0.088474 0.908990
Si Si6 0.671168 0.302737 0.721899
Si Si7 0.456710 0.749599 0.115802
Si Si8 0.442883 0.086509 0.895838
O O1 0.676949 0.929517 0.452126
O O2 0.787331 0.855886 0.497983
O O3 0.821739 0.766474 0.400055
O O4 0.428642 0.821013 0.593090
O O5 0.536619 0.124395 0.694318
O O6 0.000000 0.164523 0.500000
O O7 0.429036 0.780798 0.250666
O O8 0.850935 0.795663 0.110233
O O9 0.652500 0.898292 0.123631
O O10 0.973488 0.132909 0.791900
O O11 0.757093 0.000000 0.889678
O O12 0.500000 0.124807 0.000000
O O13 0.753890 0.086380 0.973956
O O14 0.663839 0.300026 0.787641
O O15 0.393540 0.840313 0.154543
O O16 0.750000 0.750000 0.000000
O O17 0.554444 0.000000 0.850526
#
# Coordination Sequence:
#
# PCOD9210537 Si02
#       8
#     2   8   8   8   8   8   8   8
#     4  12  24  48  70 116 134 172 228 320 342 432
#     4  11  24  42  76 101 145 175 239 297 364 418
#     4  11  22  47  73  99 134 195 238 291 355 443
#     4  11  23  40  71  97 134 183 237 285 344 422
#     4  10  21  39  62  94 145 192 225 278 351 419
#     4  11  21  37  63 101 125 187 228 282 334 424
#     4  11  22  40  63  97 135 180 236 275 331 422
#     4  10  23  42  65  99 143 181 224 291 347 408
#
# _framework density 24.085536000000001
#
# number of rings (size 3 to 8) (size 9 to 14) (size 15 to 20)
#    0.000    1.241    4.828    0.828    0.966    1.655 
#    1.241    3.793   10.621    0.000    0.000    0.000 
#    0.000    0.000    0.000    0.000    0.000    0.000 
#
# Total GULP energy -161435.212588 kJ/mol
# GULP energy per Si atom -5566.731469 kJ/mol
# Density = 2.403072 g / cm^3
# Si number density = 24.085536 Si / 1000 Ang^3
#
#
#
# Elastic Constant Matrix: (Units=GPa)
#
#
# Indices 1 2 3 4 5 6 
#
# 1 142.4437 24.0047 18.6055 0.0218 9.2626 -0.0442
# 2 24.0047 104.1806 9.1219 -0.0429 -1.2274 -0.0148
# 3 18.6055 9.1219 82.6365 -0.0174 -0.2607 -0.1033
# 4 0.0218 -0.0429 -0.0174 10.9566 -0.1072 -3.0709
# 5 9.2626 -1.2274 -0.2607 -0.1072 42.2213 0.0101
# 6 -0.0442 -0.0148 -0.1033 -3.0709 0.0101 29.8868
#
#
#
# Elastic Compliance Matrix: (Units=1/GPa)
#
#
# Indices 1 2 3 4 5 6 
#
# 1 0.007610 -0.001639 -0.001538 -0.000040 -0.001727 0.000002
# 2 -0.001639 0.010049 -0.000738 0.000049 0.000647 0.000005
# 3 -0.001538 -0.000738 0.012530 0.000036 0.000393 0.000044
# 4 -0.000040 0.000049 0.000036 0.093978 0.000247 0.009656
# 5 -0.001727 0.000647 0.000393 0.000247 0.024085 0.000016
# 6 0.000002 0.000005 0.000044 0.009656 0.000016 0.034452
#
#
# Mechanical properties :
#
#
# Convention : Reuss Voigt Hill
#
# Bulk Modulus (GPa) = 44.72580 48.08054 46.40317
# Shear Modulus (GPa) = 25.25416 35.11486 30.18451
#
# Velocity S-wave (km/s) = 3.24160 3.82242 3.54393
# Velocity P-wave (km/s) = 5.71144 6.28386 6.00447
#
# Compressibility (1/GPa) = 0.02235846
#
# Stress axis : x y z
#
# Youngs Moduli (GPa) = 131.41139 99.51575 79.80714
#
# Poissons Ratio (x) = 0.16311 0.12273
# Poissons Ratio (y) = 0.21539 0.05891
# Poissons Ratio (z) = 0.20209 0.07346
#
# Static dielectric constant tensor:
#      x y z
#    x 2.149880 0.000060 0.065880 
#    y 0.000060 1.942210 -0.000030 
#    z 0.065880 -0.000030 1.995640 
# 
# From -- ./inp_files/358786.got.cif
#   From: 2010.05.17/outbox.cif.g08.bks.cpg/sg12_180_cif.got.tgz:358786.got - 2010.06.03 13:09:07.
