data_PCOD9210174
_publ_section_title
;
Structure prediction by ZEFSAII (Michael W. Deem and Ramdas Pophale) SiO2 
 PCOD9210174
Probable space group: C 2/M
;
_chemical_formula_sum "Si O2"
_cell_formula_units_Z 40
_cell_length_a 17.094964
_cell_length_b 13.785332
_cell_length_c 16.516364
_cell_angle_alpha 90.000000
_cell_angle_beta 154.819211
_cell_angle_gamma 90.000000
_cell_volume 1656.055223
_symmetry_space_group_name_H-M "C 2/M"
_symmetry_group_IT_number 12
_symmetry_cell_setting 'monoclinic'
loop_
_space_group_symop_operation_xyz
x,y,z
-x,y,-z
-x,-y,-z
x,-y,z
1/2+x,1/2+y,z
1/2-x,1/2+y,-z
1/2-x,1/2-y,-z
1/2+x,1/2-y,z
loop_
_atom_site_type_symbol
_atom_site_label
_atom_site_fract_x
_atom_site_fract_y
_atom_site_fract_z
Si Si1 0.958574 0.612260 0.278719
Si Si2 0.595152 0.612210 0.861926
Si Si3 0.362177 0.712343 0.939431
Si Si4 0.778558 0.112807 0.286074
Si Si5 0.232912 0.117845 0.546144
O O1 0.983945 0.500000 0.324808
O O2 0.839941 0.662138 0.238088
O O3 0.146793 0.651054 0.417976
O O4 0.815597 0.616980 0.068316
O O5 0.551067 0.500000 0.842585
O O6 0.480142 0.636080 0.675317
O O7 0.548739 0.684178 0.891388
O O8 0.313044 0.820584 0.866956
O O9 0.500000 0.672640 0.000000
O O10 0.715967 0.149578 0.316314
O O11 0.000000 0.119296 0.500000
O O12 0.733591 0.000000 0.231352
O O13 0.253664 0.000000 0.568412
#
# Coordination Sequence:
#
# PCOD9210174 Si02
#       5
#     8   8   8   8   8
#     4   8  17  35  65  98 128 162 205 259 318 381
#     4   8  17  35  64  97 127 161 204 258 318 378
#     4  10  21  39  60  93 135 165 206 260 322 385
#     4  10  23  44  65  89 124 168 217 269 319 370
#     4   9  17  38  69  94 122 165 217 265 312 368
#
# _framework density 24.153784000000002
#
# number of rings (size 3 to 8) (size 9 to 14) (size 15 to 20)
#    1.200    1.800    0.000    0.000    0.000    3.600 
#    3.600    6.000    0.000    6.000    0.000    5.600 
#    0.000    0.000    0.000    0.000    0.000    0.200 
#
# Total GULP energy -111555.765660 kJ/mol
# GULP energy per Si atom -5577.788283 kJ/mol
# Density = 2.409881 g / cm^3
# Si number density = 24.153784 Si / 1000 Ang^3
#
#
#
# Elastic Constant Matrix: (Units=GPa)
#
#
# Indices 1 2 3 4 5 6 
#
# 1 96.2462 45.2101 22.9428 0.0014 4.7254 0.0001
# 2 45.2101 97.1956 22.1361 0.0036 -12.1637 0.0011
# 3 22.9428 22.1361 76.0634 0.0025 -1.7157 0.0008
# 4 0.0014 0.0036 0.0025 29.2827 0.0012 -1.8567
# 5 4.7254 -12.1637 -1.7157 0.0012 48.7453 0.0002
# 6 0.0001 0.0011 0.0008 -1.8567 0.0002 33.1725
#
#
#
# Elastic Compliance Matrix: (Units=1/GPa)
#
#
# Indices 1 2 3 4 5 6 
#
# 1 0.014132 -0.006392 -0.002471 0.000000 -0.003052 0.000000
# 2 -0.006392 0.014260 -0.002129 -0.000001 0.004103 -0.000001
# 3 -0.002471 -0.002129 0.014517 -0.000001 0.000219 0.000000
# 4 0.000000 -0.000001 -0.000001 0.034271 -0.000001 0.001918
# 5 -0.003052 0.004103 0.000219 -0.000001 0.021842 0.000000
# 6 0.000000 -0.000001 0.000000 0.001918 0.000000 0.030253
#
#
# Mechanical properties :
#
#
# Convention : Reuss Voigt Hill
#
# Bulk Modulus (GPa) = 47.79367 50.00923 48.90145
# Shear Modulus (GPa) = 31.59844 34.18784 32.89314
#
# Velocity S-wave (km/s) = 3.62085 3.76629 3.69429
# Velocity P-wave (km/s) = 6.10827 6.29784 6.20378
#
# Compressibility (1/GPa) = 0.02092327
#
# Stress axis : x y z
#
# Youngs Moduli (GPa) = 70.76316 70.12421 68.88525
#
# Poissons Ratio (x) = 0.44827 0.17021
# Poissons Ratio (y) = 0.45235 0.14668
# Poissons Ratio (z) = 0.17486 0.14932
#
# Static dielectric constant tensor:
#      x y z
#    x 1.905580 0.000000 0.051550 
#    y 0.000000 1.947650 0.000000 
#    z 0.051550 0.000000 1.912370 
# 
# From -- ./inp_files/270797.got.cif
#   From: 2010.05.17/outbox.cif.g08.bks.cpg/sg12_136_cif.got.tgz:270797.got - 2010.06.03 13:09:07.
