data_PCOD9210323
_publ_section_title
;
Structure prediction by ZEFSAII (Michael W. Deem and Ramdas Pophale) SiO2 
 PCOD9210323
Probable space group: C 2/M
;
_chemical_formula_sum "Si O2"
_cell_formula_units_Z 48
_cell_length_a 11.259307
_cell_length_b 13.799259
_cell_length_c 16.046954
_cell_angle_alpha 90.000000
_cell_angle_beta 57.374923
_cell_angle_gamma 90.000000
_cell_volume 2099.828302
_symmetry_space_group_name_H-M "C 2/M"
_symmetry_group_IT_number 12
_symmetry_cell_setting 'monoclinic'
loop_
_space_group_symop_operation_xyz
x,y,z
-x,y,-z
-x,-y,-z
x,-y,z
1/2+x,1/2+y,z
1/2-x,1/2+y,-z
1/2-x,1/2-y,-z
1/2+x,1/2-y,z
loop_
_atom_site_type_symbol
_atom_site_label
_atom_site_fract_x
_atom_site_fract_y
_atom_site_fract_z
Si Si1 0.941684 0.392101 0.771512
Si Si2 0.266894 0.609841 0.589795
Si Si3 0.661801 0.116463 0.452272
Si Si4 0.646436 0.307952 0.276051
Si Si5 0.959999 0.296365 0.110867
Si Si6 0.077483 0.110781 0.762278
O O1 0.883571 0.500000 0.777285
O O2 0.881693 0.301996 0.742926
O O3 0.106350 0.394222 0.684650
O O4 0.938657 0.362225 0.869809
O O5 0.322480 0.500000 0.566252
O O6 0.242208 0.647868 0.506121
O O7 0.352560 0.670304 0.625732
O O8 0.500000 0.149511 0.500000
O O9 0.770621 0.132191 0.336277
O O10 0.649742 0.000000 0.467151
O O11 0.800956 0.334424 0.182914
O O12 0.531699 0.372048 0.271787
O O13 0.958082 0.189897 0.154195
O O14 0.000000 0.293658 0.000000
O O15 0.072072 0.000000 0.792873
#
# Coordination Sequence:
#
# PCOD9210323 Si02
#       6
#     8   8   8   8   8   8
#     4   9  20  38  62  90 122 166 214 262 318 379
#     4   9  18  36  62  90 126 171 208 248 314 380
#     4   9  19  36  62  97 135 174 214 255 306 382
#     4  10  21  39  61  92 129 160 212 271 316 376
#     4  10  23  42  62  89 129 170 214 267 325 388
#     4  10  22  40  64  96 132 170 210 262 325 377
#
# _framework density 22.859010999999999
#
# number of rings (size 3 to 8) (size 9 to 14) (size 15 to 20)
#    0.000    2.500    0.000    0.500    2.333    5.333 
#    0.000   13.333    0.000    0.000    0.000    0.000 
#    0.000    0.667    0.000    0.000    0.000    0.000 
#
# Total GULP energy -134173.894936 kJ/mol
# GULP energy per Si atom -5590.578956 kJ/mol
# Density = 2.280698 g / cm^3
# Si number density = 22.859011 Si / 1000 Ang^3
#
#
#
# Elastic Constant Matrix: (Units=GPa)
#
#
# Indices 1 2 3 4 5 6 
#
# 1 105.3808 24.8796 13.6190 0.0000 13.1084 0.0000
# 2 24.8796 109.5879 29.0732 0.0000 12.7049 0.0000
# 3 13.6190 29.0732 83.2568 0.0000 21.6603 0.0000
# 4 0.0000 0.0000 0.0000 16.3161 0.0000 -3.1195
# 5 13.1084 12.7049 21.6603 0.0000 30.5573 0.0000
# 6 0.0000 0.0000 0.0000 -3.1195 0.0000 16.7822
#
#
#
# Elastic Compliance Matrix: (Units=1/GPa)
#
#
# Indices 1 2 3 4 5 6 
#
# 1 0.010402 -0.001919 -0.000096 0.000000 -0.003597 0.000000
# 2 -0.001919 0.010519 -0.002986 0.000000 -0.001433 0.000000
# 3 -0.000096 -0.002986 0.015616 0.000000 -0.009786 0.000000
# 4 0.000000 0.000000 0.000000 0.063547 0.000000 0.011812
# 5 -0.003597 -0.001433 -0.009786 0.000000 0.041801 0.000000
# 6 0.000000 0.000000 0.000000 0.011812 0.000000 0.061782
#
#
# Mechanical properties :
#
#
# Convention : Reuss Voigt Hill
#
# Bulk Modulus (GPa) = 37.68713 48.15215 42.91964
# Shear Modulus (GPa) = 22.47032 28.10805 25.28918
#
# Velocity S-wave (km/s) = 3.13868 3.51041 3.32973
# Velocity P-wave (km/s) = 5.44588 6.12709 5.79650
#
# Compressibility (1/GPa) = 0.02653426
#
# Stress axis : x y z
#
# Youngs Moduli (GPa) = 96.13294 95.06338 64.03860
#
# Poissons Ratio (x) = 0.18245 0.00613
# Poissons Ratio (y) = 0.18451 0.19125
# Poissons Ratio (z) = 0.00920 0.28390
#
# Static dielectric constant tensor:
#      x y z
#    x 1.918400 0.000000 0.045680 
#    y 0.000000 1.900060 0.000000 
#    z 0.045680 0.000000 1.827230 
# 
# From -- ./inp_files/204856.got.cif
#   From: 2010.05.17/outbox.cif.g08.bks.cpg/sg12_103_cif.got.tgz:204856.got - 2010.06.03 13:09:07.
