data_PCOD9210697
_publ_section_title
;
Structure prediction by ZEFSAII (Michael W. Deem and Ramdas Pophale) SiO2 
 PCOD9210697
Probable space group: C 2/M
;
_chemical_formula_sum "Si O2"
_cell_formula_units_Z 64
_cell_length_a 9.807525
_cell_length_b 14.093363
_cell_length_c 31.136307
_cell_angle_alpha 90.000000
_cell_angle_beta 134.540841
_cell_angle_gamma 90.000000
_cell_volume 3067.459140
_symmetry_space_group_name_H-M "C 2/M"
_symmetry_group_IT_number 12
_symmetry_cell_setting 'monoclinic'
loop_
_space_group_symop_operation_xyz
x,y,z
-x,y,-z
-x,-y,-z
x,-y,z
1/2+x,1/2+y,z
1/2-x,1/2+y,-z
1/2-x,1/2-y,-z
1/2+x,1/2-y,z
loop_
_atom_site_type_symbol
_atom_site_label
_atom_site_fract_x
_atom_site_fract_y
_atom_site_fract_z
Si Si1 0.281181 0.115204 0.443598
Si Si2 0.031845 0.272841 0.855707
Si Si3 0.593212 0.233232 0.773348
Si Si4 0.273203 0.888855 0.943710
Si Si5 0.698230 0.386383 0.023852
Si Si6 0.532131 0.886334 0.334212
Si Si7 0.532001 0.615565 0.556593
Si Si8 0.201238 0.113965 0.326549
O O1 0.500000 0.145933 0.500000
O O2 0.216769 0.135618 0.380657
O O3 0.129532 0.150183 0.445775
O O4 0.283298 0.000000 0.447515
O O5 0.031157 0.304752 0.806162
O O6 0.163987 0.178268 0.886708
O O7 0.131719 0.343944 0.910829
O O8 0.817575 0.254310 0.823203
O O9 0.558540 0.157980 0.728092
O O10 0.465793 0.324925 0.732463
O O11 0.238462 0.000000 0.927105
O O12 0.500000 0.876640 0.000000
O O13 0.194683 0.861465 0.973208
O O14 0.709391 0.500000 0.028512
O O15 0.500000 0.352987 0.000000
O O16 0.752359 0.854769 0.384845
O O17 0.400432 0.861995 0.346206
O O18 0.532663 0.000000 0.331857
O O19 0.500000 0.640689 0.500000
O O20 0.526742 0.500000 0.557482
O O21 0.170434 0.000000 0.315226
#
# Coordination Sequence:
#
# PCOD9210697 Si02
#       8
#     8   8   8   8   8   8   8   8
#     4   9  17  31  58  93 123 157 205 260 320 379
#     4  12  24  39  62  88 125 164 205 255 304 362
#     4  12  26  41  59  90 124 168 219 257 300 370
#     4  10  21  39  65  94 123 157 200 249 307 372
#     4  10  21  39  63  92 123 155 195 250 312 367
#     4  10  22  42  63  84 122 169 210 260 317 370
#     4   9  17  31  58  93 123 157 205 260 320 380
#     4  10  22  42  63  84 122 169 210 261 316 369
#
# _framework density 20.864173000000001
#
# number of rings (size 3 to 8) (size 9 to 14) (size 15 to 20)
#    0.000    1.750    1.250    3.000    1.750    5.000 
#    0.000    0.625    0.000    3.000    0.000    0.000 
#    0.000    0.000    0.000    0.000    0.000    0.000 
#
# Total GULP energy -178910.469929 kJ/mol
# GULP energy per Si atom -5590.952185 kJ/mol
# Density = 2.081669 g / cm^3
# Si number density = 20.864173 Si / 1000 Ang^3
#
#
#
# Elastic Constant Matrix: (Units=GPa)
#
#
# Indices 1 2 3 4 5 6 
#
# 1 131.6288 11.8059 31.1969 0.0000 3.4189 0.0000
# 2 11.8059 44.4968 11.6989 0.0000 -1.3542 0.0000
# 3 31.1969 11.6989 96.7191 0.0000 9.2635 0.0000
# 4 0.0000 0.0000 0.0000 25.3638 0.0000 0.4153
# 5 3.4189 -1.3542 9.2635 0.0000 39.6624 0.0000
# 6 0.0000 0.0000 0.0000 0.4153 0.0000 22.4220
#
#
#
# Elastic Compliance Matrix: (Units=1/GPa)
#
#
# Indices 1 2 3 4 5 6 
#
# 1 0.008330 -0.001564 -0.002479 0.000000 -0.000192 0.000000
# 2 -0.001564 0.023591 -0.002495 0.000000 0.001523 0.000000
# 3 -0.002479 -0.002495 0.011690 0.000000 -0.002602 0.000000
# 4 0.000000 0.000000 0.000000 0.039438 0.000000 -0.000730
# 5 -0.000192 0.001523 -0.002602 0.000000 0.025889 0.000000
# 6 0.000000 0.000000 0.000000 -0.000730 0.000000 0.044613
#
#
# Mechanical properties :
#
#
# Convention : Reuss Voigt Hill
#
# Bulk Modulus (GPa) = 32.75011 42.47201 37.61106
# Shear Modulus (GPa) = 28.27972 32.03249 30.15610
#
# Velocity S-wave (km/s) = 3.68560 3.92252 3.80590
# Velocity P-wave (km/s) = 5.81742 6.39653 6.11383
#
# Compressibility (1/GPa) = 0.03053425
#
# Stress axis : x y z
#
# Youngs Moduli (GPa) = 120.04791 42.38940 85.54429
#
# Poissons Ratio (x) = 0.06630 0.21208
# Poissons Ratio (y) = 0.18777 0.21342
# Poissons Ratio (z) = 0.29763 0.10575
#
# Static dielectric constant tensor:
#      x y z
#    x 1.694500 0.000000 -0.019860 
#    y 0.000000 1.765100 0.000000 
#    z -0.019860 0.000000 1.664440 
# 
# From -- ./inp_files/372597.got.cif
#   From: 2010.05.17/outbox.cif.g08.bks.cpg/sg12_187_cif.got.tgz:372597.got - 2010.06.03 13:09:07.
