data_PCOD9210449
_publ_section_title
;
Structure prediction by ZEFSAII (Michael W. Deem and Ramdas Pophale) SiO2 
 PCOD9210449
Probable space group: C 2/M
;
_chemical_formula_sum "Si O2"
_cell_formula_units_Z 40
_cell_length_a 19.339263
_cell_length_b 10.863062
_cell_length_c 8.947387
_cell_angle_alpha 90.000000
_cell_angle_beta 96.531885
_cell_angle_gamma 90.000000
_cell_volume 1867.497704
_symmetry_space_group_name_H-M "C 2/M"
_symmetry_group_IT_number 12
_symmetry_cell_setting 'monoclinic'
loop_
_space_group_symop_operation_xyz
x,y,z
-x,y,-z
-x,-y,-z
x,-y,z
1/2+x,1/2+y,z
1/2-x,1/2+y,-z
1/2-x,1/2-y,-z
1/2+x,1/2-y,z
loop_
_atom_site_type_symbol
_atom_site_label
_atom_site_fract_x
_atom_site_fract_y
_atom_site_fract_z
Si Si1 0.599015 0.364623 0.971322
Si Si2 0.973984 0.363904 0.200964
Si Si3 0.728746 0.702440 0.832412
Si Si4 0.357549 0.143153 0.413767
Si Si5 0.368744 0.211692 0.738326
O O1 0.567883 0.500000 0.966546
O O2 0.553348 0.249641 0.903663
O O3 0.660361 0.370821 0.862810
O O4 0.624036 0.326252 0.144588
O O5 0.954360 0.500000 0.136202
O O6 0.931585 0.351750 0.345781
O O7 0.056879 0.356016 0.235888
O O8 0.700896 0.809392 0.715780
O O9 0.798428 0.646091 0.779508
O O10 0.750000 0.750000 0.000000
O O11 0.357318 0.229072 0.559271
O O12 0.346102 0.000000 0.452743
#
# Coordination Sequence:
#
# PCOD9210449 Si02
#       5
#     8   8   8   8   8
#     4  10  23  42  62  88 126 168 208 252 304 364
#     4  10  22  40  63  92 125 161 205 255 306 364
#     4   9  21  40  60  87 121 160 205 252 303 363
#     4  10  21  39  62  89 123 160 201 254 312 368
#     4  11  21  36  62  94 124 157 204 257 308 361
#
# _framework density 21.419035000000001
#
# number of rings (size 3 to 8) (size 9 to 14) (size 15 to 20)
#    0.000    2.000    0.000    2.400    0.000   10.400 
#    0.000   12.000    0.000    6.000    0.000    0.000 
#    0.000    0.000    0.000    0.000    0.000    0.000 
#
# Total GULP energy -111408.193306 kJ/mol
# GULP energy per Si atom -5570.409665 kJ/mol
# Density = 2.137028 g / cm^3
# Si number density = 21.419035 Si / 1000 Ang^3
#
#
#
# Elastic Constant Matrix: (Units=GPa)
#
#
# Indices 1 2 3 4 5 6 
#
# 1 167.8185 44.4126 46.2540 0.0000 -23.3549 0.0000
# 2 44.4126 125.2605 36.1885 0.0000 2.2110 0.0000
# 3 46.2540 36.1885 135.8920 0.0000 -11.4580 0.0000
# 4 0.0000 0.0000 0.0000 -253.2230 0.0000 62.8259
# 5 -23.3549 2.2110 -11.4580 0.0000 42.8037 0.0000
# 6 0.0000 0.0000 0.0000 62.8259 0.0000 -18.9641
#
#
#
# Elastic Compliance Matrix: (Units=1/GPa)
#
#
# Indices 1 2 3 4 5 6 
#
# 1 0.007539 -0.002265 -0.001643 0.000000 0.003790 0.000000
# 2 -0.002265 0.009379 -0.001915 0.000000 -0.002233 0.000000
# 3 -0.001643 -0.001915 0.008554 0.000000 0.001492 0.000000
# 4 0.000000 0.000000 0.000000 -0.022179 0.000000 -0.073476
# 5 0.003790 -0.002233 0.001492 0.000000 0.025945 0.000000
# 6 0.000000 0.000000 0.000000 -0.073476 0.000000 -0.296148
#
#
# Mechanical properties :
#
#
# Convention : Reuss Voigt Hill
#
# Bulk Modulus (GPa) = 72.33193 75.85344 74.09269
# Shear Modulus (GPa) = -19.94772 -25.73562 -22.84167
#
# Velocity S-wave (km/s) = -3.05504 -3.47007 -3.26915
# Velocity P-wave (km/s) = 4.62589 4.40860 4.51855
#
# Compressibility (1/GPa) = 0.01382515
#
# Stress axis : x y z
#
# Youngs Moduli (GPa) = 132.64945 106.61948 116.90644
#
# Poissons Ratio (x) = 0.24150 0.19210
# Poissons Ratio (y) = 0.30047 0.22388
# Poissons Ratio (z) = 0.21796 0.20418
#
# Static dielectric constant tensor:
#      x y z
#    x 1.856430 0.000000 -0.014050 
#    y 0.000000 1.783470 0.000000 
#    z -0.014050 0.000000 1.790540 
# 
# From -- ./inp_files/83566.got.cif
#   From: 2010.05.17/outbox.cif.g08.bks.cpg/sg12_42_cif.got.tgz:83566.got - 2010.06.03 13:09:07.
