data_PCOD9210241
_publ_section_title
;
Structure prediction by ZEFSAII (Michael W. Deem and Ramdas Pophale) SiO2 
 PCOD9210241
Probable space group: C 2/M
;
_chemical_formula_sum "Si O2"
_cell_formula_units_Z 42
_cell_length_a 14.891333
_cell_length_b 17.087878
_cell_length_c 10.048273
_cell_angle_alpha 90.000000
_cell_angle_beta 55.079266
_cell_angle_gamma 90.000000
_cell_volume 2096.513866
_symmetry_space_group_name_H-M "C 2/M"
_symmetry_group_IT_number 12
_symmetry_cell_setting 'monoclinic'
loop_
_space_group_symop_operation_xyz
x,y,z
-x,y,-z
-x,-y,-z
x,-y,z
1/2+x,1/2+y,z
1/2-x,1/2+y,-z
1/2-x,1/2-y,-z
1/2+x,1/2-y,z
loop_
_atom_site_type_symbol
_atom_site_label
_atom_site_fract_x
_atom_site_fract_y
_atom_site_fract_z
Si Si1 0.549021 0.777835 0.317288
Si Si2 0.626913 0.407091 0.880181
Si Si3 0.828528 0.126077 0.705758
Si Si4 0.187114 0.590444 0.063013
Si Si5 0.837984 0.182648 0.413132
Si Si6 0.500000 0.500000 0.500000
O O1 0.500000 0.807294 0.500000
O O2 0.641215 0.714218 0.278122
O O3 0.597783 0.847375 0.188080
O O4 0.454774 0.726113 0.327772
O O5 0.628650 0.500000 0.853509
O O6 0.702238 0.392846 0.944816
O O7 0.673711 0.362187 0.714261
O O8 0.500000 0.383685 0.000000
O O9 0.818234 0.125346 0.554966
O O10 0.930734 0.068153 0.640982
O O11 0.724292 0.100513 0.878950
O O12 0.155556 0.500000 0.114129
O O13 0.750000 0.250000 0.500000
#
# Coordination Sequence:
#
# PCOD9210241 Si02
#       6
#     8   8   8   8   8   2
#     4  10  21  39  61  86 118 163 204 246 303 369
#     4  10  22  35  58  88 120 147 189 252 307 348
#     4  11  22  37  65  90 121 154 203 252 302 367
#     4  11  23  40  62  90 121 162 208 250 299 369
#     4  11  23  39  59  87 118 156 195 247 306 365
#     4  12  20  36  68  94 118 152 206 254 310 344
#
# _framework density 20.033256999999999
#
# number of rings (size 3 to 8) (size 9 to 14) (size 15 to 20)
#    0.000    1.333    3.810    4.000    1.333    1.905 
#    0.000    0.952    0.000    1.143    0.000    0.000 
#    0.000    0.000    0.000    0.000    0.000    0.000 
#
# Total GULP energy -117040.892366 kJ/mol
# GULP energy per Si atom -5573.375827 kJ/mol
# Density = 1.998766 g / cm^3
# Si number density = 20.033257 Si / 1000 Ang^3
#
#
#
# Elastic Constant Matrix: (Units=GPa)
#
#
# Indices 1 2 3 4 5 6 
#
# 1 22.7489 -0.8385 -2.9825 0.0000 6.9272 0.0000
# 2 -0.8385 73.8375 56.2655 0.0000 -4.8511 0.0000
# 3 -2.9825 56.2655 107.4133 0.0000 -3.9986 0.0000
# 4 0.0000 0.0000 0.0000 40.1533 0.0000 -8.0545
# 5 6.9272 -4.8511 -3.9986 0.0000 16.7194 0.0000
# 6 0.0000 0.0000 0.0000 -8.0545 0.0000 5.8050
#
#
#
# Elastic Compliance Matrix: (Units=1/GPa)
#
#
# Indices 1 2 3 4 5 6 
#
# 1 0.050547 -0.002139 0.001737 0.000000 -0.021148 0.000000
# 2 -0.002139 0.022867 -0.011863 0.000000 0.004684 0.000000
# 3 0.001737 -0.011863 0.015556 0.000000 -0.000441 0.000000
# 4 0.000000 0.000000 0.000000 0.034509 0.000000 0.047883
# 5 -0.021148 0.004684 -0.000441 0.000000 0.069826 0.000000
# 6 0.000000 0.000000 0.000000 0.047883 0.000000 0.238705
#
#
# Mechanical properties :
#
#
# Convention : Reuss Voigt Hill
#
# Bulk Modulus (GPa) = 15.51866 34.32095 24.91981
# Shear Modulus (GPa) = 10.45984 22.63922 16.54953
#
# Velocity S-wave (km/s) = 2.28748 3.36532 2.87732
# Velocity P-wave (km/s) = 3.83927 5.68064 4.84818
#
# Compressibility (1/GPa) = 0.06443854
#
# Stress axis : x y z
#
# Youngs Moduli (GPa) = 19.78374 43.73207 64.28491
#
# Poissons Ratio (x) = 0.09353 -0.11163
# Poissons Ratio (y) = 0.04231 0.76261
# Poissons Ratio (z) = -0.03435 0.51879
#
# Static dielectric constant tensor:
#      x y z
#    x 1.705290 0.000000 -0.003450 
#    y 0.000000 1.698320 0.000000 
#    z -0.003450 0.000000 1.708870 
# 
# From -- ./inp_files/61598.got.cif
#   From: 2010.05.17/outbox.cif.g08.bks.cpg/sg12_31_cif.got.tgz:61598.got - 2010.06.03 13:09:07.
