data_PCOD9210341
_publ_section_title
;
Structure prediction by ZEFSAII (Michael W. Deem and Ramdas Pophale) SiO2 
 PCOD9210341
Probable space group: C 2/M
;
_chemical_formula_sum "Si O2"
_cell_formula_units_Z 64
_cell_length_a 20.976763
_cell_length_b 8.494722
_cell_length_c 25.042274
_cell_angle_alpha 90.000000
_cell_angle_beta 53.293099
_cell_angle_gamma 90.000000
_cell_volume 3577.463982
_symmetry_space_group_name_H-M "C 2/M"
_symmetry_group_IT_number 12
_symmetry_cell_setting 'monoclinic'
loop_
_space_group_symop_operation_xyz
x,y,z
-x,y,-z
-x,-y,-z
x,-y,z
1/2+x,1/2+y,z
1/2-x,1/2+y,-z
1/2-x,1/2-y,-z
1/2+x,1/2-y,z
loop_
_atom_site_type_symbol
_atom_site_label
_atom_site_fract_x
_atom_site_fract_y
_atom_site_fract_z
Si Si1 0.045210 0.692461 0.849538
Si Si2 0.398000 0.188369 0.293645
Si Si3 0.427276 0.183247 0.993564
Si Si4 0.315018 0.809226 0.138664
Si Si5 0.425716 0.309889 0.499211
Si Si6 0.778045 0.688296 0.638584
Si Si7 0.335190 0.811732 0.727853
Si Si8 0.513259 0.311798 0.646972
O O1 0.042916 0.500000 0.851807
O O2 0.057000 0.742775 0.782923
O O3 0.122600 0.737707 0.845814
O O4 0.966728 0.750825 0.920207
O O5 0.306415 0.237566 0.333521
O O6 0.437329 0.257406 0.326731
O O7 0.403033 0.000000 0.293168
O O8 0.352671 0.249503 0.063780
O O9 0.408674 0.000000 0.991881
O O10 0.500000 0.184114 0.000000
O O11 0.228858 0.748544 0.197400
O O12 0.314535 0.000000 0.137605
O O13 0.500000 0.266814 0.500000
O O14 0.418397 0.500000 0.504037
O O15 0.345965 0.237057 0.562953
O O16 0.446030 0.258921 0.428914
O O17 0.769999 0.500000 0.643526
O O18 0.806226 0.742161 0.683464
O O19 0.423617 0.751529 0.693856
O O20 0.335590 0.000000 0.727859
O O21 0.510090 0.500000 0.647149
#
# Coordination Sequence:
#
# PCOD9210341 Si02
#       8
#     8   8   8   8   8   8   8   8
#     4   8  14  26  48  78 109 143 179 219 267 318
#     4  11  22  37  58  83 115 149 184 223 268 325
#     4   7  11  21  42  75 108 136 175 223 266 312
#     4   9  15  27  51  80 108 140 181 226 269 316
#     4  10  21  39  62  84 106 138 181 228 277 327
#     4  11  23  37  58  85 113 145 182 224 270 323
#     4  11  22  35  54  82 114 145 181 225 272 323
#     4  11  24  41  60  81 109 142 181 227 276 330
#
# _framework density 17.889768
#
# number of rings (size 3 to 8) (size 9 to 14) (size 15 to 20)
#    0.000    2.250    2.500    3.000    0.000    2.750 
#    0.000    0.000    0.000    5.625    0.000    0.000 
#    0.000    0.000    0.000    0.000    0.000    0.000 
#
# Total GULP energy -178481.674121 kJ/mol
# GULP energy per Si atom -5577.552316 kJ/mol
# Density = 1.784905 g / cm^3
# Si number density = 17.889768 Si / 1000 Ang^3
#
#
#
# Elastic Constant Matrix: (Units=GPa)
#
#
# Indices 1 2 3 4 5 6 
#
# 1 85.2330 12.8091 53.6259 -0.0003 0.2610 -0.0003
# 2 12.8091 19.6977 20.0484 -0.0005 -1.3156 -0.0013
# 3 53.6259 20.0484 175.3888 -0.0001 -5.2868 0.0002
# 4 -0.0003 -0.0005 -0.0001 -12.7476 0.0001 14.9750
# 5 0.2610 -1.3156 -5.2868 0.0001 23.5573 0.0001
# 6 -0.0003 -0.0013 0.0002 14.9750 0.0001 15.0869
#
#
#
# Elastic Compliance Matrix: (Units=1/GPa)
#
#
# Indices 1 2 3 4 5 6 
#
# 1 0.015134 -0.005864 -0.003999 0.000000 -0.001393 0.000000
# 2 -0.005864 0.059795 -0.004973 0.000002 0.002288 0.000003
# 3 -0.003999 -0.004973 0.007537 0.000000 0.001458 0.000000
# 4 0.000000 0.000002 0.000000 -0.036217 0.000000 0.035948
# 5 -0.001393 0.002288 0.001458 0.000000 0.042920 0.000000
# 6 0.000000 0.000003 0.000000 0.035948 0.000000 0.030601
#
#
# Mechanical properties :
#
#
# Convention : Reuss Voigt Hill
#
# Bulk Modulus (GPa) = 18.94180 50.36516 34.65348
# Shear Modulus (GPa) = 29.93274 18.10172 24.01723
#
# Velocity S-wave (km/s) = 4.09489 3.18441 3.66801
# Velocity P-wave (km/s) = 5.74182 6.46024 6.11160
#
# Compressibility (1/GPa) = 0.05279329
#
# Stress axis : x y z
#
# Youngs Moduli (GPa) = 66.07571 16.72376 132.68354
#
# Poissons Ratio (x) = 0.09807 0.53060
# Poissons Ratio (y) = 0.38749 0.65984
# Poissons Ratio (z) = 0.26423 0.08317
#
# Static dielectric constant tensor:
#      x y z
#    x 1.573480 0.000000 0.015780 
#    y 0.000000 1.609720 0.000000 
#    z 0.015780 0.000000 1.641970 
# 
# From -- ./inp_files/365168.got.cif
#   From: 2010.05.17/outbox.cif.g08.bks.cpg/sg12_183_cif.got.tgz:365168.got - 2010.06.03 13:09:07.
