data_PCOD9210874
_publ_section_title
;
Structure prediction by ZEFSAII (Michael W. Deem and Ramdas Pophale) SiO2 
 PCOD9210874
Probable space group: C 2/M
;
_chemical_formula_sum "Si O2"
_cell_formula_units_Z 64
_cell_length_a 8.749955
_cell_length_b 19.949832
_cell_length_c 23.301427
_cell_angle_alpha 90.000000
_cell_angle_beta 45.544964
_cell_angle_gamma 90.000000
_cell_volume 2903.382774
_symmetry_space_group_name_H-M "C 2/M"
_symmetry_group_IT_number 12
_symmetry_cell_setting 'monoclinic'
loop_
_space_group_symop_operation_xyz
x,y,z
-x,y,-z
-x,-y,-z
x,-y,z
1/2+x,1/2+y,z
1/2-x,1/2+y,-z
1/2-x,1/2-y,-z
1/2+x,1/2-y,z
loop_
_atom_site_type_symbol
_atom_site_label
_atom_site_fract_x
_atom_site_fract_y
_atom_site_fract_z
Si Si1 0.004807 0.231943 0.059438
Si Si2 0.722211 0.574497 0.409070
Si Si3 0.595772 0.925105 0.141574
Si Si4 0.185272 0.425753 0.327842
Si Si5 0.175063 0.680590 0.714395
Si Si6 0.930309 0.894517 0.144522
Si Si7 0.682666 0.878498 0.883387
Si Si8 0.475423 0.321013 0.290161
O O1 0.932086 0.185218 0.130481
O O2 0.880865 0.301754 0.086660
O O3 0.250000 0.250000 0.000000
O O4 0.000000 0.193806 0.000000
O O5 0.500000 0.583993 0.500000
O O6 0.714733 0.500000 0.382862
O O7 0.772458 0.634090 0.352868
O O8 0.930134 0.573172 0.394549
O O9 0.478360 0.863808 0.204663
O O10 0.829099 0.924234 0.112278
O O11 0.523690 0.912010 0.093712
O O12 0.511339 0.000000 0.176217
O O13 0.265469 0.500000 0.322770
O O14 0.273026 0.412275 0.239124
O O15 0.266462 0.366391 0.346657
O O16 0.400707 0.694425 0.684972
O O17 0.067868 0.751164 0.729261
O O18 0.175651 0.909560 0.101474
O O19 0.864628 0.869323 0.787432
#
# Coordination Sequence:
#
# PCOD9210874 Si02
#       8
#     8   8   8   8   8   8   8   8
#     4  12  23  40  64  95 130 167 213 265 329 394
#     4  10  21  39  64  92 128 174 217 259 317 388
#     4  11  23  38  63  95 127 166 217 270 324 385
#     4  10  21  40  64  93 127 166 214 261 321 387
#     4  11  21  37  58  90 130 163 208 270 320 372
#     4  11  22  38  64  93 128 165 214 266 324 377
#     4  10  24  38  60  94 127 163 211 270 322 382
#     4  10  23  36  63  95 125 160 211 273 320 373
#
# _framework density 22.043251999999999
#
# number of rings (size 3 to 8) (size 9 to 14) (size 15 to 20)
#    0.000    1.375    2.500    3.000    8.750    5.500 
#    0.000    3.125    0.000    9.375    0.000    0.000 
#    0.000    0.000    0.000    0.000    0.000    0.000 
#
# Total GULP energy -178388.977321 kJ/mol
# GULP energy per Si atom -5574.655541 kJ/mol
# Density = 2.199308 g / cm^3
# Si number density = 22.043252 Si / 1000 Ang^3
#
#
#
# Elastic Constant Matrix: (Units=GPa)
#
#
# Indices 1 2 3 4 5 6 
#
# 1 176.8111 49.0372 8.8734 0.0002 -4.8334 0.0003
# 2 49.0372 110.2725 -7.0379 -0.0003 -3.4869 0.0002
# 3 8.8734 -7.0379 11.8390 -0.0014 -13.9747 0.0016
# 4 0.0002 -0.0003 -0.0014 15.0560 0.0000 -0.5152
# 5 -4.8334 -3.4869 -13.9747 0.0000 18.3554 -0.0004
# 6 0.0003 0.0002 0.0016 -0.5152 -0.0004 28.0615
#
#
#
# Elastic Compliance Matrix: (Units=1/GPa)
#
#
# Indices 1 2 3 4 5 6 
#
# 1 -0.009404 0.027077 0.259516 0.000024 0.200247 -0.000011
# 2 0.027077 -0.046002 -0.488964 -0.000046 -0.373877 0.000021
# 3 0.259516 -0.488964 -4.241122 -0.000400 -3.253492 0.000186
# 4 0.000024 -0.000046 -0.000400 0.066460 -0.000307 0.001220
# 5 0.200247 -0.373877 -3.253492 -0.000307 -2.440832 0.000143
# 6 -0.000011 0.000021 0.000186 0.001220 0.000143 0.035658
#
#
# Mechanical properties :
#
#
# Convention : Reuss Voigt Hill
#
# Bulk Modulus (GPa) = -0.21271 44.51866 22.15298
# Shear Modulus (GPa) = -0.64122 28.83124 14.09501
#
# Velocity S-wave (km/s) = -0.53993 3.62047 2.53143
# Velocity P-wave (km/s) = 0.69671 6.14141 4.31460
#
# Compressibility (1/GPa) = -4.70127086
#
# Stress axis : x y z
#
# Youngs Moduli (GPa) = -106.34071 -21.73826 -0.23579
#
# Poissons Ratio (x) = 0.58860 0.06119
# Poissons Ratio (y) = 2.87937 -0.11529
# Poissons Ratio (z) = 27.59706 -10.62922
#
# Static dielectric constant tensor:
#      x y z
#    x 1.917290 0.000000 -0.004610 
#    y 0.000000 1.787410 0.000000 
#    z -0.004610 0.000000 1.812130 
# 
# From -- ./inp_files/333731.got.cif
#   From: 2010.05.17/outbox.cif.g08.bks.cpg/sg12_167_cif.got.tgz:333731.got - 2010.06.03 13:09:07.
