data_PCOD9210799
_publ_section_title
;
Structure prediction by ZEFSAII (Michael W. Deem and Ramdas Pophale) SiO2 
 PCOD9210799
Probable space group: C 2/M
;
_chemical_formula_sum "Si O2"
_cell_formula_units_Z 42
_cell_length_a 10.137544
_cell_length_b 10.189526
_cell_length_c 27.259049
_cell_angle_alpha 90.000000
_cell_angle_beta 126.215700
_cell_angle_gamma 90.000000
_cell_volume 2271.760204
_symmetry_space_group_name_H-M "C 2/M"
_symmetry_group_IT_number 12
_symmetry_cell_setting 'monoclinic'
loop_
_space_group_symop_operation_xyz
x,y,z
-x,y,-z
-x,-y,-z
x,-y,z
1/2+x,1/2+y,z
1/2-x,1/2+y,-z
1/2-x,1/2-y,-z
1/2+x,1/2-y,z
loop_
_atom_site_type_symbol
_atom_site_label
_atom_site_fract_x
_atom_site_fract_y
_atom_site_fract_z
Si Si1 0.640443 0.654224 0.163796
Si Si2 0.702509 0.845657 0.694961
Si Si3 0.500000 0.000000 0.000000
Si Si4 0.282461 0.355532 0.117335
Si Si5 0.308577 0.500000 0.446425
Si Si6 0.191643 0.500000 0.530934
Si Si7 0.845179 0.237272 0.625177
O O1 0.662304 0.500000 0.155959
O O2 0.711198 0.675106 0.233885
O O3 0.446393 0.682448 0.124304
O O4 0.730759 0.748527 0.145604
O O5 0.816868 0.807299 0.674760
O O6 0.534154 0.765833 0.656025
O O7 0.662108 0.000000 0.681826
O O8 0.369300 0.112263 0.951403
O O9 0.320672 0.500000 0.149417
O O10 0.500000 0.500000 0.500000
O O11 0.217587 0.500000 0.478678
O O12 0.254876 0.370581 0.405857
O O13 0.274285 0.626808 0.573629
O O14 0.000000 0.500000 0.500000
#
# Coordination Sequence:
#
# PCOD9210799 Si02
#       7
#     8   8   2   8   4   4   8
#     4  10  21  39  64  88 124 161 205 251 307 362
#     4  11  23  42  62  93 124 155 200 259 305 365
#     4   8  20  40  60  86 136 160 206 258 286 356
#     4   9  20  40  59  92 124 165 202 250 302 351
#     4  12  24  40  58  92 118 149 206 252 294 372
#     4  12  24  42  65  88 120 163 198 248 314 366
#     4  12  23  43  65  89 122 158 202 251 309 366
#
# _framework density 18.487866
#
# number of rings (size 3 to 8) (size 9 to 14) (size 15 to 20)
#    0.571    0.762    1.905    4.571    0.000    1.524 
#    3.429    0.476    0.000    0.000    0.000    0.000 
#    0.000    0.000    0.000    0.000    0.000    0.000 
#
# Total GULP energy -117017.455334 kJ/mol
# GULP energy per Si atom -5572.259778 kJ/mol
# Density = 1.844579 g / cm^3
# Si number density = 18.487866 Si / 1000 Ang^3
#
#
#
# Elastic Constant Matrix: (Units=GPa)
#
#
# Indices 1 2 3 4 5 6 
#
# 1 67.7155 11.2775 -13.1498 0.0000 1.8633 0.0000
# 2 11.2775 76.0977 6.9627 0.0000 6.4700 0.0000
# 3 -13.1498 6.9627 24.1308 0.0000 14.4457 0.0000
# 4 0.0000 0.0000 0.0000 29.7103 0.0000 -0.5414
# 5 1.8633 6.4700 14.4457 0.0000 15.0867 0.0000
# 6 0.0000 0.0000 0.0000 -0.5414 0.0000 34.4307
#
#
#
# Elastic Compliance Matrix: (Units=1/GPa)
#
#
# Indices 1 2 3 4 5 6 
#
# 1 0.022729 -0.003596 0.033226 0.000000 -0.033079 0.000000
# 2 -0.003596 0.014218 -0.006274 0.000000 0.000354 0.000000
# 3 0.033226 -0.006274 0.145743 0.000000 -0.140964 0.000000
# 4 0.000000 0.000000 0.000000 0.033668 0.000000 0.000529
# 5 -0.033079 0.000354 -0.140964 0.000000 0.205191 0.000000
# 6 0.000000 0.000000 0.000000 0.000529 0.000000 0.029052
#
#
# Mechanical properties :
#
#
# Convention : Reuss Voigt Hill
#
# Bulk Modulus (GPa) = 4.35916 19.79166 12.07541
# Shear Modulus (GPa) = 10.40893 26.70243 18.55568
#
# Velocity S-wave (km/s) = 2.37537 3.80455 3.17151
# Velocity P-wave (km/s) = 3.14422 5.47977 4.46733
#
# Compressibility (1/GPa) = 0.22940222
#
# Stress axis : x y z
#
# Youngs Moduli (GPa) = 43.99669 70.33404 6.86137
#
# Poissons Ratio (x) = 0.25292 -0.22798
# Poissons Ratio (y) = 0.15821 0.04305
# Poissons Ratio (z) = -1.46183 0.44127
#
# Static dielectric constant tensor:
#      x y z
#    x 1.602060 0.000000 0.010340 
#    y 0.000000 1.637140 0.000000 
#    z 0.010340 0.000000 1.621430 
# 
# From -- ./inp_files/371886.got.cif
#   From: 2010.05.17/outbox.cif.g08.bks.cpg/sg12_186_cif.got.tgz:371886.got - 2010.06.03 13:09:07.
