data_PCOD9210713
_publ_section_title
;
Structure prediction by ZEFSAII (Michael W. Deem and Ramdas Pophale) SiO2 
 PCOD9210713
Probable space group: C 2/M
;
_chemical_formula_sum "Si O2"
_cell_formula_units_Z 56
_cell_length_a 9.206351
_cell_length_b 18.958520
_cell_length_c 15.749737
_cell_angle_alpha 90.000000
_cell_angle_beta 115.487104
_cell_angle_gamma 90.000000
_cell_volume 2481.419125
_symmetry_space_group_name_H-M "C 2/M"
_symmetry_group_IT_number 12
_symmetry_cell_setting 'monoclinic'
loop_
_space_group_symop_operation_xyz
x,y,z
-x,y,-z
-x,-y,-z
x,-y,z
1/2+x,1/2+y,z
1/2-x,1/2+y,-z
1/2-x,1/2-y,-z
1/2+x,1/2-y,z
loop_
_atom_site_type_symbol
_atom_site_label
_atom_site_fract_x
_atom_site_fract_y
_atom_site_fract_z
Si Si1 0.328036 0.580931 0.503992
Si Si2 0.477998 0.419077 0.722932
Si Si3 0.827707 0.083496 0.995608
Si Si4 0.690267 0.709337 0.726572
Si Si5 0.212969 0.583942 0.786098
Si Si6 0.435905 0.822546 0.644220
Si Si7 0.310358 0.202104 0.939029
O O1 0.500000 0.594555 0.500000
O O2 0.280866 0.500000 0.467031
O O3 0.357608 0.580774 0.612018
O O4 0.196022 0.639797 0.448083
O O5 0.531092 0.500000 0.749684
O O6 0.617393 0.367351 0.727768
O O7 0.376332 0.392862 0.778625
O O8 0.711661 0.097573 0.886252
O O9 0.834556 0.000000 0.014063
O O10 0.771666 0.126661 0.062439
O O11 0.000000 0.104825 0.000000
O O12 0.551058 0.757202 0.649301
O O13 0.837671 0.704839 0.700424
O O14 0.754410 0.733725 0.834945
O O15 0.212310 0.500000 0.775161
O O16 0.061562 0.618192 0.703939
O O17 0.500000 0.195238 0.000000
O O18 0.250000 0.250000 0.000000
#
# Coordination Sequence:
#
# PCOD9210713 Si02
#       7
#     8   8   8   8   8   8   8
#     4  10  21  43  71  98 128 165 206 253 315 380
#     4  10  22  42  68  98 128 165 212 258 313 383
#     4  10  21  39  63  92 128 166 208 262 322 376
#     4  12  25  41  65  93 126 169 213 264 320 373
#     4  10  21  39  64  94 127 166 211 262 315 373
#     4  12  25  43  63  93 130 166 214 263 314 376
#     4  12  25  42  64  90 125 170 217 266 316 376
#
# _framework density 22.567731999999999
#
# number of rings (size 3 to 8) (size 9 to 14) (size 15 to 20)
#    0.000    1.143    1.429    5.143    0.000    3.714 
#    0.000    2.143    0.000    0.000    0.000    0.000 
#    0.000    0.000    0.000    0.000    0.000    0.000 
#
# Total GULP energy -156634.728723 kJ/mol
# GULP energy per Si atom -5594.097454 kJ/mol
# Density = 2.251637 g / cm^3
# Si number density = 22.567732 Si / 1000 Ang^3
#
#
#
# Elastic Constant Matrix: (Units=GPa)
#
#
# Indices 1 2 3 4 5 6 
#
# 1 78.4020 13.2497 -0.7871 0.0000 13.2648 0.0000
# 2 13.2497 57.2215 8.7568 0.0000 9.7864 0.0000
# 3 -0.7871 8.7568 56.5505 0.0000 1.3862 0.0000
# 4 0.0000 0.0000 0.0000 33.2660 0.0000 2.4268
# 5 13.2648 9.7864 1.3862 0.0000 34.5081 0.0000
# 6 0.0000 0.0000 0.0000 2.4268 0.0000 36.9396
#
#
#
# Elastic Compliance Matrix: (Units=1/GPa)
#
#
# Indices 1 2 3 4 5 6 
#
# 1 0.013984 -0.002545 0.000703 0.000000 -0.004682 0.000000
# 2 -0.002545 0.019257 -0.002910 0.000000 -0.004366 0.000000
# 3 0.000703 -0.002910 0.018148 0.000000 -0.000174 0.000000
# 4 0.000000 0.000000 0.000000 0.030206 0.000000 -0.001984
# 5 -0.004682 -0.004366 -0.000174 0.000000 0.032024 0.000000
# 6 0.000000 0.000000 0.000000 -0.001984 0.000000 0.027202
#
#
# Mechanical properties :
#
#
# Convention : Reuss Voigt Hill
#
# Bulk Modulus (GPa) = 23.87447 26.06810 24.97128
# Shear Modulus (GPa) = 30.43476 32.33970 31.38723
#
# Velocity S-wave (km/s) = 3.67631 3.78961 3.73339
# Velocity P-wave (km/s) = 5.34998 5.54296 5.44732
#
# Compressibility (1/GPa) = 0.04188574
#
# Stress axis : x y z
#
# Youngs Moduli (GPa) = 71.51000 51.92821 55.10240
#
# Poissons Ratio (x) = 0.13215 -0.03876
# Poissons Ratio (y) = 0.18199 0.16037
# Poissons Ratio (z) = -0.05031 0.15113
#
# Static dielectric constant tensor:
#      x y z
#    x 1.799160 0.000000 0.022200 
#    y 0.000000 1.886790 0.000000 
#    z 0.022200 0.000000 1.894430 
# 
# From -- ./inp_files/258233.got.cif
#   From: 2010.05.17/outbox.cif.g08.bks.cpg/sg12_130_cif.got.tgz:258233.got - 2010.06.03 13:09:07.
