data_PCOD9210534
_publ_section_title
;
Structure prediction by ZEFSAII (Michael W. Deem and Ramdas Pophale) SiO2 
 PCOD9210534
Probable space group: C 2/M
;
_chemical_formula_sum "Si O2"
_cell_formula_units_Z 64
_cell_length_a 23.595044
_cell_length_b 17.760912
_cell_length_c 15.429645
_cell_angle_alpha 90.000000
_cell_angle_beta 150.645917
_cell_angle_gamma 90.000000
_cell_volume 3169.714026
_symmetry_space_group_name_H-M "C 2/M"
_symmetry_group_IT_number 12
_symmetry_cell_setting 'monoclinic'
loop_
_space_group_symop_operation_xyz
x,y,z
-x,y,-z
-x,-y,-z
x,-y,z
1/2+x,1/2+y,z
1/2-x,1/2+y,-z
1/2-x,1/2-y,-z
1/2+x,1/2-y,z
loop_
_atom_site_type_symbol
_atom_site_label
_atom_site_fract_x
_atom_site_fract_y
_atom_site_fract_z
Si Si1 0.256178 0.589808 0.828931
Si Si2 0.387824 0.589353 0.169828
Si Si3 0.351854 0.590495 0.444915
Si Si4 0.735997 0.152805 0.117436
Si Si5 0.103305 0.710506 0.696680
Si Si6 0.264399 0.090744 0.397967
Si Si7 0.996135 0.688487 0.742716
Si Si8 0.161110 0.183959 0.404687
O O1 0.244744 0.500000 0.817264
O O2 0.141738 0.629387 0.713090
O O3 0.269726 0.610125 0.746438
O O4 0.357128 0.612177 0.030848
O O5 0.392071 0.500000 0.174480
O O6 0.511888 0.612200 0.372911
O O7 0.286192 0.613128 0.098603
O O8 0.341829 0.500000 0.442828
O O9 0.291457 0.615571 0.276090
O O10 0.304382 0.637040 0.463632
O O11 0.786507 0.236696 0.172686
O O12 0.598025 0.152373 0.935234
O O13 0.057923 0.706548 0.733553
O O14 0.000000 0.740536 0.500000
O O15 0.386949 0.132695 0.581422
O O16 0.169600 0.124970 0.337392
O O17 0.274117 0.000000 0.419526
O O18 0.951317 0.766297 0.724272
O O19 0.250000 0.250000 0.500000
#
# Coordination Sequence:
#
# PCOD9210534 Si02
#       8
#     8   8   8   8   8   8   8   8
#     4  10  22  38  61  94 129 163 210 265 329 392
#     4  10  21  39  62  94 133 170 210 261 319 392
#     4  11  24  43  66  91 128 178 226 270 317 380
#     4  12  24  37  62  94 136 174 214 259 322 393
#     4  12  22  37  62  94 135 172 208 261 331 396
#     4  10  22  43  68  93 124 167 217 272 327 384
#     4  11  23  39  62  98 132 171 213 265 330 391
#     4  10  23  44  66  90 124 166 222 273 324 381
#
# _framework density 20.191095000000001
#
# number of rings (size 3 to 8) (size 9 to 14) (size 15 to 20)
#    0.000    1.250    2.500    3.750    3.500    2.750 
#    0.000    4.375    0.000    6.750    0.000    0.000 
#    0.000    0.000    0.000    0.000    0.000    0.000 
#
# Total GULP energy -178672.987869 kJ/mol
# GULP energy per Si atom -5583.530871 kJ/mol
# Density = 2.014514 g / cm^3
# Si number density = 20.191095 Si / 1000 Ang^3
#
#
#
# Elastic Constant Matrix: (Units=GPa)
#
#
# Indices 1 2 3 4 5 6 
#
# 1 122.4348 59.6677 52.9201 0.0000 -20.5946 0.0000
# 2 59.6677 85.5295 51.1600 0.0000 -5.8611 0.0000
# 3 52.9201 51.1600 118.9689 0.0000 -30.5165 0.0000
# 4 0.0000 0.0000 0.0000 18.2329 0.0000 2.1764
# 5 -20.5946 -5.8611 -30.5165 0.0000 14.3948 0.0000
# 6 0.0000 0.0000 0.0000 2.1764 0.0000 40.9439
#
#
#
# Elastic Compliance Matrix: (Units=1/GPa)
#
#
# Indices 1 2 3 4 5 6 
#
# 1 0.018040 -0.014521 0.007286 0.000000 0.035343 0.000000
# 2 -0.014521 0.029707 -0.018723 0.000000 -0.048373 0.000000
# 3 0.007286 -0.018723 0.030544 0.000000 0.067552 0.000000
# 4 0.000000 0.000000 0.000000 0.055196 0.000000 -0.002934
# 5 0.035343 -0.048373 0.067552 0.000000 0.243546 0.000000
# 6 0.000000 0.000000 0.000000 -0.002934 0.000000 0.024580
#
#
# Mechanical properties :
#
#
# Convention : Reuss Voigt Hill
#
# Bulk Modulus (GPa) = 37.91794 72.71432 55.31613
# Shear Modulus (GPa) = 10.81495 25.59335 18.20415
#
# Velocity S-wave (km/s) = 2.31688 3.56414 3.00591
# Velocity P-wave (km/s) = 5.09682 7.28208 6.28515
#
# Compressibility (1/GPa) = 0.02637274
#
# Stress axis : x y z
#
# Youngs Moduli (GPa) = 55.43093 33.66198 32.73963
#
# Poissons Ratio (x) = 0.48882 -0.23852
# Poissons Ratio (y) = 0.80494 0.61300
# Poissons Ratio (z) = -0.40384 0.63027
#
# Static dielectric constant tensor:
#      x y z
#    x 1.709620 0.000000 0.005030 
#    y 0.000000 1.737160 0.000000 
#    z 0.005030 0.000000 1.744720 
# 
# From -- ./inp_files/241495.got.cif
#   From: 2010.05.17/outbox.cif.g08.bks.cpg/sg12_121_cif.got.tgz:241495.got - 2010.06.03 13:09:07.
