data_PCOD9210557
_publ_section_title
;
Structure prediction by ZEFSAII (Michael W. Deem and Ramdas Pophale) SiO2 
 PCOD9210557
Probable space group: C 2/M
;
_chemical_formula_sum "Si O2"
_cell_formula_units_Z 58
_cell_length_a 30.525903
_cell_length_b 15.179772
_cell_length_c 13.564650
_cell_angle_alpha 90.000000
_cell_angle_beta 154.922511
_cell_angle_gamma 90.000000
_cell_volume 2664.084469
_symmetry_space_group_name_H-M "C 2/M"
_symmetry_group_IT_number 12
_symmetry_cell_setting 'monoclinic'
loop_
_space_group_symop_operation_xyz
x,y,z
-x,y,-z
-x,-y,-z
x,-y,z
1/2+x,1/2+y,z
1/2-x,1/2+y,-z
1/2-x,1/2-y,-z
1/2+x,1/2-y,z
loop_
_atom_site_type_symbol
_atom_site_label
_atom_site_fract_x
_atom_site_fract_y
_atom_site_fract_z
Si Si1 0.000000 0.500000 0.500000
Si Si2 0.396896 0.667061 0.036464
Si Si3 0.097239 0.897092 0.370104
Si Si4 0.103089 0.399347 0.171754
Si Si5 0.325656 0.394480 0.678960
Si Si6 0.660077 0.865466 0.856355
Si Si7 0.117688 0.155331 0.772563
Si Si8 0.667374 0.131513 0.091303
O O1 0.083394 0.422868 0.635629
O O2 0.520809 0.662441 0.277819
O O3 0.370034 0.627363 0.087955
O O4 0.359986 0.623961 0.859324
O O5 0.350074 0.764142 0.942193
O O6 0.103513 0.866457 0.268882
O O7 0.213669 0.891810 0.646598
O O8 0.063214 0.000000 0.305221
O O9 0.103713 0.500000 0.211872
O O10 0.210517 0.357631 0.425229
O O11 0.104740 0.402955 0.057168
O O12 0.000000 0.354286 0.000000
O O13 0.320852 0.500000 0.655325
O O14 0.631593 0.762010 0.793471
O O15 0.781839 0.878715 0.081740
O O16 0.637979 0.898794 0.922735
O O17 0.000000 0.132885 0.500000
#
# Coordination Sequence:
#
# PCOD9210557 Si02
#       8
#     2   8   8   8   8   8   8   8
#     4  12  24  44  66 100 118 162 216 274 296 380
#     4  11  22  35  61  94 114 156 207 251 308 348
#     4  10  21  39  63  86 124 167 201 240 303 372
#     4   9  19  36  54  82 118 161 195 242 307 358
#     4   9  19  37  57  83 123 161 200 245 301 367
#     4  10  23  42  66  93 127 162 213 253 319 374
#     4  10  21  45  65  88 130 171 199 259 323 380
#     4  10  22  38  60  88 116 159 207 249 294 370
#
# _framework density 21.771082
#
# number of rings (size 3 to 8) (size 9 to 14) (size 15 to 20)
#    0.000    2.069    0.690    2.897    1.931    5.517 
#    4.966    0.345    0.000    0.000    0.000    0.000 
#    0.000    0.000    0.000    0.000    0.000    0.000 
#
# Total GULP energy -161559.450759 kJ/mol
# GULP energy per Si atom -5571.015543 kJ/mol
# Density = 2.172153 g / cm^3
# Si number density = 21.771082 Si / 1000 Ang^3
#
#
#
# Elastic Constant Matrix: (Units=GPa)
#
#
# Indices 1 2 3 4 5 6 
#
# 1 106.2110 2.6445 32.2085 0.0000 8.1817 0.0000
# 2 2.6445 42.5290 8.7082 0.0000 5.5412 0.0000
# 3 32.2085 8.7082 62.5401 0.0000 12.7515 0.0000
# 4 0.0000 0.0000 0.0000 32.4494 0.0000 0.5972
# 5 8.1817 5.5412 12.7515 0.0000 37.6394 0.0000
# 6 0.0000 0.0000 0.0000 0.5972 0.0000 20.0157
#
#
#
# Elastic Compliance Matrix: (Units=1/GPa)
#
#
# Indices 1 2 3 4 5 6 
#
# 1 0.011179 0.000550 -0.005717 0.000000 -0.000574 0.000000
# 2 0.000550 0.024470 -0.003149 0.000000 -0.002655 0.000000
# 3 -0.005717 -0.003149 0.020436 0.000000 -0.005217 0.000000
# 4 0.000000 0.000000 0.000000 0.030834 0.000000 -0.000920
# 5 -0.000574 -0.002655 -0.005217 0.000000 0.028851 0.000000
# 6 0.000000 0.000000 0.000000 -0.000920 0.000000 0.049988
#
#
# Mechanical properties :
#
#
# Convention : Reuss Voigt Hill
#
# Bulk Modulus (GPa) = 25.34621 33.15584 29.25102
# Shear Modulus (GPa) = 25.56991 29.20214 27.38602
#
# Velocity S-wave (km/s) = 3.43080 3.66639 3.55055
# Velocity P-wave (km/s) = 5.23080 5.76069 5.50213
#
# Compressibility (1/GPa) = 0.03945364
#
# Stress axis : x y z
#
# Youngs Moduli (GPa) = 89.44987 40.86650 48.93262
#
# Poissons Ratio (x) = -0.02249 0.27975
# Poissons Ratio (y) = -0.04922 0.15410
# Poissons Ratio (z) = 0.51139 0.12870
#
# Static dielectric constant tensor:
#      x y z
#    x 1.801550 0.000000 -0.006020 
#    y 0.000000 1.824570 0.000000 
#    z -0.006020 0.000000 1.873290 
# 
# From -- ./inp_files/184463.got.cif
#   From: 2010.05.17/outbox.cif.g08.bks.cpg/sg12_93_cif.got.tgz:184463.got - 2010.06.03 13:09:07.
