data_PCOD9210608
_publ_section_title
;
Structure prediction by ZEFSAII (Michael W. Deem and Ramdas Pophale) SiO2 
 PCOD9210608
Probable space group: C 2/M
;
_chemical_formula_sum "Si O2"
_cell_formula_units_Z 40
_cell_length_a 18.314031
_cell_length_b 8.583275
_cell_length_c 26.445729
_cell_angle_alpha 90.000000
_cell_angle_beta 150.022365
_cell_angle_gamma 90.000000
_cell_volume 2077.154322
_symmetry_space_group_name_H-M "C 2/M"
_symmetry_group_IT_number 12
_symmetry_cell_setting 'monoclinic'
loop_
_space_group_symop_operation_xyz
x,y,z
-x,y,-z
-x,-y,-z
x,-y,z
1/2+x,1/2+y,z
1/2-x,1/2+y,-z
1/2-x,1/2-y,-z
1/2+x,1/2-y,z
loop_
_atom_site_type_symbol
_atom_site_label
_atom_site_fract_x
_atom_site_fract_y
_atom_site_fract_z
Si Si1 0.664053 0.312728 0.899936
Si Si2 0.328198 0.814318 0.496857
Si Si3 0.656703 0.311386 0.693494
Si Si4 0.168129 0.310134 0.101144
Si Si5 0.664604 0.187060 0.300007
O O1 0.663925 0.500000 0.900954
O O2 0.746675 0.261775 0.898224
O O3 0.498894 0.252165 0.800650
O O4 0.750000 0.250000 0.000000
O O5 0.250000 0.750000 0.500000
O O6 0.495838 0.759601 0.596759
O O7 0.246292 0.749535 0.398416
O O8 0.320161 0.000000 0.492054
O O9 0.643544 0.500000 0.686560
O O10 0.746245 0.262173 0.797024
O O11 0.745452 0.268359 0.696313
O O12 0.165707 0.500000 0.099913
O O13 0.000000 0.257302 0.000000
O O14 0.658916 0.000000 0.298590
#
# Coordination Sequence:
#
# PCOD9210608 Si02
#       5
#     8   8   8   8   8
#     4  11  22  37  60  88 120 159 203 252 306 362
#     4  12  25  41  62  88 121 159 201 249 301 359
#     4  10  21  39  63  89 119 157 201 249 304 364
#     4   9  18  35  59  85 113 151 198 244 294 353
#     4  11  23  40  63  90 121 157 199 249 306 366
#
# _framework density 19.257114999999999
#
# number of rings (size 3 to 8) (size 9 to 14) (size 15 to 20)
#    0.000    1.400    0.000    6.000    0.000    8.800 
#    0.000    1.000    0.000    4.200    0.000    0.000 
#    0.000    0.000    0.000    0.000    0.000    0.000 
#
# Total GULP energy -111876.912799 kJ/mol
# GULP energy per Si atom -5593.845640 kJ/mol
# Density = 1.921328 g / cm^3
# Si number density = 19.257115 Si / 1000 Ang^3
#
#
#
# Elastic Constant Matrix: (Units=GPa)
#
#
# Indices 1 2 3 4 5 6 
#
# 1 240.5536 67.3306 147.7490 0.0000 -1.8124 -0.0001
# 2 67.3306 58.7128 55.9627 0.0000 0.9648 -0.0002
# 3 147.7490 55.9627 239.5604 -0.0002 -1.7095 0.0000
# 4 0.0000 0.0000 -0.0002 35.1468 0.0000 3.9730
# 5 -1.8124 0.9648 -1.7095 0.0000 46.8186 0.0000
# 6 -0.0001 -0.0002 0.0000 3.9730 0.0000 30.7617
#
#
#
# Elastic Compliance Matrix: (Units=1/GPa)
#
#
# Indices 1 2 3 4 5 6 
#
# 1 0.007951 -0.005726 -0.003564 0.000000 0.000296 0.000000
# 2 -0.005726 0.026053 -0.002561 0.000000 -0.000852 0.000000
# 3 -0.003564 -0.002561 0.006972 0.000000 0.000169 0.000000
# 4 0.000000 0.000000 0.000000 0.028874 0.000000 -0.003729
# 5 0.000296 -0.000852 0.000169 0.000000 0.021394 0.000000
# 6 0.000000 0.000000 0.000000 -0.003729 0.000000 0.032990
#
#
# Mechanical properties :
#
#
# Convention : Reuss Voigt Hill
#
# Bulk Modulus (GPa) = 57.88842 120.10126 88.99484
# Shear Modulus (GPa) = 32.53232 40.39773 36.46503
#
# Velocity S-wave (km/s) = 4.11465 4.58515 4.35626
# Velocity P-wave (km/s) = 7.25947 9.51494 8.46268
#
# Compressibility (1/GPa) = 0.01727461
#
# Stress axis : x y z
#
# Youngs Moduli (GPa) = 125.76978 38.38301 143.43210
#
# Poissons Ratio (x) = 0.21977 0.51121
# Poissons Ratio (y) = 0.72013 0.36731
# Poissons Ratio (z) = 0.44826 0.09829
#
# Static dielectric constant tensor:
#      x y z
#    x 1.643990 0.000000 -0.005580 
#    y 0.000000 1.659870 0.000000 
#    z -0.005580 0.000000 1.623980 
# 
# From -- ./inp_files/151744.got.cif
#   From: 2010.05.17/outbox.cif.g08.bks.cpg/sg12_76_cif.got.tgz:151744.got - 2010.06.03 13:09:07.
