data_PCOD9210758
_publ_section_title
;
Structure prediction by ZEFSAII (Michael W. Deem and Ramdas Pophale) SiO2 
 PCOD9210758
Probable space group: C 2/M
;
_chemical_formula_sum "Si O2"
_cell_formula_units_Z 52
_cell_length_a 11.914815
_cell_length_b 19.670422
_cell_length_c 11.551572
_cell_angle_alpha 90.000000
_cell_angle_beta 60.796986
_cell_angle_gamma 90.000000
_cell_volume 2363.223402
_symmetry_space_group_name_H-M "C 2/M"
_symmetry_group_IT_number 12
_symmetry_cell_setting 'monoclinic'
loop_
_space_group_symop_operation_xyz
x,y,z
-x,y,-z
-x,-y,-z
x,-y,z
1/2+x,1/2+y,z
1/2-x,1/2+y,-z
1/2-x,1/2-y,-z
1/2+x,1/2-y,z
loop_
_atom_site_type_symbol
_atom_site_label
_atom_site_fract_x
_atom_site_fract_y
_atom_site_fract_z
Si Si1 0.143761 0.308244 0.205814
Si Si2 0.333763 0.926300 0.444274
Si Si3 0.033104 0.074940 0.617565
Si Si4 0.563882 0.113276 0.848043
Si Si5 0.845168 0.919426 0.062538
Si Si6 0.000000 0.679854 0.500000
Si Si7 0.815714 0.158207 0.842732
O O1 0.257394 0.363647 0.174741
O O2 0.085873 0.285081 0.359367
O O3 0.171528 0.236571 0.132097
O O4 0.044152 0.345279 0.168709
O O5 0.184527 0.913470 0.543738
O O6 0.370616 0.928673 0.289675
O O7 0.411388 0.868011 0.466881
O O8 0.366518 0.000000 0.477939
O O9 0.000000 0.070559 0.500000
O O10 0.943803 0.132001 0.715443
O O11 0.006323 0.000000 0.685154
O O12 0.686205 0.154532 0.833317
O O13 0.500000 0.084542 0.000000
O O14 0.815712 0.000000 0.098180
O O15 0.808190 0.895096 0.952196
O O16 0.000000 0.910668 0.000000
#
# Coordination Sequence:
#
# PCOD9210758 Si02
#       7
#     8   8   8   8   8   4   8
#     4  11  27  45  71 101 141 185 236 284 348 416
#     4  10  22  41  66  94 134 184 229 283 345 412
#     4  10  21  39  63  95 130 169 221 279 341 402
#     4  11  24  43  63 101 132 175 233 286 356 401
#     4  11  27  48  71 103 140 186 237 286 346 415
#     4  10  25  44  60 100 137 184 232 278 344 416
#     4  12  25  43  73  99 138 182 229 293 347 412
#
# _framework density 22.003844000000001
#
# number of rings (size 3 to 8) (size 9 to 14) (size 15 to 20)
#    0.000    1.231    3.077    1.154    5.385    4.000 
#    0.000    3.077    0.000    0.000    0.000    0.000 
#    0.000    0.000    0.000    0.000    0.000    0.000 
#
# Total GULP energy -144905.048666 kJ/mol
# GULP energy per Si atom -5573.271103 kJ/mol
# Density = 2.195376 g / cm^3
# Si number density = 22.003844 Si / 1000 Ang^3
#
#
#
# Elastic Constant Matrix: (Units=GPa)
#
#
# Indices 1 2 3 4 5 6 
#
# 1 90.7068 34.6311 14.7962 0.0000 -17.6226 0.0000
# 2 34.6311 111.7245 39.1766 0.0000 -34.8717 0.0000
# 3 14.7962 39.1766 130.4157 0.0000 -13.7219 0.0000
# 4 0.0000 0.0000 0.0000 35.7969 0.0000 8.5255
# 5 -17.6226 -34.8717 -13.7219 0.0000 32.5607 0.0000
# 6 0.0000 0.0000 0.0000 8.5255 0.0000 -12.2032
#
#
#
# Elastic Compliance Matrix: (Units=1/GPa)
#
#
# Indices 1 2 3 4 5 6 
#
# 1 0.012855 -0.002644 -0.000241 0.000000 0.004024 0.000000
# 2 -0.002644 0.014918 -0.002774 0.000000 0.013377 0.000000
# 3 -0.000241 -0.002774 0.008583 0.000000 0.000516 0.000000
# 4 0.000000 0.000000 0.000000 0.023950 0.000000 0.016732
# 5 0.004024 0.013377 0.000516 0.000000 0.047433 0.000000
# 6 0.000000 0.000000 0.000000 0.016732 0.000000 -0.070256
#
#
# Mechanical properties :
#
#
# Convention : Reuss Voigt Hill
#
# Bulk Modulus (GPa) = 39.93911 56.67274 48.30593
# Shear Modulus (GPa) = 87.49321 27.51377 57.50349
#
# Velocity S-wave (km/s) = 6.31261 3.53995 5.11763
# Velocity P-wave (km/s) = 8.44526 6.52074 7.54462
#
# Compressibility (1/GPa) = 0.02503812
#
# Stress axis : x y z
#
# Youngs Moduli (GPa) = 77.78968 67.03273 116.51406
#
# Poissons Ratio (x) = 0.17725 0.02805
# Poissons Ratio (y) = 0.20570 0.32320
# Poissons Ratio (z) = 0.01873 0.18594
#
# Static dielectric constant tensor:
#      x y z
#    x 1.738550 0.000000 -0.019370 
#    y 0.000000 1.815120 0.000000 
#    z -0.019370 0.000000 1.920290 
# 
# From -- ./inp_files/133061.got.cif
#   From: 2010.05.17/outbox.cif.g08.bks.cpg/sg12_67_cif.got.tgz:133061.got - 2010.06.03 13:09:07.
