data_PCOD9210191
_publ_section_title
;
Structure prediction by ZEFSAII (Michael W. Deem and Ramdas Pophale) SiO2 
 PCOD9210191
Probable space group: C 2/M
;
_chemical_formula_sum "Si O2"
_cell_formula_units_Z 64
_cell_length_a 30.626477
_cell_length_b 8.963046
_cell_length_c 15.260873
_cell_angle_alpha 90.000000
_cell_angle_beta 132.449266
_cell_angle_gamma 90.000000
_cell_volume 3091.113833
_symmetry_space_group_name_H-M "C 2/M"
_symmetry_group_IT_number 12
_symmetry_cell_setting 'monoclinic'
loop_
_space_group_symop_operation_xyz
x,y,z
-x,y,-z
-x,-y,-z
x,-y,z
1/2+x,1/2+y,z
1/2-x,1/2+y,-z
1/2-x,1/2-y,-z
1/2+x,1/2-y,z
loop_
_atom_site_type_symbol
_atom_site_label
_atom_site_fract_x
_atom_site_fract_y
_atom_site_fract_z
Si Si1 0.228679 0.678288 0.198923
Si Si2 0.919192 0.832398 0.829105
Si Si3 0.455200 0.325237 0.567401
Si Si4 0.089436 0.824709 0.680503
Si Si5 0.205976 0.677130 0.870464
Si Si6 0.103650 0.173768 0.996943
Si Si7 0.490017 0.826318 0.781847
Si Si8 0.721029 0.325770 0.376777
O O1 0.232976 0.500000 0.202255
O O2 0.275289 0.754352 0.197505
O O3 0.163884 0.732193 0.077836
O O4 0.235918 0.739525 0.307247
O O5 0.920338 0.816941 0.935394
O O6 0.850183 0.821207 0.711081
O O7 0.956265 0.713803 0.825615
O O8 0.940702 0.000000 0.835394
O O9 0.444806 0.500000 0.572580
O O10 0.523495 0.309410 0.629115
O O11 0.416187 0.284114 0.430232
O O12 0.449615 0.229294 0.646872
O O13 0.138578 0.727338 0.794461
O O14 0.105441 0.000000 0.708135
O O15 0.211934 0.500000 0.879647
O O16 0.250000 0.750000 0.000000
O O17 0.116667 0.000000 0.995847
O O18 0.051535 0.235732 0.866295
O O19 0.502292 0.000000 0.791801
O O20 0.737920 0.500000 0.392031
O O21 0.750000 0.250000 0.500000
#
# Coordination Sequence:
#
# PCOD9210191 Si02
#       8
#     8   8   8   8   8   8   8   8
#     4  11  23  41  63  90 122 158 204 255 308 370
#     4   9  20  38  57  80 113 154 198 241 294 353
#     4   9  20  40  65  88 117 158 200 246 306 367
#     4   9  20  42  67  90 117 154 201 253 307 365
#     4  12  26  43  65  93 127 166 207 259 314 371
#     4  10  21  39  61  83 116 158 197 244 301 361
#     4  12  24  34  54  88 121 154 198 245 293 352
#     4  10  21  39  63  90 121 161 204 249 304 366
#
# _framework density 20.704511
#
# number of rings (size 3 to 8) (size 9 to 14) (size 15 to 20)
#    0.000    1.750    0.000    6.000    1.750    6.500 
#    0.000    2.500    0.000    0.000    0.000    0.000 
#    0.000    0.000    0.000    0.000    0.000    0.000 
#
# Total GULP energy -178974.579998 kJ/mol
# GULP energy per Si atom -5592.955625 kJ/mol
# Density = 2.065739 g / cm^3
# Si number density = 20.704511 Si / 1000 Ang^3
#
#
#
# Elastic Constant Matrix: (Units=GPa)
#
#
# Indices 1 2 3 4 5 6 
#
# 1 34.8430 21.6409 6.6588 0.0000 1.3890 0.0000
# 2 21.6409 133.5013 47.4951 0.0000 6.9716 0.0000
# 3 6.6588 47.4951 102.7742 0.0000 4.8434 0.0000
# 4 0.0000 0.0000 0.0000 25.3892 0.0000 2.7773
# 5 1.3890 6.9716 4.8434 0.0000 8.4741 0.0000
# 6 0.0000 0.0000 0.0000 2.7773 0.0000 29.5764
#
#
#
# Elastic Compliance Matrix: (Units=1/GPa)
#
#
# Indices 1 2 3 4 5 6 
#
# 1 0.031937 -0.005266 0.000418 0.000000 -0.001141 0.000000
# 2 -0.005266 0.010057 -0.004067 0.000000 -0.005086 0.000000
# 3 0.000418 -0.004067 0.011744 0.000000 -0.003435 0.000000
# 4 0.000000 0.000000 0.000000 0.039796 0.000000 -0.003737
# 5 -0.001141 -0.005086 -0.003435 0.000000 0.124341 0.000000
# 6 0.000000 0.000000 0.000000 -0.003737 0.000000 0.034162
#
#
# Mechanical properties :
#
#
# Convention : Reuss Voigt Hill
#
# Bulk Modulus (GPa) = 27.84872 46.96758 37.40815
# Shear Modulus (GPa) = 17.74092 25.70951 21.72522
#
# Velocity S-wave (km/s) = 2.93040 3.52765 3.24280
# Velocity P-wave (km/s) = 4.99293 6.27107 5.66815
#
# Compressibility (1/GPa) = 0.03590829
#
# Stress axis : x y z
#
# Youngs Moduli (GPa) = 31.31204 99.43749 85.14884
#
# Poissons Ratio (x) = 0.52366 -0.03561
# Poissons Ratio (y) = 0.16490 0.34626
# Poissons Ratio (z) = -0.01310 0.40437
#
# Static dielectric constant tensor:
#      x y z
#    x 1.771210 0.000000 -0.003960 
#    y 0.000000 1.691960 0.000000 
#    z -0.003960 0.000000 1.747170 
# 
# From -- ./inp_files/250099.got.cif
#   From: 2010.05.17/outbox.cif.g08.bks.cpg/sg12_126_cif.got.tgz:250099.got - 2010.06.03 13:09:07.
