data_PCOD9210338
_publ_section_title
;
Structure prediction by ZEFSAII (Michael W. Deem and Ramdas Pophale) SiO2 
 PCOD9210338
Probable space group: C 2/M
;
_chemical_formula_sum "Si O2"
_cell_formula_units_Z 48
_cell_length_a 17.680083
_cell_length_b 12.571314
_cell_length_c 28.519165
_cell_angle_alpha 90.000000
_cell_angle_beta 162.064245
_cell_angle_gamma 90.000000
_cell_volume 1952.012267
_symmetry_space_group_name_H-M "C 2/M"
_symmetry_group_IT_number 12
_symmetry_cell_setting 'monoclinic'
loop_
_space_group_symop_operation_xyz
x,y,z
-x,y,-z
-x,-y,-z
x,-y,z
1/2+x,1/2+y,z
1/2-x,1/2+y,-z
1/2-x,1/2-y,-z
1/2+x,1/2-y,z
loop_
_atom_site_type_symbol
_atom_site_label
_atom_site_fract_x
_atom_site_fract_y
_atom_site_fract_z
Si Si1 0.295209 0.615101 0.469955
Si Si2 0.189826 0.213137 0.341956
Si Si3 0.876959 0.825227 0.796156
Si Si4 0.095870 0.116987 0.743094
Si Si5 0.262829 0.653299 0.832067
Si Si6 0.058155 0.377782 0.869932
O O1 0.365146 0.500000 0.491239
O O2 0.363988 0.712082 0.476440
O O3 0.416195 0.626013 0.592209
O O4 0.002151 0.618274 0.305507
O O5 0.059397 0.134294 0.300874
O O6 0.258084 0.157477 0.333161
O O7 0.004012 0.305755 0.212263
O O8 0.922245 0.696724 0.827865
O O9 0.773320 0.870160 0.782913
O O10 0.151157 0.871813 0.951105
O O11 0.263917 0.219396 0.838568
O O12 0.208826 0.000000 0.808809
O O13 0.500000 0.612896 0.000000
O O14 0.979431 0.500000 0.820990
#
# Coordination Sequence:
#
# PCOD9210338 Si02
#       6
#     8   8   8   8   8   8
#     4  10  21  39  62  82 112 160 198 231 283 346
#     4   9  17  34  56  81 106 146 194 236 275 332
#     4   9  20  33  51  87 114 146 189 235 291 335
#     4  10  22  40  59  82 116 160 197 228 284 352
#     4  11  22  37  58  88 123 144 188 243 295 336
#     4   9  18  33  53  78 115 152 186 226 284 348
#
# _framework density 24.590008000000001
#
# number of rings (size 3 to 8) (size 9 to 14) (size 15 to 20)
#    1.000    1.333    0.000    4.500    0.000    2.667 
#    0.000    3.333    0.000    4.000    0.000    0.000 
#    0.000    0.000    0.000    0.000    0.000    0.000 
#
# Total GULP energy -133984.580170 kJ/mol
# GULP energy per Si atom -5582.690840 kJ/mol
# Density = 2.453404 g / cm^3
# Si number density = 24.590008 Si / 1000 Ang^3
#
#
#
# Elastic Constant Matrix: (Units=GPa)
#
#
# Indices 1 2 3 4 5 6 
#
# 1 132.5027 -4.0837 30.7021 -0.0025 -31.3310 0.0044
# 2 -4.0837 126.9523 23.2646 0.0593 -18.2198 -0.0019
# 3 30.7021 23.2646 103.1749 0.0875 -3.3361 0.0200
# 4 -0.0025 0.0593 0.0875 -11.3502 0.0042 -1.8514
# 5 -31.3310 -18.2198 -3.3361 0.0042 30.2937 -0.0022
# 6 0.0044 -0.0019 0.0200 -1.8514 -0.0022 -17.4204
#
#
#
# Elastic Compliance Matrix: (Units=1/GPa)
#
#
# Indices 1 2 3 4 5 6 
#
# 1 0.011687 0.002991 -0.003716 -0.000010 0.013477 -0.000002
# 2 0.002991 0.009726 -0.002804 0.000033 0.008635 -0.000008
# 3 -0.003716 -0.002804 0.011292 0.000071 -0.004287 0.000005
# 4 -0.000010 0.000033 0.000071 -0.089658 0.000030 0.009529
# 5 0.013477 0.008635 -0.004287 0.000030 0.051670 -0.000012
# 6 -0.000002 -0.000008 0.000005 0.009529 -0.000012 -0.058417
#
#
# Mechanical properties :
#
#
# Convention : Reuss Voigt Hill
#
# Bulk Modulus (GPa) = 38.99184 51.37731 45.18458
# Shear Modulus (GPa) = -103.96715 21.15441 -41.40637
#
# Velocity S-wave (km/s) = -6.50938 2.93624 -4.10795
# Velocity P-wave (km/s) = 6.37219 5.69511 2.02120
#
# Compressibility (1/GPa) = 0.02564639
#
# Stress axis : x y z
#
# Youngs Moduli (GPa) = 85.56502 102.81472 88.55980
#
# Poissons Ratio (x) = -0.30754 0.32913
# Poissons Ratio (y) = -0.25594 0.24833
# Poissons Ratio (z) = 0.31800 0.28830
#
# Static dielectric constant tensor:
#      x y z
#    x 1.977090 -0.000020 -0.027280 
#    y -0.000020 1.997430 -0.000040 
#    z -0.027280 -0.000040 1.964810 
# 
# From -- ./inp_files/340216.got.cif
#   From: 2010.05.17/outbox.cif.g08.bks.cpg/sg12_171_cif.got.tgz:340216.got - 2010.06.03 13:09:07.
