data_PCOD9210500
_publ_section_title
;
Structure prediction by ZEFSAII (Michael W. Deem and Ramdas Pophale) SiO2 
 PCOD9210500
Probable space group: C 2/M
;
_chemical_formula_sum "Si O2"
_cell_formula_units_Z 30
_cell_length_a 30.786585
_cell_length_b 7.931456
_cell_length_c 4.952658
_cell_angle_alpha 90.000000
_cell_angle_beta 98.618144
_cell_angle_gamma 90.000000
_cell_volume 1195.697314
_symmetry_space_group_name_H-M "C 2/M"
_symmetry_group_IT_number 12
_symmetry_cell_setting 'monoclinic'
loop_
_space_group_symop_operation_xyz
x,y,z
-x,y,-z
-x,-y,-z
x,-y,z
1/2+x,1/2+y,z
1/2-x,1/2+y,-z
1/2-x,1/2-y,-z
1/2+x,1/2-y,z
loop_
_atom_site_type_symbol
_atom_site_label
_atom_site_fract_x
_atom_site_fract_y
_atom_site_fract_z
Si Si1 0.967436 0.000000 0.718309
Si Si2 0.203052 0.798374 0.339827
Si Si3 0.500000 0.000000 0.000000
Si Si4 0.068872 0.310565 0.055994
Si Si5 0.849138 0.204556 0.211029
O O1 0.935647 0.838869 0.736327
O O2 0.000000 0.000000 0.500000
O O3 0.000000 0.000000 0.000000
O O4 0.250000 0.750000 0.500000
O O5 0.191577 0.748978 0.025264
O O6 0.200873 0.000000 0.346808
O O7 0.164701 0.735717 0.505816
O O8 0.475334 0.153476 0.153745
O O9 0.065253 0.500000 0.187150
O O10 0.109031 0.282894 0.895928
O O11 0.854440 0.000000 0.215115
#
# Coordination Sequence:
#
# PCOD9210500 Si02
#       5
#     4   8   2   8   8
#     4  12  24  42  66  90 125 170 208 262 326 376
#     4  10  22  39  62  91 127 165 212 260 322 394
#     4   8  20  42  66  96 130 168 226 274 314 400
#     4  10  21  42  66  96 130 169 223 268 329 386
#     4  10  21  39  62  91 125 169 213 264 319 390
#
# _framework density 25.089960999999999
#
# number of rings (size 3 to 8) (size 9 to 14) (size 15 to 20)
#    0.800    1.067    2.667    0.800    0.000    4.800 
#    0.000    2.667    0.000    0.000    0.000    0.000 
#    0.000    0.000    0.000    0.000    0.000    0.000 
#
# Total GULP energy -83515.673650 kJ/mol
# GULP energy per Si atom -5567.711577 kJ/mol
# Density = 2.503285 g / cm^3
# Si number density = 25.089961 Si / 1000 Ang^3
#
#
#
# Elastic Constant Matrix: (Units=GPa)
#
#
# Indices 1 2 3 4 5 6 
#
# 1 74.1686 0.7194 10.0382 0.0000 -18.5683 0.0000
# 2 0.7194 113.1080 24.7310 0.0000 -13.8221 0.0000
# 3 10.0382 24.7310 107.1161 0.0000 -14.6561 0.0000
# 4 0.0000 0.0000 0.0000 10.0141 0.0000 -10.2387
# 5 -18.5683 -13.8221 -14.6561 0.0000 38.9324 0.0000
# 6 0.0000 0.0000 0.0000 -10.2387 0.0000 45.5808
#
#
#
# Elastic Compliance Matrix: (Units=1/GPa)
#
#
# Indices 1 2 3 4 5 6 
#
# 1 0.015427 0.000954 -0.000646 0.000000 0.007453 0.000000
# 2 0.000954 0.009633 -0.001880 0.000000 0.003167 0.000000
# 3 -0.000646 -0.001880 0.010223 0.000000 0.002873 0.000000
# 4 0.000000 0.000000 0.000000 0.129630 0.000000 0.029119
# 5 0.007453 0.003167 0.002873 0.000000 0.031446 0.000000
# 6 0.000000 0.000000 0.000000 0.029119 0.000000 0.028480
#
#
# Mechanical properties :
#
#
# Convention : Reuss Voigt Hill
#
# Bulk Modulus (GPa) = 31.11513 40.59664 35.85589
# Shear Modulus (GPa) = 20.94700 36.16573 28.55636
#
# Velocity S-wave (km/s) = 2.89256 3.80075 3.37732
# Velocity P-wave (km/s) = 4.85636 5.95622 5.43418
#
# Compressibility (1/GPa) = 0.03213871
#
# Stress axis : x y z
#
# Youngs Moduli (GPa) = 64.82183 103.80790 97.81483
#
# Poissons Ratio (x) = -0.09903 0.06321
# Poissons Ratio (y) = -0.06184 0.18391
# Poissons Ratio (z) = 0.04189 0.19517
#
# Static dielectric constant tensor:
#      x y z
#    x 1.087500 0.000000 -0.171890 
#    y 0.000000 2.105350 0.000000 
#    z -0.171890 0.000000 1.796230 
# 
# From -- ./inp_files/30073.got.cif
#   From: 2010.05.17/outbox.cif.g08.bks.cpg/sg12_16_cif.got.tgz:30073.got - 2010.06.03 13:09:07.
