data_PCOD9210552
_publ_section_title
;
Structure prediction by ZEFSAII (Michael W. Deem and Ramdas Pophale) SiO2 
 PCOD9210552
Probable space group: C 2/M
;
_chemical_formula_sum "Si O2"
_cell_formula_units_Z 36
_cell_length_a 26.509752
_cell_length_b 14.847356
_cell_length_c 8.561410
_cell_angle_alpha 90.000000
_cell_angle_beta 147.302703
_cell_angle_gamma 90.000000
_cell_volume 1820.351102
_symmetry_space_group_name_H-M "C 2/M"
_symmetry_group_IT_number 12
_symmetry_cell_setting 'monoclinic'
loop_
_space_group_symop_operation_xyz
x,y,z
-x,y,-z
-x,-y,-z
x,-y,z
1/2+x,1/2+y,z
1/2-x,1/2+y,-z
1/2-x,1/2-y,-z
1/2+x,1/2-y,z
loop_
_atom_site_type_symbol
_atom_site_label
_atom_site_fract_x
_atom_site_fract_y
_atom_site_fract_z
Si Si1 0.914288 0.500000 0.893808
Si Si2 0.262153 0.691142 0.373640
Si Si3 0.003237 0.000000 0.695166
Si Si4 0.207079 0.000000 0.383933
Si Si5 0.558392 0.163550 0.798605
Si Si6 0.447755 0.686093 0.698037
O O1 0.807041 0.500000 0.552880
O O2 0.926417 0.587385 0.032732
O O3 0.000000 0.500000 0.000000
O O4 0.250000 0.750000 0.500000
O O5 0.289008 0.590169 0.500796
O O6 0.345122 0.720546 0.476307
O O7 0.163114 0.693079 0.029139
O O8 0.000000 0.000000 0.500000
O O9 0.953133 0.088490 0.632879
O O10 0.111531 0.000000 0.036709
O O11 0.500000 0.129358 0.500000
O O12 0.502557 0.245517 0.730015
O O13 0.500000 0.680409 0.000000
#
# Coordination Sequence:
#
# PCOD9210552 Si02
#       6
#     4   8   4   4   8   8
#     4  10  23  42  65  86 118 167 213 241 299 379
#     4  11  22  39  65  92 120 164 211 249 304 376
#     4  12  24  42  63  96 128 157 208 270 315 359
#     4  10  21  39  63  85 121 159 203 250 302 359
#     4  11  24  42  62  93 129 157 203 266 307 358
#     4  12  22  40  68  90 124 168 208 250 311 376
#
# _framework density 19.776406000000001
#
# number of rings (size 3 to 8) (size 9 to 14) (size 15 to 20)
#    0.000    0.889    4.444    2.667    3.111    0.889 
#    4.000    0.000    0.000    0.000    0.000    0.000 
#    0.000    0.000    0.000    0.000    0.000    0.000 
#
# Total GULP energy -100594.190081 kJ/mol
# GULP energy per Si atom -5588.566116 kJ/mol
# Density = 1.973139 g / cm^3
# Si number density = 19.776406 Si / 1000 Ang^3
#
#
#
# Elastic Constant Matrix: (Units=GPa)
#
#
# Indices 1 2 3 4 5 6 
#
# 1 91.6763 8.5373 48.9207 0.0000 32.5296 0.0000
# 2 8.5373 91.5278 -8.3897 0.0000 12.0225 0.0000
# 3 48.9207 -8.3897 126.5434 0.0000 27.0189 0.0000
# 4 0.0000 0.0000 0.0000 24.3531 0.0000 0.0050
# 5 32.5296 12.0225 27.0189 0.0000 39.4710 0.0000
# 6 0.0000 0.0000 0.0000 0.0050 0.0000 30.4423
#
#
#
# Elastic Compliance Matrix: (Units=1/GPa)
#
#
# Indices 1 2 3 4 5 6 
#
# 1 0.017181 -0.000550 -0.004323 0.000000 -0.011033 0.000000
# 2 -0.000550 0.011740 0.001941 0.000000 -0.004452 0.000000
# 3 -0.004323 0.001941 0.010620 0.000000 -0.004299 0.000000
# 4 0.000000 0.000000 0.000000 0.041063 0.000000 -0.000007
# 5 -0.011033 -0.004452 -0.004299 0.000000 0.038726 0.000000
# 6 0.000000 0.000000 0.000000 -0.000007 0.000000 0.032849
#
#
# Mechanical properties :
#
#
# Convention : Reuss Voigt Hill
#
# Bulk Modulus (GPa) = 29.69264 45.32044 37.50654
# Shear Modulus (GPa) = 29.53935 36.23190 32.88563
#
# Velocity S-wave (km/s) = 3.86899 4.28492 4.08226
# Velocity P-wave (km/s) = 5.91655 6.88817 6.42077
#
# Compressibility (1/GPa) = 0.03367838
#
# Stress axis : x y z
#
# Youngs Moduli (GPa) = 58.20530 85.18188 94.16172
#
# Poissons Ratio (x) = 0.04681 0.40703
# Poissons Ratio (y) = 0.03199 -0.18279
# Poissons Ratio (z) = 0.25160 -0.16536
#
# Static dielectric constant tensor:
#      x y z
#    x 1.678910 0.000000 0.046630 
#    y 0.000000 1.722940 0.000000 
#    z 0.046630 0.000000 1.742990 
# 
# From -- ./inp_files/58394.got.cif
#   From: 2010.05.17/outbox.cif.g08.bks.cpg/sg12_30_cif.got.tgz:58394.got - 2010.06.03 13:09:07.
