data_PCOD9210683
_publ_section_title
;
Structure prediction by ZEFSAII (Michael W. Deem and Ramdas Pophale) SiO2 
 PCOD9210683
Probable space group: C 2/M
;
_chemical_formula_sum "Si O2"
_cell_formula_units_Z 32
_cell_length_a 14.365121
_cell_length_b 15.872057
_cell_length_c 11.673109
_cell_angle_alpha 90.000000
_cell_angle_beta 29.052856
_cell_angle_gamma 90.000000
_cell_volume 1292.475335
_symmetry_space_group_name_H-M "C 2/M"
_symmetry_group_IT_number 12
_symmetry_cell_setting 'monoclinic'
loop_
_space_group_symop_operation_xyz
x,y,z
-x,y,-z
-x,-y,-z
x,-y,z
1/2+x,1/2+y,z
1/2-x,1/2+y,-z
1/2-x,1/2-y,-z
1/2+x,1/2-y,z
loop_
_atom_site_type_symbol
_atom_site_label
_atom_site_fract_x
_atom_site_fract_y
_atom_site_fract_z
Si Si1 0.414035 0.595933 0.832863
Si Si2 0.643733 0.858817 0.935301
Si Si3 0.152498 0.398703 0.564999
Si Si4 0.712821 0.328248 0.808081
O O1 0.398200 0.500000 0.889439
O O2 0.327494 0.601248 0.798785
O O3 0.637006 0.618526 0.607094
O O4 0.285712 0.647568 0.060773
O O5 0.713173 0.772536 0.803114
O O6 0.500000 0.903639 0.000000
O O7 0.497527 0.846974 0.198450
O O8 0.113880 0.500000 0.613882
O O9 0.154803 0.369651 0.430300
O O10 0.500000 0.357603 0.000000
#
# Coordination Sequence:
#
# PCOD9210683 Si02
#       4
#     8   8   8   8
#     4  10  21  39  63  91 124 162 206 256 308 364
#     4  11  24  40  61  91 129 166 204 250 306 372
#     4  10  22  42  67  92 121 161 208 258 309 360
#     4   9  20  39  63  91 122 158 206 259 306 359
#
# _framework density 24.758694999999999
#
# number of rings (size 3 to 8) (size 9 to 14) (size 15 to 20)
#    0.000    2.000    0.000    2.250    0.000   16.000 
#    0.000   12.500    0.000    0.000    0.000    0.000 
#    0.000    0.000    0.000    0.000    0.000    0.000 
#
# Total GULP energy -89396.955930 kJ/mol
# GULP energy per Si atom -5587.309746 kJ/mol
# Density = 2.470234 g / cm^3
# Si number density = 24.758695 Si / 1000 Ang^3
#
#
#
# Elastic Constant Matrix: (Units=GPa)
#
#
# Indices 1 2 3 4 5 6 
#
# 1 172.7358 16.0022 14.1764 -0.0013 -14.1203 0.0015
# 2 16.0022 66.7442 12.8823 -0.0230 7.2663 -0.0033
# 3 14.1764 12.8823 75.7750 0.0003 1.1567 0.0023
# 4 -0.0013 -0.0230 0.0003 -52.9553 0.0087 7.3217
# 5 -14.1203 7.2663 1.1567 0.0087 35.1755 0.0003
# 6 0.0015 -0.0033 0.0023 7.3217 0.0003 35.7417
#
#
#
# Elastic Compliance Matrix: (Units=1/GPa)
#
#
# Indices 1 2 3 4 5 6 
#
# 1 0.006252 -0.001632 -0.000936 0.000001 0.002878 -0.000001
# 2 -0.001632 0.016265 -0.002400 -0.000007 -0.003936 0.000003
# 3 -0.000936 -0.002400 0.013785 0.000001 -0.000333 -0.000001
# 4 0.000001 -0.000007 0.000001 -0.018364 0.000006 0.003762
# 5 0.002878 -0.003936 -0.000333 0.000006 0.030408 -0.000002
# 6 -0.000001 0.000003 -0.000001 0.003762 -0.000002 0.027208
#
#
# Mechanical properties :
#
#
# Convention : Reuss Voigt Hill
#
# Bulk Modulus (GPa) = 37.92548 44.59742 41.26145
# Shear Modulus (GPa) = 53.03343 21.73866 37.38604
#
# Velocity S-wave (km/s) = 4.63321 2.96636 3.89011
# Velocity P-wave (km/s) = 6.63125 5.45750 6.07280
#
# Compressibility (1/GPa) = 0.02636750
#
# Stress axis : x y z
#
# Youngs Moduli (GPa) = 159.93809 61.47993 72.54148
#
# Poissons Ratio (x) = 0.10031 0.06792
# Poissons Ratio (y) = 0.26096 0.17409
# Poissons Ratio (z) = 0.14975 0.14755
#
# Static dielectric constant tensor:
#      x y z
#    x 2.038220 0.000000 -0.034340 
#    y 0.000000 1.906640 0.000000 
#    z -0.034340 0.000000 1.963430 
# 
# From -- ./inp_files/130740.got.cif
#   From: 2010.05.17/outbox.cif.g08.bks.cpg/sg12_66_cif.got.tgz:130740.got - 2010.06.03 13:09:07.
