data_PCOD9210695
_publ_section_title
;
Structure prediction by ZEFSAII (Michael W. Deem and Ramdas Pophale) SiO2 
 PCOD9210695
Probable space group: C 2/M
;
_chemical_formula_sum "Si O2"
_cell_formula_units_Z 48
_cell_length_a 17.661640
_cell_length_b 13.101882
_cell_length_c 10.794301
_cell_angle_alpha 90.000000
_cell_angle_beta 101.780909
_cell_angle_gamma 90.000000
_cell_volume 2445.193891
_symmetry_space_group_name_H-M "C 2/M"
_symmetry_group_IT_number 12
_symmetry_cell_setting 'monoclinic'
loop_
_space_group_symop_operation_xyz
x,y,z
-x,y,-z
-x,-y,-z
x,-y,z
1/2+x,1/2+y,z
1/2-x,1/2+y,-z
1/2-x,1/2-y,-z
1/2+x,1/2-y,z
loop_
_atom_site_type_symbol
_atom_site_label
_atom_site_fract_x
_atom_site_fract_y
_atom_site_fract_z
Si Si1 0.062265 0.250292 0.342803
Si Si2 0.695347 0.385852 0.260312
Si Si3 0.406185 0.377717 0.274269
Si Si4 0.318612 0.758890 0.421714
Si Si5 0.666012 0.291786 0.002981
Si Si6 0.073967 0.613876 0.112318
O O1 0.127874 0.175405 0.307815
O O2 0.103853 0.292220 0.480292
O O3 0.051549 0.339144 0.238009
O O4 0.985520 0.182645 0.332381
O O5 0.697085 0.500000 0.307962
O O6 0.778969 0.334659 0.310660
O O7 0.674550 0.378854 0.109230
O O8 0.416107 0.500000 0.275227
O O9 0.343023 0.342758 0.355683
O O10 0.378025 0.334267 0.131811
O O11 0.250000 0.750000 0.500000
O O12 0.625822 0.197204 0.059909
O O13 0.750000 0.250000 0.000000
O O14 0.108449 0.500000 0.136705
O O15 0.000000 0.606054 0.000000
#
# Coordination Sequence:
#
# PCOD9210695 Si02
#       6
#     8   8   8   8   8   8
#     4  10  22  41  64  96 130 160 213 266 306 374
#     4  10  21  39  63  91 128 169 203 253 318 369
#     4  12  24  41  68  96 125 166 211 265 326 376
#     4  10  23  42  59  87 128 165 206 257 305 375
#     4  11  22  41  60  97 132 159 210 266 307 375
#     4  10  21  40  67  91 125 171 207 253 317 375
#
# _framework density 19.630344000000001
#
# number of rings (size 3 to 8) (size 9 to 14) (size 15 to 20)
#    0.000    1.500    3.333    1.500    0.000    6.000 
#    0.000    3.333    0.000    2.000    0.000    0.000 
#    0.000    0.000    0.000    0.000    0.000    0.000 
#
# Total GULP energy -133814.709598 kJ/mol
# GULP energy per Si atom -5575.612900 kJ/mol
# Density = 1.958566 g / cm^3
# Si number density = 19.630344 Si / 1000 Ang^3
#
#
#
# Elastic Constant Matrix: (Units=GPa)
#
#
# Indices 1 2 3 4 5 6 
#
# 1 82.9604 36.9266 34.6365 0.0000 9.6094 0.0000
# 2 36.9266 123.1112 35.1086 0.0000 3.7971 0.0000
# 3 34.6365 35.1086 110.6303 0.0000 15.1118 0.0000
# 4 0.0000 0.0000 0.0000 6.5670 0.0000 -3.7397
# 5 9.6094 3.7971 15.1118 0.0000 34.4247 0.0000
# 6 0.0000 0.0000 0.0000 -3.7397 0.0000 19.5839
#
#
#
# Elastic Compliance Matrix: (Units=1/GPa)
#
#
# Indices 1 2 3 4 5 6 
#
# 1 0.015313 -0.003569 -0.003332 0.000000 -0.002419 0.000000
# 2 -0.003569 0.009765 -0.002096 0.000000 0.000839 0.000000
# 3 -0.003332 -0.002096 0.011264 0.000000 -0.003784 0.000000
# 4 0.000000 0.000000 0.000000 0.170855 0.000000 0.032626
# 5 -0.002419 0.000839 -0.003784 0.000000 0.031292 0.000000
# 6 0.000000 0.000000 0.000000 0.032626 0.000000 0.057292
#
#
# Mechanical properties :
#
#
# Convention : Reuss Voigt Hill
#
# Bulk Modulus (GPa) = 54.49611 58.89394 56.69503
# Shear Modulus (GPa) = 15.63028 26.11713 20.87371
#
# Velocity S-wave (km/s) = 2.82482 3.65149 3.26443
# Velocity P-wave (km/s) = 6.20168 6.91697 6.56907
#
# Compressibility (1/GPa) = 0.01834993
#
# Stress axis : x y z
#
# Youngs Moduli (GPa) = 65.30220 102.40613 88.77621
#
# Poissons Ratio (x) = 0.36544 0.29576
# Poissons Ratio (y) = 0.23303 0.18611
# Poissons Ratio (z) = 0.21756 0.21468
#
# Static dielectric constant tensor:
#      x y z
#    x 1.643280 0.000000 -0.017330 
#    y 0.000000 1.683600 0.000000 
#    z -0.017330 0.000000 1.771370 
# 
# From -- ./inp_files/154286.got.cif
#   From: 2010.05.17/outbox.cif.g08.bks.cpg/sg12_78_cif.got.tgz:154286.got - 2010.06.03 13:09:07.
