data_PCOD9210709
_publ_section_title
;
Structure prediction by ZEFSAII (Michael W. Deem and Ramdas Pophale) SiO2 
 PCOD9210709
Probable space group: C 2/M
;
_chemical_formula_sum "Si O2"
_cell_formula_units_Z 48
_cell_length_a 25.811383
_cell_length_b 20.944257
_cell_length_c 8.482152
_cell_angle_alpha 90.000000
_cell_angle_beta 148.418645
_cell_angle_gamma 90.000000
_cell_volume 2401.441894
_symmetry_space_group_name_H-M "C 2/M"
_symmetry_group_IT_number 12
_symmetry_cell_setting 'monoclinic'
loop_
_space_group_symop_operation_xyz
x,y,z
-x,y,-z
-x,-y,-z
x,-y,z
1/2+x,1/2+y,z
1/2-x,1/2+y,-z
1/2-x,1/2-y,-z
1/2+x,1/2-y,z
loop_
_atom_site_type_symbol
_atom_site_label
_atom_site_fract_x
_atom_site_fract_y
_atom_site_fract_z
Si Si1 0.104872 0.139424 0.739258
Si Si2 0.886991 0.312626 0.754861
Si Si3 0.384402 0.427654 0.733634
Si Si4 0.602644 0.774908 0.853445
Si Si5 0.313627 0.690288 0.362909
Si Si6 0.256570 0.427979 0.706599
O O1 0.109137 0.198139 0.872954
O O2 0.115765 0.175436 0.601449
O O3 0.000000 0.107111 0.500000
O O4 0.194997 0.092317 0.002442
O O5 0.846835 0.251234 0.552599
O O6 0.821626 0.374411 0.545382
O O7 0.886950 0.298881 0.941372
O O8 0.000000 0.322964 0.000000
O O9 0.366148 0.500000 0.627744
O O10 0.321612 0.373404 0.486525
O O11 0.348199 0.426465 0.820159
O O12 0.500000 0.413934 0.000000
O O13 0.500000 0.792080 0.500000
O O14 0.700679 0.798664 0.017192
O O15 0.216934 0.500000 0.604102
#
# Coordination Sequence:
#
# PCOD9210709 Si02
#       6
#     8   8   8   8   8   8
#     4  11  23  38  62  97 132 159 205 264 320 381
#     4  12  24  41  68  93 125 169 215 262 313 373
#     4  10  21  39  63  92 126 165 211 258 314 380
#     4  11  23  39  63  97 127 158 205 265 317 374
#     4  12  22  40  68  94 129 165 208 258 323 373
#     4  11  24  42  63  90 128 175 216 260 314 372
#
# _framework density 19.987991999999998
#
# number of rings (size 3 to 8) (size 9 to 14) (size 15 to 20)
#    0.000    0.833    3.333    5.500    2.333    1.333 
#    0.000    0.000    0.000    1.000    0.000    0.000 
#    0.000    0.000    0.000    0.000    0.000    0.000 
#
# Total GULP energy -134071.358735 kJ/mol
# GULP energy per Si atom -5586.306614 kJ/mol
# Density = 1.994250 g / cm^3
# Si number density = 19.987992 Si / 1000 Ang^3
#
#
#
# Elastic Constant Matrix: (Units=GPa)
#
#
# Indices 1 2 3 4 5 6 
#
# 1 75.1242 16.9889 24.1714 0.0000 6.6013 0.0000
# 2 16.9889 116.7126 55.1299 0.0000 -10.0643 0.0000
# 3 24.1714 55.1299 111.3180 0.0000 8.1734 0.0000
# 4 0.0000 0.0000 0.0000 19.8244 0.0000 3.5872
# 5 6.6013 -10.0643 8.1734 0.0000 34.4224 0.0000
# 6 0.0000 0.0000 0.0000 3.5872 0.0000 20.8229
#
#
#
# Elastic Compliance Matrix: (Units=1/GPa)
#
#
# Indices 1 2 3 4 5 6 
#
# 1 0.014578 -0.001227 -0.002367 0.000000 -0.002592 0.000000
# 2 -0.001227 0.012076 -0.006097 0.000000 0.005214 0.000000
# 3 -0.002367 -0.006097 0.012838 0.000000 -0.004377 0.000000
# 4 0.000000 0.000000 0.000000 0.052066 0.000000 -0.008970
# 5 -0.002592 0.005214 -0.004377 0.000000 0.032112 0.000000
# 6 0.000000 0.000000 0.000000 -0.008970 0.000000 0.049569
#
#
# Mechanical properties :
#
#
# Convention : Reuss Voigt Hill
#
# Bulk Modulus (GPa) = 49.72810 55.08171 52.40491
# Shear Modulus (GPa) = 25.08446 28.80491 26.94469
#
# Velocity S-wave (km/s) = 3.54641 3.80031 3.67555
# Velocity P-wave (km/s) = 6.45774 6.84644 6.65493
#
# Compressibility (1/GPa) = 0.02010935
#
# Stress axis : x y z
#
# Youngs Moduli (GPa) = 68.59491 82.80671 77.89234
#
# Poissons Ratio (x) = 0.10164 0.18439
# Poissons Ratio (y) = 0.08419 0.47492
# Poissons Ratio (z) = 0.16238 0.50488
#
# Static dielectric constant tensor:
#      x y z
#    x 1.778800 0.000000 -0.016290 
#    y 0.000000 1.684500 0.000000 
#    z -0.016290 0.000000 1.739700 
# 
# From -- ./inp_files/106602.got.cif
#   From: 2010.05.17/outbox.cif.g08.bks.cpg/sg12_54_cif.got.tgz:106602.got - 2010.06.03 13:09:07.
