data_PCOD9210218
_publ_section_title
;
Structure prediction by ZEFSAII (Michael W. Deem and Ramdas Pophale) SiO2 
 PCOD9210218
Probable space group: C 2/M
;
_chemical_formula_sum "Si O2"
_cell_formula_units_Z 48
_cell_length_a 20.895046
_cell_length_b 8.687592
_cell_length_c 27.170623
_cell_angle_alpha 90.000000
_cell_angle_beta 150.047815
_cell_angle_gamma 90.000000
_cell_volume 2462.543971
_symmetry_space_group_name_H-M "C 2/M"
_symmetry_group_IT_number 12
_symmetry_cell_setting 'monoclinic'
loop_
_space_group_symop_operation_xyz
x,y,z
-x,y,-z
-x,-y,-z
x,-y,z
1/2+x,1/2+y,z
1/2-x,1/2+y,-z
1/2-x,1/2-y,-z
1/2+x,1/2-y,z
loop_
_atom_site_type_symbol
_atom_site_label
_atom_site_fract_x
_atom_site_fract_y
_atom_site_fract_z
Si Si1 0.874587 0.685581 0.056314
Si Si2 0.114408 0.183560 0.391809
Si Si3 0.132166 0.315668 0.718630
Si Si4 0.356027 0.814772 0.387400
Si Si5 0.114763 0.315524 0.283295
Si Si6 0.866601 0.685799 0.937378
O O1 0.870372 0.500000 0.054233
O O2 0.002291 0.732320 0.170699
O O3 0.750000 0.750000 0.000000
O O4 0.874110 0.734595 0.999193
O O5 0.250000 0.250000 0.500000
O O6 0.092375 0.240270 0.321398
O O7 0.999839 0.244100 0.349743
O O8 0.118080 0.000000 0.395691
O O9 0.120847 0.500000 0.712927
O O10 0.159176 0.271257 0.680007
O O11 0.247598 0.260118 0.830014
O O12 0.500000 0.775579 0.500000
O O13 0.249836 0.736085 0.350493
O O14 0.341639 0.000000 0.382127
O O15 0.112046 0.500000 0.286828
O O16 0.851931 0.500000 0.925815
O O17 0.000000 0.725308 0.000000
#
# Coordination Sequence:
#
# PCOD9210218 Si02
#       6
#     8   8   8   8   8   8
#     4  10  22  38  58  85 116 153 196 243 293 350
#     4  12  25  42  64  90 122 159 200 246 300 359
#     4  11  23  39  61  91 124 158 202 253 304 359
#     4  10  22  40  61  86 119 158 198 244 299 358
#     4  11  23  40  63  91 121 155 200 249 298 356
#     4  10  21  39  61  85 117 159 205 250 299 355
#
# _framework density 19.492038000000001
#
# number of rings (size 3 to 8) (size 9 to 14) (size 15 to 20)
#    0.000    1.333    0.000    5.500    0.000    9.333 
#    0.000    0.000    0.000    0.000    0.000    0.000 
#    0.000    0.000    0.000    0.000    0.000    0.000 
#
# Total GULP energy -134279.747185 kJ/mol
# GULP energy per Si atom -5594.989466 kJ/mol
# Density = 1.944767 g / cm^3
# Si number density = 19.492038 Si / 1000 Ang^3
#
#
#
# Elastic Constant Matrix: (Units=GPa)
#
#
# Indices 1 2 3 4 5 6 
#
# 1 71.4934 11.2802 -25.2924 0.0000 -0.6716 0.0000
# 2 11.2802 41.9239 4.7484 -0.0001 1.9607 -0.0001
# 3 -25.2924 4.7484 54.6376 -0.0002 -2.4963 0.0000
# 4 0.0000 -0.0001 -0.0002 37.4888 0.0000 3.7192
# 5 -0.6716 1.9607 -2.4963 0.0000 43.4131 0.0000
# 6 0.0000 -0.0001 0.0000 3.7192 0.0000 35.8152
#
#
#
# Elastic Compliance Matrix: (Units=1/GPa)
#
#
# Indices 1 2 3 4 5 6 
#
# 1 0.018096 -0.005931 0.008941 0.000000 0.001062 0.000000
# 2 -0.005931 0.026098 -0.005085 0.000000 -0.001563 0.000000
# 3 0.008941 -0.005085 0.022960 0.000000 0.001688 0.000000
# 4 0.000000 0.000000 0.000000 0.026952 0.000000 -0.002799
# 5 0.001062 -0.001563 0.001688 0.000000 0.023219 0.000000
# 6 0.000000 0.000000 0.000000 -0.002799 0.000000 0.028212
#
#
# Mechanical properties :
#
#
# Convention : Reuss Voigt Hill
#
# Bulk Modulus (GPa) = 15.87227 16.61417 16.24322
# Shear Modulus (GPa) = 29.29300 35.16466 32.22883
#
# Velocity S-wave (km/s) = 3.88083 4.25202 4.07066
# Velocity P-wave (km/s) = 5.31429 5.71387 5.51770
#
# Compressibility (1/GPa) = 0.06300296
#
# Stress axis : x y z
#
# Youngs Moduli (GPa) = 55.26025 38.31753 43.55331
#
# Poissons Ratio (x) = 0.22728 -0.38941
# Poissons Ratio (y) = 0.32777 0.22148
# Poissons Ratio (z) = -0.49408 0.19485
#
# Static dielectric constant tensor:
#      x y z
#    x 1.639880 0.000000 -0.016960 
#    y 0.000000 1.661050 0.000000 
#    z -0.016960 0.000000 1.652780 
# 
# From -- ./inp_files/365364.got.cif
#   From: 2010.05.17/outbox.cif.g08.bks.cpg/sg12_183_cif.got.tgz:365364.got - 2010.06.03 13:09:07.
