data_PCOD9210676
_publ_section_title
;
Structure prediction by ZEFSAII (Michael W. Deem and Ramdas Pophale) SiO2 
 PCOD9210676
Probable space group: C 2/M
;
_chemical_formula_sum "Si O2"
_cell_formula_units_Z 32
_cell_length_a 10.312905
_cell_length_b 17.388273
_cell_length_c 8.648361
_cell_angle_alpha 90.000000
_cell_angle_beta 57.251600
_cell_angle_gamma 90.000000
_cell_volume 1304.353234
_symmetry_space_group_name_H-M "C 2/M"
_symmetry_group_IT_number 12
_symmetry_cell_setting 'monoclinic'
loop_
_space_group_symop_operation_xyz
x,y,z
-x,y,-z
-x,-y,-z
x,-y,z
1/2+x,1/2+y,z
1/2-x,1/2+y,-z
1/2-x,1/2-y,-z
1/2+x,1/2-y,z
loop_
_atom_site_type_symbol
_atom_site_label
_atom_site_fract_x
_atom_site_fract_y
_atom_site_fract_z
Si Si1 0.292072 0.089489 0.577687
Si Si2 0.362488 0.859327 0.202376
Si Si3 0.427279 0.589617 0.804170
Si Si4 0.789899 0.201677 0.130051
O O1 0.376791 0.106505 0.362582
O O2 0.325715 0.154050 0.685584
O O3 0.108669 0.100791 0.659193
O O4 0.314052 0.000000 0.610388
O O5 0.193706 0.882423 0.247099
O O6 0.365970 0.766080 0.191648
O O7 0.500000 0.886077 0.000000
O O8 0.401520 0.500000 0.840457
O O9 0.378848 0.633117 0.989436
O O10 0.750000 0.250000 0.000000
#
# Coordination Sequence:
#
# PCOD9210676 Si02
#       4
#     8   8   8   8
#     4  11  22  39  66  94 123 166 217 263 311 374
#     4  11  23  39  61  92 132 171 207 257 318 379
#     4  10  21  39  63  91 123 162 212 266 315 369
#     4  10  22  40  63  92 124 162 212 269 322 374
#
# _framework density 24.533232000000002
#
# number of rings (size 3 to 8) (size 9 to 14) (size 15 to 20)
#    0.000    1.500    0.000    5.250    0.000    6.000 
#    0.000   12.500    0.000    7.500    0.000    0.000 
#    0.000    0.000    0.000    0.000    0.000    0.000 
#
# Total GULP energy -89370.375800 kJ/mol
# GULP energy per Si atom -5585.648487 kJ/mol
# Density = 2.447739 g / cm^3
# Si number density = 24.533232 Si / 1000 Ang^3
#
#
#
# Elastic Constant Matrix: (Units=GPa)
#
#
# Indices 1 2 3 4 5 6 
#
# 1 108.9242 6.8084 13.9042 0.0000 -10.8228 0.0000
# 2 6.8084 134.6267 50.7387 0.0000 6.1118 0.0000
# 3 13.9042 50.7387 172.6085 0.0000 2.7806 0.0000
# 4 0.0000 0.0000 0.0000 30.7681 0.0000 12.6929
# 5 -10.8228 6.1118 2.7806 0.0000 33.5730 0.0000
# 6 0.0000 0.0000 0.0000 12.6929 0.0000 -0.1619
#
#
#
# Elastic Compliance Matrix: (Units=1/GPa)
#
#
# Indices 1 2 3 4 5 6 
#
# 1 0.009616 -0.000361 -0.000720 0.000000 0.003225 0.000000
# 2 -0.000361 0.008426 -0.002424 0.000000 -0.001450 0.000000
# 3 -0.000720 -0.002424 0.006570 0.000000 -0.000335 0.000000
# 4 0.000000 0.000000 0.000000 0.000975 0.000000 0.076422
# 5 0.003225 -0.001450 -0.000335 0.000000 0.031117 0.000000
# 6 0.000000 0.000000 0.000000 0.076422 0.000000 -0.185249
#
#
# Mechanical properties :
#
#
# Convention : Reuss Voigt Hill
#
# Bulk Modulus (GPa) = 56.82092 62.11799 59.46945
# Shear Modulus (GPa) = -43.22694 35.81638 -3.70528
#
# Velocity S-wave (km/s) = -4.20214 3.82503 -1.23028
# Velocity P-wave (km/s) = 0.57700 6.69945 4.71963
#
# Compressibility (1/GPa) = 0.01759915
#
# Stress axis : x y z
#
# Youngs Moduli (GPa) = 103.99667 118.68450 152.21833
#
# Poissons Ratio (x) = 0.04287 0.10965
# Poissons Ratio (y) = 0.03757 0.36902
# Poissons Ratio (z) = 0.07491 0.28773
#
# Static dielectric constant tensor:
#      x y z
#    x 2.230020 0.000000 -0.070960 
#    y 0.000000 1.929670 0.000000 
#    z -0.070960 0.000000 1.970210 
# 
# From -- ./inp_files/46425.got.cif
#   From: 2010.05.17/outbox.cif.g08.bks.cpg/sg12_24_cif.got.tgz:46425.got - 2010.06.03 13:09:07.
