data_PCOD9210661
_publ_section_title
;
Structure prediction by ZEFSAII (Michael W. Deem and Ramdas Pophale) SiO2 
 PCOD9210661
Probable space group: C 2/M
;
_chemical_formula_sum "Si O2"
_cell_formula_units_Z 56
_cell_length_a 20.505698
_cell_length_b 8.622775
_cell_length_c 25.973646
_cell_angle_alpha 90.000000
_cell_angle_beta 140.163683
_cell_angle_gamma 90.000000
_cell_volume 2941.975978
_symmetry_space_group_name_H-M "C 2/M"
_symmetry_group_IT_number 12
_symmetry_cell_setting 'monoclinic'
loop_
_space_group_symop_operation_xyz
x,y,z
-x,y,-z
-x,-y,-z
x,-y,z
1/2+x,1/2+y,z
1/2-x,1/2+y,-z
1/2-x,1/2-y,-z
1/2+x,1/2-y,z
loop_
_atom_site_type_symbol
_atom_site_label
_atom_site_fract_x
_atom_site_fract_y
_atom_site_fract_z
Si Si1 0.005215 0.685595 0.243560
Si Si2 0.554423 0.814859 0.479246
Si Si3 0.364008 0.313865 0.066701
Si Si4 0.762534 0.313268 0.640401
Si Si5 0.724148 0.813593 0.232549
Si Si6 0.567255 0.314271 0.691629
Si Si7 0.510518 0.313116 0.064787
O O1 0.999887 0.500000 0.235376
O O2 0.932532 0.758308 0.156131
O O3 0.969880 0.737110 0.278464
O O4 0.123130 0.731524 0.306321
O O5 0.500000 0.766666 0.500000
O O6 0.672260 0.766791 0.554575
O O7 0.500923 0.735679 0.398266
O O8 0.544596 0.000000 0.468567
O O9 0.360419 0.500000 0.064801
O O10 0.421342 0.261011 0.049262
O O11 0.250000 0.250000 0.000000
O O12 0.753037 0.500000 0.629566
O O13 0.749775 0.272064 0.692832
O O14 0.817084 0.767561 0.252191
O O15 0.618231 0.739330 0.152468
O O16 0.713761 0.000000 0.224524
O O17 0.563998 0.500000 0.694946
O O18 0.507675 0.500000 0.062062
O O19 0.500000 0.255591 0.000000
#
# Coordination Sequence:
#
# PCOD9210661 Si02
#       7
#     8   8   8   8   8   8   8
#     4  11  24  43  65  90 124 163 206 254 307 367
#     4  11  23  38  61  94 126 160 205 255 308 361
#     4  11  24  42  64  91 126 166 206 250 306 366
#     4  10  21  40  65  89 120 163 205 251 308 364
#     4  10  21  39  63  91 120 159 206 251 303 361
#     4  11  24  41  63  92 126 163 205 253 307 367
#     4  10  23  41  62  92 125 160 202 251 305 358
#
# _framework density 19.034825000000001
#
# number of rings (size 3 to 8) (size 9 to 14) (size 15 to 20)
#    0.000    1.429    2.857    1.714    2.000    4.857 
#    0.000    0.000    0.000    0.000    0.000    0.000 
#    0.000    0.000    0.000    0.000    0.000    0.000 
#
# Total GULP energy -156518.225393 kJ/mol
# GULP energy per Si atom -5589.936621 kJ/mol
# Density = 1.899150 g / cm^3
# Si number density = 19.034825 Si / 1000 Ang^3
#
#
#
# Elastic Constant Matrix: (Units=GPa)
#
#
# Indices 1 2 3 4 5 6 
#
# 1 153.4171 29.7790 62.4055 0.0000 10.6028 0.0000
# 2 29.7790 26.4496 21.8060 0.0000 6.8760 0.0000
# 3 62.4055 21.8060 116.0149 0.0000 17.7999 0.0000
# 4 0.0000 0.0000 0.0000 36.4406 0.0000 0.4101
# 5 10.6028 6.8760 17.7999 0.0000 36.9187 0.0000
# 6 0.0000 0.0000 0.0000 0.4101 0.0000 28.2337
#
#
#
# Elastic Compliance Matrix: (Units=1/GPa)
#
#
# Indices 1 2 3 4 5 6 
#
# 1 0.009508 -0.007760 -0.003735 0.000000 0.000515 0.000000
# 2 -0.007760 0.051815 -0.004780 0.000000 -0.005117 0.000000
# 3 -0.003735 -0.004780 0.012123 0.000000 -0.003882 0.000000
# 4 0.000000 0.000000 0.000000 0.027446 0.000000 -0.000399
# 5 0.000515 -0.005117 -0.003882 0.000000 0.029763 0.000000
# 6 0.000000 0.000000 0.000000 -0.000399 0.000000 0.035424
#
#
# Mechanical properties :
#
#
# Convention : Reuss Voigt Hill
#
# Bulk Modulus (GPa) = 24.45188 58.20696 41.32942
# Shear Modulus (GPa) = 23.55584 32.44468 28.00026
#
# Velocity S-wave (km/s) = 3.52165 4.13303 3.83953
# Velocity P-wave (km/s) = 5.42308 7.30900 6.43550
#
# Compressibility (1/GPa) = 0.04089665
#
# Stress axis : x y z
#
# Youngs Moduli (GPa) = 105.17428 19.29936 82.48952
#
# Poissons Ratio (x) = 0.14975 0.30810
# Poissons Ratio (y) = 0.81610 0.39431
# Poissons Ratio (z) = 0.39283 0.09225
#
# Static dielectric constant tensor:
#      x y z
#    x 1.658960 0.000000 0.003120 
#    y 0.000000 1.645720 0.000000 
#    z 0.003120 0.000000 1.621880 
# 
# From -- ./inp_files/230951.got.cif
#   From: 2010.05.17/outbox.cif.g08.bks.cpg/sg12_116_cif.got.tgz:230951.got - 2010.06.03 13:09:07.
