data_PCOD9210505
_publ_section_title
;
Structure prediction by ZEFSAII (Michael W. Deem and Ramdas Pophale) SiO2 
 PCOD9210505
Probable space group: C 2/M
;
_chemical_formula_sum "Si O2"
_cell_formula_units_Z 50
_cell_length_a 28.826020
_cell_length_b 12.318118
_cell_length_c 7.209739
_cell_angle_alpha 90.000000
_cell_angle_beta 63.011472
_cell_angle_gamma 90.000000
_cell_volume 2281.254646
_symmetry_space_group_name_H-M "C 2/M"
_symmetry_group_IT_number 12
_symmetry_cell_setting 'monoclinic'
loop_
_space_group_symop_operation_xyz
x,y,z
-x,y,-z
-x,-y,-z
x,-y,z
1/2+x,1/2+y,z
1/2-x,1/2+y,-z
1/2-x,1/2-y,-z
1/2+x,1/2-y,z
loop_
_atom_site_type_symbol
_atom_site_label
_atom_site_fract_x
_atom_site_fract_y
_atom_site_fract_z
Si Si1 0.551012 0.875579 0.541352
Si Si2 0.500000 0.500000 0.500000
Si Si3 0.160966 0.877736 0.560609
Si Si4 0.915410 0.188495 0.762337
Si Si5 0.745060 0.123151 0.856836
Si Si6 0.693934 0.663618 0.906562
Si Si7 0.054933 0.767958 0.882222
O O1 0.500000 0.871544 0.500000
O O2 0.587343 0.785074 0.381218
O O3 0.542434 0.832135 0.767082
O O4 0.569361 0.000000 0.510093
O O5 0.457249 0.597292 0.631246
O O6 0.203085 0.831894 0.340836
O O7 0.190674 0.876685 0.703961
O O8 0.104737 0.826276 0.701320
O O9 0.150400 0.000000 0.517931
O O10 0.929565 0.245952 0.932450
O O11 0.859957 0.133723 0.897634
O O12 0.699395 0.205776 0.893664
O O13 0.735564 0.000000 0.813586
O O14 0.759252 0.125017 0.048423
O O15 0.000000 0.832810 0.000000
#
# Coordination Sequence:
#
# PCOD9210505 Si02
#       7
#     8   2   8   8   8   8   8
#     4  11  23  43  64  87 127 174 223 274 323 388
#     4  12  24  44  68 100 146 172 224 276 330 410
#     4  10  22  39  62  91 126 169 209 265 331 390
#     4  11  24  42  65 100 132 177 219 273 335 393
#     4  10  21  39  62  92 122 165 213 271 329 379
#     4  10  22  39  64  90 129 162 218 266 324 400
#     4  11  22  40  60  97 131 168 226 262 328 395
#
# _framework density 21.917763000000001
#
# number of rings (size 3 to 8) (size 9 to 14) (size 15 to 20)
#    0.000    1.440    2.400    1.920    5.600    1.920 
#    7.200    2.400    0.000    6.720    0.000    0.000 
#    0.000    0.000    0.000    0.000    0.000    0.000 
#
# Total GULP energy -139203.648154 kJ/mol
# GULP energy per Si atom -5568.145926 kJ/mol
# Density = 2.186788 g / cm^3
# Si number density = 21.917763 Si / 1000 Ang^3
#
#
#
# Elastic Constant Matrix: (Units=GPa)
#
#
# Indices 1 2 3 4 5 6 
#
# 1 67.7398 14.3383 32.4064 0.0000 11.0227 0.0000
# 2 14.3383 121.1839 44.6580 0.0000 -3.4185 0.0000
# 3 32.4064 44.6580 98.7241 0.0000 3.1469 0.0000
# 4 0.0000 0.0000 0.0000 -28.2486 0.0000 -39.4829
# 5 11.0227 -3.4185 3.1469 0.0000 35.3451 0.0000
# 6 0.0000 0.0000 0.0000 -39.4829 0.0000 -42.6157
#
#
#
# Elastic Compliance Matrix: (Units=1/GPa)
#
#
# Indices 1 2 3 4 5 6 
#
# 1 0.018430 -0.000193 -0.005795 0.000000 -0.005250 0.000000
# 2 -0.000193 0.009970 -0.004492 0.000000 0.001425 0.000000
# 3 -0.005795 -0.004492 0.014060 0.000000 0.000121 0.000000
# 4 0.000000 0.000000 0.000000 0.120022 0.000000 -0.111199
# 5 -0.005250 0.001425 0.000121 0.000000 0.030057 0.000000
# 6 0.000000 0.000000 0.000000 -0.111199 0.000000 0.079559
#
#
# Mechanical properties :
#
#
# Convention : Reuss Voigt Hill
#
# Bulk Modulus (GPa) = 46.51290 52.27258 49.39274
# Shear Modulus (GPa) = 16.65425 5.97915 11.31670
#
# Velocity S-wave (km/s) = 2.75953 1.65346 2.27474
# Velocity P-wave (km/s) = 5.60544 5.24847 5.42989
#
# Compressibility (1/GPa) = 0.02149941
#
# Stress axis : x y z
#
# Youngs Moduli (GPa) = 54.25981 100.29715 71.12594
#
# Poissons Ratio (x) = 0.01938 0.41217
# Poissons Ratio (y) = 0.01048 0.31950
# Poissons Ratio (z) = 0.31443 0.45054
#
# Static dielectric constant tensor:
#      x y z
#    x 1.863530 0.000000 0.007910 
#    y 0.000000 1.818250 0.000000 
#    z 0.007910 0.000000 1.841900 
# 
# From -- ./inp_files/103084.got.cif
#   From: 2010.05.17/outbox.cif.g08.bks.cpg/sg12_52_cif.got.tgz:103084.got - 2010.06.03 13:09:07.
