data_PCOD9210161
_publ_section_title
;
Structure prediction by ZEFSAII (Michael W. Deem and Ramdas Pophale) SiO2 
 PCOD9210161
Probable space group: C 2/M
;
_chemical_formula_sum "Si O2"
_cell_formula_units_Z 42
_cell_length_a 19.309465
_cell_length_b 17.760492
_cell_length_c 6.164612
_cell_angle_alpha 90.000000
_cell_angle_beta 112.205981
_cell_angle_gamma 90.000000
_cell_volume 1957.324192
_symmetry_space_group_name_H-M "C 2/M"
_symmetry_group_IT_number 12
_symmetry_cell_setting 'monoclinic'
loop_
_space_group_symop_operation_xyz
x,y,z
-x,y,-z
-x,-y,-z
x,-y,z
1/2+x,1/2+y,z
1/2-x,1/2+y,-z
1/2-x,1/2-y,-z
1/2+x,1/2-y,z
loop_
_atom_site_type_symbol
_atom_site_label
_atom_site_fract_x
_atom_site_fract_y
_atom_site_fract_z
Si Si1 0.293758 0.187358 0.411795
Si Si2 0.000000 0.000000 0.000000
Si Si3 0.135173 0.413054 0.135648
Si Si4 0.939448 0.127338 0.239555
Si Si5 0.217687 0.915066 0.988626
Si Si6 0.068682 0.295110 0.742912
O O1 0.250000 0.250000 0.500000
O O2 0.340548 0.130372 0.619228
O O3 0.232409 0.141452 0.202703
O O4 0.355446 0.214731 0.310248
O O5 0.045533 0.066124 0.923686
O O6 0.111616 0.500000 0.141988
O O7 0.210680 0.413773 0.081101
O O8 0.079244 0.361456 0.928877
O O9 0.944128 0.213393 0.166947
O O10 0.000000 0.117474 0.500000
O O11 0.856261 0.109502 0.225413
O O12 0.210589 0.000000 0.063365
O O13 0.000000 0.310857 0.500000
#
# Coordination Sequence:
#
# PCOD9210161 Si02
#       6
#     8   2   8   8   8   8
#     4  11  22  39  65  97 123 172 229 268 321 398
#     4  12  26  40  64  94 130 172 224 252 316 412
#     4  10  22  41  67  95 126 169 221 276 330 393
#     4  11  24  43  61  92 132 175 217 267 328 392
#     4  10  21  39  60  89 128 166 208 274 326 376
#     4  10  24  43  64  92 135 172 211 276 339 386
#
# _framework density 21.457867
#
# number of rings (size 3 to 8) (size 9 to 14) (size 15 to 20)
#    0.000    1.524    0.952    3.143    0.000   12.571 
#    3.429    0.952    0.000    0.000    0.000    0.000 
#    0.000    0.000    0.000    0.000    0.000    0.000 
#
# Total GULP energy -117106.688198 kJ/mol
# GULP energy per Si atom -5576.508962 kJ/mol
# Density = 2.140903 g / cm^3
# Si number density = 21.457867 Si / 1000 Ang^3
#
#
#
# Elastic Constant Matrix: (Units=GPa)
#
#
# Indices 1 2 3 4 5 6 
#
# 1 54.3668 38.4484 26.4859 0.0000 18.8649 0.0000
# 2 38.4484 150.3430 48.4597 0.0000 6.2192 0.0000
# 3 26.4859 48.4597 54.5155 0.0000 15.0766 0.0000
# 4 0.0000 0.0000 0.0000 24.7654 0.0000 9.2765
# 5 18.8649 6.2192 15.0766 0.0000 39.1215 0.0000
# 6 0.0000 0.0000 0.0000 9.2765 0.0000 31.9712
#
#
#
# Elastic Compliance Matrix: (Units=1/GPa)
#
#
# Indices 1 2 3 4 5 6 
#
# 1 0.028680 -0.004684 -0.006886 0.000000 -0.010432 0.000000
# 2 -0.004684 0.010218 -0.007815 0.000000 0.003646 0.000000
# 3 -0.006886 -0.007815 0.030640 0.000000 -0.007245 0.000000
# 4 0.000000 0.000000 0.000000 0.045303 0.000000 -0.013145
# 5 -0.010432 0.003646 -0.007245 0.000000 0.032804 0.000000
# 6 0.000000 0.000000 0.000000 -0.013145 0.000000 0.035092
#
#
# Mechanical properties :
#
#
# Convention : Reuss Voigt Hill
#
# Bulk Modulus (GPa) = 32.50139 54.00149 43.25144
# Shear Modulus (GPa) = 21.57390 28.89372 25.23381
#
# Velocity S-wave (km/s) = 3.17426 3.67349 3.43296
# Velocity P-wave (km/s) = 5.34921 6.57371 5.99282
#
# Compressibility (1/GPa) = 0.03076791
#
# Stress axis : x y z
#
# Youngs Moduli (GPa) = 34.86735 97.87112 32.63738
#
# Poissons Ratio (x) = 0.45839 0.22473
# Poissons Ratio (y) = 0.16331 0.25507
# Poissons Ratio (z) = 0.24009 0.76490
#
# Static dielectric constant tensor:
#      x y z
#    x 1.817680 0.000000 -0.021170 
#    y 0.000000 1.777520 0.000000 
#    z -0.021170 0.000000 1.789650 
# 
# From -- ./inp_files/20331.got.cif
#   From: 2010.05.17/outbox.cif.g08.bks.cpg/sg12_11_cif.got.tgz:20331.got - 2010.06.03 13:09:07.
