data_PCOD9210579
_publ_section_title
;
Structure prediction by ZEFSAII (Michael W. Deem and Ramdas Pophale) SiO2 
 PCOD9210579
Probable space group: C 2/M
;
_chemical_formula_sum "Si O2"
_cell_formula_units_Z 48
_cell_length_a 14.759276
_cell_length_b 17.440903
_cell_length_c 16.524557
_cell_angle_alpha 90.000000
_cell_angle_beta 30.521307
_cell_angle_gamma 90.000000
_cell_volume 2160.263781
_symmetry_space_group_name_H-M "C 2/M"
_symmetry_group_IT_number 12
_symmetry_cell_setting 'monoclinic'
loop_
_space_group_symop_operation_xyz
x,y,z
-x,y,-z
-x,-y,-z
x,-y,z
1/2+x,1/2+y,z
1/2-x,1/2+y,-z
1/2-x,1/2-y,-z
1/2+x,1/2-y,z
loop_
_atom_site_type_symbol
_atom_site_label
_atom_site_fract_x
_atom_site_fract_y
_atom_site_fract_z
Si Si1 0.197423 0.782664 0.824567
Si Si2 0.855594 0.120004 0.678892
Si Si3 0.392843 0.791137 0.834480
Si Si4 0.891176 0.856301 0.386219
Si Si5 0.625769 0.086825 0.722617
Si Si6 0.290924 0.088695 0.635988
O O1 0.317419 0.711165 0.704134
O O2 0.298861 0.815556 0.824088
O O3 0.183282 0.849050 0.770126
O O4 0.000000 0.755062 0.000000
O O5 0.677420 0.086235 0.777132
O O6 0.000000 0.094938 0.500000
O O7 0.930348 0.104633 0.711270
O O8 0.542594 0.727199 0.694889
O O9 0.451699 0.865314 0.838408
O O10 0.250000 0.750000 0.000000
O O11 0.765728 0.862574 0.561726
O O12 0.774581 0.895239 0.405370
O O13 0.625507 0.000000 0.692395
O O14 0.500000 0.101478 0.500000
O O15 0.252733 0.000000 0.684359
#
# Coordination Sequence:
#
# PCOD9210579 Si02
#       6
#     8   8   8   8   8   8
#     4  11  22  38  61  85 114 152 199 246 289 353
#     4   9  20  37  61  88 114 150 195 243 295 352
#     4  11  23  41  65  89 118 161 206 246 296 361
#     4  10  21  39  63  88 117 159 205 245 292 358
#     4  11  22  38  62  92 124 155 196 254 310 355
#     4  11  23  38  57  84 120 157 193 241 299 354
#
# _framework density 22.219508000000001
#
# number of rings (size 3 to 8) (size 9 to 14) (size 15 to 20)
#    0.000    1.500    0.000    5.500    0.000    8.667 
#    0.000    3.333    0.000    9.500    0.000    0.000 
#    0.000    0.000    0.000    0.000    0.000    0.000 
#
# Total GULP energy -133805.692480 kJ/mol
# GULP energy per Si atom -5575.237187 kJ/mol
# Density = 2.216894 g / cm^3
# Si number density = 22.219508 Si / 1000 Ang^3
#
#
#
# Elastic Constant Matrix: (Units=GPa)
#
#
# Indices 1 2 3 4 5 6 
#
# 1 174.9252 48.1871 12.0249 0.0091 -11.8488 -0.0009
# 2 48.1871 66.2965 13.4735 0.0254 -12.2361 -0.0151
# 3 12.0249 13.4735 39.4964 0.0210 -5.1259 -0.0047
# 4 0.0091 0.0254 0.0210 -0.8515 -0.0105 24.2239
# 5 -11.8488 -12.2361 -5.1259 -0.0105 23.7011 0.0039
# 6 -0.0009 -0.0151 -0.0047 24.2239 0.0039 -47.6103
#
#
#
# Elastic Compliance Matrix: (Units=1/GPa)
#
#
# Indices 1 2 3 4 5 6 
#
# 1 0.007174 -0.004965 -0.000368 0.000004 0.000943 0.000003
# 2 -0.004965 0.021003 -0.004700 -0.000016 0.007345 -0.000013
# 3 -0.000368 -0.004700 0.027466 -0.000034 0.003330 -0.000018
# 4 0.000004 -0.000016 -0.000034 0.087157 0.000017 0.044345
# 5 0.000943 0.007345 0.003330 0.000017 0.047176 0.000010
# 6 0.000003 -0.000013 -0.000018 0.044345 0.000010 0.001559
#
#
# Mechanical properties :
#
#
# Convention : Reuss Voigt Hill
#
# Bulk Modulus (GPa) = 28.10792 47.56546 37.83669
# Shear Modulus (GPa) = 22.37531 8.85003 15.61267
#
# Velocity S-wave (km/s) = 3.17679 1.99791 2.65364
# Velocity P-wave (km/s) = 5.11210 5.17453 5.14341
#
# Compressibility (1/GPa) = 0.03557716
#
# Stress axis : x y z
#
# Youngs Moduli (GPa) = 139.39779 47.61111 36.40828
#
# Poissons Ratio (x) = 0.23640 0.01339
# Poissons Ratio (y) = 0.69215 0.17112
# Poissons Ratio (z) = 0.05128 0.22377
#
# Static dielectric constant tensor:
#      x y z
#    x 1.888460 0.000000 -0.082300 
#    y 0.000000 1.781410 0.000000 
#    z -0.082300 0.000000 1.898510 
# 
# From -- ./inp_files/271571.got.cif
#   From: 2010.05.17/outbox.cif.g08.bks.cpg/sg12_136_cif.got.tgz:271571.got - 2010.06.03 13:09:07.
