data_PCOD9210930
_publ_section_title
;
Structure prediction by ZEFSAII (Michael W. Deem and Ramdas Pophale) SiO2 
 PCOD9210930
Probable space group: C 2/M
;
_chemical_formula_sum "Si O2"
_cell_formula_units_Z 60
_cell_length_a 11.878345
_cell_length_b 24.673992
_cell_length_c 20.017313
_cell_angle_alpha 90.000000
_cell_angle_beta 31.432159
_cell_angle_gamma 90.000000
_cell_volume 3059.468453
_symmetry_space_group_name_H-M "C 2/M"
_symmetry_group_IT_number 12
_symmetry_cell_setting 'monoclinic'
loop_
_space_group_symop_operation_xyz
x,y,z
-x,y,-z
-x,-y,-z
x,-y,z
1/2+x,1/2+y,z
1/2-x,1/2+y,-z
1/2-x,1/2-y,-z
1/2+x,1/2-y,z
loop_
_atom_site_type_symbol
_atom_site_label
_atom_site_fract_x
_atom_site_fract_y
_atom_site_fract_z
Si Si1 0.395046 0.837434 0.625744
Si Si2 0.223350 0.938120 0.778541
Si Si3 0.068257 0.438488 0.720488
Si Si4 0.945147 0.256143 0.213494
Si Si5 0.272754 0.801120 0.441352
Si Si6 0.737797 0.060958 0.999636
Si Si7 0.143524 0.322822 0.992905
Si Si8 0.000000 0.867625 0.500000
O O1 0.500000 0.832547 0.500000
O O2 0.267712 0.893371 0.699714
O O3 0.576950 0.839112 0.590469
O O4 0.244647 0.784932 0.712913
O O5 0.376978 0.926721 0.764126
O O6 0.967601 0.935190 0.921728
O O7 0.269422 0.000000 0.733690
O O8 0.139289 0.500000 0.670516
O O9 0.280690 0.401728 0.613069
O O10 0.953955 0.436582 0.849919
O O11 0.150405 0.216510 0.119010
O O12 0.878713 0.283780 0.317230
O O13 0.013105 0.300237 0.123642
O O14 0.250000 0.750000 0.500000
O O15 0.044178 0.828464 0.540389
O O16 0.713278 0.114562 0.967459
O O17 0.734608 0.000000 0.969892
O O18 0.000000 0.317824 0.000000
#
# Coordination Sequence:
#
# PCOD9210930 Si02
#       8
#     8   8   8   8   8   8   8   4
#     4  12  23  42  66  92 128 170 216 267 320 386
#     4  10  21  41  66  92 125 166 215 269 318 378
#     4  10  21  39  64  96 128 160 207 263 322 381
#     4  11  24  44  63  94 127 173 217 263 324 383
#     4  12  24  41  63  92 128 173 217 260 316 390
#     4  10  21  41  68  94 122 163 216 266 321 383
#     4  11  24  42  65  93 131 167 209 272 325 386
#     4  12  23  38  62  94 130 172 207 258 324 384
#
# _framework density 19.611249000000001
#
# number of rings (size 3 to 8) (size 9 to 14) (size 15 to 20)
#    0.000    1.067    4.000    3.000    0.000    3.200 
#    0.000    0.000    0.000    0.000    0.000    0.000 
#    0.000    0.000    0.000    0.000    0.000    0.000 
#
# Total GULP energy -167430.997153 kJ/mol
# GULP energy per Si atom -5581.033238 kJ/mol
# Density = 1.956661 g / cm^3
# Si number density = 19.611249 Si / 1000 Ang^3
#
#
#
# Elastic Constant Matrix: (Units=GPa)
#
#
# Indices 1 2 3 4 5 6 
#
# 1 115.2515 42.8660 37.2849 -0.0011 -15.0367 0.0009
# 2 42.8660 110.1683 35.0243 -0.0007 -4.7467 0.0019
# 3 37.2849 35.0243 80.5645 -0.0091 -9.2290 -0.0053
# 4 -0.0011 -0.0007 -0.0091 34.5905 -0.0007 -8.9959
# 5 -15.0367 -4.7467 -9.2290 -0.0007 30.0735 0.0042
# 6 0.0009 0.0019 -0.0053 -8.9959 0.0042 23.9158
#
#
#
# Elastic Compliance Matrix: (Units=1/GPa)
#
#
# Indices 1 2 3 4 5 6 
#
# 1 0.011538 -0.003207 -0.003465 -0.000001 0.004200 -0.000002
# 2 -0.003207 0.011426 -0.003586 -0.000001 -0.000901 -0.000002
# 3 -0.003465 -0.003586 0.015869 0.000006 0.002572 0.000006
# 4 -0.000001 -0.000001 0.000006 0.032044 0.000000 0.012053
# 5 0.004200 -0.000901 0.002572 0.000000 0.035999 -0.000006
# 6 -0.000002 -0.000002 0.000006 0.012053 -0.000006 0.046347
#
#
# Mechanical properties :
#
#
# Convention : Reuss Voigt Hill
#
# Bulk Modulus (GPa) = 54.59089 59.59272 57.09180
# Shear Modulus (GPa) = 27.80151 30.43656 29.11903
#
# Velocity S-wave (km/s) = 3.76923 3.94381 3.85751
# Velocity P-wave (km/s) = 6.84396 7.15480 7.00110
#
# Compressibility (1/GPa) = 0.01831807
#
# Stress axis : x y z
#
# Youngs Moduli (GPa) = 86.66837 87.51781 63.01402
#
# Poissons Ratio (x) = 0.28068 0.21831
# Poissons Ratio (y) = 0.27795 0.22599
# Poissons Ratio (z) = 0.30026 0.31387
#
# Static dielectric constant tensor:
#      x y z
#    x 1.657310 0.000000 -0.024610 
#    y 0.000000 1.752920 0.000000 
#    z -0.024610 0.000000 1.703370 
# 
# From -- ./inp_files/307298.got.cif
#   From: 2010.05.17/outbox.cif.g08.bks.cpg/sg12_154_cif.got.tgz:307298.got - 2010.06.03 13:09:07.
