data_PCOD9210087
_publ_section_title
;
Structure prediction by ZEFSAII (Michael W. Deem and Ramdas Pophale) SiO2 
 PCOD9210087
Probable space group: C 2/M
;
_chemical_formula_sum "Si O2"
_cell_formula_units_Z 42
_cell_length_a 4.926583
_cell_length_b 12.963167
_cell_length_c 29.770749
_cell_angle_alpha 90.000000
_cell_angle_beta 94.592875
_cell_angle_gamma 90.000000
_cell_volume 1895.177317
_symmetry_space_group_name_H-M "C 2/M"
_symmetry_group_IT_number 12
_symmetry_cell_setting 'monoclinic'
loop_
_space_group_symop_operation_xyz
x,y,z
-x,y,-z
-x,-y,-z
x,-y,z
1/2+x,1/2+y,z
1/2-x,1/2+y,-z
1/2-x,1/2-y,-z
1/2+x,1/2-y,z
loop_
_atom_site_type_symbol
_atom_site_label
_atom_site_fract_x
_atom_site_fract_y
_atom_site_fract_z
Si Si1 0.500000 0.500000 0.500000
Si Si2 0.528285 0.500000 0.823484
Si Si3 0.925872 0.819154 0.658018
Si Si4 0.844249 0.821650 0.755296
Si Si5 0.557041 0.000000 0.882918
Si Si6 0.240612 0.176405 0.440468
Si Si7 0.575657 0.180982 0.050843
O O1 0.672550 0.590311 0.475343
O O2 0.438663 0.400685 0.793996
O O3 0.846817 0.500000 0.838613
O O4 0.360470 0.500000 0.867673
O O5 0.738735 0.715268 0.658166
O O6 0.874727 0.869317 0.705614
O O7 0.830142 0.867992 0.610227
O O8 0.542933 0.777884 0.758333
O O9 0.493781 0.099017 0.912371
O O10 0.540217 0.224963 0.444219
O O11 0.886011 0.218404 0.055345
O O12 0.500000 0.141350 0.000000
#
# Coordination Sequence:
#
# PCOD9210087 Si02
#       7
#     2   4   8   8   4   8   8
#     4  12  24  36  60  84 112 158 182 218 296 344
#     4  12  26  37  57  88 118 157 193 224 286 348
#     4   8  16  34  58  79 105 144 185 234 284 321
#     4  10  21  39  60  82 113 150 192 239 281 330
#     4  12  25  40  58  88 124 156 188 233 286 342
#     4  10  22  39  57  83 115 144 187 236 278 339
#     4  10  22  41  65  89 114 151 197 241 284 331
#
# _framework density 22.161512999999999
#
# number of rings (size 3 to 8) (size 9 to 14) (size 15 to 20)
#    0.000    1.905    0.000    3.143    0.000    6.857 
#    0.000    3.810    0.000   13.714    0.000    0.000 
#    0.000    0.000    0.000    0.000    0.000    0.000 
#
# Total GULP energy -117142.745744 kJ/mol
# GULP energy per Si atom -5578.225988 kJ/mol
# Density = 2.211107 g / cm^3
# Si number density = 22.161513 Si / 1000 Ang^3
#
#
#
# Elastic Constant Matrix: (Units=GPa)
#
#
# Indices 1 2 3 4 5 6 
#
# 1 71.4410 -5.5813 -3.5801 0.0000 0.6041 0.0000
# 2 -5.5813 55.0471 34.8744 0.0000 6.1939 0.0000
# 3 -3.5801 34.8744 91.4284 0.0000 -5.1620 0.0000
# 4 0.0000 0.0000 0.0000 -45.6575 0.0000 -9.4853
# 5 0.6041 6.1939 -5.1620 0.0000 33.7890 0.0000
# 6 0.0000 0.0000 0.0000 -9.4853 0.0000 6.7655
#
#
#
# Elastic Compliance Matrix: (Units=1/GPa)
#
#
# Indices 1 2 3 4 5 6 
#
# 1 0.014119 0.001532 -0.000062 0.000000 -0.000543 0.000000
# 2 0.001532 0.025320 -0.009947 0.000000 -0.006189 0.000000
# 3 -0.000062 -0.009947 0.014962 0.000000 0.004110 0.000000
# 4 0.000000 0.000000 0.000000 -0.016962 0.000000 -0.023781
# 5 -0.000543 -0.006189 0.004110 0.000000 0.031368 0.000000
# 6 0.000000 0.000000 0.000000 -0.023781 0.000000 0.114468
#
#
# Mechanical properties :
#
#
# Convention : Reuss Voigt Hill
#
# Bulk Modulus (GPa) = 26.70591 29.92697 28.31644
# Shear Modulus (GPa) = 23.50609 11.79296 17.64952
#
# Velocity S-wave (km/s) = 3.26033 2.30931 2.82513
# Velocity P-wave (km/s) = 5.12345 4.54356 4.84219
#
# Compressibility (1/GPa) = 0.03744490
#
# Stress axis : x y z
#
# Youngs Moduli (GPa) = 70.82798 39.49448 66.83818
#
# Poissons Ratio (x) = -0.06050 0.00415
# Poissons Ratio (y) = -0.10850 0.66487
# Poissons Ratio (z) = 0.00440 0.39287
#
# Static dielectric constant tensor:
#      x y z
#    x 1.763930 0.000000 0.024770 
#    y 0.000000 1.766680 0.000000 
#    z 0.024770 0.000000 1.859570 
# 
# From -- ./inp_files/371365.got.cif
#   From: 2010.05.17/outbox.cif.g08.bks.cpg/sg12_186_cif.got.tgz:371365.got - 2010.06.03 13:09:07.
