data_PCOD9210069
_publ_section_title
;
Structure prediction by ZEFSAII (Michael W. Deem and Ramdas Pophale) SiO2 
 PCOD9210069
Probable space group: C 2/M
;
_chemical_formula_sum "Si O2"
_cell_formula_units_Z 58
_cell_length_a 16.245825
_cell_length_b 19.767099
_cell_length_c 11.565570
_cell_angle_alpha 90.000000
_cell_angle_beta 49.102681
_cell_angle_gamma 90.000000
_cell_volume 2807.417240
_symmetry_space_group_name_H-M "C 2/M"
_symmetry_group_IT_number 12
_symmetry_cell_setting 'monoclinic'
loop_
_space_group_symop_operation_xyz
x,y,z
-x,y,-z
-x,-y,-z
x,-y,z
1/2+x,1/2+y,z
1/2-x,1/2+y,-z
1/2-x,1/2-y,-z
1/2+x,1/2-y,z
loop_
_atom_site_type_symbol
_atom_site_label
_atom_site_fract_x
_atom_site_fract_y
_atom_site_fract_z
Si Si1 0.080066 0.252116 0.746401
Si Si2 0.875124 0.579231 0.655828
Si Si3 0.769825 0.923443 0.428852
Si Si4 0.198125 0.191514 0.419958
Si Si5 0.485013 0.389235 0.851079
Si Si6 0.500000 0.500000 0.000000
Si Si7 0.120433 0.676578 0.131395
Si Si8 0.163188 0.173714 0.196492
O O1 0.118300 0.231104 0.580822
O O2 0.193639 0.265238 0.705348
O O3 0.017499 0.187299 0.854890
O O4 0.999666 0.315484 0.812021
O O5 0.853020 0.500000 0.698042
O O6 0.797097 0.600896 0.621561
O O7 0.864673 0.623387 0.779929
O O8 0.000000 0.585788 0.500000
O O9 0.760495 0.872237 0.543352
O O10 0.898733 0.924383 0.281679
O O11 0.733952 0.000000 0.487367
O O12 0.144076 0.171523 0.350141
O O13 0.410787 0.378247 0.807353
O O14 0.433596 0.439179 0.991414
O O15 0.138757 0.750812 0.171466
O O16 0.211107 0.662411 0.952059
#
# Coordination Sequence:
#
# PCOD9210069 Si02
#       8
#     8   8   8   8   8   2   8   8
#     4   9  21  38  62  93 120 164 217 251 319 364
#     4  10  22  37  61  92 122 159 210 264 309 371
#     4  10  21  39  59  90 121 163 211 255 311 371
#     4  10  21  39  63  91 122 166 208 262 303 387
#     4  10  23  38  58  91 118 162 203 258 308 378
#     4  12  24  40  68  82 126 170 206 254 320 380
#     4  10  22  38  59  87 125 163 198 267 310 371
#     4  10  24  39  56  90 127 158 209 251 322 366
#
# _framework density 20.659559000000002
#
# number of rings (size 3 to 8) (size 9 to 14) (size 15 to 20)
#    0.000    2.069    0.690    0.828    9.655    7.172 
#    1.241    0.690    0.000    0.000    0.000    4.828 
#    0.000    0.000    0.000    0.000    0.000    0.000 
#
# Total GULP energy -161693.774639 kJ/mol
# GULP energy per Si atom -5575.647401 kJ/mol
# Density = 2.061254 g / cm^3
# Si number density = 20.659559 Si / 1000 Ang^3
#
#
#
# Elastic Constant Matrix: (Units=GPa)
#
#
# Indices 1 2 3 4 5 6 
#
# 1 104.9671 26.0079 37.4823 0.0000 -1.2997 0.0000
# 2 26.0079 62.7683 14.6773 0.0000 10.1246 0.0000
# 3 37.4823 14.6773 54.0146 0.0000 3.5177 0.0000
# 4 0.0000 0.0000 0.0000 277.2531 0.0000 66.9070
# 5 -1.2997 10.1246 3.5177 0.0000 31.8183 0.0000
# 6 0.0000 0.0000 0.0000 66.9070 0.0000 46.0581
#
#
#
# Elastic Compliance Matrix: (Units=1/GPa)
#
#
# Indices 1 2 3 4 5 6 
#
# 1 0.013620 -0.004104 -0.008519 0.000000 0.002804 0.000000
# 2 -0.004104 0.019056 -0.001938 0.000000 -0.006017 0.000000
# 3 -0.008519 -0.001938 0.025115 0.000000 -0.002508 0.000000
# 4 0.000000 0.000000 0.000000 0.005554 0.000000 -0.008068
# 5 0.002804 -0.006017 -0.002508 0.000000 0.033735 0.000000
# 6 0.000000 0.000000 0.000000 -0.008068 0.000000 0.033431
#
#
# Mechanical properties :
#
#
# Convention : Reuss Voigt Hill
#
# Bulk Modulus (GPa) = 34.88111 42.00943 38.44527
# Shear Modulus (GPa) = 29.55257 80.59807 55.07532
#
# Velocity S-wave (km/s) = 3.78624 6.25277 5.16879
# Velocity P-wave (km/s) = 6.00288 8.51515 7.36690
#
# Compressibility (1/GPa) = 0.02866881
#
# Stress axis : x y z
#
# Youngs Moduli (GPa) = 73.41959 52.47746 39.81657
#
# Poissons Ratio (x) = 0.21536 0.33920
# Poissons Ratio (y) = 0.30130 0.07718
# Poissons Ratio (z) = 0.62546 0.10172
#
# Static dielectric constant tensor:
#      x y z
#    x 1.761590 0.000000 -0.025600 
#    y 0.000000 1.777570 0.000000 
#    z -0.025600 0.000000 1.819750 
# 
# From -- ./inp_files/147589.got.cif
#   From: 2010.05.17/outbox.cif.g08.bks.cpg/sg12_74_cif.got.tgz:147589.got - 2010.06.03 13:09:07.
