data_PCOD9210756
_publ_section_title
;
Structure prediction by ZEFSAII (Michael W. Deem and Ramdas Pophale) SiO2 
 PCOD9210756
Probable space group: C 2/M
;
_chemical_formula_sum "Si O2"
_cell_formula_units_Z 36
_cell_length_a 5.033560
_cell_length_b 31.687986
_cell_length_c 11.563703
_cell_angle_alpha 90.000000
_cell_angle_beta 110.082387
_cell_angle_gamma 90.000000
_cell_volume 1732.306882
_symmetry_space_group_name_H-M "C 2/M"
_symmetry_group_IT_number 12
_symmetry_cell_setting 'monoclinic'
loop_
_space_group_symop_operation_xyz
x,y,z
-x,y,-z
-x,-y,-z
x,-y,z
1/2+x,1/2+y,z
1/2-x,1/2+y,-z
1/2-x,1/2-y,-z
1/2+x,1/2-y,z
loop_
_atom_site_type_symbol
_atom_site_label
_atom_site_fract_x
_atom_site_fract_y
_atom_site_fract_z
Si Si1 0.300283 0.000000 0.107385
Si Si2 0.757568 0.500000 0.367966
Si Si3 0.253948 0.094874 0.367625
Si Si4 0.169269 0.370098 0.236698
Si Si5 0.500000 0.920371 0.000000
Si Si6 0.874493 0.277095 0.852287
O O1 0.408275 0.955079 0.080109
O O2 0.352488 0.000000 0.250175
O O3 0.000000 0.000000 0.000000
O O4 0.625962 0.546773 0.356905
O O5 0.000000 0.500000 0.500000
O O6 0.500000 0.098544 0.500000
O O7 0.422173 0.107579 0.275267
O O8 0.976483 0.123171 0.338957
O O9 0.187743 0.390104 0.109132
O O10 0.106320 0.320868 0.212084
O O11 0.560556 0.259436 0.821687
O O12 0.000000 0.283933 0.000000
#
# Coordination Sequence:
#
# PCOD9210756 Si02
#       6
#     4   4   8   8   4   8
#     4  11  21  40  56  87 137 166 215 264 324 378
#     4  10  21  40  61  88 127 176 224 262 310 368
#     4  11  25  42  65  91 127 175 220 262 306 369
#     4  12  23  42  66  95 129 162 215 263 319 388
#     4  11  24  34  62  94 126 172 206 260 332 371
#     4  10  21  39  63  95 128 159 198 258 329 389
#
# _framework density 20.781535999999999
#
# number of rings (size 3 to 8) (size 9 to 14) (size 15 to 20)
#    0.000    1.111    3.333    3.333    0.000    1.778 
#    0.000    3.333    0.000   13.333    0.000    0.000 
#    0.000    0.000    0.000    0.000    0.000    0.000 
#
# Total GULP energy -100238.141051 kJ/mol
# GULP energy per Si atom -5568.785614 kJ/mol
# Density = 2.073424 g / cm^3
# Si number density = 20.781536 Si / 1000 Ang^3
#
#
#
# Elastic Constant Matrix: (Units=GPa)
#
#
# Indices 1 2 3 4 5 6 
#
# 1 47.9017 -1.6344 0.9087 0.0000 8.4493 0.0000
# 2 -1.6344 110.8299 25.0398 0.0000 5.5379 0.0000
# 3 0.9087 25.0398 83.1305 0.0000 -7.4795 0.0000
# 4 0.0000 0.0000 0.0000 28.7172 0.0000 -5.9264
# 5 8.4493 5.5379 -7.4795 0.0000 16.9272 0.0000
# 6 0.0000 0.0000 0.0000 -5.9264 0.0000 30.5151
#
#
#
# Elastic Compliance Matrix: (Units=1/GPa)
#
#
# Indices 1 2 3 4 5 6 
#
# 1 0.023227 0.001399 -0.001833 0.000000 -0.012861 0.000000
# 2 0.001399 0.010129 -0.003569 0.000000 -0.005589 0.000000
# 3 -0.001833 -0.003569 0.013863 0.000000 0.008208 0.000000
# 4 0.000000 0.000000 0.000000 0.036276 0.000000 0.007045
# 5 -0.012861 -0.005589 0.008208 0.000000 0.070952 0.000000
# 6 0.000000 0.000000 0.000000 0.007045 0.000000 0.034139
#
#
# Mechanical properties :
#
#
# Convention : Reuss Voigt Hill
#
# Bulk Modulus (GPa) = 25.50100 32.27670 28.88885
# Shear Modulus (GPa) = 23.84784 29.73511 26.79147
#
# Velocity S-wave (km/s) = 3.39123 3.78675 3.59443
# Velocity P-wave (km/s) = 5.25657 5.88935 5.58193
#
# Compressibility (1/GPa) = 0.03921415
#
# Stress axis : x y z
#
# Youngs Moduli (GPa) = 43.05304 98.72496 72.13506
#
# Poissons Ratio (x) = -0.13814 0.13219
# Poissons Ratio (y) = -0.06024 0.25746
# Poissons Ratio (z) = 0.07890 0.35237
#
# Static dielectric constant tensor:
#      x y z
#    x 1.766180 0.000000 -0.062780 
#    y 0.000000 1.699790 0.000000 
#    z -0.062780 0.000000 1.733960 
# 
# From -- ./inp_files/115405.got.cif
#   From: 2010.05.17/outbox.cif.g08.bks.cpg/sg12_58_cif.got.tgz:115405.got - 2010.06.03 13:09:07.
