data_PCOD9210817
_publ_section_title
;
Structure prediction by ZEFSAII (Michael W. Deem and Ramdas Pophale) SiO2 
 PCOD9210817
Probable space group: C 2/M
;
_chemical_formula_sum "Si O2"
_cell_formula_units_Z 48
_cell_length_a 8.079850
_cell_length_b 16.056347
_cell_length_c 20.045281
_cell_angle_alpha 90.000000
_cell_angle_beta 45.331890
_cell_angle_gamma 90.000000
_cell_volume 1849.474555
_symmetry_space_group_name_H-M "C 2/M"
_symmetry_group_IT_number 12
_symmetry_cell_setting 'monoclinic'
loop_
_space_group_symop_operation_xyz
x,y,z
-x,y,-z
-x,-y,-z
x,-y,z
1/2+x,1/2+y,z
1/2-x,1/2+y,-z
1/2-x,1/2-y,-z
1/2+x,1/2-y,z
loop_
_atom_site_type_symbol
_atom_site_label
_atom_site_fract_x
_atom_site_fract_y
_atom_site_fract_z
Si Si1 0.675921 0.595755 0.214125
Si Si2 0.100648 0.335300 0.544887
Si Si3 0.235526 0.861236 0.061553
Si Si4 0.174995 0.665607 0.104982
Si Si5 0.053920 0.904537 0.387622
Si Si6 0.563844 0.101940 0.278978
O O1 0.751813 0.500000 0.201600
O O2 0.585648 0.601433 0.164286
O O3 0.509868 0.617920 0.322458
O O4 0.904840 0.651188 0.161080
O O5 0.250000 0.250000 0.500000
O O6 0.317197 0.397143 0.494504
O O7 0.913290 0.352548 0.655818
O O8 0.000000 0.347829 0.500000
O O9 0.229292 0.762869 0.080325
O O10 0.500000 0.892364 0.000000
O O11 0.191079 0.875832 0.996154
O O12 0.197543 0.632808 0.174200
O O13 0.297548 0.864266 0.338530
O O14 0.116079 0.000000 0.371667
O O15 0.582290 0.000000 0.279363
#
# Coordination Sequence:
#
# PCOD9210817 Si02
#       6
#     8   8   8   8   8   8
#     4   9  18  33  58  86 114 155 204 249 294 357
#     4  12  26  42  60  88 121 159 203 256 310 371
#     4   9  18  32  52  86 122 157 199 252 302 353
#     4   9  18  33  54  83 119 156 199 245 300 357
#     4   9  19  38  62  89 122 156 198 247 300 361
#     4  10  21  39  64  90 120 164 209 253 307 372
#
# _framework density 25.953319
#
# number of rings (size 3 to 8) (size 9 to 14) (size 15 to 20)
#    0.000    2.333    0.000    3.500    2.333    6.333 
#    3.000    0.000    0.000    2.000    0.000    3.500 
#    0.000    0.000    0.000    0.000    0.000    0.000 
#
# Total GULP energy -133860.469537 kJ/mol
# GULP energy per Si atom -5577.519564 kJ/mol
# Density = 2.589425 g / cm^3
# Si number density = 25.953319 Si / 1000 Ang^3
#
#
#
# Elastic Constant Matrix: (Units=GPa)
#
#
# Indices 1 2 3 4 5 6 
#
# 1 104.0599 13.4338 47.7901 0.0003 28.4025 -0.0007
# 2 13.4338 61.6204 21.9222 0.0008 15.5157 -0.0005
# 3 47.7901 21.9222 220.4337 -0.0015 42.0565 -0.0001
# 4 0.0003 0.0008 -0.0015 36.5818 0.0000 7.4005
# 5 28.4025 15.5157 42.0565 0.0000 60.3615 0.0011
# 6 -0.0007 -0.0005 -0.0001 7.4005 0.0011 19.8395
#
#
#
# Elastic Compliance Matrix: (Units=1/GPa)
#
#
# Indices 1 2 3 4 5 6 
#
# 1 0.011596 -0.000917 -0.001646 0.000000 -0.004074 0.000001
# 2 -0.000917 0.017621 -0.000890 -0.000001 -0.003478 0.000001
# 3 -0.001646 -0.000890 0.005525 0.000000 -0.002846 0.000000
# 4 0.000000 -0.000001 0.000000 0.029567 0.000000 -0.011029
# 5 -0.004074 -0.003478 -0.002846 0.000000 0.021361 -0.000001
# 6 0.000001 0.000001 0.000000 -0.011029 -0.000001 0.054519
#
#
# Mechanical properties :
#
#
# Convention : Reuss Voigt Hill
#
# Bulk Modulus (GPa) = 35.92388 61.37846 48.65117
# Shear Modulus (GPa) = 31.97506 43.55442 37.76474
#
# Velocity S-wave (km/s) = 3.51383 4.10101 3.81872
# Velocity P-wave (km/s) = 5.50767 6.79156 6.18303
#
# Compressibility (1/GPa) = 0.02783664
#
# Stress axis : x y z
#
# Youngs Moduli (GPa) = 86.23710 56.75178 181.00115
#
# Poissons Ratio (x) = 0.05203 0.29784
# Poissons Ratio (y) = 0.07906 0.16111
# Poissons Ratio (z) = 0.14190 0.05051
#
# Static dielectric constant tensor:
#      x y z
#    x 2.209700 0.000000 0.017200 
#    y 0.000000 1.996300 0.000000 
#    z 0.017200 0.000000 2.229170 
# 
# From -- ./inp_files/300635.got.cif
#   From: 2010.05.17/outbox.cif.g08.bks.cpg/sg12_151_cif.got.tgz:300635.got - 2010.06.03 13:09:07.
