data_PCOD9210398
_publ_section_title
;
Structure prediction by ZEFSAII (Michael W. Deem and Ramdas Pophale) SiO2 
 PCOD9210398
Probable space group: C 2/M
;
_chemical_formula_sum "Si O2"
_cell_formula_units_Z 48
_cell_length_a 17.943435
_cell_length_b 15.498978
_cell_length_c 14.839626
_cell_angle_alpha 90.000000
_cell_angle_beta 141.641395
_cell_angle_gamma 90.000000
_cell_volume 2561.122605
_symmetry_space_group_name_H-M "C 2/M"
_symmetry_group_IT_number 12
_symmetry_cell_setting 'monoclinic'
loop_
_space_group_symop_operation_xyz
x,y,z
-x,y,-z
-x,-y,-z
x,-y,z
1/2+x,1/2+y,z
1/2-x,1/2+y,-z
1/2-x,1/2-y,-z
1/2+x,1/2-y,z
loop_
_atom_site_type_symbol
_atom_site_label
_atom_site_fract_x
_atom_site_fract_y
_atom_site_fract_z
Si Si1 0.339694 0.333306 0.088919
Si Si2 0.905275 0.595746 0.138193
Si Si3 0.983607 0.101321 0.592133
Si Si4 0.994893 0.742452 0.889962
Si Si5 0.065277 0.599949 0.465484
Si Si6 0.275576 0.262128 0.420288
O O1 0.409910 0.353527 0.248538
O O2 0.442321 0.317350 0.111100
O O3 0.250000 0.250000 0.000000
O O4 0.236996 0.404022 0.976973
O O5 0.945176 0.500000 0.152544
O O6 0.937756 0.658472 0.086556
O O7 0.976447 0.621278 0.297140
O O8 0.864576 0.157418 0.495244
O O9 0.000000 0.104390 0.500000
O O10 0.975328 0.000000 0.610794
O O11 0.854947 0.725523 0.743362
O O12 0.000000 0.759888 0.000000
O O13 0.106389 0.500000 0.492125
O O14 0.164363 0.674385 0.559102
O O15 0.000000 0.603574 0.500000
O O16 0.250000 0.250000 0.500000
#
# Coordination Sequence:
#
# PCOD9210398 Si02
#       6
#     8   8   8   8   8   8
#     4  10  21  41  62  86 123 167 209 255 304 371
#     4  10  21  39  62  87 120 160 204 256 313 374
#     4  11  25  42  66  99 130 168 215 264 321 384
#     4  11  25  39  58  90 122 160 209 255 315 382
#     4  10  22  40  65  93 120 162 218 265 310 377
#     4  12  22  41  63  89 125 168 204 260 325 376
#
# _framework density 18.741782000000001
#
# number of rings (size 3 to 8) (size 9 to 14) (size 15 to 20)
#    0.000    1.333    3.333    2.000    7.000    1.667 
#    0.000    0.000    0.000    2.500    0.000    0.000 
#    0.000    0.000    0.000    0.000    0.000    0.000 
#
# Total GULP energy -133698.981621 kJ/mol
# GULP energy per Si atom -5570.790901 kJ/mol
# Density = 1.869912 g / cm^3
# Si number density = 18.741782 Si / 1000 Ang^3
#
#
#
# Elastic Constant Matrix: (Units=GPa)
#
#
# Indices 1 2 3 4 5 6 
#
# 1 90.0642 51.1264 29.3733 0.0000 0.1396 0.0000
# 2 51.1264 102.7431 18.8720 0.0000 9.1514 0.0000
# 3 29.3733 18.8720 96.1523 0.0000 12.2269 0.0000
# 4 0.0000 0.0000 0.0000 10.2661 0.0000 -13.6375
# 5 0.1396 9.1514 12.2269 0.0000 40.8253 0.0000
# 6 0.0000 0.0000 0.0000 -13.6375 0.0000 10.0397
#
#
#
# Elastic Compliance Matrix: (Units=1/GPa)
#
#
# Indices 1 2 3 4 5 6 
#
# 1 0.016903 -0.007940 -0.003975 0.000000 0.002913 0.000000
# 2 -0.007940 0.013947 0.000086 0.000000 -0.003125 0.000000
# 3 -0.003975 0.000086 0.012058 0.000000 -0.003617 0.000000
# 4 0.000000 0.000000 0.000000 -0.121087 0.000000 -0.164480
# 5 0.002913 -0.003125 -0.003617 0.000000 0.026268 0.000000
# 6 0.000000 0.000000 0.000000 -0.164480 0.000000 -0.123817
#
#
# Mechanical properties :
#
#
# Convention : Reuss Voigt Hill
#
# Bulk Modulus (GPa) = 51.95609 54.18921 53.07265
# Shear Modulus (GPa) = -34.32807 24.86540 -4.73133
#
# Velocity S-wave (km/s) = -4.28440 3.64639 -1.59059
# Velocity P-wave (km/s) = 1.81864 6.83407 5.00060
#
# Compressibility (1/GPa) = 0.01924702
#
# Stress axis : x y z
#
# Youngs Moduli (GPa) = 59.16253 71.70126 82.93430
#
# Poissons Ratio (x) = 0.56932 0.32970
# Poissons Ratio (y) = 0.46976 -0.00710
# Poissons Ratio (z) = 0.23520 -0.00614
#
# Static dielectric constant tensor:
#      x y z
#    x 1.723930 0.000000 -0.039080 
#    y 0.000000 1.919800 0.000000 
#    z -0.039080 0.000000 1.650680 
# 
# From -- ./inp_files/225444.got.cif
#   From: 2010.05.17/outbox.cif.g08.bks.cpg/sg12_113_cif.got.tgz:225444.got - 2010.06.03 13:09:07.
