data_PCOD9210298
_publ_section_title
;
Structure prediction by ZEFSAII (Michael W. Deem and Ramdas Pophale) SiO2 
 PCOD9210298
Probable space group: C 2/M
;
_chemical_formula_sum "Si O2"
_cell_formula_units_Z 48
_cell_length_a 13.242016
_cell_length_b 19.885262
_cell_length_c 12.465453
_cell_angle_alpha 90.000000
_cell_angle_beta 132.113678
_cell_angle_gamma 90.000000
_cell_volume 2434.947231
_symmetry_space_group_name_H-M "C 2/M"
_symmetry_group_IT_number 12
_symmetry_cell_setting 'monoclinic'
loop_
_space_group_symop_operation_xyz
x,y,z
-x,y,-z
-x,-y,-z
x,-y,z
1/2+x,1/2+y,z
1/2-x,1/2+y,-z
1/2-x,1/2-y,-z
1/2+x,1/2-y,z
loop_
_atom_site_type_symbol
_atom_site_label
_atom_site_fract_x
_atom_site_fract_y
_atom_site_fract_z
Si Si1 0.458004 0.075288 0.850255
Si Si2 0.851934 0.104804 0.383855
Si Si3 0.813869 0.820893 0.580365
Si Si4 0.662559 0.921581 0.633792
Si Si5 0.165703 0.652786 0.858608
Si Si6 0.380500 0.690363 0.188516
O O1 0.295168 0.070950 0.730909
O O2 0.527244 0.125352 0.815180
O O3 0.513960 0.000000 0.870441
O O4 0.500000 0.096440 0.000000
O O5 0.837675 0.143560 0.484534
O O6 0.862887 0.153191 0.288915
O O7 0.000000 0.070040 0.500000
O O8 0.750000 0.750000 0.500000
O O9 0.726805 0.869707 0.594314
O O10 0.963150 0.811808 0.737739
O O11 0.500000 0.920398 0.500000
O O12 0.693418 0.892915 0.774602
O O13 0.706795 0.000000 0.652547
O O14 0.153440 0.731145 0.819187
O O15 0.282946 0.654376 0.032735
#
# Coordination Sequence:
#
# PCOD9210298 Si02
#       6
#     8   8   8   8   8   8
#     4  11  22  38  61  88 120 160 204 250 308 373
#     4  10  21  39  61  89 126 156 207 260 311 364
#     4  11  22  39  64  92 125 167 212 263 316 377
#     4  11  24  42  64  91 127 171 215 260 322 393
#     4  11  22  40  64  90 128 161 208 267 313 381
#     4  10  22  39  62  96 122 161 209 263 322 374
#
# _framework density 19.712952000000001
#
# number of rings (size 3 to 8) (size 9 to 14) (size 15 to 20)
#    0.000    1.333    1.667    4.500    0.000    4.333 
#    0.000    5.000    0.000    0.000    0.000    0.000 
#    0.000    0.000    0.000    0.000    0.000    0.000 
#
# Total GULP energy -133890.268368 kJ/mol
# GULP energy per Si atom -5578.761182 kJ/mol
# Density = 1.966808 g / cm^3
# Si number density = 19.712952 Si / 1000 Ang^3
#
#
#
# Elastic Constant Matrix: (Units=GPa)
#
#
# Indices 1 2 3 4 5 6 
#
# 1 87.2709 153.2345 90.0341 0.0000 20.1520 0.0000
# 2 153.2345 -82.6444 -35.2739 0.0000 -61.9244 0.0000
# 3 90.0341 -35.2739 79.9540 0.0000 -16.0050 0.0000
# 4 0.0000 0.0000 0.0000 -19.6342 0.0000 5.2672
# 5 20.1520 -61.9244 -16.0050 0.0000 28.6120 0.0000
# 6 0.0000 0.0000 0.0000 5.2672 0.0000 23.4731
#
#
#
# Elastic Compliance Matrix: (Units=1/GPa)
#
#
# Indices 1 2 3 4 5 6 
#
# 1 0.004225 0.004390 -0.001707 0.000000 0.005570 0.000000
# 2 0.004390 0.001058 -0.005222 0.000000 -0.003723 0.000000
# 3 -0.001707 -0.005222 0.011378 0.000000 -0.003735 0.000000
# 4 0.000000 0.000000 0.000000 -0.048040 0.000000 0.010780
# 5 0.005570 -0.003723 -0.003735 0.000000 0.020880 0.000000
# 6 0.000000 0.000000 0.000000 0.010780 0.000000 0.040183
#
#
# Mechanical properties :
#
#
# Convention : Reuss Voigt Hill
#
# Bulk Modulus (GPa) = 86.33122 55.61889 70.97506
# Shear Modulus (GPa) = 129.45861 -1.73745 63.86058
#
# Velocity S-wave (km/s) = 8.11261 -0.93983 5.69786
# Velocity P-wave (km/s) = 11.47353 5.20557 8.90898
#
# Compressibility (1/GPa) = 0.01158330
#
# Stress axis : x y z
#
# Youngs Moduli (GPa) = 236.65998 945.40230 87.89230
#
# Poissons Ratio (x) = -4.15002 0.15000
# Poissons Ratio (y) = -1.03886 0.45896
# Poissons Ratio (z) = 0.40389 4.93671
#
# Static dielectric constant tensor:
#      x y z
#    x 1.682150 0.000000 0.041140 
#    y 0.000000 1.646550 0.000000 
#    z 0.041140 0.000000 1.710130 
# 
# From -- ./inp_files/133728.got.cif
#   From: 2010.05.17/outbox.cif.g08.bks.cpg/sg12_67_cif.got.tgz:133728.got - 2010.06.03 13:09:07.
