data_PCOD9210358
_publ_section_title
;
Structure prediction by ZEFSAII (Michael W. Deem and Ramdas Pophale) SiO2 
 PCOD9210358
Probable space group: C 2/M
;
_chemical_formula_sum "Si O2"
_cell_formula_units_Z 32
_cell_length_a 27.977058
_cell_length_b 8.666525
_cell_length_c 9.151764
_cell_angle_alpha 90.000000
_cell_angle_beta 49.059416
_cell_angle_gamma 90.000000
_cell_volume 1676.188279
_symmetry_space_group_name_H-M "C 2/M"
_symmetry_group_IT_number 12
_symmetry_cell_setting 'monoclinic'
loop_
_space_group_symop_operation_xyz
x,y,z
-x,y,-z
-x,-y,-z
x,-y,z
1/2+x,1/2+y,z
1/2-x,1/2+y,-z
1/2-x,1/2-y,-z
1/2+x,1/2-y,z
loop_
_atom_site_type_symbol
_atom_site_label
_atom_site_fract_x
_atom_site_fract_y
_atom_site_fract_z
Si Si1 0.311219 0.186146 0.295562
Si Si2 0.935488 0.815053 0.546493
Si Si3 0.312125 0.814550 0.954681
Si Si4 0.937518 0.313448 0.215676
O O1 0.250000 0.250000 0.500000
O O2 0.374890 0.233742 0.252317
O O3 0.308797 0.000000 0.302886
O O4 0.312615 0.234682 0.123517
O O5 0.874783 0.744729 0.748717
O O6 0.937689 0.757976 0.375762
O O7 0.000000 0.768743 0.500000
O O8 0.930765 0.000000 0.559254
O O9 0.310914 0.000000 0.951842
O O10 0.250000 0.750000 0.000000
O O11 0.937148 0.500000 0.229875
O O12 0.000000 0.269687 0.000000
#
# Coordination Sequence:
#
# PCOD9210358 Si02
#       4
#     8   8   8   8
#     4  10  22  38  58  85 115 149 189 236 288 343
#     4  11  24  40  59  87 121 156 196 242 292 346
#     4  11  23  40  62  88 119 155 196 241 292 349
#     4  10  21  39  62  86 113 150 197 243 290 345
#
# _framework density 19.090933
#
# number of rings (size 3 to 8) (size 9 to 14) (size 15 to 20)
#    0.000    1.500    0.000    4.500    0.000   11.500 
#    0.000    0.000    0.000    0.000    0.000    0.000 
#    0.000    0.000    0.000    0.000    0.000    0.000 
#
# Total GULP energy -89489.995262 kJ/mol
# GULP energy per Si atom -5593.124704 kJ/mol
# Density = 1.904748 g / cm^3
# Si number density = 19.090933 Si / 1000 Ang^3
#
#
#
# Elastic Constant Matrix: (Units=GPa)
#
#
# Indices 1 2 3 4 5 6 
#
# 1 238.8626 56.3034 143.7404 0.0000 0.2459 0.0000
# 2 56.3034 33.8655 53.2648 0.0000 -0.1050 0.0000
# 3 143.7404 53.2648 230.5635 0.0000 -0.4360 0.0000
# 4 0.0000 0.0000 0.0000 35.8818 0.0000 -0.6266
# 5 0.2459 -0.1050 -0.4360 0.0000 46.4688 0.0000
# 6 0.0000 0.0000 0.0000 -0.6266 0.0000 31.9764
#
#
#
# Elastic Compliance Matrix: (Units=1/GPa)
#
#
# Indices 1 2 3 4 5 6 
#
# 1 0.008032 -0.008604 -0.003020 0.000000 -0.000090 0.000000
# 2 -0.008604 0.055599 -0.007480 0.000000 0.000101 0.000000
# 3 -0.003020 -0.007480 0.007948 0.000000 0.000074 0.000000
# 4 0.000000 0.000000 0.000000 0.027879 0.000000 0.000546
# 5 -0.000090 0.000101 0.000074 0.000000 0.021521 0.000000
# 6 0.000000 0.000000 0.000000 0.000546 0.000000 0.031284
#
#
# Mechanical properties :
#
#
# Convention : Reuss Voigt Hill
#
# Bulk Modulus (GPa) = 29.96653 112.21209 71.08931
# Shear Modulus (GPa) = 24.80227 39.53094 32.16660
#
# Velocity S-wave (km/s) = 3.60830 4.55539 4.10922
# Velocity P-wave (km/s) = 5.75244 9.30452 7.73514
#
# Compressibility (1/GPa) = 0.03337057
#
# Stress axis : x y z
#
# Youngs Moduli (GPa) = 124.50232 17.98598 125.81750
#
# Poissons Ratio (x) = 0.15476 0.37994
# Poissons Ratio (y) = 1.07125 0.94112
# Poissons Ratio (z) = 0.37597 0.13454
#
# Static dielectric constant tensor:
#      x y z
#    x 1.640100 0.000000 0.002710 
#    y 0.000000 1.650910 0.000000 
#    z 0.002710 0.000000 1.613470 
# 
# From -- ./inp_files/81652.got.cif
#   From: 2010.05.17/outbox.cif.g08.bks.cpg/sg12_41_cif.got.tgz:81652.got - 2010.06.03 13:09:07.
