data_PCOD9210519
_publ_section_title
;
Structure prediction by ZEFSAII (Michael W. Deem and Ramdas Pophale) SiO2 
 PCOD9210519
Probable space group: C 2/M
;
_chemical_formula_sum "Si O2"
_cell_formula_units_Z 48
_cell_length_a 26.471195
_cell_length_b 14.094627
_cell_length_c 11.170534
_cell_angle_alpha 90.000000
_cell_angle_beta 28.163755
_cell_angle_gamma 90.000000
_cell_volume 1967.146827
_symmetry_space_group_name_H-M "C 2/M"
_symmetry_group_IT_number 12
_symmetry_cell_setting 'monoclinic'
loop_
_space_group_symop_operation_xyz
x,y,z
-x,y,-z
-x,-y,-z
x,-y,z
1/2+x,1/2+y,z
1/2-x,1/2+y,-z
1/2-x,1/2-y,-z
1/2+x,1/2-y,z
loop_
_atom_site_type_symbol
_atom_site_label
_atom_site_fract_x
_atom_site_fract_y
_atom_site_fract_z
Si Si1 0.082230 0.812707 0.514134
Si Si2 0.075203 0.109896 0.956692
Si Si3 0.032914 0.392789 0.057411
Si Si4 0.575639 0.896566 0.486300
Si Si5 0.700589 0.750633 0.819224
Si Si6 0.680897 0.604761 0.072522
O O1 0.999080 0.864398 0.774026
O O2 0.041325 0.712680 0.542162
O O3 0.122891 0.874122 0.317732
O O4 0.183457 0.789235 0.388482
O O5 0.179992 0.175117 0.755391
O O6 0.104836 0.000000 0.892228
O O7 0.000000 0.129210 0.000000
O O8 0.071096 0.500000 0.955978
O O9 0.121803 0.335570 0.945216
O O10 0.928194 0.397591 0.360759
O O11 0.000000 0.349184 0.000000
O O12 0.521140 0.000000 0.574723
O O13 0.690251 0.899832 0.184043
O O14 0.669816 0.690971 0.003153
O O15 0.648349 0.500000 0.095257
#
# Coordination Sequence:
#
# PCOD9210519 Si02
#       6
#     8   8   8   8   8   8
#     4  11  23  42  67  93 132 174 219 272 334 395
#     4  11  25  45  66  96 136 175 221 280 337 395
#     4  10  21  39  62  92 130 171 215 267 327 392
#     4   9  18  36  60  86 123 164 207 265 323 377
#     4  11  22  40  68  97 127 170 221 267 326 397
#     4  10  22  42  64  93 129 170 218 271 329 396
#
# _framework density 24.400822000000002
#
# number of rings (size 3 to 8) (size 9 to 14) (size 15 to 20)
#    0.000    1.667    1.667    3.500    0.000    3.333 
#    6.000    2.500    0.000    5.000    0.000    0.000 
#    0.000    0.000    0.000    0.000    0.000    0.000 
#
# Total GULP energy -133841.814914 kJ/mol
# GULP energy per Si atom -5576.742288 kJ/mol
# Density = 2.434528 g / cm^3
# Si number density = 24.400822 Si / 1000 Ang^3
#
#
#
# Elastic Constant Matrix: (Units=GPa)
#
#
# Indices 1 2 3 4 5 6 
#
# 1 63.6397 -13.8153 -14.3319 0.0000 -10.8663 0.0000
# 2 -13.8153 125.2383 -14.6961 0.0000 -14.2352 0.0000
# 3 -14.3319 -14.6961 25.2396 0.0000 3.4149 0.0000
# 4 0.0000 0.0000 0.0000 14.8468 0.0000 8.9962
# 5 -10.8663 -14.2352 3.4149 0.0000 41.4399 0.0000
# 6 0.0000 0.0000 0.0000 8.9962 0.0000 28.7008
#
#
#
# Elastic Compliance Matrix: (Units=1/GPa)
#
#
# Indices 1 2 3 4 5 6 
#
# 1 0.020789 0.004567 0.013666 0.000000 0.005894 0.000000
# 2 0.004567 0.009851 0.007796 0.000000 0.003939 0.000000
# 3 0.013666 0.007796 0.051649 0.000000 0.002006 0.000000
# 4 0.000000 0.000000 0.000000 0.083146 0.000000 -0.026062
# 5 0.005894 0.003939 0.002006 0.000000 0.026865 0.000000
# 6 0.000000 0.000000 0.000000 -0.026062 0.000000 0.043011
#
#
# Mechanical properties :
#
#
# Convention : Reuss Voigt Hill
#
# Bulk Modulus (GPa) = 7.44338 14.27010 10.85674
# Shear Modulus (GPa) = 21.92654 34.12825 28.02739
#
# Velocity S-wave (km/s) = 3.00091 3.74391 3.39281
# Velocity P-wave (km/s) = 3.88129 4.95480 4.45053
#
# Compressibility (1/GPa) = 0.13434752
#
# Stress axis : x y z
#
# Youngs Moduli (GPa) = 48.10252 101.51099 19.36164
#
# Poissons Ratio (x) = -0.46359 -0.26460
# Poissons Ratio (y) = -0.21968 -0.15095
# Poissons Ratio (z) = -0.65739 -0.79140
#
# Static dielectric constant tensor:
#      x y z
#    x 1.975970 0.000000 -0.056740 
#    y 0.000000 1.972710 0.000000 
#    z -0.056740 0.000000 1.986650 
# 
# From -- ./inp_files/183692.got.cif
#   From: 2010.05.17/outbox.cif.g08.bks.cpg/sg12_92_cif.got.tgz:183692.got - 2010.06.03 13:09:07.
