data_PCOD9210397
_publ_section_title
;
Structure prediction by ZEFSAII (Michael W. Deem and Ramdas Pophale) SiO2 
 PCOD9210397
Probable space group: C 2/M
;
_chemical_formula_sum "Si O2"
_cell_formula_units_Z 56
_cell_length_a 18.864873
_cell_length_b 7.692341
_cell_length_c 28.000329
_cell_angle_alpha 90.000000
_cell_angle_beta 141.828214
_cell_angle_gamma 90.000000
_cell_volume 2511.186811
_symmetry_space_group_name_H-M "C 2/M"
_symmetry_group_IT_number 12
_symmetry_cell_setting 'monoclinic'
loop_
_space_group_symop_operation_xyz
x,y,z
-x,y,-z
-x,-y,-z
x,-y,z
1/2+x,1/2+y,z
1/2-x,1/2+y,-z
1/2-x,1/2-y,-z
1/2+x,1/2-y,z
loop_
_atom_site_type_symbol
_atom_site_label
_atom_site_fract_x
_atom_site_fract_y
_atom_site_fract_z
Si Si1 0.431511 0.291495 0.805726
Si Si2 0.039315 0.300599 0.380190
Si Si3 0.277003 0.707882 0.239680
Si Si4 0.647355 0.707177 0.980595
Si Si5 0.397882 0.786248 0.481659
Si Si6 0.874278 0.701066 0.927191
Si Si7 0.140475 0.794294 0.331824
O O1 0.446835 0.500000 0.813788
O O2 0.306902 0.248813 0.760948
O O3 0.529659 0.225387 0.893812
O O4 0.434040 0.226249 0.752404
O O5 0.076867 0.500000 0.399606
O O6 0.082414 0.225266 0.453405
O O7 0.086124 0.226585 0.355287
O O8 0.901921 0.288821 0.309097
O O9 0.293375 0.500000 0.244646
O O10 0.208518 0.775256 0.156756
O O11 0.638348 0.500000 0.982818
O O12 0.750000 0.750000 0.000000
O O13 0.674935 0.790542 0.046050
O O14 0.500000 0.732140 0.500000
O O15 0.271035 0.727366 0.399306
O O16 0.399920 0.000000 0.483026
O O17 0.892040 0.500000 0.922064
O O18 0.000000 0.783797 0.000000
O O19 0.149669 0.000000 0.328436
#
# Coordination Sequence:
#
# PCOD9210397 Si02
#       7
#     8   8   8   8   8   8   8
#     4  10  22  40  61  86 116 153 198 244 291 350
#     4  11  23  38  59  90 123 154 195 243 290 347
#     4  11  23  39  62  87 116 154 197 244 298 355
#     4  11  24  39  59  87 120 157 198 245 296 350
#     4   9  18  36  63  89 116 155 197 237 287 347
#     4  10  21  40  62  85 114 153 198 246 297 351
#     4  10  21  39  62  87 120 160 197 237 290 347
#
# _framework density 22.300211000000001
#
# number of rings (size 3 to 8) (size 9 to 14) (size 15 to 20)
#    0.000    1.714    1.429    2.571    2.000    4.857 
#    0.000    0.714    0.000    3.000    0.000    0.000 
#    0.000    0.000    0.000    0.000    0.000    0.000 
#
# Total GULP energy -156441.529510 kJ/mol
# GULP energy per Si atom -5587.197482 kJ/mol
# Density = 2.224946 g / cm^3
# Si number density = 22.300211 Si / 1000 Ang^3
#
#
#
# Elastic Constant Matrix: (Units=GPa)
#
#
# Indices 1 2 3 4 5 6 
#
# 1 94.5640 -16.1720 12.5569 0.0000 -17.8193 0.0001
# 2 -16.1720 41.4525 4.6046 0.0001 -5.4376 0.0000
# 3 12.5569 4.6046 87.8710 0.0000 -24.0502 0.0000
# 4 0.0000 0.0001 0.0000 10.1805 0.0000 -0.9962
# 5 -17.8193 -5.4376 -24.0502 0.0000 44.9292 0.0000
# 6 0.0001 0.0000 0.0000 -0.9962 0.0000 27.3504
#
#
#
# Elastic Compliance Matrix: (Units=1/GPa)
#
#
# Indices 1 2 3 4 5 6 
#
# 1 0.012647 0.005709 -0.000638 0.000000 0.005365 0.000000
# 2 0.005709 0.027113 -0.000842 0.000000 0.005095 0.000000
# 3 -0.000638 -0.000842 0.013379 0.000000 0.006806 0.000000
# 4 0.000000 0.000000 0.000000 0.098578 0.000000 0.003591
# 5 0.005365 0.005095 0.006806 0.000000 0.028645 0.000000
# 6 0.000000 0.000000 0.000000 0.003591 0.000000 0.036693
#
#
# Mechanical properties :
#
#
# Convention : Reuss Voigt Hill
#
# Bulk Modulus (GPa) = 16.23498 25.09629 20.66564
# Shear Modulus (GPa) = 21.82170 31.35190 26.58680
#
# Velocity S-wave (km/s) = 3.13156 3.75360 3.45660
# Velocity P-wave (km/s) = 4.51349 5.48309 5.02175
#
# Compressibility (1/GPa) = 0.06159538
#
# Stress axis : x y z
#
# Youngs Moduli (GPa) = 79.07118 36.88274 74.74665
#
# Poissons Ratio (x) = -0.21055 0.04768
# Poissons Ratio (y) = -0.45139 0.06295
# Poissons Ratio (z) = 0.05044 0.03106
#
# Static dielectric constant tensor:
#      x y z
#    x 1.815550 0.000000 -0.001160 
#    y 0.000000 1.843430 0.000000 
#    z -0.001160 0.000000 1.687580 
# 
# From -- ./inp_files/363109.got.cif
#   From: 2010.05.17/outbox.cif.g08.bks.cpg/sg12_182_cif.got.tgz:363109.got - 2010.06.03 13:09:07.
