data_PCOD9210498
_publ_section_title
;
Structure prediction by ZEFSAII (Michael W. Deem and Ramdas Pophale) SiO2 
 PCOD9210498
Probable space group: C 2/M
;
_chemical_formula_sum "Si O2"
_cell_formula_units_Z 48
_cell_length_a 22.650897
_cell_length_b 14.565576
_cell_length_c 10.476825
_cell_angle_alpha 90.000000
_cell_angle_beta 38.221062
_cell_angle_gamma 90.000000
_cell_volume 2138.557511
_symmetry_space_group_name_H-M "C 2/M"
_symmetry_group_IT_number 12
_symmetry_cell_setting 'monoclinic'
loop_
_space_group_symop_operation_xyz
x,y,z
-x,y,-z
-x,-y,-z
x,-y,z
1/2+x,1/2+y,z
1/2-x,1/2+y,-z
1/2-x,1/2-y,-z
1/2+x,1/2-y,z
loop_
_atom_site_type_symbol
_atom_site_label
_atom_site_fract_x
_atom_site_fract_y
_atom_site_fract_z
Si Si1 0.362625 0.000000 0.048153
Si Si2 0.636147 0.190712 0.446671
Si Si3 0.895850 0.183702 0.731564
Si Si4 0.183051 0.812624 0.701272
Si Si5 0.725183 0.500000 0.035185
Si Si6 0.763678 0.000000 0.481087
Si Si7 0.050152 0.295717 0.108094
Si Si8 0.142408 0.500000 0.429174
O O1 0.301741 0.000000 0.020671
O O2 0.289620 0.000000 0.292783
O O3 0.421708 0.096365 0.954813
O O4 0.646767 0.257652 0.311544
O O5 0.741690 0.168298 0.312682
O O6 0.563129 0.222992 0.680569
O O7 0.587745 0.093785 0.492990
O O8 0.837092 0.091987 0.851968
O O9 0.906907 0.249525 0.835669
O O10 0.000000 0.158583 0.500000
O O11 0.250000 0.750000 0.500000
O O12 0.172280 0.909625 0.649125
O O13 0.096092 0.759586 0.912617
O O14 0.774515 0.500000 0.814955
O O15 0.680309 0.000000 0.512010
#
# Coordination Sequence:
#
# PCOD9210498 Si02
#       8
#     4   8   8   8   4   4   8   4
#     4  12  23  37  62  97 124 159 207 260 313 374
#     4  10  22  40  62  92 125 160 205 256 313 370
#     4  10  22  39  60  92 125 161 210 260 305 375
#     4  11  22  40  62  87 125 162 209 254 302 371
#     4  12  23  38  67  90 124 171 212 253 321 366
#     4  10  22  40  59  91 127 160 205 260 304 364
#     4  11  23  40  64  92 125 164 204 256 319 370
#     4  10  21  39  62  91 125 162 202 255 311 385
#
# _framework density 22.445038
#
# number of rings (size 3 to 8) (size 9 to 14) (size 15 to 20)
#    0.000    1.333    1.667    4.750    0.000    2.667 
#    0.000    5.833    0.000    1.000    0.000    0.000 
#    0.000    0.000    0.000    0.000    0.000    0.000 
#
# Total GULP energy -134049.827893 kJ/mol
# GULP energy per Si atom -5585.409496 kJ/mol
# Density = 2.239395 g / cm^3
# Si number density = 22.445038 Si / 1000 Ang^3
#
#
#
# Elastic Constant Matrix: (Units=GPa)
#
#
# Indices 1 2 3 4 5 6 
#
# 1 45.9928 4.6683 15.6039 0.0000 12.9936 0.0000
# 2 4.6683 157.6140 61.5411 0.0000 12.7280 0.0000
# 3 15.6039 61.5411 139.9310 0.0000 27.7178 0.0000
# 4 0.0000 0.0000 0.0000 40.9572 0.0000 9.8730
# 5 12.9936 12.7280 27.7178 0.0000 32.4966 0.0000
# 6 0.0000 0.0000 0.0000 9.8730 0.0000 19.1645
#
#
#
# Elastic Compliance Matrix: (Units=1/GPa)
#
#
# Indices 1 2 3 4 5 6 
#
# 1 0.024644 0.000451 -0.001155 0.000000 -0.009046 0.000000
# 2 0.000451 0.007669 -0.003360 0.000000 -0.000318 0.000000
# 3 -0.001155 -0.003360 0.010109 0.000000 -0.006844 0.000000
# 4 0.000000 0.000000 0.000000 0.027878 0.000000 -0.014362
# 5 -0.009046 -0.000318 -0.006844 0.000000 0.040352 0.000000
# 6 0.000000 0.000000 0.000000 -0.014362 0.000000 0.059579
#
#
# Mechanical properties :
#
#
# Convention : Reuss Voigt Hill
#
# Bulk Modulus (GPa) = 29.15908 56.35160 42.75534
# Shear Modulus (GPa) = 26.34517 35.97195 31.15856
#
# Velocity S-wave (km/s) = 3.42974 4.00768 3.72992
# Velocity P-wave (km/s) = 5.35758 6.82468 6.13514
#
# Compressibility (1/GPa) = 0.03429463
#
# Stress axis : x y z
#
# Youngs Moduli (GPa) = 40.57777 130.39695 98.92537
#
# Poissons Ratio (x) = -0.05887 0.11425
# Poissons Ratio (y) = -0.01832 0.33239
# Poissons Ratio (z) = 0.04686 0.43814
#
# Static dielectric constant tensor:
#      x y z
#    x 1.903820 0.000000 -0.022940 
#    y 0.000000 1.947800 0.000000 
#    z -0.022940 0.000000 1.830090 
# 
# From -- ./inp_files/189406.got.cif
#   From: 2010.05.17/outbox.cif.g08.bks.cpg/sg12_95_cif.got.tgz:189406.got - 2010.06.03 13:09:07.
