data_PCOD9210129
_publ_section_title
;
Structure prediction by ZEFSAII (Michael W. Deem and Ramdas Pophale) SiO2 
 PCOD9210129
Probable space group: C 2/M
;
_chemical_formula_sum "Si O2"
_cell_formula_units_Z 52
_cell_length_a 8.720094
_cell_length_b 18.331642
_cell_length_c 16.326762
_cell_angle_alpha 90.000000
_cell_angle_beta 115.322218
_cell_angle_gamma 90.000000
_cell_volume 2359.125450
_symmetry_space_group_name_H-M "C 2/M"
_symmetry_group_IT_number 12
_symmetry_cell_setting 'monoclinic'
loop_
_space_group_symop_operation_xyz
x,y,z
-x,y,-z
-x,-y,-z
x,-y,z
1/2+x,1/2+y,z
1/2-x,1/2+y,-z
1/2-x,1/2-y,-z
1/2+x,1/2-y,z
loop_
_atom_site_type_symbol
_atom_site_label
_atom_site_fract_x
_atom_site_fract_y
_atom_site_fract_z
Si Si1 0.825149 0.156803 0.790939
Si Si2 0.369639 0.152060 0.404299
Si Si3 0.841231 0.919434 0.092926
Si Si4 0.005316 0.701718 0.816114
Si Si5 0.027387 0.804492 0.410448
Si Si6 0.228733 0.917286 0.729810
Si Si7 0.500000 0.171028 0.000000
O O1 0.723027 0.114389 0.694992
O O2 0.690997 0.190462 0.823426
O O3 0.972227 0.114522 0.872850
O O4 0.918361 0.224111 0.765746
O O5 0.500000 0.116454 0.500000
O O6 0.465543 0.221088 0.384276
O O7 0.218884 0.182720 0.426552
O O8 0.820149 0.923606 0.186288
O O9 0.833506 0.000000 0.054685
O O10 0.674092 0.874957 0.029852
O O11 0.900704 0.629827 0.767639
O O12 0.995116 0.711275 0.912117
O O13 0.910550 0.865514 0.342151
O O14 0.000000 0.816230 0.500000
O O15 0.241808 0.000000 0.699607
#
# Coordination Sequence:
#
# PCOD9210129 Si02
#       7
#     8   8   8   8   8   8   4
#     4  12  23  40  67  93 125 165 206 256 316 361
#     4  11  22  36  60  95 124 161 206 257 304 356
#     4  10  22  42  66  90 123 165 206 252 311 377
#     4  11  24  39  65  93 124 160 209 258 308 374
#     4  11  21  35  60  89 121 161 207 255 307 367
#     4  10  21  39  60  85 122 165 205 253 310 370
#     4  10  23  44  64  94 125 160 206 258 315 362
#
# _framework density 22.042068
#
# number of rings (size 3 to 8) (size 9 to 14) (size 15 to 20)
#    0.000    1.231    3.077    4.846    2.154    4.615 
#    0.000    0.769    0.000    0.923    0.000    0.000 
#    0.000    0.000    0.000    0.000    0.000    0.000 
#
# Total GULP energy -145175.885441 kJ/mol
# GULP energy per Si atom -5583.687902 kJ/mol
# Density = 2.199190 g / cm^3
# Si number density = 22.042068 Si / 1000 Ang^3
#
#
#
# Elastic Constant Matrix: (Units=GPa)
#
#
# Indices 1 2 3 4 5 6 
#
# 1 130.2203 -4.7086 13.7857 0.0000 18.3454 0.0000
# 2 -4.7086 49.8824 15.4901 0.0000 10.3913 0.0000
# 3 13.7857 15.4901 94.7193 0.0000 26.0117 0.0000
# 4 0.0000 0.0000 0.0000 24.9241 0.0000 27.1433
# 5 18.3454 10.3913 26.0117 0.0000 31.2731 0.0000
# 6 0.0000 0.0000 0.0000 27.1433 0.0000 53.6300
#
#
#
# Elastic Compliance Matrix: (Units=1/GPa)
#
#
# Indices 1 2 3 4 5 6 
#
# 1 0.008551 0.001992 -0.000014 0.000000 -0.005666 0.000000
# 2 0.001992 0.022304 -0.002049 0.000000 -0.006875 0.000000
# 3 -0.000014 -0.002049 0.013875 0.000000 -0.010851 0.000000
# 4 0.000000 0.000000 0.000000 0.089395 0.000000 -0.045245
# 5 -0.005666 -0.006875 -0.010851 0.000000 0.046610 0.000000
# 6 0.000000 0.000000 0.000000 -0.045245 0.000000 0.041545
#
#
# Mechanical properties :
#
#
# Convention : Reuss Voigt Hill
#
# Bulk Modulus (GPa) = 22.42852 35.99519 29.21185
# Shear Modulus (GPa) = 21.07168 38.64910 29.86039
#
# Velocity S-wave (km/s) = 3.09524 4.19193 3.68462
# Velocity P-wave (km/s) = 4.79285 6.30836 5.60209
#
# Compressibility (1/GPa) = 0.04458609
#
# Stress axis : x y z
#
# Youngs Moduli (GPa) = 116.94410 44.83551 72.07387
#
# Poissons Ratio (x) = -0.08931 0.00103
# Poissons Ratio (y) = -0.23295 0.14771
# Poissons Ratio (z) = 0.00167 0.09189
#
# Static dielectric constant tensor:
#      x y z
#    x 1.815730 0.000000 0.033690 
#    y 0.000000 1.808210 0.000000 
#    z 0.033690 0.000000 1.913240 
# 
# From -- ./inp_files/257253.got.cif
#   From: 2010.05.17/outbox.cif.g08.bks.cpg/sg12_129_cif.got.tgz:257253.got - 2010.06.03 13:09:07.
