data_PCOD9210696
_publ_section_title
;
Structure prediction by ZEFSAII (Michael W. Deem and Ramdas Pophale) SiO2 
 PCOD9210696
Probable space group: C 2/M
;
_chemical_formula_sum "Si O2"
_cell_formula_units_Z 42
_cell_length_a 21.385515
_cell_length_b 13.141707
_cell_length_c 16.822749
_cell_angle_alpha 90.000000
_cell_angle_beta 24.489745
_cell_angle_gamma 90.000000
_cell_volume 1959.858923
_symmetry_space_group_name_H-M "C 2/M"
_symmetry_group_IT_number 12
_symmetry_cell_setting 'monoclinic'
loop_
_space_group_symop_operation_xyz
x,y,z
-x,y,-z
-x,-y,-z
x,-y,z
1/2+x,1/2+y,z
1/2-x,1/2+y,-z
1/2-x,1/2-y,-z
1/2+x,1/2-y,z
loop_
_atom_site_type_symbol
_atom_site_label
_atom_site_fract_x
_atom_site_fract_y
_atom_site_fract_z
Si Si1 0.355290 0.820382 0.512044
Si Si2 0.485501 0.719189 0.109856
Si Si3 0.601841 0.317008 0.269303
Si Si4 0.500000 0.500000 0.500000
Si Si5 0.713376 0.886240 0.229688
Si Si6 0.409939 0.113821 0.885521
O O1 0.186587 0.809701 0.674446
O O2 0.439568 0.710471 0.420133
O O3 0.335716 0.869304 0.621899
O O4 0.467727 0.880567 0.325370
O O5 0.538232 0.809995 0.105408
O O6 0.500000 0.749082 0.000000
O O7 0.605895 0.628967 0.982529
O O8 0.582005 0.409431 0.352576
O O9 0.646527 0.210547 0.260267
O O10 0.742804 0.350273 0.051785
O O11 0.671677 0.000000 0.251407
O O12 0.401831 0.000000 0.925459
#
# Coordination Sequence:
#
# PCOD9210696 Si02
#       6
#     8   8   8   2   8   8
#     4  11  21  39  60  91 121 161 196 256 307 359
#     4   9  22  40  61  85 119 159 206 252 298 367
#     4  11  23  40  65  90 122 162 209 251 293 363
#     4  12  20  44  66  86 124 164 206 244 308 340
#     4  10  21  39  63  92 121 158 204 248 298 360
#     4  11  23  39  59  87 124 161 199 253 311 364
#
# _framework density 21.430114
#
# number of rings (size 3 to 8) (size 9 to 14) (size 15 to 20)
#    0.000    1.524    2.857    1.714    0.000    6.857 
#    1.714    0.000    2.095    0.000    0.000    0.000 
#    0.000    0.000    0.000    0.000    0.000    0.000 
#
# Total GULP energy -117033.505652 kJ/mol
# GULP energy per Si atom -5573.024079 kJ/mol
# Density = 2.138134 g / cm^3
# Si number density = 21.430114 Si / 1000 Ang^3
#
#
#
# Elastic Constant Matrix: (Units=GPa)
#
#
# Indices 1 2 3 4 5 6 
#
# 1 24.6723 21.1495 12.2167 0.0000 -4.7186 0.0000
# 2 21.1495 159.6672 46.0560 0.0000 -0.9441 0.0000
# 3 12.2167 46.0560 177.3032 0.0000 -23.3990 0.0000
# 4 0.0000 0.0000 0.0000 23.4804 0.0000 -0.7560
# 5 -4.7186 -0.9441 -23.3990 0.0000 29.6942 0.0000
# 6 0.0000 0.0000 0.0000 -0.7560 0.0000 6.0012
#
#
#
# Elastic Compliance Matrix: (Units=1/GPa)
#
#
# Indices 1 2 3 4 5 6 
#
# 1 0.047358 -0.005996 -0.000823 0.000000 0.006686 0.000000
# 2 -0.005996 0.007575 -0.001840 0.000000 -0.002162 0.000000
# 3 -0.000823 -0.001840 0.006863 0.000000 0.005219 0.000000
# 4 0.000000 0.000000 0.000000 0.042762 0.000000 0.005387
# 5 0.006686 -0.002162 0.005219 0.000000 0.038783 0.000000
# 6 0.000000 0.000000 0.000000 0.005387 0.000000 0.167313
#
#
# Mechanical properties :
#
#
# Convention : Reuss Voigt Hill
#
# Bulk Modulus (GPa) = 22.48297 57.83188 40.15742
# Shear Modulus (GPa) = 14.58582 30.64986 22.61784
#
# Velocity S-wave (km/s) = 2.61171 3.78593 3.25225
# Velocity P-wave (km/s) = 4.42818 6.79381 5.73431
#
# Compressibility (1/GPa) = 0.04447811
#
# Stress axis : x y z
#
# Youngs Moduli (GPa) = 21.11597 132.01010 145.69894
#
# Poissons Ratio (x) = 0.79153 0.11994
# Poissons Ratio (y) = 0.12661 0.26807
# Poissons Ratio (z) = 0.01738 0.24288
#
# Static dielectric constant tensor:
#      x y z
#    x 1.830280 0.000000 -0.021280 
#    y 0.000000 1.726750 0.000000 
#    z -0.021280 0.000000 1.823850 
# 
# From -- ./inp_files/327728.got.cif
#   From: 2010.05.17/outbox.cif.g08.bks.cpg/sg12_164_cif.got.tgz:327728.got - 2010.06.03 13:09:07.
