data_PCOD9210189
_publ_section_title
;
Structure prediction by ZEFSAII (Michael W. Deem and Ramdas Pophale) SiO2 
 PCOD9210189
Probable space group: C 2/M
;
_chemical_formula_sum "Si O2"
_cell_formula_units_Z 64
_cell_length_a 30.213512
_cell_length_b 7.724963
_cell_length_c 18.694327
_cell_angle_alpha 90.000000
_cell_angle_beta 139.238091
_cell_angle_gamma 90.000000
_cell_volume 2848.823626
_symmetry_space_group_name_H-M "C 2/M"
_symmetry_group_IT_number 12
_symmetry_cell_setting 'monoclinic'
loop_
_space_group_symop_operation_xyz
x,y,z
-x,y,-z
-x,-y,-z
x,-y,z
1/2+x,1/2+y,z
1/2-x,1/2+y,-z
1/2-x,1/2-y,-z
1/2+x,1/2-y,z
loop_
_atom_site_type_symbol
_atom_site_label
_atom_site_fract_x
_atom_site_fract_y
_atom_site_fract_z
Si Si1 0.708077 0.288253 0.074560
Si Si2 0.571878 0.300392 0.831150
Si Si3 0.566774 0.701208 0.119667
Si Si4 0.074248 0.206129 0.565966
Si Si5 0.711953 0.711899 0.244503
Si Si6 0.148728 0.708861 0.514289
Si Si7 0.931124 0.698585 0.716465
Si Si8 0.150785 0.699300 0.795808
O O1 0.709374 0.500000 0.073412
O O2 0.716226 0.236937 0.166819
O O3 0.773260 0.226976 0.109781
O O4 0.636290 0.233321 0.954886
O O5 0.560094 0.500000 0.836839
O O6 0.503026 0.203721 0.763853
O O7 0.596776 0.292280 0.779933
O O8 0.568877 0.500000 0.099218
O O9 0.639767 0.773652 0.186153
O O10 0.561261 0.710390 0.198244
O O11 0.500000 0.778498 0.000000
O O12 0.094692 0.246179 0.509990
O O13 0.127479 0.290953 0.685230
O O14 0.000000 0.265707 0.500000
O O15 0.077597 0.000000 0.580162
O O16 0.713288 0.500000 0.248431
O O17 0.777678 0.770835 0.369240
O O18 0.150641 0.500000 0.512161
O O19 0.123320 0.773410 0.406213
O O20 0.913137 0.500000 0.710296
O O21 0.151615 0.500000 0.819867
#
# Coordination Sequence:
#
# PCOD9210189 Si02
#       8
#     8   8   8   8   8   8   8   8
#     4   9  18  34  59  86 114 151 196 243 292 351
#     4  11  22  37  58  85 118 156 199 247 296 351
#     4  10  21  39  66  93 118 153 195 240 297 361
#     4  11  23  37  55  82 117 157 202 251 294 342
#     4   9  17  35  62  88 113 150 198 243 290 352
#     4  10  21  39  61  83 114 157 200 243 293 354
#     4  11  24  40  59  87 121 156 196 242 297 352
#     4  11  21  36  58  84 116 155 197 242 298 356
#
# _framework density 22.465413999999999
#
# number of rings (size 3 to 8) (size 9 to 14) (size 15 to 20)
#    0.000    1.750    1.250    3.375    0.000    6.750 
#    0.000    2.500    0.000    0.000    0.000    0.000 
#    0.000    0.000    0.000    0.000    0.000    0.000 
#
# Total GULP energy -178899.864475 kJ/mol
# GULP energy per Si atom -5590.620765 kJ/mol
# Density = 2.241428 g / cm^3
# Si number density = 22.465414 Si / 1000 Ang^3
#
#
#
# Elastic Constant Matrix: (Units=GPa)
#
#
# Indices 1 2 3 4 5 6 
#
# 1 105.3487 -5.2757 26.6375 0.0000 2.8325 0.0000
# 2 -5.2757 42.9721 2.4099 0.0000 6.1062 0.0000
# 3 26.6375 2.4099 96.0915 0.0000 -11.6729 0.0000
# 4 0.0000 0.0000 0.0000 10.0692 0.0000 -4.4943
# 5 2.8325 6.1062 -11.6729 0.0000 32.6962 0.0000
# 6 0.0000 0.0000 0.0000 -4.4943 0.0000 8.4468
#
#
#
# Elastic Compliance Matrix: (Units=1/GPa)
#
#
# Indices 1 2 3 4 5 6 
#
# 1 0.010466 0.001808 -0.003238 0.000000 -0.002400 0.000000
# 2 0.001808 0.024349 -0.001759 0.000000 -0.005332 0.000000
# 3 -0.003238 -0.001759 0.011940 0.000000 0.004872 0.000000
# 4 0.000000 0.000000 0.000000 0.130244 0.000000 0.069298
# 5 -0.002400 -0.005332 0.004872 0.000000 0.033528 0.000000
# 6 0.000000 0.000000 0.000000 0.069298 0.000000 0.155259
#
#
# Mechanical properties :
#
#
# Convention : Reuss Voigt Hill
#
# Bulk Modulus (GPa) = 24.76749 32.43951 28.60350
# Shear Modulus (GPa) = 12.96597 24.95181 18.95889
#
# Velocity S-wave (km/s) = 2.40501 3.33630 2.90817
# Velocity P-wave (km/s) = 4.33137 5.41408 4.90270
#
# Compressibility (1/GPa) = 0.04037552
#
# Stress axis : x y z
#
# Youngs Moduli (GPa) = 95.54623 41.06914 83.74954
#
# Poissons Ratio (x) = -0.07424 0.27120
# Poissons Ratio (y) = -0.17271 0.14736
# Poissons Ratio (z) = 0.30940 0.07226
#
# Static dielectric constant tensor:
#      x y z
#    x 1.793500 0.000000 0.016640 
#    y 0.000000 1.830290 0.000000 
#    z 0.016640 0.000000 1.836730 
# 
# From -- ./inp_files/295826.got.cif
#   From: 2010.05.17/outbox.cif.g08.bks.cpg/sg12_148_cif.got.tgz:295826.got - 2010.06.03 13:09:07.
