data_PCOD9210564
_publ_section_title
;
Structure prediction by ZEFSAII (Michael W. Deem and Ramdas Pophale) SiO2 
 PCOD9210564
Probable space group: C 2/M
;
_chemical_formula_sum "Si O2"
_cell_formula_units_Z 44
_cell_length_a 23.902842
_cell_length_b 14.687556
_cell_length_c 11.961366
_cell_angle_alpha 90.000000
_cell_angle_beta 23.613426
_cell_angle_gamma 90.000000
_cell_volume 1682.098799
_symmetry_space_group_name_H-M "C 2/M"
_symmetry_group_IT_number 12
_symmetry_cell_setting 'monoclinic'
loop_
_space_group_symop_operation_xyz
x,y,z
-x,y,-z
-x,-y,-z
x,-y,z
1/2+x,1/2+y,z
1/2-x,1/2+y,-z
1/2-x,1/2-y,-z
1/2+x,1/2-y,z
loop_
_atom_site_type_symbol
_atom_site_label
_atom_site_fract_x
_atom_site_fract_y
_atom_site_fract_z
Si Si1 0.368913 0.636289 0.654827
Si Si2 0.738517 0.000000 0.055129
Si Si3 0.800293 0.395884 0.378541
Si Si4 0.505401 0.398834 0.819992
Si Si5 0.609715 0.160107 0.398970
Si Si6 0.978656 0.694027 0.874358
O O1 0.500000 0.629365 0.500000
O O2 0.426368 0.603758 0.430124
O O3 0.323485 0.740556 0.732556
O O4 0.256769 0.576909 0.923116
O O5 0.719015 0.079980 0.185659
O O6 0.839208 0.500000 0.336033
O O7 0.634746 0.392258 0.670203
O O8 0.879692 0.326091 0.314055
O O9 0.862793 0.368837 0.143198
O O10 0.441799 0.500000 0.951419
O O11 0.433576 0.300026 0.961281
O O12 0.500000 0.143585 0.500000
O O13 0.521219 0.164027 0.673664
#
# Coordination Sequence:
#
# PCOD9210564 Si02
#       6
#     8   4   8   8   8   8
#     4  10  22  42  59  84 124 162 196 236 296 360
#     4  12  22  36  62  89 118 159 204 233 298 346
#     4  10  22  39  68  84 117 160 198 240 296 363
#     4  10  21  39  63  87 115 159 199 243 289 355
#     4  10  24  38  59  90 126 153 192 252 290 351
#     4  10  21  40  60  91 122 151 199 246 297 339
#
# _framework density 26.157796999999999
#
# number of rings (size 3 to 8) (size 9 to 14) (size 15 to 20)
#    0.000    1.818    0.909    2.727    5.091    0.000 
#    9.818    1.818    0.000    2.182    0.000    0.000 
#    0.000    0.000    0.000    0.000    0.000    0.000 
#
# Total GULP energy -122752.762257 kJ/mol
# GULP energy per Si atom -5579.671012 kJ/mol
# Density = 2.609826 g / cm^3
# Si number density = 26.157797 Si / 1000 Ang^3
#
#
#
# Elastic Constant Matrix: (Units=GPa)
#
#
# Indices 1 2 3 4 5 6 
#
# 1 94.4734 33.3730 23.2901 0.0000 10.8496 0.0000
# 2 33.3730 160.0974 39.1631 0.0000 8.4307 0.0000
# 3 23.2901 39.1631 84.7108 0.0000 21.2111 0.0000
# 4 0.0000 0.0000 0.0000 63.7934 0.0000 24.0601
# 5 10.8496 8.4307 21.2111 0.0000 41.3690 0.0000
# 6 0.0000 0.0000 0.0000 24.0601 0.0000 28.8690
#
#
#
# Elastic Compliance Matrix: (Units=1/GPa)
#
#
# Indices 1 2 3 4 5 6 
#
# 1 0.011946 -0.001919 -0.001963 0.000000 -0.001736 0.000000
# 2 -0.001919 0.007353 -0.003009 0.000000 0.000548 0.000000
# 3 -0.001963 -0.003009 0.015435 0.000000 -0.006786 0.000000
# 4 0.000000 0.000000 0.000000 0.022862 0.000000 -0.019053
# 5 -0.001736 0.000548 -0.006786 0.000000 0.027996 0.000000
# 6 0.000000 0.000000 0.000000 -0.019053 0.000000 0.050519
#
#
# Mechanical properties :
#
#
# Convention : Reuss Voigt Hill
#
# Bulk Modulus (GPa) = 47.72588 58.99267 53.35928
# Shear Modulus (GPa) = 31.87231 43.03664 37.45447
#
# Velocity S-wave (km/s) = 3.49444 4.06059 3.78811
# Velocity P-wave (km/s) = 5.87932 6.67728 6.29097
#
# Compressibility (1/GPa) = 0.02095299
#
# Stress axis : x y z
#
# Youngs Moduli (GPa) = 83.71036 135.99100 64.78847
#
# Poissons Ratio (x) = 0.26092 0.12717
# Poissons Ratio (y) = 0.16061 0.19496
# Poissons Ratio (z) = 0.16430 0.40922
#
# Static dielectric constant tensor:
#      x y z
#    x 2.104080 0.000000 -0.056670 
#    y 0.000000 1.981270 0.000000 
#    z -0.056670 0.000000 2.060680 
# 
# From -- ./inp_files/183377.got.cif
#   From: 2010.05.17/outbox.cif.g08.bks.cpg/sg12_92_cif.got.tgz:183377.got - 2010.06.03 13:09:07.
