data_PCOD9210221
_publ_section_title
;
Structure prediction by ZEFSAII (Michael W. Deem and Ramdas Pophale) SiO2 
 PCOD9210221
Probable space group: C 2/M
;
_chemical_formula_sum "Si O2"
_cell_formula_units_Z 32
_cell_length_a 13.986928
_cell_length_b 11.014043
_cell_length_c 19.491025
_cell_angle_alpha 90.000000
_cell_angle_beta 26.723793
_cell_angle_gamma 90.000000
_cell_volume 1350.258638
_symmetry_space_group_name_H-M "C 2/M"
_symmetry_group_IT_number 12
_symmetry_cell_setting 'monoclinic'
loop_
_space_group_symop_operation_xyz
x,y,z
-x,y,-z
-x,-y,-z
x,-y,z
1/2+x,1/2+y,z
1/2-x,1/2+y,-z
1/2-x,1/2-y,-z
1/2+x,1/2-y,z
loop_
_atom_site_type_symbol
_atom_site_label
_atom_site_fract_x
_atom_site_fract_y
_atom_site_fract_z
Si Si1 0.682755 0.306264 0.663047
Si Si2 0.403596 0.134068 0.910234
Si Si3 0.863826 0.636097 0.690926
Si Si4 0.727026 0.368190 0.163584
O O1 0.609476 0.171595 0.734282
O O2 0.729338 0.366991 0.706740
O O3 0.491667 0.361539 0.741729
O O4 0.899192 0.321110 0.482296
O O5 0.327800 0.000000 0.937249
O O6 0.250000 0.250000 0.000000
O O7 0.413245 0.128634 0.986736
O O8 0.868854 0.500000 0.717017
O O9 0.776213 0.741275 0.795113
O O10 0.714002 0.500000 0.207771
#
# Coordination Sequence:
#
# PCOD9210221 Si02
#       4
#     8   8   8   8
#     4  10  21  39  61  85 119 158 196 243 295 350
#     4   9  20  38  62  89 119 156 198 244 297 354
#     4  11  23  39  61  89 119 158 204 246 292 352
#     4  10  21  39  61  87 119 154 194 247 304 354
#
# _framework density 23.699165000000001
#
# number of rings (size 3 to 8) (size 9 to 14) (size 15 to 20)
#    0.000    2.000    0.000    3.750    0.000    9.000 
#    0.000    6.250    0.000    0.000    0.000    0.000 
#    0.000    0.000    0.000    0.000    0.000    0.000 
#
# Total GULP energy -89274.351360 kJ/mol
# GULP energy per Si atom -5579.646960 kJ/mol
# Density = 2.364522 g / cm^3
# Si number density = 23.699165 Si / 1000 Ang^3
#
#
#
# Elastic Constant Matrix: (Units=GPa)
#
#
# Indices 1 2 3 4 5 6 
#
# 1 57.1562 44.6333 34.9836 -0.0009 -15.5342 0.0019
# 2 44.6333 260.3882 87.3834 -0.0099 5.6066 0.0022
# 3 34.9836 87.3834 68.7901 -0.0110 -10.0052 0.0103
# 4 -0.0009 -0.0099 -0.0110 25.5762 0.0001 -3.9453
# 5 -15.5342 5.6066 -10.0052 0.0001 32.4046 -0.0034
# 6 0.0019 0.0022 0.0103 -3.9453 -0.0034 28.5373
#
#
#
# Elastic Compliance Matrix: (Units=1/GPa)
#
#
# Indices 1 2 3 4 5 6 
#
# 1 0.028133 -0.001295 -0.011170 -0.000004 0.010261 0.000003
# 2 -0.001295 0.007277 -0.009276 -0.000001 -0.004744 0.000002
# 3 -0.011170 -0.009276 0.032934 0.000009 0.006419 -0.000008
# 4 -0.000004 -0.000001 0.000009 0.039951 0.000001 0.005523
# 5 0.010261 -0.004744 0.006419 0.000001 0.038582 0.000002
# 6 0.000003 0.000002 -0.000008 0.005523 0.000002 0.035805
#
#
# Mechanical properties :
#
#
# Convention : Reuss Voigt Hill
#
# Bulk Modulus (GPa) = 40.22009 80.03724 60.12866
# Shear Modulus (GPa) = 21.32647 31.92593 26.62620
#
# Velocity S-wave (km/s) = 3.00306 3.67431 3.35551
# Velocity P-wave (km/s) = 5.38817 7.20043 6.35919
#
# Compressibility (1/GPa) = 0.02486320
#
# Stress axis : x y z
#
# Youngs Moduli (GPa) = 35.54603 137.41214 30.36366
#
# Poissons Ratio (x) = 0.17791 0.33916
# Poissons Ratio (y) = 0.04602 0.28165
# Poissons Ratio (z) = 0.39704 1.27462
#
# Static dielectric constant tensor:
#      x y z
#    x 2.058410 0.000000 -0.045380 
#    y 0.000000 1.875700 0.000000 
#    z -0.045380 0.000000 1.953620 
# 
# From -- ./inp_files/269136.got.cif
#   From: 2010.05.17/outbox.cif.g08.bks.cpg/sg12_135_cif.got.tgz:269136.got - 2010.06.03 13:09:07.
