data_PCOD9210755
_publ_section_title
;
Structure prediction by ZEFSAII (Michael W. Deem and Ramdas Pophale) SiO2 
 PCOD9210755
Probable space group: C 2/M
;
_chemical_formula_sum "Si O2"
_cell_formula_units_Z 56
_cell_length_a 9.738033
_cell_length_b 26.005471
_cell_length_c 11.411445
_cell_angle_alpha 90.000000
_cell_angle_beta 66.624804
_cell_angle_gamma 90.000000
_cell_volume 2652.677787
_symmetry_space_group_name_H-M "C 2/M"
_symmetry_group_IT_number 12
_symmetry_cell_setting 'monoclinic'
loop_
_space_group_symop_operation_xyz
x,y,z
-x,y,-z
-x,-y,-z
x,-y,z
1/2+x,1/2+y,z
1/2-x,1/2+y,-z
1/2-x,1/2-y,-z
1/2+x,1/2-y,z
loop_
_atom_site_type_symbol
_atom_site_label
_atom_site_fract_x
_atom_site_fract_y
_atom_site_fract_z
Si Si1 0.014423 0.104136 0.828423
Si Si2 0.132698 0.061133 0.551330
Si Si3 0.424475 0.197330 0.155359
Si Si4 0.698762 0.060636 0.150980
Si Si5 0.639877 0.713549 0.118015
Si Si6 0.401458 0.101472 0.307977
Si Si7 0.710766 0.942221 0.895775
O O1 0.082910 0.097132 0.675628
O O2 0.153668 0.091385 0.864217
O O3 0.927993 0.157151 0.887597
O O4 0.885345 0.061086 0.868955
O O5 0.281264 0.085905 0.445329
O O6 0.000000 0.061406 0.500000
O O7 0.154593 0.000000 0.576400
O O8 0.495464 0.250864 0.170953
O O9 0.248386 0.203046 0.190241
O O10 0.449749 0.158817 0.254908
O O11 0.500000 0.183922 0.000000
O O12 0.555532 0.071418 0.279098
O O13 0.731649 0.000000 0.137412
O O14 0.640819 0.076731 0.040864
O O15 0.750000 0.750000 0.000000
O O16 0.321146 0.086249 0.212405
O O17 0.662261 0.000000 0.891006
#
# Coordination Sequence:
#
# PCOD9210755 Si02
#       7
#     8   8   8   8   8   8   8
#     4  12  24  42  64  95 133 170 222 279 335 398
#     4  11  22  40  69  95 129 182 230 269 319 400
#     4  10  21  39  63  95 126 167 221 280 341 394
#     4  11  25  38  60  98 139 177 215 276 345 403
#     4  10  23  40  65  95 125 165 217 279 339 400
#     4  12  23  40  65  95 137 179 227 273 328 394
#     4  11  21  38  63  92 130 173 218 270 337 410
#
# _framework density 21.110744
#
# number of rings (size 3 to 8) (size 9 to 14) (size 15 to 20)
#    0.000    1.000    2.857    4.286    4.000    5.143 
#    0.000    2.143    0.000    0.000    0.000    0.000 
#    0.000    0.000    0.000    0.000    0.000    0.000 
#
# Total GULP energy -156120.840007 kJ/mol
# GULP energy per Si atom -5575.744286 kJ/mol
# Density = 2.106269 g / cm^3
# Si number density = 21.110744 Si / 1000 Ang^3
#
#
#
# Elastic Constant Matrix: (Units=GPa)
#
#
# Indices 1 2 3 4 5 6 
#
# 1 93.8618 37.6302 10.6555 0.0000 -11.2558 0.0000
# 2 37.6302 131.0657 23.9753 0.0000 -1.8375 0.0000
# 3 10.6555 23.9753 75.6484 0.0000 -15.7822 0.0000
# 4 0.0000 0.0000 0.0000 1.6374 0.0000 -6.1836
# 5 -11.2558 -1.8375 -15.7822 0.0000 34.2821 0.0000
# 6 0.0000 0.0000 0.0000 -6.1836 0.0000 33.7727
#
#
#
# Elastic Compliance Matrix: (Units=1/GPa)
#
#
# Indices 1 2 3 4 5 6 
#
# 1 0.012550 -0.003585 0.000208 0.000000 0.004024 0.000000
# 2 -0.003585 0.009145 -0.002806 0.000000 -0.001979 0.000000
# 3 0.000208 -0.002806 0.015556 0.000000 0.007079 0.000000
# 4 0.000000 0.000000 0.000000 1.979244 0.000000 0.362390
# 5 0.004024 -0.001979 0.007079 0.000000 0.033644 0.000000
# 6 0.000000 0.000000 0.000000 0.362390 0.000000 0.095962
#
#
# Mechanical properties :
#
#
# Convention : Reuss Voigt Hill
#
# Bulk Modulus (GPa) = 40.18527 49.45531 44.82029
# Shear Modulus (GPa) = 2.30759 29.15946 15.73353
#
# Velocity S-wave (km/s) = 1.04664 3.72057 2.73295
# Velocity P-wave (km/s) = 4.53182 6.47567 5.58890
#
# Compressibility (1/GPa) = 0.02488474
#
# Stress axis : x y z
#
# Youngs Moduli (GPa) = 79.68035 109.35454 64.28396
#
# Poissons Ratio (x) = 0.39202 -0.01337
# Poissons Ratio (y) = 0.28564 0.18038
# Poissons Ratio (z) = -0.01657 0.30685
#
# Static dielectric constant tensor:
#      x y z
#    x 1.779220 0.000000 -0.016220 
#    y 0.000000 1.794680 0.000000 
#    z -0.016220 0.000000 1.855830 
# 
# From -- ./inp_files/124204.got.cif
#   From: 2010.05.17/outbox.cif.g08.bks.cpg/sg12_63_cif.got.tgz:124204.got - 2010.06.03 13:09:07.
