data_PCOD9210201
_publ_section_title
;
Structure prediction by ZEFSAII (Michael W. Deem and Ramdas Pophale) SiO2 
 PCOD9210201
Probable space group: C 2/M
;
_chemical_formula_sum "Si O2"
_cell_formula_units_Z 64
_cell_length_a 18.375596
_cell_length_b 14.082947
_cell_length_c 15.544901
_cell_angle_alpha 90.000000
_cell_angle_beta 58.618401
_cell_angle_gamma 90.000000
_cell_volume 3434.293582
_symmetry_space_group_name_H-M "C 2/M"
_symmetry_group_IT_number 12
_symmetry_cell_setting 'monoclinic'
loop_
_space_group_symop_operation_xyz
x,y,z
-x,y,-z
-x,-y,-z
x,-y,z
1/2+x,1/2+y,z
1/2-x,1/2+y,-z
1/2-x,1/2-y,-z
1/2+x,1/2-y,z
loop_
_atom_site_type_symbol
_atom_site_label
_atom_site_fract_x
_atom_site_fract_y
_atom_site_fract_z
Si Si1 0.449161 0.230382 0.451112
Si Si2 0.718272 0.889331 0.458887
Si Si3 0.260543 0.731326 0.268686
Si Si4 0.324918 0.608993 0.930355
Si Si5 0.606818 0.226877 0.233475
Si Si6 0.905400 0.214565 0.040799
Si Si7 0.679565 0.389698 0.425240
Si Si8 0.619708 0.108327 0.059141
O O1 0.500000 0.186219 0.500000
O O2 0.371559 0.163168 0.471873
O O3 0.517935 0.245387 0.335008
O O4 0.405776 0.327309 0.512071
O O5 0.761415 0.835888 0.351803
O O6 0.773357 0.881870 0.511629
O O7 0.706359 0.000000 0.446495
O O8 0.180883 0.702914 0.256524
O O9 0.346371 0.725752 0.160819
O O10 0.237080 0.835965 0.318986
O O11 0.350332 0.500000 0.901824
O O12 0.362425 0.679702 0.836313
O O13 0.356653 0.647820 0.002625
O O14 0.222603 0.614805 0.989999
O O15 0.596945 0.145098 0.168316
O O16 0.914937 0.316425 0.987994
O O17 0.000000 0.177248 0.000000
O O18 0.665446 0.500000 0.413974
O O19 0.593549 0.000000 0.060916
#
# Coordination Sequence:
#
# PCOD9210201 Si02
#       8
#     8   8   8   8   8   8   8   8
#     4  11  21  37  58  90 117 147 193 250 287 331
#     4  10  23  41  60  84 120 159 193 237 294 353
#     4  11  20  39  61  87 115 156 199 235 294 352
#     4  10  21  39  61  84 117 156 195 239 288 346
#     4  11  20  37  60  90 118 153 197 241 292 341
#     4  11  23  39  61  90 122 152 192 246 290 345
#     4  10  23  41  60  84 120 159 193 237 294 353
#     4  10  21  39  61  84 117 156 195 239 288 346
#
# _framework density 18.635563999999999
#
# number of rings (size 3 to 8) (size 9 to 14) (size 15 to 20)
#    0.000    1.500    5.000    2.250    0.000    8.000 
#    0.000    2.500    0.000    0.000    0.000    0.000 
#    0.000    0.000    0.000    0.000    0.000    0.000 
#
# Total GULP energy -178709.944605 kJ/mol
# GULP energy per Si atom -5584.685769 kJ/mol
# Density = 1.859315 g / cm^3
# Si number density = 18.635564 Si / 1000 Ang^3
#
#
#
# Elastic Constant Matrix: (Units=GPa)
#
#
# Indices 1 2 3 4 5 6 
#
# 1 42.6031 -10.6664 2.6621 0.0000 -1.8066 0.0000
# 2 -10.6664 45.5640 -14.4863 0.0000 -1.2260 0.0000
# 3 2.6621 -14.4863 95.5697 0.0000 -9.7307 0.0000
# 4 0.0000 0.0000 0.0000 5.6526 0.0000 -1.4079
# 5 -1.8066 -1.2260 -9.7307 0.0000 21.7530 0.0000
# 6 0.0000 0.0000 0.0000 -1.4079 0.0000 16.3143
#
#
#
# Elastic Compliance Matrix: (Units=1/GPa)
#
#
# Indices 1 2 3 4 5 6 
#
# 1 0.025081 0.006100 0.000496 0.000000 0.002649 0.000000
# 2 0.006100 0.024730 0.003952 0.000000 0.003668 0.000000
# 3 0.000496 0.003952 0.011604 0.000000 0.005455 0.000000
# 4 0.000000 0.000000 0.000000 0.180796 0.000000 0.015603
# 5 0.002649 0.003668 0.005455 0.000000 0.048837 0.000000
# 6 0.000000 0.000000 0.000000 0.015603 0.000000 0.062642
#
#
# Mechanical properties :
#
#
# Convention : Reuss Voigt Hill
#
# Bulk Modulus (GPa) = 12.11942 15.41728 13.76835
# Shear Modulus (GPa) = 13.88507 22.49249 18.18878
#
# Velocity S-wave (km/s) = 2.73258 3.47791 3.12753
# Velocity P-wave (km/s) = 4.05876 4.94154 4.52174
#
# Compressibility (1/GPa) = 0.08251220
#
# Stress axis : x y z
#
# Youngs Moduli (GPa) = 39.87060 40.43602 86.17555
#
# Poissons Ratio (x) = -0.24667 -0.04272
# Poissons Ratio (y) = -0.24322 -0.34058
# Poissons Ratio (z) = -0.01976 -0.15981
#
# Static dielectric constant tensor:
#      x y z
#    x 1.634120 0.000000 0.012370 
#    y 0.000000 1.642870 0.000000 
#    z 0.012370 0.000000 1.629990 
# 
# From -- ./inp_files/225292.got.cif
#   From: 2010.05.17/outbox.cif.g08.bks.cpg/sg12_113_cif.got.tgz:225292.got - 2010.06.03 13:09:07.
