data_PCOD9210916
_publ_section_title
;
Structure prediction by ZEFSAII (Michael W. Deem and Ramdas Pophale) SiO2 
 PCOD9210916
Probable space group: C 2/M
;
_chemical_formula_sum "Si O2"
_cell_formula_units_Z 56
_cell_length_a 20.263021
_cell_length_b 8.838833
_cell_length_c 16.588767
_cell_angle_alpha 90.000000
_cell_angle_beta 91.828836
_cell_angle_gamma 90.000000
_cell_volume 2969.558978
_symmetry_space_group_name_H-M "C 2/M"
_symmetry_group_IT_number 12
_symmetry_cell_setting 'monoclinic'
loop_
_space_group_symop_operation_xyz
x,y,z
-x,y,-z
-x,-y,-z
x,-y,z
1/2+x,1/2+y,z
1/2-x,1/2+y,-z
1/2-x,1/2-y,-z
1/2+x,1/2-y,z
loop_
_atom_site_type_symbol
_atom_site_label
_atom_site_fract_x
_atom_site_fract_y
_atom_site_fract_z
Si Si1 0.739885 0.320103 0.243145
Si Si2 0.624993 0.320845 0.690280
Si Si3 0.984873 0.821534 0.760128
Si Si4 0.295178 0.819223 0.932041
Si Si5 0.447777 0.819293 0.928397
Si Si6 0.872345 0.679848 0.650076
Si Si7 0.576301 0.818358 0.521772
O O1 0.736835 0.500000 0.235888
O O2 0.811563 0.266900 0.275250
O O3 0.723298 0.246862 0.156044
O O4 0.686353 0.263565 0.306154
O O5 0.638930 0.500000 0.689632
O O6 0.561558 0.293869 0.744551
O O7 0.603715 0.265358 0.600886
O O8 0.965265 0.769489 0.848242
O O9 0.939950 0.728903 0.696221
O O10 0.971864 0.000000 0.748806
O O11 0.372544 0.785903 0.950319
O O12 0.286938 0.000000 0.930049
O O13 0.250000 0.750000 0.000000
O O14 0.451746 0.000000 0.912136
O O15 0.500000 0.783018 0.000000
O O16 0.863343 0.500000 0.658369
O O17 0.880738 0.715589 0.556092
O O18 0.500000 0.777190 0.500000
O O19 0.577726 0.000000 0.535417
#
# Coordination Sequence:
#
# PCOD9210916 Si02
#       7
#     8   8   8   8   8   8   8
#     4  12  26  44  66  92 127 170 216 262 317 381
#     4  11  25  42  63  95 131 167 213 266 317 375
#     4  11  23  39  63  95 127 165 211 258 313 373
#     4  11  24  43  66  94 130 169 209 259 316 375
#     4  10  23  42  65  94 126 165 211 256 310 372
#     4  11  22  40  67  93 126 168 210 260 315 378
#     4  10  21  39  64  95 127 166 213 260 317 379
#
# _framework density 18.858018999999999
#
# number of rings (size 3 to 8) (size 9 to 14) (size 15 to 20)
#    0.000    1.143    2.857    3.000    2.000    4.571 
#    0.000    0.000    0.000    0.000    0.000    0.000 
#    0.000    0.000    0.000    0.000    0.000    0.000 
#
# Total GULP energy -156601.582625 kJ/mol
# GULP energy per Si atom -5592.913665 kJ/mol
# Density = 1.881510 g / cm^3
# Si number density = 18.858019 Si / 1000 Ang^3
#
#
#
# Elastic Constant Matrix: (Units=GPa)
#
#
# Indices 1 2 3 4 5 6 
#
# 1 134.3311 71.4493 70.7257 0.0000 -6.1178 0.0000
# 2 71.4493 82.2573 57.5866 0.0000 -12.8113 0.0000
# 3 70.7257 57.5866 104.6907 0.0000 -17.5679 0.0000
# 4 0.0000 0.0000 0.0000 32.5841 0.0000 -2.0690
# 5 -6.1178 -12.8113 -17.5679 0.0000 35.2361 0.0000
# 6 0.0000 0.0000 0.0000 -2.0690 0.0000 31.5296
#
#
#
# Elastic Compliance Matrix: (Units=1/GPa)
#
#
# Indices 1 2 3 4 5 6 
#
# 1 0.015692 -0.010334 -0.005555 0.000000 -0.003802 0.000000
# 2 -0.010334 0.026696 -0.006958 0.000000 0.004443 0.000000
# 3 -0.005555 -0.006958 0.018056 0.000000 0.005508 0.000000
# 4 0.000000 0.000000 0.000000 0.030818 0.000000 0.002022
# 5 -0.003802 0.004443 0.005508 0.000000 0.032082 0.000000
# 6 0.000000 0.000000 0.000000 0.002022 0.000000 0.031849
#
#
# Mechanical properties :
#
#
# Convention : Reuss Voigt Hill
#
# Bulk Modulus (GPa) = 67.78990 80.08916 73.93953
# Shear Modulus (GPa) = 24.29506 27.97110 26.13308
#
# Velocity S-wave (km/s) = 3.59320 3.85547 3.72665
# Velocity P-wave (km/s) = 7.29660 7.89818 7.60334
#
# Compressibility (1/GPa) = 0.01475146
#
# Stress axis : x y z
#
# Youngs Moduli (GPa) = 63.72582 37.45910 55.38219
#
# Poissons Ratio (x) = 0.38709 0.30765
# Poissons Ratio (y) = 0.65852 0.38534
# Poissons Ratio (z) = 0.35400 0.26063
#
# Static dielectric constant tensor:
#      x y z
#    x 1.640440 0.000000 -0.011210 
#    y 0.000000 1.631350 0.000000 
#    z -0.011210 0.000000 1.621710 
# 
# From -- ./inp_files/230974.got.cif
#   From: 2010.05.17/outbox.cif.g08.bks.cpg/sg12_116_cif.got.tgz:230974.got - 2010.06.03 13:09:07.
