data_PCOD9210926
_publ_section_title
;
Structure prediction by ZEFSAII (Michael W. Deem and Ramdas Pophale) SiO2 
 PCOD9210926
Probable space group: C 2/M
;
_chemical_formula_sum "Si O2"
_cell_formula_units_Z 44
_cell_length_a 15.129227
_cell_length_b 9.458247
_cell_length_c 13.725128
_cell_angle_alpha 90.000000
_cell_angle_beta 87.199194
_cell_angle_gamma 90.000000
_cell_volume 1961.664339
_symmetry_space_group_name_H-M "C 2/M"
_symmetry_group_IT_number 12
_symmetry_cell_setting 'monoclinic'
loop_
_space_group_symop_operation_xyz
x,y,z
-x,y,-z
-x,-y,-z
x,-y,z
1/2+x,1/2+y,z
1/2-x,1/2+y,-z
1/2-x,1/2-y,-z
1/2+x,1/2-y,z
loop_
_atom_site_type_symbol
_atom_site_label
_atom_site_fract_x
_atom_site_fract_y
_atom_site_fract_z
Si Si1 0.847604 0.789317 0.913427
Si Si2 0.223954 0.667850 0.403999
Si Si3 0.462970 0.340250 0.189295
Si Si4 0.050780 0.839443 0.394508
Si Si5 0.693938 0.159077 0.768666
Si Si6 0.744184 0.000000 0.046341
O O1 0.779371 0.842338 0.833234
O O2 0.827882 0.624804 0.925112
O O3 0.947237 0.822092 0.876393
O O4 0.815452 0.877104 0.007933
O O5 0.230535 0.500000 0.413245
O O6 0.250000 0.750000 0.500000
O O7 0.125681 0.721205 0.384248
O O8 0.286042 0.727521 0.315865
O O9 0.427045 0.500000 0.177614
O O10 0.490215 0.328555 0.302356
O O11 0.392368 0.218009 0.172870
O O12 0.000000 0.825428 0.500000
O O13 0.089909 0.000000 0.391038
O O14 0.679802 0.000000 0.732141
#
# Coordination Sequence:
#
# PCOD9210926 Si02
#       6
#     8   8   8   8   8   4
#     4  11  23  47  71 100 137 180 225 282 352 406
#     4  12  25  41  65  97 137 182 230 280 331 394
#     4  11  23  41  67  99 137 182 226 275 342 407
#     4  10  21  39  64  95 136 179 224 276 332 394
#     4  12  25  43  69 101 137 180 228 279 339 405
#     4  10  24  44  76  98 134 178 226 286 348 418
#
# _framework density 22.429932999999998
#
# number of rings (size 3 to 8) (size 9 to 14) (size 15 to 20)
#    0.000    0.909    3.636    3.273    3.818    2.545 
#    0.000    5.455    0.000    0.000    0.000    0.000 
#    0.000    0.000    0.000    0.000    0.000    0.000 
#
# Total GULP energy -122634.097336 kJ/mol
# GULP energy per Si atom -5574.277152 kJ/mol
# Density = 2.237888 g / cm^3
# Si number density = 22.429933 Si / 1000 Ang^3
#
#
#
# Elastic Constant Matrix: (Units=GPa)
#
#
# Indices 1 2 3 4 5 6 
#
# 1 76.8149 38.7585 14.7338 0.0000 -16.0461 0.0000
# 2 38.7585 231.3935 23.1284 0.0000 -8.1869 0.0000
# 3 14.7338 23.1284 52.6552 0.0000 1.3818 0.0000
# 4 0.0000 0.0000 0.0000 16.1190 0.0000 8.8142
# 5 -16.0461 -8.1869 1.3818 0.0000 35.8891 0.0000
# 6 0.0000 0.0000 0.0000 8.8142 0.0000 29.1230
#
#
#
# Elastic Compliance Matrix: (Units=1/GPa)
#
#
# Indices 1 2 3 4 5 6 
#
# 1 0.016256 -0.002097 -0.003810 0.000000 0.006936 0.000000
# 2 -0.002097 0.004835 -0.001543 0.000000 0.000225 0.000000
# 3 -0.003810 -0.001543 0.020810 0.000000 -0.002857 0.000000
# 4 0.000000 0.000000 0.000000 0.074342 0.000000 -0.022500
# 5 0.006936 0.000225 -0.002857 0.000000 0.031126 0.000000
# 6 0.000000 0.000000 0.000000 -0.022500 0.000000 0.041147
#
#
# Mechanical properties :
#
#
# Convention : Reuss Voigt Hill
#
# Bulk Modulus (GPa) = 37.03374 57.12277 47.07825
# Shear Modulus (GPa) = 23.53873 35.17573 29.35723
#
# Velocity S-wave (km/s) = 3.24301 3.96441 3.62172
# Velocity P-wave (km/s) = 5.52897 6.81747 6.20675
#
# Compressibility (1/GPa) = 0.02700241
#
# Stress axis : x y z
#
# Youngs Moduli (GPa) = 61.51594 206.82447 48.05331
#
# Poissons Ratio (x) = 0.43364 0.18307
# Poissons Ratio (y) = 0.12898 0.07414
# Poissons Ratio (z) = 0.23436 0.31912
#
# Static dielectric constant tensor:
#      x y z
#    x 1.874540 0.000000 0.060750 
#    y 0.000000 1.782300 0.000000 
#    z 0.060750 0.000000 1.950680 
# 
# From -- ./inp_files/221167.got.cif
#   From: 2010.05.17/outbox.cif.g08.bks.cpg/sg12_111_cif.got.tgz:221167.got - 2010.06.03 13:09:07.
