data_PCOD9210325
_publ_section_title
;
Structure prediction by ZEFSAII (Michael W. Deem and Ramdas Pophale) SiO2 
 PCOD9210325
Probable space group: C 2/M
;
_chemical_formula_sum "Si O2"
_cell_formula_units_Z 52
_cell_length_a 21.637646
_cell_length_b 21.328802
_cell_length_c 5.548045
_cell_angle_alpha 90.000000
_cell_angle_beta 75.199890
_cell_angle_gamma 90.000000
_cell_volume 2475.502541
_symmetry_space_group_name_H-M "C 2/M"
_symmetry_group_IT_number 12
_symmetry_cell_setting 'monoclinic'
loop_
_space_group_symop_operation_xyz
x,y,z
-x,y,-z
-x,-y,-z
x,-y,z
1/2+x,1/2+y,z
1/2-x,1/2+y,-z
1/2-x,1/2-y,-z
1/2+x,1/2-y,z
loop_
_atom_site_type_symbol
_atom_site_label
_atom_site_fract_x
_atom_site_fract_y
_atom_site_fract_z
Si Si1 0.648536 0.136549 0.742455
Si Si2 0.059415 0.433056 0.122998
Si Si3 0.458769 0.500000 0.790952
Si Si4 0.433502 0.189045 0.557763
Si Si5 0.772471 0.072411 0.494658
Si Si6 0.673832 0.253352 0.053877
Si Si7 0.153143 0.101227 0.073140
O O1 0.584766 0.154520 0.666359
O O2 0.709954 0.115840 0.531407
O O3 0.627571 0.077621 0.924486
O O4 0.662506 0.200255 0.867228
O O5 0.060796 0.500000 0.256124
O O6 0.055603 0.369302 0.275350
O O7 0.000000 0.436276 0.000000
O O8 0.500000 0.500000 0.500000
O O9 0.411976 0.561026 0.838488
O O10 0.500000 0.500000 0.000000
O O11 0.500000 0.226193 0.500000
O O12 0.371050 0.228880 0.684924
O O13 0.808721 0.091479 0.709482
O O14 0.754603 0.000000 0.540068
O O15 0.812396 0.077872 0.206873
O O16 0.650192 0.323920 0.033862
O O17 0.750000 0.250000 0.000000
#
# Coordination Sequence:
#
# PCOD9210325 Si02
#       7
#     8   8   4   8   8   8   8
#     4  11  24  41  68  97 140 189 234 286 354 436
#     4  10  21  39  61  92 136 182 234 283 338 408
#     4  12  26  52  80 108 144 192 250 308 380 450
#     4  11  24  43  64  94 139 183 234 295 354 430
#     4  12  24  44  73 105 146 185 235 293 370 424
#     4  11  25  45  70 102 138 183 240 300 371 448
#     4  12  26  48  74 106 146 185 233 311 369 438
#
# _framework density 21.005834
#
# number of rings (size 3 to 8) (size 9 to 14) (size 15 to 20)
#    0.000    0.769    4.615    2.308    4.308    3.385 
#    2.769    0.000    0.000    0.000    0.000    0.000 
#    0.000    0.000    0.000    0.000    0.000    0.000 
#
# Total GULP energy -144911.992744 kJ/mol
# GULP energy per Si atom -5573.538182 kJ/mol
# Density = 2.095802 g / cm^3
# Si number density = 21.005834 Si / 1000 Ang^3
#
#
#
# Elastic Constant Matrix: (Units=GPa)
#
#
# Indices 1 2 3 4 5 6 
#
# 1 130.7030 37.5065 45.4678 0.0000 -15.5492 0.0000
# 2 37.5065 147.5676 20.3868 0.0000 -13.3109 0.0000
# 3 45.4678 20.3868 98.9792 0.0000 -19.2316 0.0000
# 4 0.0000 0.0000 0.0000 6.6605 0.0000 -10.3294
# 5 -15.5492 -13.3109 -19.2316 0.0000 43.0275 0.0000
# 6 0.0000 0.0000 0.0000 -10.3294 0.0000 37.5240
#
#
#
# Elastic Compliance Matrix: (Units=1/GPa)
#
#
# Indices 1 2 3 4 5 6 
#
# 1 0.009645 -0.001814 -0.003821 0.000000 0.001217 0.000000
# 2 -0.001814 0.007426 -0.000413 0.000000 0.001457 0.000000
# 3 -0.003821 -0.000413 0.012758 0.000000 0.004194 0.000000
# 4 0.000000 0.000000 0.000000 0.261982 0.000000 0.072117
# 5 0.001217 0.001457 0.004194 0.000000 0.026006 0.000000
# 6 0.000000 0.000000 0.000000 0.072117 0.000000 0.046502
#
#
# Mechanical properties :
#
#
# Convention : Reuss Voigt Hill
#
# Bulk Modulus (GPa) = 56.38880 64.88576 60.63728
# Shear Modulus (GPa) = 13.07782 35.70164 24.38973
#
# Velocity S-wave (km/s) = 2.49786 4.12710 3.41118
# Velocity P-wave (km/s) = 5.93479 7.32578 6.66666
#
# Compressibility (1/GPa) = 0.01773402
#
# Stress axis : x y z
#
# Youngs Moduli (GPa) = 103.67720 134.66004 78.38085
#
# Poissons Ratio (x) = 0.24426 0.29947
# Poissons Ratio (y) = 0.18806 0.03239
# Poissons Ratio (z) = 0.39612 0.05564
#
# Static dielectric constant tensor:
#      x y z
#    x 1.780170 0.000000 -0.015580 
#    y 0.000000 1.619110 0.000000 
#    z -0.015580 0.000000 1.867820 
# 
# From -- ./inp_files/21189.got.cif
#   From: 2010.05.17/outbox.cif.g08.bks.cpg/sg12_11_cif.got.tgz:21189.got - 2010.06.03 13:09:07.
