data_PCOD9210033
_publ_section_title
;
Structure prediction by ZEFSAII (Michael W. Deem and Ramdas Pophale) SiO2 
 PCOD9210033
Probable space group: C 2/M
;
_chemical_formula_sum "Si O2"
_cell_formula_units_Z 56
_cell_length_a 9.178914
_cell_length_b 27.148007
_cell_length_c 15.139397
_cell_angle_alpha 90.000000
_cell_angle_beta 134.521232
_cell_angle_gamma 90.000000
_cell_volume 2689.810441
_symmetry_space_group_name_H-M "C 2/M"
_symmetry_group_IT_number 12
_symmetry_cell_setting 'monoclinic'
loop_
_space_group_symop_operation_xyz
x,y,z
-x,y,-z
-x,-y,-z
x,-y,z
1/2+x,1/2+y,z
1/2-x,1/2+y,-z
1/2-x,1/2-y,-z
1/2+x,1/2-y,z
loop_
_atom_site_type_symbol
_atom_site_label
_atom_site_fract_x
_atom_site_fract_y
_atom_site_fract_z
Si Si1 0.825683 0.639406 0.499168
Si Si2 0.303794 0.663712 0.975134
Si Si3 0.858754 0.157214 0.271408
Si Si4 0.750191 0.056908 0.390151
Si Si5 0.770089 0.788921 0.396992
Si Si6 0.089099 0.238824 0.822534
Si Si7 0.467777 0.083844 0.890006
O O1 0.591947 0.640482 0.362739
O O2 0.841407 0.594115 0.575500
O O3 0.829403 0.690085 0.556895
O O4 0.000000 0.636694 0.500000
O O5 0.168562 0.705916 0.869245
O O6 0.162779 0.617064 0.941217
O O7 0.500000 0.649480 0.000000
O O8 0.381766 0.698953 0.088192
O O9 0.793381 0.162479 0.344964
O O10 0.807321 0.211622 0.214742
O O11 0.708274 0.122037 0.157337
O O12 0.638591 0.061130 0.244897
O O13 0.000000 0.064706 0.500000
O O14 0.719831 0.000000 0.404395
O O15 0.641255 0.745309 0.303129
O O16 0.000000 0.772312 0.500000
O O17 0.500000 0.057210 0.000000
#
# Coordination Sequence:
#
# PCOD9210033 Si02
#       7
#     8   8   8   8   8   8   8
#     4  11  23  40  65  97 134 169 212 267 337 394
#     4  11  24  36  58  88 124 177 230 273 317 373
#     4  11  21  38  61  88 126 178 220 269 318 377
#     4  11  23  46  79 104 127 161 208 266 335 416
#     4  10  21  39  59  83 128 178 225 277 320 375
#     4  11  22  35  57  85 127 174 240 276 314 360
#     4  12  23  45  68  95 133 174 214 273 327 386
#
# _framework density 20.819313000000001
#
# number of rings (size 3 to 8) (size 9 to 14) (size 15 to 20)
#    0.000    1.000    5.714    1.286    2.000    6.857 
#    0.000    0.000    0.000    0.429    0.000    0.000 
#    0.000    0.000    0.000    0.000    0.000    0.000 
#
# Total GULP energy -155957.949886 kJ/mol
# GULP energy per Si atom -5569.926782 kJ/mol
# Density = 2.077193 g / cm^3
# Si number density = 20.819313 Si / 1000 Ang^3
#
#
#
# Elastic Constant Matrix: (Units=GPa)
#
#
# Indices 1 2 3 4 5 6 
#
# 1 139.0158 39.5936 45.3850 0.0000 -12.7050 0.0000
# 2 39.5936 79.3402 29.9123 0.0000 -2.4961 0.0000
# 3 45.3850 29.9123 103.3770 0.0000 0.3430 0.0000
# 4 0.0000 0.0000 0.0000 16.8364 0.0000 -0.7050
# 5 -12.7050 -2.4961 0.3430 0.0000 24.0266 0.0000
# 6 0.0000 0.0000 0.0000 -0.7050 0.0000 16.0830
#
#
#
# Elastic Compliance Matrix: (Units=1/GPa)
#
#
# Indices 1 2 3 4 5 6 
#
# 1 0.009682 -0.003448 -0.003269 0.000000 0.004808 0.000000
# 2 -0.003448 0.015432 -0.002951 0.000000 -0.000178 0.000000
# 3 -0.003269 -0.002951 0.011970 0.000000 -0.002206 0.000000
# 4 0.000000 0.000000 0.000000 0.059504 0.000000 0.002608
# 5 0.004808 -0.000178 -0.002206 0.000000 0.044176 0.000000
# 6 0.000000 0.000000 0.000000 0.002608 0.000000 0.062292
#
#
# Mechanical properties :
#
#
# Convention : Reuss Voigt Hill
#
# Bulk Modulus (GPa) = 56.34513 61.27942 58.81227
# Shear Modulus (GPa) = 21.90033 25.17866 23.53950
#
# Velocity S-wave (km/s) = 3.24686 3.48140 3.36617
# Velocity P-wave (km/s) = 6.41707 6.75707 6.58926
#
# Compressibility (1/GPa) = 0.01774776
#
# Stress axis : x y z
#
# Youngs Moduli (GPa) = 103.28292 64.80236 83.54482
#
# Poissons Ratio (x) = 0.22344 0.27310
# Poissons Ratio (y) = 0.35612 0.24652
# Poissons Ratio (z) = 0.33763 0.19122
#
# Static dielectric constant tensor:
#      x y z
#    x 1.776390 0.000000 -0.089190 
#    y 0.000000 1.788500 0.000000 
#    z -0.089190 0.000000 1.916630 
# 
# From -- ./inp_files/201001.got.cif
#   From: 2010.05.17/outbox.cif.g08.bks.cpg/sg12_101_cif.got.tgz:201001.got - 2010.06.03 13:09:07.
