data_PCOD9210209
_publ_section_title
;
Structure prediction by ZEFSAII (Michael W. Deem and Ramdas Pophale) SiO2 
 PCOD9210209
Probable space group: C 2/M
;
_chemical_formula_sum "Si O2"
_cell_formula_units_Z 56
_cell_length_a 19.349861
_cell_length_b 8.764700
_cell_length_c 20.527082
_cell_angle_alpha 90.000000
_cell_angle_beta 62.386925
_cell_angle_gamma 90.000000
_cell_volume 3084.777155
_symmetry_space_group_name_H-M "C 2/M"
_symmetry_group_IT_number 12
_symmetry_cell_setting 'monoclinic'
loop_
_space_group_symop_operation_xyz
x,y,z
-x,y,-z
-x,-y,-z
x,-y,z
1/2+x,1/2+y,z
1/2-x,1/2+y,-z
1/2-x,1/2-y,-z
1/2+x,1/2-y,z
loop_
_atom_site_type_symbol
_atom_site_label
_atom_site_fract_x
_atom_site_fract_y
_atom_site_fract_z
Si Si1 0.926981 0.319960 0.801324
Si Si2 0.269630 0.819189 0.788824
Si Si3 0.141463 0.182147 0.371569
Si Si4 0.826604 0.683001 0.500282
Si Si5 0.114505 0.317690 0.917895
Si Si6 0.457091 0.681199 0.927092
Si Si7 0.992559 0.316557 0.366792
O O1 0.937907 0.500000 0.811014
O O2 0.841246 0.299913 0.808002
O O3 0.938338 0.225542 0.861544
O O4 0.985970 0.276842 0.717061
O O5 0.298962 0.746325 0.708612
O O6 0.192972 0.740438 0.850138
O O7 0.256977 0.000000 0.785655
O O8 0.161834 0.249894 0.432819
O O9 0.055874 0.237335 0.385677
O O10 0.144291 0.000000 0.371783
O O11 0.820787 0.500000 0.506282
O O12 0.750000 0.750000 0.500000
O O13 0.904857 0.720878 0.425340
O O14 0.111194 0.500000 0.920671
O O15 0.040114 0.252735 0.911268
O O16 0.104676 0.252326 0.995179
O O17 0.459623 0.500000 0.934658
O O18 0.003890 0.500000 0.368040
#
# Coordination Sequence:
#
# PCOD9210209 Si02
#       7
#     8   8   8   8   8   8   8
#     4   9  19  37  59  83 111 144 186 235 284 332
#     4  10  21  39  61  85 114 147 186 232 280 333
#     4  11  22  37  59  86 115 148 187 230 280 339
#     4  11  23  39  58  83 116 151 191 237 285 334
#     4  11  22  38  59  82 112 149 190 234 282 335
#     4  11  22  37  57  82 114 151 191 231 278 337
#     4   9  20  39  61  82 110 150 190 231 280 334
#
# _framework density 18.153659999999999
#
# number of rings (size 3 to 8) (size 9 to 14) (size 15 to 20)
#    0.000    1.714    0.000    6.857    0.000    7.429 
#    0.000    4.286    0.000    0.000    0.000    0.000 
#    0.000    0.000    0.000    0.000    0.000    0.000 
#
# Total GULP energy -156480.472954 kJ/mol
# GULP energy per Si atom -5588.588320 kJ/mol
# Density = 1.811234 g / cm^3
# Si number density = 18.153660 Si / 1000 Ang^3
#
#
#
# Elastic Constant Matrix: (Units=GPa)
#
#
# Indices 1 2 3 4 5 6 
#
# 1 193.4360 167.5465 241.3231 0.0000 58.4408 0.0000
# 2 167.5465 225.0211 220.5169 0.0000 58.0413 -0.0001
# 3 241.3231 220.5169 346.9934 0.0000 87.3693 0.0001
# 4 0.0000 0.0000 0.0000 28.3831 0.0000 1.9809
# 5 58.4408 58.0413 87.3693 0.0000 83.1687 0.0001
# 6 0.0000 -0.0001 0.0001 1.9809 0.0001 32.7890
#
#
#
# Elastic Compliance Matrix: (Units=1/GPa)
#
#
# Indices 1 2 3 4 5 6 
#
# 1 0.043271 -0.007288 -0.025951 0.000000 0.001942 0.000000
# 2 -0.007288 0.013023 -0.003003 0.000000 -0.000813 0.000000
# 3 -0.025951 -0.003003 0.024092 0.000000 -0.004978 0.000000
# 4 0.000000 0.000000 0.000000 0.035381 0.000000 -0.002138
# 5 0.001942 -0.000813 -0.004978 0.000000 0.016455 0.000000
# 6 0.000000 0.000000 0.000000 -0.002138 0.000000 0.030627
#
#
# Mechanical properties :
#
#
# Convention : Reuss Voigt Hill
#
# Bulk Modulus (GPa) = 126.55776 224.91371 175.73573
# Shear Modulus (GPa) = 21.01117 37.93908 29.47512
#
# Velocity S-wave (km/s) = 3.40576 4.57649 4.03382
# Velocity P-wave (km/s) = 9.23751 12.33244 10.89543
#
# Compressibility (1/GPa) = 0.00790153
#
# Stress axis : x y z
#
# Youngs Moduli (GPa) = 23.11001 76.78592 41.50792
#
# Poissons Ratio (x) = 0.55964 1.07718
# Poissons Ratio (y) = 0.16843 0.12464
# Poissons Ratio (z) = 0.59973 0.23058
#
# Static dielectric constant tensor:
#      x y z
#    x 1.591290 0.000000 -0.006870 
#    y 0.000000 1.605660 0.000000 
#    z -0.006870 0.000000 1.610310 
# 
# From -- ./inp_files/280921.got.cif
#   From: 2010.05.17/outbox.cif.g08.bks.cpg/sg12_141_cif.got.tgz:280921.got - 2010.06.03 13:09:07.
