data_PCOD9210433
_publ_section_title
;
Structure prediction by ZEFSAII (Michael W. Deem and Ramdas Pophale) SiO2 
 PCOD9210433
Probable space group: C 2/M
;
_chemical_formula_sum "Si O2"
_cell_formula_units_Z 40
_cell_length_a 10.036461
_cell_length_b 14.715248
_cell_length_c 11.556171
_cell_angle_alpha 90.000000
_cell_angle_beta 77.362650
_cell_angle_gamma 90.000000
_cell_volume 1665.373098
_symmetry_space_group_name_H-M "C 2/M"
_symmetry_group_IT_number 12
_symmetry_cell_setting 'monoclinic'
loop_
_space_group_symop_operation_xyz
x,y,z
-x,y,-z
-x,-y,-z
x,-y,z
1/2+x,1/2+y,z
1/2-x,1/2+y,-z
1/2-x,1/2-y,-z
1/2+x,1/2-y,z
loop_
_atom_site_type_symbol
_atom_site_label
_atom_site_fract_x
_atom_site_fract_y
_atom_site_fract_z
Si Si1 0.703891 0.164589 0.718427
Si Si2 0.217779 0.127742 0.774036
Si Si3 0.926108 0.317224 0.895750
Si Si4 0.147003 0.398662 0.492141
Si Si5 0.100984 0.898574 0.125985
O O1 0.738202 0.265773 0.748672
O O2 0.542062 0.162648 0.776912
O O3 0.728494 0.149777 0.578562
O O4 0.797595 0.103806 0.783104
O O5 0.301325 0.119419 0.877941
O O6 0.279952 0.091395 0.643825
O O7 0.060674 0.102507 0.814418
O O8 0.888594 0.208791 0.920612
O O9 0.000000 0.345021 0.000000
O O10 0.119884 0.500000 0.545875
O O11 0.000000 0.353353 0.500000
O O12 0.121979 0.000000 0.067354
#
# Coordination Sequence:
#
# PCOD9210433 Si02
#       5
#     8   8   8   8   8
#     4  10  21  39  62  89 120 157 199 240 294 357
#     4  10  21  39  62  89 120 157 199 240 294 357
#     4  10  22  42  65  85 114 161 209 245 285 352
#     4  11  21  35  61  89 119 154 195 245 292 350
#     4  10  22  38  60  91 126 153 188 248 305 352
#
# _framework density 24.018642
#
# number of rings (size 3 to 8) (size 9 to 14) (size 15 to 20)
#    0.000    1.800    2.000    1.800    0.000    8.400 
#    0.000    2.000    0.000    8.400    0.000    0.000 
#    0.000    0.000    0.000    0.000    0.000    0.000 
#
# Total GULP energy -111458.148640 kJ/mol
# GULP energy per Si atom -5572.907432 kJ/mol
# Density = 2.396397 g / cm^3
# Si number density = 24.018642 Si / 1000 Ang^3
#
#
#
# Elastic Constant Matrix: (Units=GPa)
#
#
# Indices 1 2 3 4 5 6 
#
# 1 109.2693 43.0271 41.4330 0.0000 12.1202 0.0000
# 2 43.0271 102.9189 29.8983 0.0000 3.3553 0.0000
# 3 41.4330 29.8983 90.7923 0.0000 12.7553 0.0000
# 4 0.0000 0.0000 0.0000 -182.9304 0.0000 358.2983
# 5 12.1202 3.3553 12.7553 0.0000 44.2903 0.0000
# 6 0.0000 0.0000 0.0000 358.2983 0.0000 -655.4933
#
#
#
# Elastic Compliance Matrix: (Units=1/GPa)
#
#
# Indices 1 2 3 4 5 6 
#
# 1 0.012489 -0.003960 -0.004124 0.000000 -0.001930 0.000000
# 2 -0.003960 0.012002 -0.002261 0.000000 0.000826 0.000000
# 3 -0.004124 -0.002261 0.014026 0.000000 -0.002739 0.000000
# 4 0.000000 0.000000 0.000000 0.077408 0.000000 0.042312
# 5 -0.001930 0.000826 -0.002739 0.000000 0.023833 0.000000
# 6 0.000000 0.000000 0.000000 0.042312 0.000000 0.021603
#
#
# Mechanical properties :
#
#
# Convention : Reuss Voigt Hill
#
# Bulk Modulus (GPa) = 56.09848 59.07749 57.58799
# Shear Modulus (GPa) = 26.59674 -146.25188 -59.82757
#
# Velocity S-wave (km/s) = 3.33128 -7.81173 -4.99629
# Velocity P-wave (km/s) = 6.18090 7.53089 3.04227
#
# Compressibility (1/GPa) = 0.01782579
#
# Stress axis : x y z
#
# Youngs Moduli (GPa) = 80.07055 83.31966 71.29824
#
# Poissons Ratio (x) = 0.32997 0.29404
# Poissons Ratio (y) = 0.31710 0.16121
# Poissons Ratio (z) = 0.33022 0.18839
#
# Static dielectric constant tensor:
#      x y z
#    x 1.962080 0.000000 0.023110 
#    y 0.000000 1.956070 0.000000 
#    z 0.023110 0.000000 1.970000 
# 
# From -- ./inp_files/129122.got.cif
#   From: 2010.05.17/outbox.cif.g08.bks.cpg/sg12_65_cif.got.tgz:129122.got - 2010.06.03 13:09:07.
