data_PCOD9210555
_publ_section_title
;
Structure prediction by ZEFSAII (Michael W. Deem and Ramdas Pophale) SiO2 
 PCOD9210555
Probable space group: C 2/M
;
_chemical_formula_sum "Si O2"
_cell_formula_units_Z 48
_cell_length_a 22.506113
_cell_length_b 8.587012
_cell_length_c 22.251863
_cell_angle_alpha 90.000000
_cell_angle_beta 147.345510
_cell_angle_gamma 90.000000
_cell_volume 2320.374781
_symmetry_space_group_name_H-M "C 2/M"
_symmetry_group_IT_number 12
_symmetry_cell_setting 'monoclinic'
loop_
_space_group_symop_operation_xyz
x,y,z
-x,y,-z
-x,-y,-z
x,-y,z
1/2+x,1/2+y,z
1/2-x,1/2+y,-z
1/2-x,1/2-y,-z
1/2+x,1/2-y,z
loop_
_atom_site_type_symbol
_atom_site_label
_atom_site_fract_x
_atom_site_fract_y
_atom_site_fract_z
Si Si1 0.166765 0.686614 0.157733
Si Si2 0.311065 0.683487 0.957216
Si Si3 0.041030 0.687695 0.167274
Si Si4 0.424636 0.312926 0.249293
Si Si5 0.414608 0.687226 0.379134
Si Si6 0.644385 0.814108 0.375207
O O1 0.153904 0.500000 0.135186
O O2 0.168881 0.771480 0.095849
O O3 0.078921 0.735904 0.132772
O O4 0.287973 0.711826 0.288736
O O5 0.302159 0.500000 0.957132
O O6 0.195266 0.761050 0.876533
O O7 0.421822 0.745687 0.082454
O O8 0.033534 0.500000 0.160097
O O9 0.131276 0.732516 0.294004
O O10 0.429544 0.500000 0.251196
O O11 0.429381 0.259290 0.323247
O O12 0.530644 0.242671 0.307765
O O13 0.500000 0.752173 0.500000
O O14 0.430220 0.500000 0.389987
O O15 0.750000 0.750000 0.500000
O O16 0.649895 0.000000 0.382135
#
# Coordination Sequence:
#
# PCOD9210555 Si02
#       6
#     8   8   8   8   8   8
#     4   9  18  34  57  86 119 155 197 242 288 352
#     4  11  22  37  60  90 124 154 191 247 308 357
#     4  10  22  39  61  86 117 161 207 242 287 354
#     4  10  21  39  63  86 117 157 199 247 295 349
#     4   8  15  28  54  85 110 144 194 241 283 337
#     4  11  25  43  63  88 120 158 200 247 295 348
#
# _framework density 20.686313999999999
#
# number of rings (size 3 to 8) (size 9 to 14) (size 15 to 20)
#    0.000    2.167    0.000    4.000    2.333    4.667 
#    0.000    0.000    0.000    2.500    0.000    0.000 
#    0.000    0.000    0.000    0.000    0.000    0.000 
#
# Total GULP energy -134027.216822 kJ/mol
# GULP energy per Si atom -5584.467368 kJ/mol
# Density = 2.063923 g / cm^3
# Si number density = 20.686314 Si / 1000 Ang^3
#
#
#
# Elastic Constant Matrix: (Units=GPa)
#
#
# Indices 1 2 3 4 5 6 
#
# 1 72.3310 9.7982 17.9089 0.0000 14.7407 0.0000
# 2 9.7982 30.0851 18.7999 0.0000 -2.0260 0.0000
# 3 17.9089 18.7999 113.8516 0.0000 -1.5690 0.0000
# 4 0.0000 0.0000 0.0000 26.9631 0.0000 9.2503
# 5 14.7407 -2.0260 -1.5690 0.0000 20.7273 0.0000
# 6 0.0000 0.0000 0.0000 9.2503 0.0000 21.7325
#
#
#
# Elastic Compliance Matrix: (Units=1/GPa)
#
#
# Indices 1 2 3 4 5 6 
#
# 1 0.017791 -0.005384 -0.002093 0.000000 -0.013337 0.000000
# 2 -0.005384 0.038901 -0.005477 0.000000 0.007217 0.000000
# 3 -0.002093 -0.005477 0.010041 0.000000 0.001713 0.000000
# 4 0.000000 0.000000 0.000000 0.043430 0.000000 -0.018485
# 5 -0.013337 0.007217 0.001713 0.000000 0.058566 0.000000
# 6 0.000000 0.000000 0.000000 -0.018485 0.000000 0.053882
#
#
# Mechanical properties :
#
#
# Convention : Reuss Voigt Hill
#
# Bulk Modulus (GPa) = 24.49576 34.36466 29.43021
# Shear Modulus (GPa) = 19.07465 25.20198 22.13832
#
# Velocity S-wave (km/s) = 3.03989 3.49419 3.27493
# Velocity P-wave (km/s) = 4.91818 5.73825 5.34397
#
# Compressibility (1/GPa) = 0.04082340
#
# Stress axis : x y z
#
# Youngs Moduli (GPa) = 56.20798 25.70608 99.59482
#
# Poissons Ratio (x) = 0.13841 0.20848
# Poissons Ratio (y) = 0.30264 0.54550
# Poissons Ratio (z) = 0.11766 0.14080
#
# Static dielectric constant tensor:
#      x y z
#    x 1.752610 0.000000 -0.032680 
#    y 0.000000 1.701880 0.000000 
#    z -0.032680 0.000000 1.765510 
# 
# From -- ./inp_files/348880.got.cif
#   From: 2010.05.17/outbox.cif.g08.bks.cpg/sg12_175_cif.got.tgz:348880.got - 2010.06.03 13:09:07.
