data_PCOD9210962
_publ_section_title
;
Structure prediction by ZEFSAII (Michael W. Deem and Ramdas Pophale) SiO2 
 PCOD9210962
Probable space group: C 2/M
;
_chemical_formula_sum "Si O2"
_cell_formula_units_Z 56
_cell_length_a 23.907078
_cell_length_b 15.472877
_cell_length_c 9.940387
_cell_angle_alpha 90.000000
_cell_angle_beta 62.902489
_cell_angle_gamma 90.000000
_cell_volume 3273.439774
_symmetry_space_group_name_H-M "C 2/M"
_symmetry_group_IT_number 12
_symmetry_cell_setting 'monoclinic'
loop_
_space_group_symop_operation_xyz
x,y,z
-x,y,-z
-x,-y,-z
x,-y,z
1/2+x,1/2+y,z
1/2-x,1/2+y,-z
1/2-x,1/2-y,-z
1/2+x,1/2-y,z
loop_
_atom_site_type_symbol
_atom_site_label
_atom_site_fract_x
_atom_site_fract_y
_atom_site_fract_z
Si Si1 0.880656 0.182151 0.369964
Si Si2 0.508929 0.774293 0.332498
Si Si3 0.570072 0.500000 0.087917
Si Si4 0.068007 0.000000 0.773417
Si Si5 0.207809 0.893511 0.302149
Si Si6 0.048925 0.596645 0.068076
Si Si7 0.664588 0.210793 0.841080
Si Si8 0.863713 0.170348 0.882952
O O1 0.833441 0.159148 0.542801
O O2 0.850925 0.238525 0.280901
O O3 0.946461 0.224763 0.347541
O O4 0.897351 0.087450 0.298810
O O5 0.500000 0.790965 0.500000
O O6 0.517554 0.858960 0.231631
O O7 0.574615 0.722403 0.238041
O O8 0.499833 0.500000 0.224415
O O9 0.607026 0.584518 0.086836
O O10 0.561783 0.500000 0.938952
O O11 0.277748 0.855057 0.238222
O O12 0.180425 0.861480 0.189229
O O13 0.204387 0.000000 0.318055
O O14 0.070708 0.500000 0.076084
O O15 0.104686 0.655480 0.952136
O O16 0.000000 0.593288 0.000000
O O17 0.671592 0.277005 0.959783
#
# Coordination Sequence:
#
# PCOD9210962 Si02
#       8
#     8   8   4   4   8   8   8   8
#     4  12  22  39  60  91 122 159 196 243 299 359
#     4  11  22  37  61  92 125 153 191 246 309 355
#     4  11  20  33  59  95 125 151 189 246 301 358
#     4  11  22  33  61  95 129 151 189 244 303 358
#     4  12  25  40  60  85 122 165 197 245 297 349
#     4  10  21  39  65  89 111 151 204 254 292 339
#     4  11  24  41  61  85 120 157 211 240 292 352
#     4  11  22  37  62  88 121 158 197 244 296 360
#
# _framework density 17.107386999999999
#
# number of rings (size 3 to 8) (size 9 to 14) (size 15 to 20)
#    0.000    0.857    7.143    1.286    0.000    0.286 
#    0.000    2.143    0.000    0.000    0.000    0.000 
#    0.000    0.000    0.000    0.000    0.000    0.000 
#
# Total GULP energy -156106.605813 kJ/mol
# GULP energy per Si atom -5575.235922 kJ/mol
# Density = 1.706845 g / cm^3
# Si number density = 17.107387 Si / 1000 Ang^3
#
#
#
# Elastic Constant Matrix: (Units=GPa)
#
#
# Indices 1 2 3 4 5 6 
#
# 1 85.8032 32.3170 29.3377 0.0000 12.3140 0.0000
# 2 32.3170 106.9020 22.1250 0.0000 19.1101 0.0000
# 3 29.3377 22.1250 38.6774 0.0000 31.4008 0.0000
# 4 0.0000 0.0000 0.0000 38.7501 0.0000 5.4780
# 5 12.3140 19.1101 31.4008 0.0000 24.9888 0.0000
# 6 0.0000 0.0000 0.0000 5.4780 0.0000 44.6151
#
#
#
# Elastic Compliance Matrix: (Units=1/GPa)
#
#
# Indices 1 2 3 4 5 6 
#
# 1 0.003079 0.000338 0.053863 0.000000 -0.069460 0.000000
# 2 0.000338 0.010362 -0.019061 0.000000 0.015861 0.000000
# 3 0.053863 -0.019061 -0.278295 0.000000 0.337738 0.000000
# 4 0.000000 0.000000 0.000000 0.026262 0.000000 -0.003225
# 5 -0.069460 0.015861 0.337738 0.000000 -0.362283 0.000000
# 6 0.000000 0.000000 0.000000 -0.003225 0.000000 0.022810
#
#
# Mechanical properties :
#
#
# Convention : Reuss Voigt Hill
#
# Bulk Modulus (GPa) = -5.13946 44.32688 19.59371
# Shear Modulus (GPa) = -7.01061 31.51100 12.25019
#
# Velocity S-wave (km/s) = -2.02655 4.29645 2.67886
# Velocity P-wave (km/s) = 2.91318 7.11195 4.58766
#
# Compressibility (1/GPa) = -0.19457316
#
# Stress axis : x y z
#
# Youngs Moduli (GPa) = 324.80015 96.50969 -3.59331
#
# Poissons Ratio (x) = -0.03265 0.19355
# Poissons Ratio (y) = -0.10990 -0.06849
# Poissons Ratio (z) = -17.49476 1.83955
#
# Static dielectric constant tensor:
#      x y z
#    x 1.585500 0.000000 -0.011780 
#    y 0.000000 1.562740 0.000000 
#    z -0.011780 0.000000 1.598910 
# 
# From -- ./inp_files/96801.got.cif
#   From: 2010.05.17/outbox.cif.g08.bks.cpg/sg12_49_cif.got.tgz:96801.got - 2010.06.03 13:09:07.
