data_PCOD9210934
_publ_section_title
;
Structure prediction by ZEFSAII (Michael W. Deem and Ramdas Pophale) SiO2 
 PCOD9210934
Probable space group: C 2/M
;
_chemical_formula_sum "Si O2"
_cell_formula_units_Z 20
_cell_length_a 8.111577
_cell_length_b 17.550536
_cell_length_c 7.258723
_cell_angle_alpha 90.000000
_cell_angle_beta 51.036184
_cell_angle_gamma 90.000000
_cell_volume 803.489959
_symmetry_space_group_name_H-M "C 2/M"
_symmetry_group_IT_number 12
_symmetry_cell_setting 'monoclinic'
loop_
_space_group_symop_operation_xyz
x,y,z
-x,y,-z
-x,-y,-z
x,-y,z
1/2+x,1/2+y,z
1/2-x,1/2+y,-z
1/2-x,1/2-y,-z
1/2+x,1/2-y,z
loop_
_atom_site_type_symbol
_atom_site_label
_atom_site_fract_x
_atom_site_fract_y
_atom_site_fract_z
Si Si1 0.050714 0.081451 0.181312
Si Si2 0.025760 0.749095 0.271322
Si Si3 0.000000 0.631482 0.000000
O O1 0.961502 0.162472 0.308098
O O2 0.966851 0.000000 0.312825
O O3 0.301826 0.086145 0.053966
O O4 0.000000 0.081345 0.000000
O O5 0.000000 0.723370 0.500000
O O6 0.250000 0.750000 0.000000
O O7 0.911502 0.687519 0.221881
#
# Coordination Sequence:
#
# PCOD9210934 Si02
#       3
#     8   8   4
#     4  10  21  39  64  96 132 172 218 270 332 396
#     4  10  22  40  68  99 129 173 226 271 329 397
#     4  10  21  42  65  94 128 178 216 272 327 394
#
# _framework density 24.891411999999999
#
# number of rings (size 3 to 8) (size 9 to 14) (size 15 to 20)
#    0.000    2.000    2.000    0.600    0.000    7.200 
#    0.000    0.000    0.000   20.400    0.000    0.000 
#    0.000    0.000    0.000    0.000    0.000    0.000 
#
# Total GULP energy -55743.799467 kJ/mol
# GULP energy per Si atom -5574.379947 kJ/mol
# Density = 2.483476 g / cm^3
# Si number density = 24.891412 Si / 1000 Ang^3
#
#
#
# Elastic Constant Matrix: (Units=GPa)
#
#
# Indices 1 2 3 4 5 6 
#
# 1 147.9793 15.9040 65.0592 0.0000 10.6550 0.0000
# 2 15.9040 178.5357 52.3294 0.0000 17.3131 0.0000
# 3 65.0592 52.3294 213.9869 0.0000 33.9678 0.0000
# 4 0.0000 0.0000 0.0000 -7.6021 0.0000 -37.3078
# 5 10.6550 17.3131 33.9678 0.0000 67.7420 0.0000
# 6 0.0000 0.0000 0.0000 -37.3078 0.0000 -243.1560
#
#
#
# Elastic Compliance Matrix: (Units=1/GPa)
#
#
# Indices 1 2 3 4 5 6 
#
# 1 0.007800 0.000003 -0.002366 0.000000 -0.000041 0.000000
# 2 0.000003 0.006081 -0.001348 0.000000 -0.000878 0.000000
# 3 -0.002366 -0.001348 0.006093 0.000000 -0.002339 0.000000
# 4 0.000000 0.000000 0.000000 -0.532520 0.000000 0.081705
# 5 -0.000041 -0.000878 -0.002339 0.000000 0.016166 0.000000
# 6 0.000000 0.000000 0.000000 0.081705 0.000000 -0.016649
#
#
# Mechanical properties :
#
#
# Convention : Reuss Voigt Hill
#
# Bulk Modulus (GPa) = 79.66859 89.67635 84.67247
# Shear Modulus (GPa) = -9.97167 -9.45594 -9.71380
#
# Velocity S-wave (km/s) = -2.00369 -1.95118 -1.97761
# Velocity P-wave (km/s) = 5.16942 5.57037 5.37364
#
# Compressibility (1/GPa) = 0.01255200
#
# Stress axis : x y z
#
# Youngs Moduli (GPa) = 128.19739 164.43779 164.11126
#
# Poissons Ratio (x) = -0.00042 0.38823
# Poissons Ratio (y) = -0.00032 0.22130
# Poissons Ratio (z) = 0.30327 0.22174
#
# Static dielectric constant tensor:
#      x y z
#    x 2.261120 0.000000 -0.010440 
#    y 0.000000 1.987700 0.000000 
#    z -0.010440 0.000000 1.942650 
# 
# From -- ./inp_files/1861.got.cif
#   From: 2010.05.17/outbox.cif.g08.bks.cpg/sg12_1_cif.got.tgz:1861.got - 2010.06.03 13:09:07.
