data_PCOD9210600
_publ_section_title
;
Structure prediction by ZEFSAII (Michael W. Deem and Ramdas Pophale) SiO2 
 PCOD9210600
Probable space group: C 2/M
;
_chemical_formula_sum "Si O2"
_cell_formula_units_Z 32
_cell_length_a 9.056359
_cell_length_b 5.440618
_cell_length_c 27.174635
_cell_angle_alpha 90.000000
_cell_angle_beta 100.822850
_cell_angle_gamma 90.000000
_cell_volume 1315.137057
_symmetry_space_group_name_H-M "C 2/M"
_symmetry_group_IT_number 12
_symmetry_cell_setting 'monoclinic'
loop_
_space_group_symop_operation_xyz
x,y,z
-x,y,-z
-x,-y,-z
x,-y,z
1/2+x,1/2+y,z
1/2-x,1/2+y,-z
1/2-x,1/2-y,-z
1/2+x,1/2-y,z
loop_
_atom_site_type_symbol
_atom_site_label
_atom_site_fract_x
_atom_site_fract_y
_atom_site_fract_z
Si Si1 0.929832 0.000000 0.887169
Si Si2 0.220475 0.500000 0.787191
Si Si3 0.319101 0.500000 0.981946
Si Si4 0.744006 0.500000 0.361105
Si Si5 0.179979 0.500000 0.518728
Si Si6 0.060863 0.500000 0.323782
Si Si7 0.191654 0.500000 0.229941
Si Si8 0.517636 0.000000 0.870061
O O1 0.803065 0.000000 0.921204
O O2 0.019209 0.749922 0.899734
O O3 0.884748 0.000000 0.826208
O O4 0.216896 0.751599 0.757724
O O5 0.119467 0.500000 0.828755
O O6 0.500000 0.500000 0.000000
O O7 0.250000 0.750000 0.000000
O O8 0.783206 0.500000 0.421182
O O9 0.649808 0.749208 0.343746
O O10 0.901002 0.500000 0.340941
O O11 0.250000 0.250000 0.500000
O O12 0.000000 0.500000 0.500000
O O13 0.064562 0.500000 0.263963
O O14 0.146064 0.500000 0.169146
#
# Coordination Sequence:
#
# PCOD9210600 Si02
#       8
#     4   4   4   4   4   4   4   4
#     4  10  23  39  63  94 124 172 217 282 334 395
#     4  10  21  39  63  88 125 163 230 273 330 395
#     4  12  28  47  73 105 142 182 229 282 352 429
#     4  12  26  48  69 108 138 189 231 283 354 411
#     4  12  25  45  76 103 140 180 234 296 345 409
#     4  12  27  45  71  98 148 183 229 284 341 427
#     4  10  23  38  59  94 120 178 219 273 332 393
#     4  10  21  39  64  89 125 164 227 273 330 395
#
# _framework density 24.332063000000002
#
# number of rings (size 3 to 8) (size 9 to 14) (size 15 to 20)
#    0.000    1.000    0.000    6.000    7.000    0.000 
#    0.000    0.000    0.000    0.000    0.000    0.000 
#    0.000    0.000    0.000    0.000    0.000    0.000 
#
# Total GULP energy -89492.096266 kJ/mol
# GULP energy per Si atom -5593.256017 kJ/mol
# Density = 2.427668 g / cm^3
# Si number density = 24.332063 Si / 1000 Ang^3
#
#
#
# Elastic Constant Matrix: (Units=GPa)
#
#
# Indices 1 2 3 4 5 6 
#
# 1 142.5506 101.0328 29.4924 0.0000 -29.1839 0.0000
# 2 101.0328 301.5747 55.1433 0.0000 -34.8709 0.0000
# 3 29.4924 55.1433 165.4856 0.0000 -11.8061 0.0000
# 4 0.0000 0.0000 0.0000 20.8168 0.0000 -23.9030
# 5 -29.1839 -34.8709 -11.8061 0.0000 51.7576 0.0000
# 6 0.0000 0.0000 0.0000 -23.9030 0.0000 48.7716
#
#
#
# Elastic Compliance Matrix: (Units=1/GPa)
#
#
# Indices 1 2 3 4 5 6 
#
# 1 0.009827 -0.002778 -0.000573 0.000000 0.003539 0.000000
# 2 -0.002778 0.004568 -0.000934 0.000000 0.001298 0.000000
# 3 -0.000573 -0.000934 0.006494 0.000000 0.000529 0.000000
# 4 0.000000 0.000000 0.000000 0.109867 0.000000 0.053846
# 5 0.003539 0.001298 0.000529 0.000000 0.022311 0.000000
# 6 0.000000 0.000000 0.000000 0.053846 0.000000 0.046894
#
#
# Mechanical properties :
#
#
# Convention : Reuss Voigt Hill
#
# Bulk Modulus (GPa) = 81.18664 108.99420 95.09042
# Shear Modulus (GPa) = 23.51418 52.53203 38.02310
#
# Velocity S-wave (km/s) = 3.11205 4.65151 3.95736
# Velocity P-wave (km/s) = 6.80821 8.58722 7.74894
#
# Compressibility (1/GPa) = 0.01231730
#
# Stress axis : x y z
#
# Youngs Moduli (GPa) = 101.75836 218.93337 153.98811
#
# Poissons Ratio (x) = 0.60827 0.08826
# Poissons Ratio (y) = 0.28272 0.14387
# Poissons Ratio (z) = 0.05832 0.20455
#
# Static dielectric constant tensor:
#      x y z
#    x 2.088210 0.000000 0.164710 
#    y 0.000000 1.968660 0.000000 
#    z 0.164710 0.000000 1.969720 
# 
# From -- ./inp_files/371759.got.cif
#   From: 2010.05.17/outbox.cif.g08.bks.cpg/sg12_186_cif.got.tgz:371759.got - 2010.06.03 13:09:07.
