data_PCOD9210858
_publ_section_title
;
Structure prediction by ZEFSAII (Michael W. Deem and Ramdas Pophale) SiO2 
 PCOD9210858
Probable space group: C 2/M
;
_chemical_formula_sum "Si O2"
_cell_formula_units_Z 48
_cell_length_a 18.086014
_cell_length_b 8.788268
_cell_length_c 31.318734
_cell_angle_alpha 90.000000
_cell_angle_beta 149.822357
_cell_angle_gamma 90.000000
_cell_volume 2502.328156
_symmetry_space_group_name_H-M "C 2/M"
_symmetry_group_IT_number 12
_symmetry_cell_setting 'monoclinic'
loop_
_space_group_symop_operation_xyz
x,y,z
-x,y,-z
-x,-y,-z
x,-y,z
1/2+x,1/2+y,z
1/2-x,1/2+y,-z
1/2-x,1/2-y,-z
1/2+x,1/2-y,z
loop_
_atom_site_type_symbol
_atom_site_label
_atom_site_fract_x
_atom_site_fract_y
_atom_site_fract_z
Si Si1 0.590090 0.317740 0.588096
Si Si2 0.586928 0.182156 0.420647
Si Si3 0.086674 0.681276 0.917169
Si Si4 0.077058 0.182081 0.083576
Si Si5 0.077770 0.318163 0.750471
Si Si6 0.916423 0.181168 0.751233
O O1 0.500000 0.282493 0.500000
O O2 0.603673 0.500000 0.598132
O O3 0.501658 0.254113 0.584370
O O4 0.751077 0.244771 0.666795
O O5 0.750000 0.250000 0.500000
O O6 0.502889 0.214615 0.334388
O O7 0.593739 0.000000 0.429219
O O8 0.094976 0.500000 0.918090
O O9 0.001206 0.730745 0.917175
O O10 0.999931 0.747321 0.833315
O O11 0.250000 0.750000 0.000000
O O12 0.249781 0.218454 0.167109
O O13 0.063101 0.000000 0.084318
O O14 0.000000 0.215924 0.000000
O O15 0.065078 0.500000 0.752348
O O16 0.001554 0.230356 0.750998
O O17 0.913525 0.000000 0.754031
#
# Coordination Sequence:
#
# PCOD9210858 Si02
#       6
#     8   8   8   8   8   8
#     4  11  24  42  64  91 125 164 207 256 310 366
#     4  11  23  39  61  89 123 162 205 254 307 365
#     4  12  25  42  65  92 126 164 206 255 306 364
#     4  10  21  39  64  92 123 159 200 249 305 363
#     4  10  22  40  61  88 123 160 199 249 307 362
#     4  12  25  41  64  93 125 162 207 255 306 367
#
# _framework density 19.182134999999999
#
# number of rings (size 3 to 8) (size 9 to 14) (size 15 to 20)
#    0.000    1.000    0.000    7.000    0.000   10.333 
#    0.000    0.000    0.000    0.000    0.000    0.000 
#    0.000    0.000    0.000    0.000    0.000    0.000 
#
# Total GULP energy -134363.030548 kJ/mol
# GULP energy per Si atom -5598.459606 kJ/mol
# Density = 1.913848 g / cm^3
# Si number density = 19.182135 Si / 1000 Ang^3
#
#
#
# Elastic Constant Matrix: (Units=GPa)
#
#
# Indices 1 2 3 4 5 6 
#
# 1 184.8829 112.7510 118.1190 0.0000 2.7606 -0.0001
# 2 112.7510 133.9046 116.3513 0.0000 -5.1459 -0.0002
# 3 118.1190 116.3513 218.7277 0.0000 8.5834 -0.0001
# 4 0.0000 0.0000 0.0000 31.8509 0.0000 1.3096
# 5 2.7606 -5.1459 8.5834 0.0000 36.8800 0.0000
# 6 -0.0001 -0.0002 -0.0001 1.3096 0.0000 43.6875
#
#
#
# Elastic Compliance Matrix: (Units=1/GPa)
#
#
# Indices 1 2 3 4 5 6 
#
# 1 0.011652 -0.008294 -0.001818 0.000000 -0.001606 0.000000
# 2 -0.008294 0.020306 -0.006518 0.000000 0.004971 0.000000
# 3 -0.001818 -0.006518 0.009134 0.000000 -0.002899 0.000000
# 4 0.000000 0.000000 0.000000 0.031435 0.000000 -0.000942
# 5 -0.001606 0.004971 -0.002899 0.000000 0.028604 0.000000
# 6 0.000000 0.000000 0.000000 -0.000942 0.000000 0.022918
#
#
# Mechanical properties :
#
#
# Convention : Reuss Voigt Hill
#
# Bulk Modulus (GPa) = 127.64864 136.88419 132.26642
# Shear Modulus (GPa) = 31.26586 35.16995 33.21791
#
# Velocity S-wave (km/s) = 4.04164 4.28655 4.16590
# Velocity P-wave (km/s) = 9.40584 9.79870 9.60428
#
# Compressibility (1/GPa) = 0.00783400
#
# Stress axis : x y z
#
# Youngs Moduli (GPa) = 85.82292 49.24636 109.47599
#
# Poissons Ratio (x) = 0.40843 0.19898
# Poissons Ratio (y) = 0.71178 0.71357
# Poissons Ratio (z) = 0.15599 0.32099
#
# Static dielectric constant tensor:
#      x y z
#    x 1.619720 0.000000 -0.003350 
#    y 0.000000 1.645740 0.000000 
#    z -0.003350 0.000000 1.635230 
# 
# From -- ./inp_files/378554.got.cif
#   From: 2010.05.17/outbox.cif.g08.bks.cpg/sg12_190_cif.got.tgz:378554.got - 2010.06.03 13:09:07.
