data_PCOD9210855
_publ_section_title
;
Structure prediction by ZEFSAII (Michael W. Deem and Ramdas Pophale) SiO2 
 PCOD9210855
Probable space group: C 2/M
;
_chemical_formula_sum "Si O2"
_cell_formula_units_Z 28
_cell_length_a 9.551214
_cell_length_b 31.684370
_cell_length_c 5.130644
_cell_angle_alpha 90.000000
_cell_angle_beta 113.592134
_cell_angle_gamma 90.000000
_cell_volume 1422.882357
_symmetry_space_group_name_H-M "C 2/M"
_symmetry_group_IT_number 12
_symmetry_cell_setting 'monoclinic'
loop_
_space_group_symop_operation_xyz
x,y,z
-x,y,-z
-x,-y,-z
x,-y,z
1/2+x,1/2+y,z
1/2-x,1/2+y,-z
1/2-x,1/2-y,-z
1/2+x,1/2-y,z
loop_
_atom_site_type_symbol
_atom_site_label
_atom_site_fract_x
_atom_site_fract_y
_atom_site_fract_z
Si Si1 0.321402 0.726994 0.303700
Si Si2 0.109628 0.000000 0.326714
Si Si3 0.320494 0.079535 0.351612
Si Si4 0.319893 0.864031 0.845279
O O1 0.500000 0.730175 0.500000
O O2 0.250000 0.750000 0.500000
O O3 0.277650 0.678244 0.222157
O O4 0.250000 0.750000 0.000000
O O5 0.216798 0.040838 0.367354
O O6 0.000000 0.000000 0.500000
O O7 0.000000 0.000000 0.000000
O O8 0.500000 0.067135 0.500000
O O9 0.296949 0.115569 0.547237
O O10 0.287960 0.100867 0.045901
O O11 0.500000 0.852896 0.000000
#
# Coordination Sequence:
#
# PCOD9210855 Si02
#       4
#     8   4   8   8
#     4  12  25  42  65  94 129 169 211 261 316 377
#     4  12  25  40  61  92 126 160 202 260 313 366
#     4  10  22  41  64  88 121 164 207 251 309 378
#     4  10  21  39  64  92 121 160 209 260 310 370
#
# _framework density 19.678364999999999
#
# number of rings (size 3 to 8) (size 9 to 14) (size 15 to 20)
#    0.000    1.143    0.000    6.429    0.000    5.714 
#    0.000    5.714    0.000    0.000    0.000    0.000 
#    0.000    0.000    0.000    0.000    0.000    0.000 
#
# Total GULP energy -78171.015937 kJ/mol
# GULP energy per Si atom -5583.643995 kJ/mol
# Density = 1.963358 g / cm^3
# Si number density = 19.678365 Si / 1000 Ang^3
#
#
#
# Elastic Constant Matrix: (Units=GPa)
#
#
# Indices 1 2 3 4 5 6 
#
# 1 148.5870 79.9653 55.2573 0.0000 0.8538 0.0000
# 2 79.9653 84.2322 25.1027 0.0000 26.8772 0.0000
# 3 55.2573 25.1027 99.8069 0.0000 -9.3007 0.0000
# 4 0.0000 0.0000 0.0000 13.8189 0.0000 1.6819
# 5 0.8538 26.8772 -9.3007 0.0000 38.2461 0.0000
# 6 0.0000 0.0000 0.0000 1.6819 0.0000 43.6704
#
#
#
# Elastic Compliance Matrix: (Units=1/GPa)
#
#
# Indices 1 2 3 4 5 6 
#
# 1 0.020558 -0.022907 -0.004260 0.000000 0.014603 0.000000
# 2 -0.022907 0.043678 -0.001142 0.000000 -0.030461 0.000000
# 3 -0.004260 -0.001142 0.013044 0.000000 0.004070 0.000000
# 4 0.000000 0.000000 0.000000 0.072705 0.000000 -0.002800
# 5 0.014603 -0.030461 0.004070 0.000000 0.048216 0.000000
# 6 0.000000 0.000000 0.000000 -0.002800 0.000000 0.023007
#
#
# Mechanical properties :
#
#
# Convention : Reuss Voigt Hill
#
# Bulk Modulus (GPa) = 48.39445 72.58632 60.49038
# Shear Modulus (GPa) = 17.56155 30.63379 24.09767
#
# Velocity S-wave (km/s) = 2.99060 3.94981 3.50319
# Velocity P-wave (km/s) = 6.04740 7.60051 6.86800
#
# Compressibility (1/GPa) = 0.02066353
#
# Stress axis : x y z
#
# Youngs Moduli (GPa) = 48.64304 22.89478 76.66250
#
# Poissons Ratio (x) = 0.52444 0.32656
# Poissons Ratio (y) = 1.11424 0.08756
# Poissons Ratio (z) = 0.20720 0.02615
#
# Static dielectric constant tensor:
#      x y z
#    x 1.684700 0.000000 0.002200 
#    y 0.000000 1.745830 0.000000 
#    z 0.002200 0.000000 1.648460 
# 
# From -- ./inp_files/3616.got.cif
#   From: 2010.05.17/outbox.cif.g08.bks.cpg/sg12_2_cif.got.tgz:3616.got - 2010.06.03 13:09:07.
