data_PCOD9210307
_publ_section_title
;
Structure prediction by ZEFSAII (Michael W. Deem and Ramdas Pophale) SiO2 
 PCOD9210307
Probable space group: C 2/M
;
_chemical_formula_sum "Si O2"
_cell_formula_units_Z 48
_cell_length_a 10.413100
_cell_length_b 29.674181
_cell_length_c 7.460433
_cell_angle_alpha 90.000000
_cell_angle_beta 64.559368
_cell_angle_gamma 90.000000
_cell_volume 2081.734871
_symmetry_space_group_name_H-M "C 2/M"
_symmetry_group_IT_number 12
_symmetry_cell_setting 'monoclinic'
loop_
_space_group_symop_operation_xyz
x,y,z
-x,y,-z
-x,-y,-z
x,-y,z
1/2+x,1/2+y,z
1/2-x,1/2+y,-z
1/2-x,1/2-y,-z
1/2+x,1/2-y,z
loop_
_atom_site_type_symbol
_atom_site_label
_atom_site_fract_x
_atom_site_fract_y
_atom_site_fract_z
Si Si1 0.577351 0.950161 0.671332
Si Si2 0.578003 0.709885 0.135963
Si Si3 0.224845 0.549801 0.975891
Si Si4 0.346640 0.146396 0.414405
Si Si5 0.130509 0.695303 0.230612
Si Si6 0.399070 0.376736 0.706924
O O1 0.653965 0.949844 0.819598
O O2 0.634661 0.905880 0.540464
O O3 0.605398 0.000000 0.577787
O O4 0.409558 0.944908 0.812622
O O5 0.580637 0.752812 0.262462
O O6 0.515680 0.664676 0.257950
O O7 0.500000 0.723347 0.000000
O O8 0.737447 0.695984 0.982363
O O9 0.287052 0.500000 0.968853
O O10 0.337843 0.589740 0.893192
O O11 0.498488 0.164331 0.250283
O O12 0.322787 0.177090 0.603111
O O13 0.228930 0.145416 0.331465
O O14 0.500000 0.400669 0.500000
#
# Coordination Sequence:
#
# PCOD9210307 Si02
#       6
#     8   8   8   8   8   8
#     4   8  14  29  57  89 122 155 190 238 291 352
#     4  11  25  42  59  83 116 156 202 246 298 358
#     4   8  15  30  54  89 124 155 195 237 288 352
#     4  10  21  39  61  90 122 152 196 248 300 352
#     4  10  24  40  60  84 116 154 193 246 302 354
#     4  11  23  36  61  88 118 161 201 250 293 348
#
# _framework density 23.057691999999999
#
# number of rings (size 3 to 8) (size 9 to 14) (size 15 to 20)
#    0.000    2.333    0.000    3.000    7.000    2.333 
#    0.000    1.667    0.000    1.500    0.000    0.000 
#    0.000    0.000    0.000    0.000    0.000    0.000 
#
# Total GULP energy -134066.444998 kJ/mol
# GULP energy per Si atom -5586.101875 kJ/mol
# Density = 2.300521 g / cm^3
# Si number density = 23.057692 Si / 1000 Ang^3
#
#
#
# Elastic Constant Matrix: (Units=GPa)
#
#
# Indices 1 2 3 4 5 6 
#
# 1 64.8167 7.4123 14.7680 0.0000 0.8564 0.0000
# 2 7.4123 178.7560 40.6527 0.0000 8.5968 0.0000
# 3 14.7680 40.6527 44.4892 0.0000 7.9322 0.0000
# 4 0.0000 0.0000 0.0000 -27.4490 0.0000 -4.3630
# 5 0.8564 8.5968 7.9322 0.0000 33.8665 0.0000
# 6 0.0000 0.0000 0.0000 -4.3630 0.0000 8.8743
#
#
#
# Elastic Compliance Matrix: (Units=1/GPa)
#
#
# Indices 1 2 3 4 5 6 
#
# 1 0.016789 0.000713 -0.006383 0.000000 0.000890 0.000000
# 2 0.000713 0.007095 -0.006674 0.000000 -0.000256 0.000000
# 3 -0.006383 -0.006674 0.031687 0.000000 -0.005566 0.000000
# 4 0.000000 0.000000 0.000000 -0.033791 0.000000 -0.016613
# 5 0.000890 -0.000256 -0.005566 0.000000 0.030874 0.000000
# 6 0.000000 0.000000 0.000000 -0.016613 0.000000 0.104517
#
#
# Mechanical properties :
#
#
# Convention : Reuss Voigt Hill
#
# Bulk Modulus (GPa) = 32.38074 45.96978 39.17526
# Shear Modulus (GPa) = 26.02087 18.07363 22.04725
#
# Velocity S-wave (km/s) = 3.36298 2.80276 3.09557
# Velocity P-wave (km/s) = 5.39938 5.51852 5.45928
#
# Compressibility (1/GPa) = 0.03088255
#
# Stress axis : x y z
#
# Youngs Moduli (GPa) = 59.56219 140.94934 31.55879
#
# Poissons Ratio (x) = -0.10045 0.20144
# Poissons Ratio (y) = -0.04245 0.21062
# Poissons Ratio (z) = 0.38018 0.94068
#
# Static dielectric constant tensor:
#      x y z
#    x 1.873140 0.000000 0.000780 
#    y 0.000000 1.889740 0.000000 
#    z 0.000780 0.000000 1.922300 
# 
# From -- ./inp_files/52443.got.cif
#   From: 2010.05.17/outbox.cif.g08.bks.cpg/sg12_27_cif.got.tgz:52443.got - 2010.06.03 13:09:07.
