data_PCOD9210139
_publ_section_title
;
Structure prediction by ZEFSAII (Michael W. Deem and Ramdas Pophale) SiO2 
 PCOD9210139
Probable space group: C 2/M
;
_chemical_formula_sum "Si O2"
_cell_formula_units_Z 56
_cell_length_a 21.941226
_cell_length_b 14.860270
_cell_length_c 14.852537
_cell_angle_alpha 90.000000
_cell_angle_beta 33.169294
_cell_angle_gamma 90.000000
_cell_volume 2649.516461
_symmetry_space_group_name_H-M "C 2/M"
_symmetry_group_IT_number 12
_symmetry_cell_setting 'monoclinic'
loop_
_space_group_symop_operation_xyz
x,y,z
-x,y,-z
-x,-y,-z
x,-y,z
1/2+x,1/2+y,z
1/2-x,1/2+y,-z
1/2-x,1/2-y,-z
1/2+x,1/2-y,z
loop_
_atom_site_type_symbol
_atom_site_label
_atom_site_fract_x
_atom_site_fract_y
_atom_site_fract_z
Si Si1 0.799136 0.396224 0.535289
Si Si2 0.374769 0.891974 0.642302
Si Si3 0.411696 0.391712 0.480915
Si Si4 0.157378 0.102423 0.246275
Si Si5 0.966478 0.100349 0.145511
Si Si6 0.826981 0.664003 0.899278
Si Si7 0.952615 0.747880 0.292373
O O1 0.838662 0.500000 0.476974
O O2 0.824913 0.365631 0.607096
O O3 0.667235 0.396453 0.686108
O O4 0.861794 0.329863 0.389309
O O5 0.500000 0.855536 0.500000
O O6 0.318314 0.869897 0.807634
O O7 0.379558 0.000000 0.632172
O O8 0.398541 0.500000 0.478329
O O9 0.342808 0.357494 0.653408
O O10 0.543140 0.371101 0.337906
O O11 0.389737 0.325533 0.426632
O O12 0.133059 0.000000 0.298778
O O13 0.266313 0.105280 0.050692
O O14 0.006508 0.189935 0.147728
O O15 0.003145 0.000000 0.135145
O O16 0.000000 0.103736 0.000000
O O17 0.950364 0.693035 0.775525
O O18 0.750000 0.750000 0.000000
#
# Coordination Sequence:
#
# PCOD9210139 Si02
#       7
#     8   8   8   8   8   8   8
#     4  10  23  42  65  89 119 163 210 256 304 362
#     4  10  21  39  60  86 123 165 202 244 304 369
#     4   9  19  35  55  79 113 159 203 244 298 360
#     4   9  19  35  51  75 118 162 200 245 298 360
#     4  10  24  45  66  91 120 156 207 262 310 363
#     4  12  24  32  52  91 127 160 199 247 302 368
#     4  12  23  37  64  88 123 160 202 253 305 369
#
# _framework density 21.135933000000001
#
# number of rings (size 3 to 8) (size 9 to 14) (size 15 to 20)
#    0.000    1.714    2.857    2.143    4.000    0.571 
#    0.000    0.000    0.000    0.429    0.000    0.000 
#    0.000    0.000    0.000    0.000    0.000    0.000 
#
# Total GULP energy -155991.211785 kJ/mol
# GULP energy per Si atom -5571.114707 kJ/mol
# Density = 2.108783 g / cm^3
# Si number density = 21.135933 Si / 1000 Ang^3
#
#
#
# Elastic Constant Matrix: (Units=GPa)
#
#
# Indices 1 2 3 4 5 6 
#
# 1 43.2671 11.2561 0.5241 0.0000 10.8862 0.0000
# 2 11.2561 83.3074 16.7834 0.0000 7.5520 0.0000
# 3 0.5241 16.7834 76.6270 0.0000 17.3251 0.0000
# 4 0.0000 0.0000 0.0000 27.0451 0.0000 10.4026
# 5 10.8862 7.5520 17.3251 0.0000 31.5372 0.0000
# 6 0.0000 0.0000 0.0000 10.4026 0.0000 20.7275
#
#
#
# Elastic Compliance Matrix: (Units=1/GPa)
#
#
# Indices 1 2 3 4 5 6 
#
# 1 0.026398 -0.003228 0.002754 0.000000 -0.009852 0.000000
# 2 -0.003228 0.013034 -0.002716 0.000000 -0.000514 0.000000
# 3 0.002754 -0.002716 0.015636 0.000000 -0.008890 0.000000
# 4 0.000000 0.000000 0.000000 0.045820 0.000000 -0.022996
# 5 -0.009852 -0.000514 -0.008890 0.000000 0.040116 0.000000
# 6 0.000000 0.000000 0.000000 -0.022996 0.000000 0.059786
#
#
# Mechanical properties :
#
#
# Convention : Reuss Voigt Hill
#
# Bulk Modulus (GPa) = 20.53969 28.92542 24.73255
# Shear Modulus (GPa) = 22.38130 27.50449 24.94290
#
# Velocity S-wave (km/s) = 3.25764 3.61129 3.43901
# Velocity P-wave (km/s) = 4.88760 5.57707 5.24368
#
# Compressibility (1/GPa) = 0.04868624
#
# Stress axis : x y z
#
# Youngs Moduli (GPa) = 37.88229 76.72341 63.95339
#
# Poissons Ratio (x) = 0.24770 -0.17613
# Poissons Ratio (y) = 0.12230 0.17372
# Poissons Ratio (z) = -0.10433 0.20841
#
# Static dielectric constant tensor:
#      x y z
#    x 1.765490 0.000000 -0.172360 
#    y 0.000000 1.811540 0.000000 
#    z -0.172360 0.000000 1.184940 
# 
# From -- ./inp_files/240864.got.cif
#   From: 2010.05.17/outbox.cif.g08.bks.cpg/sg12_121_cif.got.tgz:240864.got - 2010.06.03 13:09:07.
