data_PCOD9210377
_publ_section_title
;
Structure prediction by ZEFSAII (Michael W. Deem and Ramdas Pophale) SiO2 
 PCOD9210377
Probable space group: C 2/M
;
_chemical_formula_sum "Si O2"
_cell_formula_units_Z 40
_cell_length_a 16.776611
_cell_length_b 19.073488
_cell_length_c 4.821333
_cell_angle_alpha 90.000000
_cell_angle_beta 68.359039
_cell_angle_gamma 90.000000
_cell_volume 1434.025871
_symmetry_space_group_name_H-M "C 2/M"
_symmetry_group_IT_number 12
_symmetry_cell_setting 'monoclinic'
loop_
_space_group_symop_operation_xyz
x,y,z
-x,y,-z
-x,-y,-z
x,-y,z
1/2+x,1/2+y,z
1/2-x,1/2+y,-z
1/2-x,1/2-y,-z
1/2+x,1/2-y,z
loop_
_atom_site_type_symbol
_atom_site_label
_atom_site_fract_x
_atom_site_fract_y
_atom_site_fract_z
Si Si1 0.246595 0.920935 0.071639
Si Si2 0.441224 0.580701 0.846513
Si Si3 0.688673 0.785670 0.845573
Si Si4 0.083594 0.270622 0.500349
Si Si5 0.089094 0.425649 0.550291
O O1 0.154872 0.892823 0.078216
O O2 0.275492 0.863680 0.257575
O O3 0.230993 0.000000 0.196924
O O4 0.324370 0.924634 0.750482
O O5 0.500000 0.576656 0.500000
O O6 0.425016 0.500000 0.964296
O O7 0.500000 0.617565 0.000000
O O8 0.656574 0.742078 0.617501
O O9 0.750000 0.750000 0.000000
O O10 0.611027 0.793308 0.159160
O O11 0.074208 0.345757 0.669341
O O12 0.000000 0.228675 0.500000
O O13 0.095918 0.500000 0.710910
O O14 0.000000 0.433511 0.500000
#
# Coordination Sequence:
#
# PCOD9210377 Si02
#       5
#     8   8   8   8   8
#     4   9  19  36  60  88 120 161 204 249 306 366
#     4   9  18  33  53  79 112 149 194 248 299 349
#     4  11  23  40  61  88 122 157 200 252 304 359
#     4  10  21  39  62  86 119 161 201 244 298 366
#     4   8  15  30  55  89 124 157 198 248 301 361
#
# _framework density 27.893498000000001
#
# number of rings (size 3 to 8) (size 9 to 14) (size 15 to 20)
#    0.000    2.600    0.000    1.200    0.000    4.000 
#    0.000    9.000    0.000   12.000    0.000    0.000 
#    0.000    0.000    0.000    0.000    0.000    0.000 
#
# Total GULP energy -111335.571800 kJ/mol
# GULP energy per Si atom -5566.778590 kJ/mol
# Density = 2.783001 g / cm^3
# Si number density = 27.893498 Si / 1000 Ang^3
#
#
#
# Elastic Constant Matrix: (Units=GPa)
#
#
# Indices 1 2 3 4 5 6 
#
# 1 257.1525 6.5392 62.0056 0.0000 13.9834 0.0000
# 2 6.5392 101.1166 16.8371 0.0000 3.2229 0.0000
# 3 62.0056 16.8371 116.8071 0.0000 20.2427 0.0000
# 4 0.0000 0.0000 0.0000 18.2402 0.0000 5.6192
# 5 13.9834 3.2229 20.2427 0.0000 55.5925 0.0000
# 6 0.0000 0.0000 0.0000 5.6192 0.0000 27.9543
#
#
#
# Elastic Compliance Matrix: (Units=1/GPa)
#
#
# Indices 1 2 3 4 5 6 
#
# 1 0.004465 0.000109 -0.002338 0.000000 -0.000278 0.000000
# 2 0.000109 0.010136 -0.001508 0.000000 -0.000066 0.000000
# 3 -0.002338 -0.001508 0.010569 0.000000 -0.003173 0.000000
# 4 0.000000 0.000000 0.000000 0.058443 0.000000 -0.011748
# 5 -0.000278 -0.000066 -0.003173 0.000000 0.019217 0.000000
# 6 0.000000 0.000000 0.000000 -0.011748 0.000000 0.038134
#
#
# Mechanical properties :
#
#
# Convention : Reuss Voigt Hill
#
# Bulk Modulus (GPa) = 56.50368 71.76000 64.13184
# Shear Modulus (GPa) = 32.39702 46.33702 39.36702
#
# Velocity S-wave (km/s) = 3.41171 4.08022 3.76085
# Velocity P-wave (km/s) = 5.98503 6.92675 6.47304
#
# Compressibility (1/GPa) = 0.01769796
#
# Stress axis : x y z
#
# Youngs Moduli (GPa) = 223.97709 98.66179 94.61425
#
# Poissons Ratio (x) = -0.01079 0.22117
# Poissons Ratio (y) = -0.02450 0.14264
# Poissons Ratio (z) = 0.52357 0.14874
#
# Static dielectric constant tensor:
#      x y z
#    x 2.561770 0.000000 -0.134860 
#    y 0.000000 2.403810 0.000000 
#    z -0.134860 0.000000 2.260360 
# 
# From -- ./inp_files/11531.got.cif
#   From: 2010.05.17/outbox.cif.g08.bks.cpg/sg12_6_cif.got.tgz:11531.got - 2010.06.03 13:09:07.
