data_PCOD9210932
_publ_section_title
;
Structure prediction by ZEFSAII (Michael W. Deem and Ramdas Pophale) SiO2 
 PCOD9210932
Probable space group: C 2/M
;
_chemical_formula_sum "Si O2"
_cell_formula_units_Z 56
_cell_length_a 11.673434
_cell_length_b 14.132439
_cell_length_c 17.777890
_cell_angle_alpha 90.000000
_cell_angle_beta 116.176171
_cell_angle_gamma 90.000000
_cell_volume 2632.099571
_symmetry_space_group_name_H-M "C 2/M"
_symmetry_group_IT_number 12
_symmetry_cell_setting 'monoclinic'
loop_
_space_group_symop_operation_xyz
x,y,z
-x,y,-z
-x,-y,-z
x,-y,z
1/2+x,1/2+y,z
1/2-x,1/2+y,-z
1/2-x,1/2-y,-z
1/2+x,1/2-y,z
loop_
_atom_site_type_symbol
_atom_site_label
_atom_site_fract_x
_atom_site_fract_y
_atom_site_fract_z
Si Si1 0.208819 0.352219 0.017821
Si Si2 0.748933 0.387524 0.711703
Si Si3 0.391925 0.000000 0.533253
Si Si4 0.450181 0.176810 0.878656
Si Si5 0.823182 0.311683 0.584715
Si Si6 0.998780 0.154362 0.699062
Si Si7 0.921288 0.000000 0.556032
Si Si8 0.495644 0.397621 0.127443
O O1 0.141933 0.352502 0.079759
O O2 0.344865 0.402116 0.064603
O O3 0.250000 0.250000 0.000000
O O4 0.087815 0.372956 0.929134
O O5 0.730947 0.500000 0.716218
O O6 0.885767 0.359023 0.784009
O O7 0.731049 0.359664 0.619593
O O8 0.648623 0.328711 0.732033
O O9 0.500000 0.000000 0.500000
O O10 0.406817 0.101793 0.577165
O O11 0.234538 0.000000 0.481898
O O12 0.460689 0.292382 0.887017
O O13 0.750000 0.250000 0.500000
O O14 0.911224 0.243072 0.658572
O O15 0.981707 0.109557 0.776013
O O16 0.964937 0.087717 0.619230
O O17 0.000000 0.000000 0.500000
O O18 0.551371 0.500000 0.117288
#
# Coordination Sequence:
#
# PCOD9210932 Si02
#       8
#     8   8   4   8   8   8   4   8
#     4   9  20  39  63  90 131 171 212 263 331 400
#     4  12  24  42  68  98 130 172 230 283 332 400
#     4  12  28  48  68 102 139 174 231 290 354 412
#     4  10  21  39  64  96 131 169 213 275 335 390
#     4  12  27  44  66  94 134 179 223 280 348 403
#     4  12  24  38  68  96 128 171 224 278 334 396
#     4  12  24  44  72 104 136 176 243 288 333 424
#     4  11  21  39  63  96 129 170 218 264 325 403
#
# _framework density 21.275791999999999
#
# number of rings (size 3 to 8) (size 9 to 14) (size 15 to 20)
#    0.000    0.857    6.429    0.857    2.000    0.571 
#    0.000    7.143    0.000    0.857    0.000    0.000 
#    0.000    0.000    0.000    0.000    0.000    0.000 
#
# Total GULP energy -155963.145963 kJ/mol
# GULP energy per Si atom -5570.112356 kJ/mol
# Density = 2.122737 g / cm^3
# Si number density = 21.275792 Si / 1000 Ang^3
#
#
#
# Elastic Constant Matrix: (Units=GPa)
#
#
# Indices 1 2 3 4 5 6 
#
# 1 43.3664 -4.8641 7.5151 0.0000 13.0654 0.0000
# 2 -4.8641 91.0381 10.2295 0.0000 8.7439 0.0000
# 3 7.5151 10.2295 94.1866 0.0000 16.5378 0.0000
# 4 0.0000 0.0000 0.0000 -3.2517 0.0000 5.8989
# 5 13.0654 8.7439 16.5378 0.0000 31.3741 0.0000
# 6 0.0000 0.0000 0.0000 5.8989 0.0000 13.0467
#
#
#
# Elastic Compliance Matrix: (Units=1/GPa)
#
#
# Indices 1 2 3 4 5 6 
#
# 1 0.026959 0.002611 -0.000370 0.000000 -0.011760 0.000000
# 2 0.002611 0.011587 -0.000781 0.000000 -0.003905 0.000000
# 3 -0.000370 -0.000781 0.011754 0.000000 -0.005824 0.000000
# 4 0.000000 0.000000 0.000000 -0.168952 0.000000 0.076390
# 5 -0.011760 -0.003905 -0.005824 0.000000 0.040929 0.000000
# 6 0.000000 0.000000 0.000000 0.076390 0.000000 0.042109
#
#
# Mechanical properties :
#
#
# Convention : Reuss Voigt Hill
#
# Bulk Modulus (GPa) = 18.78949 28.26135 23.52542
# Shear Modulus (GPa) = -240.45535 22.61451 -108.92042
#
# Velocity S-wave (km/s) = -10.64254 3.26379 -7.16280
# Velocity P-wave (km/s) = 11.92341 5.24550 7.57141
#
# Compressibility (1/GPa) = 0.05322123
#
# Stress axis : x y z
#
# Youngs Moduli (GPa) = 37.09292 86.30527 85.07605
#
# Poissons Ratio (x) = -0.22538 0.03147
# Poissons Ratio (y) = -0.09687 0.06646
# Poissons Ratio (z) = 0.01372 0.06742
#
# Static dielectric constant tensor:
#      x y z
#    x 1.812310 0.000000 -0.003410 
#    y 0.000000 1.824110 0.000000 
#    z -0.003410 0.000000 1.855700 
# 
# From -- ./inp_files/263459.got.cif
#   From: 2010.05.17/outbox.cif.g08.bks.cpg/sg12_132_cif.got.tgz:263459.got - 2010.06.03 13:09:07.
