data_PCOD9210677
_publ_section_title
;
Structure prediction by ZEFSAII (Michael W. Deem and Ramdas Pophale) SiO2 
 PCOD9210677
Probable space group: C 2/M
;
_chemical_formula_sum "Si O2"
_cell_formula_units_Z 36
_cell_length_a 10.981214
_cell_length_b 14.946182
_cell_length_c 14.301047
_cell_angle_alpha 90.000000
_cell_angle_beta 43.302209
_cell_angle_gamma 90.000000
_cell_volume 1609.812613
_symmetry_space_group_name_H-M "C 2/M"
_symmetry_group_IT_number 12
_symmetry_cell_setting 'monoclinic'
loop_
_space_group_symop_operation_xyz
x,y,z
-x,y,-z
-x,-y,-z
x,-y,z
1/2+x,1/2+y,z
1/2-x,1/2+y,-z
1/2-x,1/2-y,-z
1/2+x,1/2-y,z
loop_
_atom_site_type_symbol
_atom_site_label
_atom_site_fract_x
_atom_site_fract_y
_atom_site_fract_z
Si Si1 0.500000 0.247600 0.500000
Si Si2 0.688868 0.096432 0.838821
Si Si3 0.242915 0.099271 0.417749
Si Si4 0.705267 0.272019 0.918329
Si Si5 0.611059 0.898983 0.310669
O O1 0.388811 0.317644 0.499584
O O2 0.366686 0.179071 0.625990
O O3 0.677207 0.103540 0.732984
O O4 0.783775 0.185139 0.821375
O O5 0.773681 0.000000 0.812420
O O6 0.500000 0.095406 0.000000
O O7 0.403987 0.103329 0.399530
O O8 0.160123 0.000000 0.473585
O O9 0.789014 0.364377 0.837068
O O10 0.500000 0.276790 0.000000
O O11 0.750000 0.250000 0.000000
O O12 0.659006 0.000000 0.311613
#
# Coordination Sequence:
#
# PCOD9210677 Si02
#       5
#     4   8   8   8   8
#     4  12  22  40  64  88 124 168 222 266 306 376
#     4   9  17  34  60  89 117 154 205 258 314 374
#     4  10  21  39  63  91 123 164 215 271 316 369
#     4  11  23  40  67  94 128 165 211 265 326 387
#     4  11  24  41  62  90 131 173 208 257 325 386
#
# _framework density 22.362850999999999
#
# number of rings (size 3 to 8) (size 9 to 14) (size 15 to 20)
#    0.000    1.556    2.222    4.000    0.000    3.111 
#    0.000    0.000    0.000    0.000    0.000    0.000 
#    0.000    0.000    0.000    0.000    0.000    0.000 
#
# Total GULP energy -100373.985873 kJ/mol
# GULP energy per Si atom -5576.332549 kJ/mol
# Density = 2.231195 g / cm^3
# Si number density = 22.362851 Si / 1000 Ang^3
#
#
#
# Elastic Constant Matrix: (Units=GPa)
#
#
# Indices 1 2 3 4 5 6 
#
# 1 70.1395 29.0586 9.8654 -0.0002 -2.1701 0.0001
# 2 29.0586 199.5549 32.7215 -0.0002 0.8776 0.0002
# 3 9.8654 32.7215 80.7408 -0.0004 9.0215 0.0004
# 4 -0.0002 -0.0002 -0.0004 25.6017 0.0003 -6.9532
# 5 -2.1701 0.8776 9.0215 0.0003 31.3543 -0.0002
# 6 0.0001 0.0002 0.0004 -6.9532 -0.0002 18.0835
#
#
#
# Elastic Compliance Matrix: (Units=1/GPa)
#
#
# Indices 1 2 3 4 5 6 
#
# 1 0.015317 -0.002039 -0.001209 0.000000 0.001465 0.000000
# 2 -0.002039 0.005647 -0.002072 0.000000 0.000297 0.000000
# 3 -0.001209 -0.002072 0.013820 0.000000 -0.004002 0.000000
# 4 0.000000 0.000000 0.000000 0.043614 0.000000 0.016770
# 5 0.001465 0.000297 -0.004002 0.000000 0.033138 0.000000
# 6 0.000000 0.000000 0.000000 0.016770 0.000000 0.061747
#
#
# Mechanical properties :
#
#
# Convention : Reuss Voigt Hill
#
# Bulk Modulus (GPa) = 41.41888 54.85848 48.13868
# Shear Modulus (GPa) = 26.04552 33.59390 29.81971
#
# Velocity S-wave (km/s) = 3.41644 3.88005 3.65560
# Velocity P-wave (km/s) = 5.84160 6.68262 6.27621
#
# Compressibility (1/GPa) = 0.02414358
#
# Stress axis : x y z
#
# Youngs Moduli (GPa) = 65.28570 177.09987 72.35839
#
# Poissons Ratio (x) = 0.36104 0.08749
# Poissons Ratio (y) = 0.13309 0.14996
# Poissons Ratio (z) = 0.07893 0.36703
#
# Static dielectric constant tensor:
#      x y z
#    x 1.734230 0.000000 0.008310 
#    y 0.000000 1.862750 0.000000 
#    z 0.008310 0.000000 1.936650 
# 
# From -- ./inp_files/204799.got.cif
#   From: 2010.05.17/outbox.cif.g08.bks.cpg/sg12_103_cif.got.tgz:204799.got - 2010.06.03 13:09:07.
