data_PCOD9211897
_publ_section_title
;
Structure prediction by ZEFSAII (Michael W. Deem and Ramdas Pophale) SiO2 
 PCOD9211897
Probable space group: C 2/M
;
_chemical_formula_sum "Si O2"
_cell_formula_units_Z 50
_cell_length_a 31.078801
_cell_length_b 16.976040
_cell_length_c 15.642015
_cell_angle_alpha 90.000000
_cell_angle_beta 161.600846
_cell_angle_gamma 90.000000
_cell_volume 2604.824900
_symmetry_space_group_name_H-M "C 2/M"
_symmetry_group_IT_number 12
_symmetry_cell_setting 'monoclinic'
loop_
_space_group_symop_operation_xyz
x,y,z
-x,y,-z
-x,-y,-z
x,-y,z
1/2+x,1/2+y,z
1/2-x,1/2+y,-z
1/2-x,1/2-y,-z
1/2+x,1/2-y,z
loop_
_atom_site_type_symbol
_atom_site_label
_atom_site_fract_x
_atom_site_fract_y
_atom_site_fract_z
Si Si1 0.644220 0.906326 0.452779
Si Si2 0.161023 0.675402 0.308108
Si Si3 0.403040 0.370778 0.456722
Si Si4 0.191027 0.095200 0.073618
Si Si5 0.645292 0.787974 0.734314
Si Si6 0.663494 0.906505 0.134415
Si Si7 0.500000 0.500000 0.500000
O O1 0.677534 0.883434 0.418979
O O2 0.749762 0.878409 0.723309
O O3 0.644665 0.000000 0.460494
O O4 0.489258 0.879639 0.179196
O O5 0.250000 0.750000 0.500000
O O6 0.200878 0.637797 0.292585
O O7 0.000000 0.694700 0.000000
O O8 0.387704 0.282465 0.393501
O O9 0.270102 0.391935 0.260485
O O10 0.430738 0.430745 0.430840
O O11 0.535718 0.379960 0.766515
O O12 0.280942 0.138842 0.171717
O O13 0.198783 0.000000 0.078487
O O14 0.500000 0.811749 0.500000
O O15 0.750000 0.750000 0.000000
O O16 0.657756 0.000000 0.141761
#
# Coordination Sequence:
#
# PCOD9211897 Si02
#       7
#     8   8   8   8   8   8   2
#     4   9  21  41  65  93 128 165 209 270 321 376
#     4  10  22  40  62  93 130 168 211 263 323 386
#     4  12  24  42  69  95 131 174 220 271 329 395
#     4  11  24  45  66  96 132 172 217 271 332 391
#     4  12  26  45  64  96 128 173 219 277 334 390
#     4  10  21  40  67  96 123 170 222 263 322 398
#     4  12  20  44  68  94 126 172 222 266 322 388
#
# _framework density 19.195148
#
# number of rings (size 3 to 8) (size 9 to 14) (size 15 to 20)
#    0.000    1.280    4.000    0.480    4.480    3.520 
#    0.000    0.000    0.000    3.840    0.000    0.000 
#    0.000    0.000    0.000    0.000    0.000    0.000 
#
# Total GULP energy -139377.872625 kJ/mol
# GULP energy per Si atom -5575.114905 kJ/mol
# Density = 1.915146 g / cm^3
# Si number density = 19.195148 Si / 1000 Ang^3
#
#
#
# Elastic Constant Matrix: (Units=GPa)
#
#
# Indices 1 2 3 4 5 6 
#
# 1 103.7628 12.7840 33.3992 0.0000 5.2423 0.0000
# 2 12.7840 44.3984 24.9845 0.0000 -9.0196 0.0000
# 3 33.3992 24.9845 76.6764 0.0000 -17.1172 0.0000
# 4 0.0000 0.0000 0.0000 27.8368 0.0000 -6.6674
# 5 5.2423 -9.0196 -17.1172 0.0000 28.8105 0.0000
# 6 0.0000 0.0000 0.0000 -6.6674 0.0000 22.6812
#
#
#
# Elastic Compliance Matrix: (Units=1/GPa)
#
#
# Indices 1 2 3 4 5 6 
#
# 1 0.012137 -0.001238 -0.006298 0.000000 -0.006338 0.000000
# 2 -0.001238 0.028072 -0.007604 0.000000 0.004496 0.000000
# 3 -0.006298 -0.007604 0.020738 0.000000 0.011087 0.000000
# 4 0.000000 0.000000 0.000000 0.038645 0.000000 0.011360
# 5 -0.006338 0.004496 0.011087 0.000000 0.043857 0.000000
# 6 0.000000 0.000000 0.000000 0.011360 0.000000 0.047429
#
#
# Mechanical properties :
#
#
# Convention : Reuss Voigt Hill
#
# Bulk Modulus (GPa) = 32.60901 40.79698 36.70299
# Shear Modulus (GPa) = 21.60927 26.11035 23.85981
#
# Velocity S-wave (km/s) = 3.35889 3.69217 3.52946
# Velocity P-wave (km/s) = 5.66285 6.28300 5.98097
#
# Compressibility (1/GPa) = 0.03066637
#
# Stress axis : x y z
#
# Youngs Moduli (GPa) = 82.38954 35.62225 48.22044
#
# Poissons Ratio (x) = 0.04410 0.30371
# Poissons Ratio (y) = 0.10201 0.36668
# Poissons Ratio (z) = 0.51892 0.27088
#
# Static dielectric constant tensor:
#      x y z
#    x 1.727010 0.000000 -0.047100 
#    y 0.000000 1.663210 0.000000 
#    z -0.047100 0.000000 1.692230 
# 
# From -- ./inp_files/251761.got.cif
#   From: 2010.05.17/outbox.cif.g08.bks.cpg/sg12_126_cif.got.tgz:251761.got - 2010.06.03 13:09:07.
