data_PCOD9211560
_publ_section_title
;
Structure prediction by ZEFSAII (Michael W. Deem and Ramdas Pophale) SiO2 
 PCOD9211560
Probable space group: C 2/M
;
_chemical_formula_sum "Si O2"
_cell_formula_units_Z 56
_cell_length_a 19.136388
_cell_length_b 8.589273
_cell_length_c 17.172215
_cell_angle_alpha 90.000000
_cell_angle_beta 79.915947
_cell_angle_gamma 90.000000
_cell_volume 2778.953815
_symmetry_space_group_name_H-M "C 2/M"
_symmetry_group_IT_number 12
_symmetry_cell_setting 'monoclinic'
loop_
_space_group_symop_operation_xyz
x,y,z
-x,y,-z
-x,-y,-z
x,-y,z
1/2+x,1/2+y,z
1/2-x,1/2+y,-z
1/2-x,1/2-y,-z
1/2+x,1/2-y,z
loop_
_atom_site_type_symbol
_atom_site_label
_atom_site_fract_x
_atom_site_fract_y
_atom_site_fract_z
Si Si1 0.533891 0.183503 0.261408
Si Si2 0.874550 0.686367 0.299902
Si Si3 0.656035 0.685132 0.130305
Si Si4 0.417748 0.310211 0.015954
Si Si5 0.671810 0.686662 0.524706
Si Si6 0.939731 0.181838 0.577634
Si Si7 0.303984 0.686381 0.165889
O O1 0.453658 0.235057 0.257282
O O2 0.594298 0.274168 0.203457
O O3 0.543564 0.216397 0.350992
O O4 0.540772 0.000000 0.243899
O O5 0.872719 0.500000 0.303269
O O6 0.861397 0.750240 0.388937
O O7 0.817240 0.746439 0.249244
O O8 0.666633 0.500000 0.124718
O O9 0.625269 0.738722 0.052851
O O10 0.730068 0.760625 0.142050
O O11 0.419745 0.500000 0.015206
O O12 0.500000 0.257103 0.000000
O O13 0.370338 0.261919 0.098941
O O14 0.669639 0.500000 0.528486
O O15 0.750000 0.750000 0.500000
O O16 0.629449 0.733911 0.455561
O O17 0.000000 0.189037 0.500000
O O18 0.933417 0.000000 0.603108
O O19 0.304461 0.500000 0.169836
#
# Coordination Sequence:
#
# PCOD9211560 Si02
#       7
#     8   8   8   8   8   8   8
#     4  11  24  40  62  91 124 161 206 255 306 365
#     4  11  24  42  62  89 124 162 207 256 310 369
#     4  11  23  40  64  92 127 165 203 251 305 363
#     4   9  19  38  65  95 123 159 205 250 301 363
#     4  11  24  41  63  89 122 162 206 258 311 366
#     4  10  21  40  64  89 118 158 207 253 305 365
#     4  11  23  40  64  92 126 163 205 254 305 364
#
# _framework density 20.151468999999999
#
# number of rings (size 3 to 8) (size 9 to 14) (size 15 to 20)
#    0.000    1.429    1.429    3.429    2.000    4.286 
#    0.000    2.143    0.000    5.143    0.000    0.000 
#    0.000    0.000    0.000    0.000    0.000    0.000 
#
# Total GULP energy -156514.075577 kJ/mol
# GULP energy per Si atom -5589.788413 kJ/mol
# Density = 2.010560 g / cm^3
# Si number density = 20.151469 Si / 1000 Ang^3
#
#
#
# Elastic Constant Matrix: (Units=GPa)
#
#
# Indices 1 2 3 4 5 6 
#
# 1 123.1640 17.8858 9.8669 0.0000 10.5588 0.0000
# 2 17.8858 29.5890 8.2871 0.0000 4.4002 0.0000
# 3 9.8669 8.2871 60.3961 0.0000 8.2179 0.0000
# 4 0.0000 0.0000 0.0000 16.0581 0.0000 4.2028
# 5 10.5588 4.4002 8.2179 0.0000 37.4027 0.0000
# 6 0.0000 0.0000 0.0000 4.2028 0.0000 15.5195
#
#
#
# Elastic Compliance Matrix: (Units=1/GPa)
#
#
# Indices 1 2 3 4 5 6 
#
# 1 0.009053 -0.005048 -0.000535 0.000000 -0.001844 0.000000
# 2 -0.005048 0.038331 -0.004139 0.000000 -0.002175 0.000000
# 3 -0.000535 -0.004139 0.017654 0.000000 -0.003241 0.000000
# 4 0.000000 0.000000 0.000000 0.067024 0.000000 -0.018151
# 5 -0.001844 -0.002175 -0.003241 0.000000 0.028225 0.000000
# 6 0.000000 0.000000 0.000000 -0.018151 0.000000 0.069351
#
#
# Mechanical properties :
#
#
# Convention : Reuss Voigt Hill
#
# Bulk Modulus (GPa) = 21.93343 31.69211 26.81277
# Shear Modulus (GPa) = 18.91936 25.60334 22.26135
#
# Velocity S-wave (km/s) = 3.06740 3.56834 3.32731
# Velocity P-wave (km/s) = 4.84285 5.72175 5.30055
#
# Compressibility (1/GPa) = 0.04559251
#
# Stress axis : x y z
#
# Youngs Moduli (GPa) = 110.45613 26.08888 56.64544
#
# Poissons Ratio (x) = 0.13171 0.03033
# Poissons Ratio (y) = 0.55762 0.23444
# Poissons Ratio (z) = 0.05914 0.10798
#
# Static dielectric constant tensor:
#      x y z
#    x 1.843290 0.000000 0.040560 
#    y 0.000000 1.681340 0.000000 
#    z 0.040560 0.000000 1.705070 
# 
# From -- ./inp_files/275267.got.cif
#   From: 2010.05.17/outbox.cif.g08.bks.cpg/sg12_138_cif.got.tgz:275267.got - 2010.06.03 13:09:07.
