data_PCOD9211127
_publ_section_title
;
Structure prediction by ZEFSAII (Michael W. Deem and Ramdas Pophale) SiO2 
 PCOD9211127
Probable space group: C 2/M
;
_chemical_formula_sum "Si O2"
_cell_formula_units_Z 44
_cell_length_a 11.492290
_cell_length_b 23.176513
_cell_length_c 8.378036
_cell_angle_alpha 90.000000
_cell_angle_beta 118.969265
_cell_angle_gamma 90.000000
_cell_volume 1952.293943
_symmetry_space_group_name_H-M "C 2/M"
_symmetry_group_IT_number 12
_symmetry_cell_setting 'monoclinic'
loop_
_space_group_symop_operation_xyz
x,y,z
-x,y,-z
-x,-y,-z
x,-y,z
1/2+x,1/2+y,z
1/2-x,1/2+y,-z
1/2-x,1/2-y,-z
1/2+x,1/2-y,z
loop_
_atom_site_type_symbol
_atom_site_label
_atom_site_fract_x
_atom_site_fract_y
_atom_site_fract_z
Si Si1 0.127812 0.500000 0.473237
Si Si2 0.500000 0.606340 0.500000
Si Si3 0.972379 0.689669 0.790844
Si Si4 0.960812 0.180000 0.161072
Si Si5 0.703894 0.906339 0.291090
Si Si6 0.202051 0.612036 0.941121
Si Si7 0.660765 0.500000 0.124772
O O1 0.125137 0.445236 0.359280
O O2 0.270330 0.500000 0.656705
O O3 0.000000 0.500000 0.500000
O O4 0.514463 0.640445 0.340936
O O5 0.641827 0.576082 0.608703
O O6 0.998048 0.755417 0.762800
O O7 0.828205 0.659885 0.679597
O O8 0.079729 0.646368 0.782498
O O9 0.000000 0.690111 0.000000
O O10 0.805553 0.163246 0.053837
O O11 0.000000 0.169856 0.000000
O O12 0.655648 0.913728 0.078728
O O13 0.278927 0.559603 0.907686
O O14 0.500000 0.500000 0.000000
#
# Coordination Sequence:
#
# PCOD9211127 Si02
#       7
#     4   4   8   8   8   8   4
#     4  12  27  45  66  98 136 175 222 284 343 400
#     4  10  24  41  62 100 128 175 222 276 330 412
#     4   9  19  39  65  94 124 172 222 270 331 408
#     4  10  21  39  66  95 135 175 222 274 335 396
#     4  10  23  42  66  91 132 170 223 274 338 395
#     4  10  21  41  66  92 129 173 223 272 337 400
#     4  12  27  40  63  99 129 175 231 272 337 410
#
# _framework density 22.537589000000001
#
# number of rings (size 3 to 8) (size 9 to 14) (size 15 to 20)
#    0.000    1.818    0.000    2.727    7.636    2.545 
#    4.909    3.636    0.000    0.000    0.000    0.000 
#    0.000    0.000    0.000    0.000    0.000    0.000 
#
# Total GULP energy -122595.571892 kJ/mol
# GULP energy per Si atom -5572.525995 kJ/mol
# Density = 2.248629 g / cm^3
# Si number density = 22.537589 Si / 1000 Ang^3
#
#
#
# Elastic Constant Matrix: (Units=GPa)
#
#
# Indices 1 2 3 4 5 6 
#
# 1 95.0544 16.0357 9.3547 0.0000 -13.0620 0.0000
# 2 16.0357 68.5002 -2.8395 0.0000 -27.8955 0.0000
# 3 9.3547 -2.8395 52.5280 0.0000 -20.7610 0.0000
# 4 0.0000 0.0000 0.0000 -4.7059 0.0000 -30.6641
# 5 -13.0620 -27.8955 -20.7610 0.0000 33.8540 0.0000
# 6 0.0000 0.0000 0.0000 -30.6641 0.0000 4.5163
#
#
#
# Elastic Compliance Matrix: (Units=1/GPa)
#
#
# Indices 1 2 3 4 5 6 
#
# 1 0.011239 -0.001882 -0.001323 0.000000 0.001975 0.000000
# 2 -0.001882 0.028471 0.014333 0.000000 0.031524 0.000000
# 3 -0.001323 0.014333 0.032357 0.000000 0.031143 0.000000
# 4 0.000000 0.000000 0.000000 -0.004697 0.000000 -0.031891
# 5 0.001975 0.031524 0.031143 0.000000 0.075374 0.000000
# 6 0.000000 0.000000 0.000000 -0.031891 0.000000 0.004894
#
#
# Mechanical properties :
#
#
# Convention : Reuss Voigt Hill
#
# Bulk Modulus (GPa) = 10.60172 29.02048 19.81110
# Shear Modulus (GPa) = 31.88327 19.63498 25.75912
#
# Velocity S-wave (km/s) = 3.76529 2.95483 3.38441
# Velocity P-wave (km/s) = 4.85978 4.95437 4.90730
#
# Compressibility (1/GPa) = 0.09432433
#
# Stress axis : x y z
#
# Youngs Moduli (GPa) = 88.97366 35.12394 30.90541
#
# Poissons Ratio (x) = 0.06609 0.04088
# Poissons Ratio (y) = 0.16743 -0.44298
# Poissons Ratio (z) = 0.11770 -0.50345
#
# Static dielectric constant tensor:
#      x y z
#    x 1.886390 0.000000 0.004900 
#    y 0.000000 1.884910 0.000000 
#    z 0.004900 0.000000 1.871340 
# 
# From -- ./inp_files/50927.got.cif
#   From: 2010.05.17/outbox.cif.g08.bks.cpg/sg12_26_cif.got.tgz:50927.got - 2010.06.03 13:09:07.
