data_PCOD9211802
_publ_section_title
;
Structure prediction by ZEFSAII (Michael W. Deem and Ramdas Pophale) SiO2 
 PCOD9211802
Probable space group: C 2/M
;
_chemical_formula_sum "Si O2"
_cell_formula_units_Z 64
_cell_length_a 19.674011
_cell_length_b 8.371254
_cell_length_c 31.043564
_cell_angle_alpha 90.000000
_cell_angle_beta 141.301096
_cell_angle_gamma 90.000000
_cell_volume 3196.636355
_symmetry_space_group_name_H-M "C 2/M"
_symmetry_group_IT_number 12
_symmetry_cell_setting 'monoclinic'
loop_
_space_group_symop_operation_xyz
x,y,z
-x,y,-z
-x,-y,-z
x,-y,z
1/2+x,1/2+y,z
1/2-x,1/2+y,-z
1/2-x,1/2-y,-z
1/2+x,1/2-y,z
loop_
_atom_site_type_symbol
_atom_site_label
_atom_site_fract_x
_atom_site_fract_y
_atom_site_fract_z
Si Si1 0.200905 0.688636 0.783976
Si Si2 0.375092 0.692430 0.434918
Si Si3 0.978790 0.685939 0.802668
Si Si4 0.626270 0.191714 0.064880
Si Si5 0.277652 0.193080 0.061526
Si Si6 0.270577 0.689326 0.557963
Si Si7 0.247407 0.805112 0.713327
Si Si8 0.480659 0.313519 0.712544
O O1 0.184804 0.500000 0.780800
O O2 0.311589 0.737537 0.863003
O O3 0.198919 0.739058 0.733310
O O4 0.102627 0.778768 0.758789
O O5 0.500000 0.749350 0.500000
O O6 0.377381 0.500000 0.434384
O O7 0.307212 0.740647 0.443495
O O8 0.315778 0.745781 0.361336
O O9 0.985648 0.500000 0.817992
O O10 0.872976 0.752265 0.773943
O O11 0.099165 0.753346 0.868812
O O12 0.953189 0.705713 0.739793
O O13 0.694235 0.243134 0.056174
O O14 0.628761 0.000000 0.069222
O O15 0.500000 0.242372 0.000000
O O16 0.276080 0.000000 0.063347
O O17 0.250000 0.250000 0.000000
O O18 0.255715 0.500000 0.551215
O O19 0.250000 0.750000 0.500000
O O20 0.394749 0.724041 0.632881
O O21 0.246274 0.000000 0.713840
O O22 0.468317 0.500000 0.718271
#
# Coordination Sequence:
#
# PCOD9211802 Si02
#       8
#     8   8   8   8   8   8   8   8
#     4  12  26  42  64  95 129 165 210 259 312 373
#     4  10  22  41  65  93 126 165 208 256 313 374
#     4  10  21  40  66  92 121 161 207 258 312 368
#     4  11  25  45  67  92 127 168 211 260 315 373
#     4  11  24  41  64  96 128 163 212 258 311 373
#     4  11  25  42  64  94 126 165 213 262 313 374
#     4  10  22  41  64  91 128 167 206 254 312 374
#     4  11  23  41  66  92 123 163 211 261 314 373
#
# _framework density 20.021044
#
# number of rings (size 3 to 8) (size 9 to 14) (size 15 to 20)
#    0.000    1.250    2.500    2.625    3.500    4.250 
#    0.000    0.000    0.000    0.000    0.000    0.000 
#    0.000    0.000    0.000    0.000    0.000    0.000 
#
# Total GULP energy -178801.348011 kJ/mol
# GULP energy per Si atom -5587.542125 kJ/mol
# Density = 1.997548 g / cm^3
# Si number density = 20.021044 Si / 1000 Ang^3
#
#
#
# Elastic Constant Matrix: (Units=GPa)
#
#
# Indices 1 2 3 4 5 6 
#
# 1 61.0859 -0.5286 14.3951 0.0000 -4.8293 -0.0001
# 2 -0.5286 16.1646 16.3175 0.0000 4.5163 -0.0003
# 3 14.3951 16.3175 107.6737 0.0000 0.9264 -0.0001
# 4 0.0000 0.0000 0.0000 22.5655 0.0000 -7.3580
# 5 -4.8293 4.5163 0.9264 0.0000 41.3792 0.0000
# 6 -0.0001 -0.0003 -0.0001 -7.3580 0.0000 32.1670
#
#
#
# Elastic Compliance Matrix: (Units=1/GPa)
#
#
# Indices 1 2 3 4 5 6 
#
# 1 0.017180 0.002839 -0.002742 0.000000 0.001757 0.000000
# 2 0.002839 0.076061 -0.011840 0.000000 -0.007705 0.000001
# 3 -0.002742 -0.011840 0.011442 0.000000 0.000716 0.000000
# 4 0.000000 0.000000 0.000000 0.047887 0.000000 0.010954
# 5 0.001757 -0.007705 0.000716 0.000000 0.025197 0.000000
# 6 0.000000 0.000001 0.000000 0.010954 0.000000 0.033593
#
#
# Mechanical properties :
#
#
# Convention : Reuss Voigt Hill
#
# Bulk Modulus (GPa) = 12.31572 27.25468 19.78520
# Shear Modulus (GPa) = 19.09039 29.53837 24.31438
#
# Velocity S-wave (km/s) = 3.09126 3.84522 3.48866
# Velocity P-wave (km/s) = 4.34809 5.77554 5.11188
#
# Compressibility (1/GPa) = 0.08119702
#
# Stress axis : x y z
#
# Youngs Moduli (GPa) = 58.20710 13.14736 87.39683
#
# Poissons Ratio (x) = -0.03733 0.23966
# Poissons Ratio (y) = -0.16526 1.03478
# Poissons Ratio (z) = 0.15962 0.15566
#
# Static dielectric constant tensor:
#      x y z
#    x 1.693950 0.000000 0.017440 
#    y 0.000000 1.700490 0.000000 
#    z 0.017440 0.000000 1.729000 
# 
# From -- ./inp_files/378488.got.cif
#   From: 2010.05.17/outbox.cif.g08.bks.cpg/sg12_190_cif.got.tgz:378488.got - 2010.06.03 13:09:07.
