data_PCOD9211809
_publ_section_title
;
Structure prediction by ZEFSAII (Michael W. Deem and Ramdas Pophale) SiO2 
 PCOD9211809
Probable space group: C 2/M
;
_chemical_formula_sum "Si O2"
_cell_formula_units_Z 36
_cell_length_a 16.396201
_cell_length_b 8.218952
_cell_length_c 11.796370
_cell_angle_alpha 90.000000
_cell_angle_beta 97.967417
_cell_angle_gamma 90.000000
_cell_volume 1574.328935
_symmetry_space_group_name_H-M "C 2/M"
_symmetry_group_IT_number 12
_symmetry_cell_setting 'monoclinic'
loop_
_space_group_symop_operation_xyz
x,y,z
-x,y,-z
-x,-y,-z
x,-y,z
1/2+x,1/2+y,z
1/2-x,1/2+y,-z
1/2-x,1/2-y,-z
1/2+x,1/2-y,z
loop_
_atom_site_type_symbol
_atom_site_label
_atom_site_fract_x
_atom_site_fract_y
_atom_site_fract_z
Si Si1 0.841557 0.805594 0.037362
Si Si2 0.088509 0.313931 0.180083
Si Si3 0.000000 0.250347 0.500000
Si Si4 0.825061 0.814436 0.592743
Si Si5 0.063532 0.187905 0.731731
O O1 0.890767 0.721819 0.945417
O O2 0.851643 0.000000 0.030387
O O3 0.750000 0.750000 0.000000
O O4 0.865317 0.761473 0.170227
O O5 0.061343 0.500000 0.186229
O O6 0.160476 0.283790 0.287285
O O7 0.016356 0.194118 0.204214
O O8 0.085432 0.185966 0.455084
O O9 0.044585 0.306307 0.623511
O O10 0.750000 0.750000 0.500000
O O11 0.806509 0.000000 0.618704
O O12 0.074217 0.000000 0.691652
#
# Coordination Sequence:
#
# PCOD9211809 Si02
#       5
#     8   8   4   8   8
#     4  11  24  40  62  93 128 168 213 266 327 393
#     4  11  23  41  63  90 125 168 217 268 324 387
#     4  10  21  42  69  96 131 174 217 262 333 408
#     4  11  23  41  67  98 133 176 221 275 333 399
#     4  10  21  40  66  92 124 167 211 264 328 396
#
# _framework density 22.866885
#
# number of rings (size 3 to 8) (size 9 to 14) (size 15 to 20)
#    0.000    1.333    0.000    7.333    3.111    4.444 
#    0.000   13.889    0.000    0.000    0.000    0.000 
#    0.000    0.000    0.000    0.000    0.000    0.000 
#
# Total GULP energy -100270.511100 kJ/mol
# GULP energy per Si atom -5570.583950 kJ/mol
# Density = 2.281484 g / cm^3
# Si number density = 22.866885 Si / 1000 Ang^3
#
#
#
# Elastic Constant Matrix: (Units=GPa)
#
#
# Indices 1 2 3 4 5 6 
#
# 1 52.6600 -0.2902 38.0618 0.0000 19.8656 0.0000
# 2 -0.2902 80.7586 34.8956 0.0000 5.4305 0.0000
# 3 38.0618 34.8956 173.9295 0.0000 29.2988 0.0000
# 4 0.0000 0.0000 0.0000 9.7736 0.0000 7.0054
# 5 19.8656 5.4305 29.2988 0.0000 52.1369 0.0000
# 6 0.0000 0.0000 0.0000 7.0054 0.0000 18.1330
#
#
#
# Elastic Compliance Matrix: (Units=1/GPa)
#
#
# Indices 1 2 3 4 5 6 
#
# 1 0.025207 0.002666 -0.004845 0.000000 -0.007160 0.000000
# 2 0.002666 0.013841 -0.003254 0.000000 -0.000628 0.000000
# 3 -0.004845 -0.003254 0.007836 0.000000 -0.002219 0.000000
# 4 0.000000 0.000000 0.000000 0.141501 0.000000 -0.054667
# 5 -0.007160 -0.000628 -0.002219 0.000000 0.023221 0.000000
# 6 0.000000 0.000000 0.000000 -0.054667 0.000000 0.076268
#
#
# Mechanical properties :
#
#
# Convention : Reuss Voigt Hill
#
# Bulk Modulus (GPa) = 27.76490 50.29805 39.03148
# Shear Modulus (GPa) = 16.09027 31.65408 23.87217
#
# Velocity S-wave (km/s) = 2.65552 3.72462 3.23455
# Velocity P-wave (km/s) = 4.64443 6.36717 5.57277
#
# Compressibility (1/GPa) = 0.03601670
#
# Stress axis : x y z
#
# Youngs Moduli (GPa) = 39.67122 72.25128 127.61046
#
# Poissons Ratio (x) = -0.19259 0.61826
# Poissons Ratio (y) = -0.10574 0.41528
# Poissons Ratio (z) = 0.19220 0.23513
#
# Static dielectric constant tensor:
#      x y z
#    x 1.852640 0.000000 0.030040 
#    y 0.000000 1.834300 0.000000 
#    z 0.030040 0.000000 1.895300 
# 
# From -- ./inp_files/152071.got.cif
#   From: 2010.05.17/outbox.cif.g08.bks.cpg/sg12_77_cif.got.tgz:152071.got - 2010.06.03 13:09:07.
