data_PCOD9211982
_publ_section_title
;
Structure prediction by ZEFSAII (Michael W. Deem and Ramdas Pophale) SiO2 
 PCOD9211982
Probable space group: C 2/M
;
_chemical_formula_sum "Si O2"
_cell_formula_units_Z 48
_cell_length_a 14.130159
_cell_length_b 27.878000
_cell_length_c 10.710881
_cell_angle_alpha 90.000000
_cell_angle_beta 31.301241
_cell_angle_gamma 90.000000
_cell_volume 2192.052021
_symmetry_space_group_name_H-M "C 2/M"
_symmetry_group_IT_number 12
_symmetry_cell_setting 'monoclinic'
loop_
_space_group_symop_operation_xyz
x,y,z
-x,y,-z
-x,-y,-z
x,-y,z
1/2+x,1/2+y,z
1/2-x,1/2+y,-z
1/2-x,1/2-y,-z
1/2+x,1/2-y,z
loop_
_atom_site_type_symbol
_atom_site_label
_atom_site_fract_x
_atom_site_fract_y
_atom_site_fract_z
Si Si1 0.424168 0.635501 0.951628
Si Si2 0.861993 0.443484 0.768974
Si Si3 0.707782 0.653798 0.276477
Si Si4 0.224147 0.307127 0.537341
Si Si5 0.657968 0.198284 0.128992
Si Si6 0.655668 0.053024 0.928477
O O1 0.596480 0.661087 0.692054
O O2 0.500000 0.624114 0.000000
O O3 0.323168 0.587663 0.019321
O O4 0.264717 0.675049 0.123279
O O5 0.826475 0.500000 0.787909
O O6 0.929749 0.438256 0.836393
O O7 0.000000 0.428571 0.500000
O O8 0.500000 0.670913 0.500000
O O9 0.808290 0.676517 0.282675
O O10 0.792869 0.669881 0.051472
O O11 0.717929 0.596323 0.259195
O O12 0.250000 0.250000 0.500000
O O13 0.057413 0.311191 0.628025
O O14 0.750000 0.250000 0.000000
O O15 0.742426 0.000000 0.836452
O O16 0.500000 0.051905 0.000000
#
# Coordination Sequence:
#
# PCOD9211982 Si02
#       6
#     8   8   8   8   8   8
#     4  12  28  45  68 105 140 186 248 296 360 438
#     4  10  23  47  75 106 148 195 243 305 376 447
#     4  12  23  43  70  99 140 179 232 291 359 430
#     4  12  26  46  69 102 142 190 237 291 360 432
#     4  12  25  45  68  99 140 185 234 297 358 425
#     4  10  21  40  69 106 141 180 236 297 365 436
#
# _framework density 21.897292
#
# number of rings (size 3 to 8) (size 9 to 14) (size 15 to 20)
#    0.000    0.667    5.000    1.500    4.667    0.667 
#    0.000    0.833    0.000    1.000    0.000    0.000 
#    0.000    0.000    0.000    0.000    0.000    0.000 
#
# Total GULP energy -133771.344104 kJ/mol
# GULP energy per Si atom -5573.806004 kJ/mol
# Density = 2.184745 g / cm^3
# Si number density = 21.897292 Si / 1000 Ang^3
#
#
#
# Elastic Constant Matrix: (Units=GPa)
#
#
# Indices 1 2 3 4 5 6 
#
# 1 132.5247 27.2907 37.4125 -0.0002 -8.9013 -0.0003
# 2 27.2907 122.9876 29.2419 -0.0001 0.5687 -0.0001
# 3 37.4125 29.2419 98.3680 -0.0003 -12.9736 -0.0005
# 4 -0.0002 -0.0001 -0.0003 8.9846 0.0002 -42.0383
# 5 -8.9013 0.5687 -12.9736 0.0002 40.2151 0.0004
# 6 -0.0003 -0.0001 -0.0005 -42.0383 0.0004 -23.8452
#
#
#
# Elastic Compliance Matrix: (Units=1/GPa)
#
#
# Indices 1 2 3 4 5 6 
#
# 1 0.008661 -0.001265 -0.002781 0.000000 0.001038 0.000000
# 2 -0.001265 0.008973 -0.002339 0.000000 -0.001162 0.000000
# 3 -0.002781 -0.002339 0.012368 0.000000 0.003408 0.000000
# 4 0.000000 0.000000 0.000000 0.012034 0.000000 -0.021216
# 5 0.001038 -0.001162 0.003408 0.000000 0.026212 0.000000
# 6 0.000000 0.000000 0.000000 -0.021216 0.000000 -0.004534
#
#
# Mechanical properties :
#
#
# Convention : Reuss Voigt Hill
#
# Bulk Modulus (GPa) = 58.03460 60.19671 59.11565
# Shear Modulus (GPa) = 60.80495 22.39990 41.60243
#
# Velocity S-wave (km/s) = 5.27528 3.20183 4.36350
# Velocity P-wave (km/s) = 7.97906 6.42021 7.24170
#
# Compressibility (1/GPa) = 0.01723110
#
# Stress axis : x y z
#
# Youngs Moduli (GPa) = 115.45777 111.44169 80.85056
#
# Poissons Ratio (x) = 0.14103 0.22485
# Poissons Ratio (y) = 0.14611 0.18914
# Poissons Ratio (z) = 0.32110 0.26071
#
# Static dielectric constant tensor:
#      x y z
#    x 1.850620 0.000000 -0.044790 
#    y 0.000000 1.969340 0.000000 
#    z -0.044790 0.000000 2.003330 
# 
# From -- ./inp_files/150189.got.cif
#   From: 2010.05.17/outbox.cif.g08.bks.cpg/sg12_76_cif.got.tgz:150189.got - 2010.06.03 13:09:07.
