data_PCOD9211047
_publ_section_title
;
Structure prediction by ZEFSAII (Michael W. Deem and Ramdas Pophale) SiO2 
 PCOD9211047
Probable space group: C 2/M
;
_chemical_formula_sum "Si O2"
_cell_formula_units_Z 56
_cell_length_a 23.263793
_cell_length_b 14.237921
_cell_length_c 9.234638
_cell_angle_alpha 90.000000
_cell_angle_beta 60.781689
_cell_angle_gamma 90.000000
_cell_volume 2669.591789
_symmetry_space_group_name_H-M "C 2/M"
_symmetry_group_IT_number 12
_symmetry_cell_setting 'monoclinic'
loop_
_space_group_symop_operation_xyz
x,y,z
-x,y,-z
-x,-y,-z
x,-y,z
1/2+x,1/2+y,z
1/2-x,1/2+y,-z
1/2-x,1/2-y,-z
1/2+x,1/2-y,z
loop_
_atom_site_type_symbol
_atom_site_label
_atom_site_fract_x
_atom_site_fract_y
_atom_site_fract_z
Si Si1 0.162039 0.107871 0.988703
Si Si2 0.062959 0.106962 0.528382
Si Si3 0.812394 0.210767 0.759515
Si Si4 0.281158 0.109016 0.648044
Si Si5 0.700541 0.888675 0.710489
Si Si6 0.977099 0.798342 0.863741
Si Si7 0.060973 0.603577 0.036434
O O1 0.204217 0.115073 0.789666
O O2 0.168718 0.000000 0.032703
O O3 0.192256 0.179522 0.068372
O O4 0.085860 0.133756 0.067678
O O5 0.122847 0.158075 0.377865
O O6 0.000000 0.104479 0.500000
O O7 0.037236 0.163538 0.697327
O O8 0.081078 0.000000 0.543142
O O9 0.817080 0.320096 0.713108
O O10 0.751209 0.169899 0.743880
O O11 0.293720 0.136556 0.466247
O O12 0.300882 0.000000 0.641464
O O13 0.627210 0.876103 0.863773
O O14 0.716288 0.000000 0.702113
O O15 0.953813 0.693760 0.846789
O O16 0.000000 0.793344 0.000000
O O17 0.068038 0.500000 0.096615
O O18 0.000000 0.597275 0.000000
#
# Coordination Sequence:
#
# PCOD9211047 Si02
#       7
#     8   8   8   8   8   8   8
#     4  11  23  42  62  90 127 167 209 259 318 377
#     4  11  24  43  64  91 127 168 209 255 314 380
#     4  12  23  40  67  89 127 172 211 253 312 385
#     4  10  24  40  62  94 127 159 205 266 317 363
#     4  10  21  39  65  96 124 161 213 263 311 370
#     4  11  24  39  64  94 126 163 213 262 315 366
#     4   9  20  39  64  91 125 164 207 254 310 376
#
# _framework density 20.976990000000001
#
# number of rings (size 3 to 8) (size 9 to 14) (size 15 to 20)
#    0.000    1.429    1.429    3.429    6.000    1.143 
#    0.000    2.143    0.000    0.857    0.000    0.000 
#    0.000    0.000    0.000    0.000    0.000    0.000 
#
# Total GULP energy -156507.473325 kJ/mol
# GULP energy per Si atom -5589.552619 kJ/mol
# Density = 2.092925 g / cm^3
# Si number density = 20.976990 Si / 1000 Ang^3
#
#
#
# Elastic Constant Matrix: (Units=GPa)
#
#
# Indices 1 2 3 4 5 6 
#
# 1 71.0991 19.2442 10.3149 0.0000 -11.9286 0.0000
# 2 19.2442 78.6379 22.2063 0.0000 -4.3257 0.0000
# 3 10.3149 22.2063 70.7644 0.0000 -9.9161 0.0000
# 4 0.0000 0.0000 0.0000 27.1446 0.0000 0.7754
# 5 -11.9286 -4.3257 -9.9161 0.0000 34.3982 0.0000
# 6 0.0000 0.0000 0.0000 0.7754 0.0000 29.1461
#
#
#
# Elastic Compliance Matrix: (Units=1/GPa)
#
#
# Indices 1 2 3 4 5 6 
#
# 1 0.015909 -0.003470 -0.000540 0.000000 0.004925 0.000000
# 2 -0.003470 0.014718 -0.004192 0.000000 -0.000561 0.000000
# 3 -0.000540 -0.004192 0.016075 0.000000 0.003920 0.000000
# 4 0.000000 0.000000 0.000000 0.036868 0.000000 -0.000981
# 5 0.004925 -0.000561 0.003920 0.000000 0.031839 0.000000
# 6 0.000000 0.000000 0.000000 -0.000981 0.000000 0.034336
#
#
# Mechanical properties :
#
#
# Convention : Reuss Voigt Hill
#
# Bulk Modulus (GPa) = 33.00417 36.00358 34.50387
# Shear Modulus (GPa) = 28.36940 29.38685 28.87812
#
# Velocity S-wave (km/s) = 3.68150 3.74693 3.71436
# Velocity P-wave (km/s) = 5.81712 5.99333 5.90588
#
# Compressibility (1/GPa) = 0.03029920
#
# Stress axis : x y z
#
# Youngs Moduli (GPa) = 62.85901 67.94209 62.20963
#
# Poissons Ratio (x) = 0.23574 0.03359
# Poissons Ratio (y) = 0.21811 0.26075
# Poissons Ratio (z) = 0.03394 0.28478
#
# Static dielectric constant tensor:
#      x y z
#    x 1.733970 0.000000 -0.028780 
#    y 0.000000 1.811720 0.000000 
#    z -0.028780 0.000000 1.906070 
# 
# From -- ./inp_files/96778.got.cif
#   From: 2010.05.17/outbox.cif.g08.bks.cpg/sg12_49_cif.got.tgz:96778.got - 2010.06.03 13:09:07.
