data_PCOD9211907
_publ_section_title
;
Structure prediction by ZEFSAII (Michael W. Deem and Ramdas Pophale) SiO2 
 PCOD9211907
Probable space group: C 2/M
;
_chemical_formula_sum "Si O2"
_cell_formula_units_Z 52
_cell_length_a 8.877564
_cell_length_b 16.984260
_cell_length_c 21.362157
_cell_angle_alpha 90.000000
_cell_angle_beta 56.922566
_cell_angle_gamma 90.000000
_cell_volume 2698.952362
_symmetry_space_group_name_H-M "C 2/M"
_symmetry_group_IT_number 12
_symmetry_cell_setting 'monoclinic'
loop_
_space_group_symop_operation_xyz
x,y,z
-x,y,-z
-x,-y,-z
x,-y,z
1/2+x,1/2+y,z
1/2-x,1/2+y,-z
1/2-x,1/2-y,-z
1/2+x,1/2-y,z
loop_
_atom_site_type_symbol
_atom_site_label
_atom_site_fract_x
_atom_site_fract_y
_atom_site_fract_z
Si Si1 0.634230 0.304557 0.250133
Si Si2 0.523087 0.762013 0.144431
Si Si3 0.364538 0.637358 0.083972
Si Si4 0.195790 0.835844 0.486052
Si Si5 0.700838 0.000000 0.210477
Si Si6 0.552175 0.861254 0.335086
Si Si7 0.669331 0.591832 0.625299
O O1 0.569866 0.292379 0.193532
O O2 0.592291 0.222324 0.293951
O O3 0.518822 0.371398 0.309359
O O4 0.848362 0.314012 0.201704
O O5 0.465741 0.704660 0.101614
O O6 0.691266 0.818290 0.094079
O O7 0.294420 0.569248 0.145236
O O8 0.500000 0.608780 0.000000
O O9 0.250000 0.750000 0.500000
O O10 0.345211 0.862827 0.402626
O O11 0.194904 0.892060 0.546499
O O12 0.000000 0.832468 0.500000
O O13 0.610804 0.930684 0.275800
O O14 0.674152 0.867223 0.369805
O O15 0.674706 0.500000 0.638266
#
# Coordination Sequence:
#
# PCOD9211907 Si02
#       7
#     8   8   8   8   4   8   8
#     4  11  21  41  65  98 132 178 220 272 333 404
#     4  10  21  40  67  96 131 172 226 264 330 409
#     4  11  23  42  69 102 134 173 218 280 344 407
#     4  12  28  46  68  98 135 183 233 284 344 402
#     4  12  23  42  70  98 135 172 229 278 327 416
#     4  12  24  44  71  94 133 183 231 277 340 409
#     4  12  26  43  68 102 133 181 228 289 341 397
#
# _framework density 19.266734
#
# number of rings (size 3 to 8) (size 9 to 14) (size 15 to 20)
#    0.000    0.615    6.923    2.077    3.231    0.923 
#    4.154    0.000    0.000    0.000    0.000    6.462 
#    0.000    0.000    0.000    0.000    0.000    0.000 
#
# Total GULP energy -144888.860061 kJ/mol
# GULP energy per Si atom -5572.648464 kJ/mol
# Density = 1.922288 g / cm^3
# Si number density = 19.266734 Si / 1000 Ang^3
#
#
#
# Elastic Constant Matrix: (Units=GPa)
#
#
# Indices 1 2 3 4 5 6 
#
# 1 108.3996 29.3387 55.8647 0.0000 -15.7413 0.0000
# 2 29.3387 51.5345 26.1821 0.0000 -2.3794 0.0000
# 3 55.8647 26.1821 154.9154 0.0000 -23.4275 0.0000
# 4 0.0000 0.0000 0.0000 31.7730 0.0000 3.5164
# 5 -15.7413 -2.3794 -23.4275 0.0000 21.4311 0.0000
# 6 0.0000 0.0000 0.0000 3.5164 0.0000 -1.0015
#
#
#
# Elastic Compliance Matrix: (Units=1/GPa)
#
#
# Indices 1 2 3 4 5 6 
#
# 1 0.013107 -0.005732 -0.002873 0.000000 0.005850 0.000000
# 2 -0.005732 0.023797 -0.002626 0.000000 -0.004439 0.000000
# 3 -0.002873 -0.002626 0.009071 0.000000 0.007515 0.000000
# 4 0.000000 0.000000 0.000000 0.022666 0.000000 0.079583
# 5 0.005850 -0.004439 0.007515 0.000000 0.058680 0.000000
# 6 0.000000 0.000000 0.000000 0.079583 0.000000 -0.719086
#
#
# Mechanical properties :
#
#
# Convention : Reuss Voigt Hill
#
# Bulk Modulus (GPa) = 42.52999 59.73560 51.13279
# Shear Modulus (GPa) = -8.90526 24.00479 7.54976
#
# Velocity S-wave (km/s) = -2.15224 3.53359 1.98168
# Velocity P-wave (km/s) = 3.99325 6.90798 5.64208
#
# Compressibility (1/GPa) = 0.02351282
#
# Stress axis : x y z
#
# Youngs Moduli (GPa) = 76.29745 42.02221 110.23569
#
# Poissons Ratio (x) = 0.24087 0.31671
# Poissons Ratio (y) = 0.43733 0.28950
# Poissons Ratio (z) = 0.21920 0.11036
#
# Static dielectric constant tensor:
#      x y z
#    x 1.695680 0.000000 0.001310 
#    y 0.000000 1.632580 0.000000 
#    z 0.001310 0.000000 1.683300 
# 
# From -- ./inp_files/301060.got.cif
#   From: 2010.05.17/outbox.cif.g08.bks.cpg/sg12_151_cif.got.tgz:301060.got - 2010.06.03 13:09:07.
