data_PCOD9211393
_publ_section_title
;
Structure prediction by ZEFSAII (Michael W. Deem and Ramdas Pophale) SiO2 
 PCOD9211393
Probable space group: C 2/M
;
_chemical_formula_sum "Si O2"
_cell_formula_units_Z 56
_cell_length_a 20.660928
_cell_length_b 14.064552
_cell_length_c 9.656882
_cell_angle_alpha 90.000000
_cell_angle_beta 85.061575
_cell_angle_gamma 90.000000
_cell_volume 2795.744370
_symmetry_space_group_name_H-M "C 2/M"
_symmetry_group_IT_number 12
_symmetry_cell_setting 'monoclinic'
loop_
_space_group_symop_operation_xyz
x,y,z
-x,y,-z
-x,-y,-z
x,-y,z
1/2+x,1/2+y,z
1/2-x,1/2+y,-z
1/2-x,1/2-y,-z
1/2+x,1/2-y,z
loop_
_atom_site_type_symbol
_atom_site_label
_atom_site_fract_x
_atom_site_fract_y
_atom_site_fract_z
Si Si1 0.538227 0.887391 0.849227
Si Si2 0.278798 0.662309 0.578949
Si Si3 0.386837 0.386473 0.765702
Si Si4 0.813341 0.386983 0.152944
Si Si5 0.705320 0.385437 0.965040
Si Si6 0.352649 0.392874 0.306660
Si Si7 0.514381 0.282985 0.660009
O O1 0.612664 0.855421 0.858561
O O2 0.510597 0.818543 0.736558
O O3 0.536522 0.000000 0.812773
O O4 0.500000 0.875882 0.000000
O O5 0.250000 0.750000 0.500000
O O6 0.341344 0.671977 0.667646
O O7 0.223496 0.627296 0.694591
O O8 0.306516 0.600409 0.448206
O O9 0.380384 0.500000 0.736049
O O10 0.459865 0.351713 0.735789
O O11 0.355980 0.370845 0.922355
O O12 0.816433 0.500000 0.131306
O O13 0.768647 0.349134 0.035738
O O14 0.714046 0.500000 0.950657
O O15 0.688226 0.350997 0.814959
O O16 0.374919 0.500000 0.266230
O O17 0.414843 0.329189 0.330167
O O18 0.500000 0.275176 0.500000
#
# Coordination Sequence:
#
# PCOD9211393 Si02
#       7
#     8   8   8   8   8   8   8
#     4  10  24  47  70  90 120 164 215 270 328 383
#     4  11  21  36  57  89 128 164 213 251 304 369
#     4  10  21  40  62  88 131 177 210 257 318 379
#     4   9  18  39  65  85 114 160 203 253 320 376
#     4   8  18  36  60  91 123 160 208 258 314 377
#     4  11  22  38  62  97 136 170 210 262 313 375
#     4  12  25  39  62  94 130 169 220 257 312 382
#
# _framework density 20.030443999999999
#
# number of rings (size 3 to 8) (size 9 to 14) (size 15 to 20)
#    0.000    1.857    1.429    3.429    2.000    0.857 
#    2.571    4.286    0.000    0.000    0.000    0.000 
#    0.000    0.000    0.000    0.000    0.000    0.000 
#
# Total GULP energy -156277.494917 kJ/mol
# GULP energy per Si atom -5581.339104 kJ/mol
# Density = 1.998485 g / cm^3
# Si number density = 20.030444 Si / 1000 Ang^3
#
#
#
# Elastic Constant Matrix: (Units=GPa)
#
#
# Indices 1 2 3 4 5 6 
#
# 1 112.4590 17.1138 48.4819 0.0000 -5.6319 0.0000
# 2 17.1138 65.3932 11.1752 0.0000 9.2172 0.0000
# 3 48.4819 11.1752 116.2195 0.0000 17.2532 0.0000
# 4 0.0000 0.0000 0.0000 23.3043 0.0000 -1.7859
# 5 -5.6319 9.2172 17.2532 0.0000 26.6492 0.0000
# 6 0.0000 0.0000 0.0000 -1.7859 0.0000 10.5462
#
#
#
# Elastic Compliance Matrix: (Units=1/GPa)
#
#
# Indices 1 2 3 4 5 6 
#
# 1 0.012343 -0.003283 -0.005962 0.000000 0.007604 0.000000
# 2 -0.003283 0.017016 0.000786 0.000000 -0.007088 0.000000
# 3 -0.005962 0.000786 0.012439 0.000000 -0.009585 0.000000
# 4 0.000000 0.000000 0.000000 0.043475 0.000000 0.007362
# 5 0.007604 -0.007088 -0.009585 0.000000 0.047788 0.000000
# 6 0.000000 0.000000 0.000000 0.007362 0.000000 0.096067
#
#
# Mechanical properties :
#
#
# Convention : Reuss Voigt Hill
#
# Bulk Modulus (GPa) = 40.19505 49.73483 44.96494
# Shear Modulus (GPa) = 19.65872 26.58668 23.12270
#
# Velocity S-wave (km/s) = 3.13620 3.64718 3.40130
# Velocity P-wave (km/s) = 5.76410 6.52836 6.15810
#
# Compressibility (1/GPa) = 0.02487868
#
# Stress axis : x y z
#
# Youngs Moduli (GPa) = 81.01864 58.76785 80.39300
#
# Poissons Ratio (x) = 0.19294 0.47931
# Poissons Ratio (y) = 0.26599 -0.06316
# Poissons Ratio (z) = 0.48304 -0.04617
#
# Static dielectric constant tensor:
#      x y z
#    x 1.662320 0.000000 0.023490 
#    y 0.000000 1.786420 0.000000 
#    z 0.023490 0.000000 1.684550 
# 
# From -- ./inp_files/86374.got.cif
#   From: 2010.05.17/outbox.cif.g08.bks.cpg/sg12_44_cif.got.tgz:86374.got - 2010.06.03 13:09:07.
