data_PCOD9211605
_publ_section_title
;
Structure prediction by ZEFSAII (Michael W. Deem and Ramdas Pophale) SiO2 
 PCOD9211605
Probable space group: C 2/M
;
_chemical_formula_sum "Si O2"
_cell_formula_units_Z 44
_cell_length_a 14.628431
_cell_length_b 10.823057
_cell_length_c 14.207070
_cell_angle_alpha 90.000000
_cell_angle_beta 71.947968
_cell_angle_gamma 90.000000
_cell_volume 2138.603110
_symmetry_space_group_name_H-M "C 2/M"
_symmetry_group_IT_number 12
_symmetry_cell_setting 'monoclinic'
loop_
_space_group_symop_operation_xyz
x,y,z
-x,y,-z
-x,-y,-z
x,-y,z
1/2+x,1/2+y,z
1/2-x,1/2+y,-z
1/2-x,1/2-y,-z
1/2+x,1/2-y,z
loop_
_atom_site_type_symbol
_atom_site_label
_atom_site_fract_x
_atom_site_fract_y
_atom_site_fract_z
Si Si1 0.799617 0.635436 0.033806
Si Si2 0.310388 0.867312 0.445718
Si Si3 0.681939 0.784194 0.767737
Si Si4 0.000000 0.310981 0.500000
Si Si5 0.371000 0.143286 0.697383
Si Si6 0.018016 0.641481 0.141831
O O1 0.768173 0.500000 0.008843
O O2 0.784367 0.643959 0.149899
O O3 0.911108 0.648022 0.969140
O O4 0.750000 0.750000 0.000000
O O5 0.250000 0.750000 0.500000
O O6 0.317326 0.854870 0.331320
O O7 0.416556 0.865283 0.458077
O O8 0.265424 0.000000 0.485031
O O9 0.758243 0.673706 0.733607
O O10 0.569271 0.762887 0.824510
O O11 0.926811 0.266756 0.606392
O O12 0.415729 0.155867 0.786571
O O13 0.386782 0.000000 0.662230
O O14 0.978656 0.500000 0.156610
#
# Coordination Sequence:
#
# PCOD9211605 Si02
#       6
#     8   8   8   4   8   8
#     4  11  23  41  66  98 132 171 216 271 326 386
#     4  12  25  41  66  96 128 168 217 267 323 386
#     4  12  23  38  67  98 128 163 220 274 323 373
#     4  12  23  42  67  92 129 178 223 266 323 400
#     4  11  22  38  65  97 129 167 219 272 323 389
#     4  10  21  40  64  91 124 170 221 262 313 392
#
# _framework density 20.574178
#
# number of rings (size 3 to 8) (size 9 to 14) (size 15 to 20)
#    0.000    0.727    5.455    3.818    0.000    1.455 
#    0.000    1.364    0.000    2.182    0.000    0.000 
#    0.000    0.000    0.000    0.000    0.000    0.000 
#
# Total GULP energy -122529.873724 kJ/mol
# GULP energy per Si atom -5569.539715 kJ/mol
# Density = 2.052735 g / cm^3
# Si number density = 20.574178 Si / 1000 Ang^3
#
#
#
# Elastic Constant Matrix: (Units=GPa)
#
#
# Indices 1 2 3 4 5 6 
#
# 1 111.6877 57.4539 21.5198 0.0000 1.9658 0.0000
# 2 57.4539 96.0991 35.0758 0.0000 0.8736 0.0000
# 3 21.5198 35.0758 127.9035 0.0000 2.5570 0.0000
# 4 0.0000 0.0000 0.0000 17.8275 0.0000 -6.0054
# 5 1.9658 0.8736 2.5570 0.0000 45.7032 0.0000
# 6 0.0000 0.0000 0.0000 -6.0054 0.0000 26.0109
#
#
#
# Elastic Compliance Matrix: (Units=1/GPa)
#
#
# Indices 1 2 3 4 5 6 
#
# 1 0.012938 -0.007712 -0.000054 0.000000 -0.000406 0.000000
# 2 -0.007712 0.016160 -0.003138 0.000000 0.000198 0.000000
# 3 -0.000054 -0.003138 0.008697 0.000000 -0.000424 0.000000
# 4 0.000000 0.000000 0.000000 0.060823 0.000000 0.014043
# 5 -0.000406 0.000198 -0.000424 0.000000 0.021918 0.000000
# 6 0.000000 0.000000 0.000000 0.014043 0.000000 0.041688
#
#
# Mechanical properties :
#
#
# Convention : Reuss Voigt Hill
#
# Bulk Modulus (GPa) = 62.55038 62.64323 62.59681
# Shear Modulus (GPa) = 26.40467 32.68439 29.54453
#
# Velocity S-wave (km/s) = 3.58633 3.99006 3.79357
# Velocity P-wave (km/s) = 6.90053 7.19313 7.04835
#
# Compressibility (1/GPa) = 0.01598711
#
# Stress axis : x y z
#
# Youngs Moduli (GPa) = 77.29069 61.88058 114.98838
#
# Poissons Ratio (x) = 0.47722 0.00619
# Poissons Ratio (y) = 0.59606 0.36085
# Poissons Ratio (z) = 0.00416 0.19419
#
# Static dielectric constant tensor:
#      x y z
#    x 1.760920 0.000000 -0.004940 
#    y 0.000000 1.743650 0.000000 
#    z -0.004940 0.000000 1.783800 
# 
# From -- ./inp_files/267215.got.cif
#   From: 2010.05.17/outbox.cif.g08.bks.cpg/sg12_134_cif.got.tgz:267215.got - 2010.06.03 13:09:07.
