data_PCOD9211666
_publ_section_title
;
Structure prediction by ZEFSAII (Michael W. Deem and Ramdas Pophale) SiO2 
 PCOD9211666
Probable space group: C 2/M
;
_chemical_formula_sum "Si O2"
_cell_formula_units_Z 58
_cell_length_a 26.231834
_cell_length_b 24.046492
_cell_length_c 9.123414
_cell_angle_alpha 90.000000
_cell_angle_beta 149.532058
_cell_angle_gamma 90.000000
_cell_volume 2918.057550
_symmetry_space_group_name_H-M "C 2/M"
_symmetry_group_IT_number 12
_symmetry_cell_setting 'monoclinic'
loop_
_space_group_symop_operation_xyz
x,y,z
-x,y,-z
-x,-y,-z
x,-y,z
1/2+x,1/2+y,z
1/2-x,1/2+y,-z
1/2-x,1/2-y,-z
1/2+x,1/2-y,z
loop_
_atom_site_type_symbol
_atom_site_label
_atom_site_fract_x
_atom_site_fract_y
_atom_site_fract_z
Si Si1 0.505226 0.832027 0.687780
Si Si2 0.260439 0.833517 0.680032
Si Si3 0.183263 0.262202 0.691776
Si Si4 0.672845 0.560500 0.609137
Si Si5 0.000000 0.000000 0.000000
Si Si6 0.236330 0.864671 0.291367
Si Si7 0.382197 0.561604 0.194232
Si Si8 0.425910 0.936290 0.678126
O O1 0.500000 0.836781 0.500000
O O2 0.429282 0.782626 0.548406
O O3 0.467343 0.889904 0.667382
O O4 0.620597 0.820436 0.018196
O O5 0.196166 0.788936 0.612219
O O6 0.239601 0.893071 0.700806
O O7 0.228470 0.840550 0.433198
O O8 0.232695 0.314861 0.736310
O O9 0.250000 0.250000 0.000000
O O10 0.724826 0.500000 0.736194
O O11 0.656703 0.575861 0.739538
O O12 0.569073 0.547742 0.261400
O O13 0.322027 0.911750 0.484327
O O14 0.140330 0.894580 0.986963
O O15 0.500000 0.557194 0.500000
O O16 0.342816 0.500000 0.057163
O O17 0.416597 0.000000 0.599298
O O18 0.500000 0.937142 0.000000
#
# Coordination Sequence:
#
# PCOD9211666 Si02
#       8
#     8   8   8   8   2   8   8   8
#     4  11  24  44  72  96 137 178 228 289 341 421
#     4  12  24  44  69 104 129 182 232 280 359 407
#     4  11  24  46  69  93 133 175 229 294 343 409
#     4   9  22  40  68  98 144 174 228 276 343 410
#     4   8  20  44  66  96 142 186 216 288 330 410
#     4  11  24  41  66  96 136 173 230 285 334 417
#     4  10  22  40  65  95 137 182 226 275 343 409
#     4  10  21  40  65 100 139 177 220 267 335 411
#
# _framework density 19.876235999999999
#
# number of rings (size 3 to 8) (size 9 to 14) (size 15 to 20)
#    0.414    1.103    2.759    1.655    3.862    1.931 
#    4.966    1.379    0.000    0.000    0.000    0.000 
#    0.000    0.000    0.000    0.000    0.000    0.000 
#
# Total GULP energy -161541.590724 kJ/mol
# GULP energy per Si atom -5570.399680 kJ/mol
# Density = 1.983100 g / cm^3
# Si number density = 19.876236 Si / 1000 Ang^3
#
#
#
# Elastic Constant Matrix: (Units=GPa)
#
#
# Indices 1 2 3 4 5 6 
#
# 1 115.7626 66.8112 55.6711 0.0000 -13.5933 0.0000
# 2 66.8112 95.4392 60.5136 0.0000 -4.5044 0.0000
# 3 55.6711 60.5136 99.8160 0.0000 -13.4472 0.0000
# 4 0.0000 0.0000 0.0000 5.0201 0.0000 3.6908
# 5 -13.5933 -4.5044 -13.4472 0.0000 29.4977 0.0000
# 6 0.0000 0.0000 0.0000 3.6908 0.0000 27.7489
#
#
#
# Elastic Compliance Matrix: (Units=1/GPa)
#
#
# Indices 1 2 3 4 5 6 
#
# 1 0.015700 -0.009124 -0.002598 0.000000 0.004658 0.000000
# 2 -0.009124 0.022463 -0.009199 0.000000 -0.004968 0.000000
# 3 -0.002598 -0.009199 0.017786 0.000000 0.005506 0.000000
# 4 0.000000 0.000000 0.000000 0.220788 0.000000 -0.029367
# 5 0.004658 -0.004968 0.005506 0.000000 0.037799 0.000000
# 6 0.000000 0.000000 0.000000 -0.029367 0.000000 0.039944
#
#
# Mechanical properties :
#
#
# Convention : Reuss Voigt Hill
#
# Bulk Modulus (GPa) = 70.88020 75.22329 73.05175
# Shear Modulus (GPa) = 12.46808 20.98813 16.72810
#
# Velocity S-wave (km/s) = 2.50728 3.25305 2.90420
# Velocity P-wave (km/s) = 6.64230 7.21372 6.93390
#
# Compressibility (1/GPa) = 0.01410831
#
# Stress axis : x y z
#
# Youngs Moduli (GPa) = 63.69279 44.51769 56.22427
#
# Poissons Ratio (x) = 0.40617 0.14606
# Poissons Ratio (y) = 0.58112 0.51719
# Poissons Ratio (z) = 0.16546 0.40951
#
# Static dielectric constant tensor:
#      x y z
#    x 1.745740 0.000000 0.006050 
#    y 0.000000 1.702540 0.000000 
#    z 0.006050 0.000000 1.806360 
# 
# From -- ./inp_files/106917.got.cif
#   From: 2010.05.17/outbox.cif.g08.bks.cpg/sg12_54_cif.got.tgz:106917.got - 2010.06.03 13:09:07.
