data_PCOD9211813
_publ_section_title
;
Structure prediction by ZEFSAII (Michael W. Deem and Ramdas Pophale) SiO2 
 PCOD9211813
Probable space group: C 2/M
;
_chemical_formula_sum "Si O2"
_cell_formula_units_Z 52
_cell_length_a 11.601985
_cell_length_b 15.026278
_cell_length_c 16.183554
_cell_angle_alpha 90.000000
_cell_angle_beta 66.019427
_cell_angle_gamma 90.000000
_cell_volume 2577.824309
_symmetry_space_group_name_H-M "C 2/M"
_symmetry_group_IT_number 12
_symmetry_cell_setting 'monoclinic'
loop_
_space_group_symop_operation_xyz
x,y,z
-x,y,-z
-x,-y,-z
x,-y,z
1/2+x,1/2+y,z
1/2-x,1/2+y,-z
1/2-x,1/2-y,-z
1/2+x,1/2-y,z
loop_
_atom_site_type_symbol
_atom_site_label
_atom_site_fract_x
_atom_site_fract_y
_atom_site_fract_z
Si Si1 0.140673 0.261209 0.924507
Si Si2 0.317455 0.395254 0.962452
Si Si3 0.000000 0.156777 0.500000
Si Si4 0.507109 0.782270 0.338311
Si Si5 0.046467 0.175225 0.796452
Si Si6 0.217058 0.603450 0.362726
Si Si7 0.779553 0.602540 0.446784
O O1 0.222752 0.345917 0.926796
O O2 0.125562 0.240289 0.832861
O O3 0.188060 0.170227 0.956177
O O4 0.000000 0.276714 0.000000
O O5 0.293247 0.500000 0.984275
O O6 0.455778 0.382420 0.881360
O O7 0.997147 0.214402 0.417425
O O8 0.865985 0.106774 0.538189
O O9 0.533764 0.732766 0.245060
O O10 0.616205 0.848235 0.335035
O O11 0.374134 0.834196 0.369596
O O12 0.144256 0.119807 0.713534
O O13 0.188189 0.500000 0.371801
O O14 0.210717 0.633513 0.460106
O O15 0.821918 0.500000 0.429803
#
# Coordination Sequence:
#
# PCOD9211813 Si02
#       7
#     8   8   4   8   8   8   8
#     4   9  21  41  63  90 125 156 196 241 299 369
#     4  10  21  40  66  93 121 157 196 243 300 363
#     4  12  21  38  57  80 108 154 200 248 303 358
#     4  12  22  38  60  82 115 159 208 250 299 357
#     4  11  22  38  58  89 122 157 196 247 303 360
#     4  11  22  37  57  84 116 154 205 256 301 353
#     4  11  23  39  57  82 114 155 206 259 306 352
#
# _framework density 20.172049000000001
#
# number of rings (size 3 to 8) (size 9 to 14) (size 15 to 20)
#    0.000    1.231    3.077    3.462    0.000    4.923 
#    0.000    3.077    0.000    0.923    0.000    0.000 
#    0.000    0.000    0.000    0.000    0.000    0.000 
#
# Total GULP energy -145250.841199 kJ/mol
# GULP energy per Si atom -5586.570815 kJ/mol
# Density = 2.012614 g / cm^3
# Si number density = 20.172049 Si / 1000 Ang^3
#
#
#
# Elastic Constant Matrix: (Units=GPa)
#
#
# Indices 1 2 3 4 5 6 
#
# 1 80.5224 34.7310 -5.4187 0.0000 11.4605 0.0000
# 2 34.7310 85.2377 10.6878 0.0000 5.4867 0.0000
# 3 -5.4187 10.6878 49.0803 0.0000 15.2483 0.0000
# 4 0.0000 0.0000 0.0000 15.7848 0.0000 -13.6270
# 5 11.4605 5.4867 15.2483 0.0000 34.5189 0.0000
# 6 0.0000 0.0000 0.0000 -13.6270 0.0000 92.5298
#
#
#
# Elastic Compliance Matrix: (Units=1/GPa)
#
#
# Indices 1 2 3 4 5 6 
#
# 1 0.016847 -0.007116 0.005559 0.000000 -0.006918 0.000000
# 2 -0.007116 0.015090 -0.004706 0.000000 0.002043 0.000000
# 3 0.005559 -0.004706 0.025910 0.000000 -0.012543 0.000000
# 4 0.000000 0.000000 0.000000 0.072580 0.000000 0.010689
# 5 -0.006918 0.002043 -0.012543 0.000000 0.036482 0.000000
# 6 0.000000 0.000000 0.000000 0.010689 0.000000 0.012381
#
#
# Mechanical properties :
#
#
# Convention : Reuss Voigt Hill
#
# Bulk Modulus (GPa) = 22.06552 32.76007 27.41280
# Shear Modulus (GPa) = 24.16337 40.22273 32.19305
#
# Velocity S-wave (km/s) = 3.46477 4.47025 3.99924
# Velocity P-wave (km/s) = 5.19313 6.55132 5.91136
#
# Compressibility (1/GPa) = 0.04531958
#
# Stress axis : x y z
#
# Youngs Moduli (GPa) = 59.35815 66.26873 38.59480
#
# Poissons Ratio (x) = 0.47158 -0.21454
# Poissons Ratio (y) = 0.42240 0.18164
# Poissons Ratio (z) = -0.32996 0.31189
#
# Static dielectric constant tensor:
#      x y z
#    x 1.746420 0.000000 -0.006800 
#    y 0.000000 1.702930 0.000000 
#    z -0.006800 0.000000 1.696230 
# 
# From -- ./inp_files/204948.got.cif
#   From: 2010.05.17/outbox.cif.g08.bks.cpg/sg12_103_cif.got.tgz:204948.got - 2010.06.03 13:09:07.
