data_PCOD9211840
_publ_section_title
;
Structure prediction by ZEFSAII (Michael W. Deem and Ramdas Pophale) SiO2 
 PCOD9211840
Probable space group: C 2/M
;
_chemical_formula_sum "Si O2"
_cell_formula_units_Z 36
_cell_length_a 4.780210
_cell_length_b 17.753832
_cell_length_c 17.489889
_cell_angle_alpha 90.000000
_cell_angle_beta 81.013997
_cell_angle_gamma 90.000000
_cell_volume 1466.097499
_symmetry_space_group_name_H-M "C 2/M"
_symmetry_group_IT_number 12
_symmetry_cell_setting 'monoclinic'
loop_
_space_group_symop_operation_xyz
x,y,z
-x,y,-z
-x,-y,-z
x,-y,z
1/2+x,1/2+y,z
1/2-x,1/2+y,-z
1/2-x,1/2-y,-z
1/2+x,1/2-y,z
loop_
_atom_site_type_symbol
_atom_site_label
_atom_site_fract_x
_atom_site_fract_y
_atom_site_fract_z
Si Si1 0.856249 0.500000 0.142621
Si Si2 0.205959 0.637468 0.052157
Si Si3 0.282415 0.300186 0.214792
Si Si4 0.487669 0.696120 0.589750
Si Si5 0.333778 0.084418 0.288812
O O1 0.721974 0.564841 0.207455
O O2 0.026331 0.565666 0.088192
O O3 0.284242 0.682714 0.124682
O O4 0.500000 0.613798 0.000000
O O5 0.000000 0.677995 0.000000
O O6 0.584210 0.273763 0.231617
O O7 0.118832 0.368205 0.261926
O O8 0.500000 0.674309 0.500000
O O9 0.787145 0.729875 0.602033
O O10 0.364994 0.628140 0.644412
O O11 0.406039 0.000000 0.314462
#
# Coordination Sequence:
#
# PCOD9211840 Si02
#       5
#     4   8   8   8   8
#     4   8  20  38  57  86 116 158 196 244 303 356
#     4  11  22  38  59  82 114 152 199 251 305 358
#     4  11  23  40  60  86 120 157 200 251 307 359
#     4  10  21  40  66  95 127 162 197 239 296 354
#     4   9  20  40  63  91 122 161 204 246 292 354
#
# _framework density 24.554984000000001
#
# number of rings (size 3 to 8) (size 9 to 14) (size 15 to 20)
#    0.667    1.333    0.000    3.333    0.000    3.111 
#    0.000   11.111    0.000    4.000    0.000    0.000 
#    0.000    0.000    0.000    0.000    0.000    0.000 
#
# Total GULP energy -100249.708094 kJ/mol
# GULP energy per Si atom -5569.428227 kJ/mol
# Density = 2.449910 g / cm^3
# Si number density = 24.554984 Si / 1000 Ang^3
#
#
#
# Elastic Constant Matrix: (Units=GPa)
#
#
# Indices 1 2 3 4 5 6 
#
# 1 82.6737 2.4538 34.9965 0.0000 4.0840 0.0000
# 2 2.4538 129.5722 75.4237 0.0000 -7.2122 0.0000
# 3 34.9965 75.4237 196.6837 0.0000 -19.4752 0.0000
# 4 0.0000 0.0000 0.0000 63.5356 0.0000 -8.4896
# 5 4.0840 -7.2122 -19.4752 0.0000 36.3382 0.0000
# 6 0.0000 0.0000 0.0000 -8.4896 0.0000 7.8715
#
#
#
# Elastic Compliance Matrix: (Units=1/GPa)
#
#
# Indices 1 2 3 4 5 6 
#
# 1 0.013590 0.001488 -0.003285 0.000000 -0.002993 0.000000
# 2 0.001488 0.010099 -0.004177 0.000000 -0.000402 0.000000
# 3 -0.003285 -0.004177 0.007630 0.000000 0.003629 0.000000
# 4 0.000000 0.000000 0.000000 0.018389 0.000000 0.019833
# 5 -0.002993 -0.000402 0.003629 0.000000 0.029721 0.000000
# 6 0.000000 0.000000 0.000000 0.019833 0.000000 0.148431
#
#
# Mechanical properties :
#
#
# Convention : Reuss Voigt Hill
#
# Bulk Modulus (GPa) = 51.62424 70.51974 61.07199
# Shear Modulus (GPa) = 20.30334 41.28612 30.79473
#
# Velocity S-wave (km/s) = 2.87862 4.10490 3.54519
# Velocity P-wave (km/s) = 5.66729 7.15880 6.45626
#
# Compressibility (1/GPa) = 0.01937074
#
# Stress axis : x y z
#
# Youngs Moduli (GPa) = 73.58322 99.02257 131.05997
#
# Poissons Ratio (x) = -0.14738 0.43056
# Poissons Ratio (y) = -0.10952 0.54747
# Poissons Ratio (z) = 0.24173 0.41364
#
# Static dielectric constant tensor:
#      x y z
#    x 1.988030 0.000000 0.071220 
#    y 0.000000 2.014380 0.000000 
#    z 0.071220 0.000000 1.999010 
# 
# From -- ./inp_files/252523.got.cif
#   From: 2010.05.17/outbox.cif.g08.bks.cpg/sg12_127_cif.got.tgz:252523.got - 2010.06.03 13:09:07.
