data_PCOD9211814
_publ_section_title
;
Structure prediction by ZEFSAII (Michael W. Deem and Ramdas Pophale) SiO2 
 PCOD9211814
Probable space group: C 2/M
;
_chemical_formula_sum "Si O2"
_cell_formula_units_Z 56
_cell_length_a 9.155985
_cell_length_b 28.994018
_cell_length_c 21.587667
_cell_angle_alpha 90.000000
_cell_angle_beta 30.074674
_cell_angle_gamma 90.000000
_cell_volume 2871.891921
_symmetry_space_group_name_H-M "C 2/M"
_symmetry_group_IT_number 12
_symmetry_cell_setting 'monoclinic'
loop_
_space_group_symop_operation_xyz
x,y,z
-x,y,-z
-x,-y,-z
x,-y,z
1/2+x,1/2+y,z
1/2-x,1/2+y,-z
1/2-x,1/2-y,-z
1/2+x,1/2-y,z
loop_
_atom_site_type_symbol
_atom_site_label
_atom_site_fract_x
_atom_site_fract_y
_atom_site_fract_z
Si Si1 0.237688 0.219927 0.165060
Si Si2 0.615534 0.692663 0.827492
Si Si3 0.389623 0.126483 0.974251
Si Si4 0.351847 0.050733 0.362247
Si Si5 0.279952 0.290074 0.439138
Si Si6 0.850276 0.446287 0.881005
Si Si7 0.197379 0.645583 0.573642
O O1 0.395266 0.269276 0.114080
O O2 0.442025 0.175339 0.092307
O O3 0.034221 0.214439 0.179263
O O4 0.051711 0.216515 0.295598
O O5 0.949726 0.678974 0.691984
O O6 0.441902 0.645235 0.903964
O O7 0.438412 0.090596 0.901061
O O8 0.500000 0.107027 0.000000
O O9 0.468281 0.060523 0.249711
O O10 0.430958 0.094329 0.374812
O O11 0.000000 0.048465 0.500000
O O12 0.468020 0.000000 0.336488
O O13 0.250000 0.250000 0.500000
O O14 0.275326 0.338159 0.476671
O O15 0.000000 0.287338 0.500000
O O16 0.899877 0.500000 0.881273
O O17 0.500000 0.441309 0.000000
O O18 0.500000 0.648709 0.500000
#
# Coordination Sequence:
#
# PCOD9211814 Si02
#       7
#     8   8   8   8   8   8   8
#     4  11  23  38  59  80 123 160 200 248 298 359
#     4  11  23  40  55  86 119 158 201 247 297 357
#     4  10  24  41  60  89 122 160 204 250 309 363
#     4   9  20  38  60  90 122 152 196 250 305 363
#     4  12  22  38  56  87 121 159 204 253 294 358
#     4  10  21  40  66  93 121 157 204 258 307 363
#     4  11  23  35  61  89 120 157 199 246 307 354
#
# _framework density 19.499341999999999
#
# number of rings (size 3 to 8) (size 9 to 14) (size 15 to 20)
#    0.000    1.429    2.857    1.714    6.000    1.429 
#    0.000    0.000    0.000    1.286    0.000    0.000 
#    0.000    0.000    0.000    0.000    0.000    0.000 
#
# Total GULP energy -156223.591085 kJ/mol
# GULP energy per Si atom -5579.413967 kJ/mol
# Density = 1.945496 g / cm^3
# Si number density = 19.499342 Si / 1000 Ang^3
#
#
#
# Elastic Constant Matrix: (Units=GPa)
#
#
# Indices 1 2 3 4 5 6 
#
# 1 81.2091 50.9454 26.0855 -0.0006 4.7910 0.0034
# 2 50.9454 119.4139 21.5376 -0.0004 15.2732 0.0044
# 3 26.0855 21.5376 107.6252 -0.0021 8.8292 0.0122
# 4 -0.0006 -0.0004 -0.0021 30.4673 0.0011 21.6313
# 5 4.7910 15.2732 8.8292 0.0011 32.9426 -0.0018
# 6 0.0034 0.0044 0.0122 21.6313 -0.0018 -22.4973
#
#
#
# Elastic Compliance Matrix: (Units=1/GPa)
#
#
# Indices 1 2 3 4 5 6 
#
# 1 0.017705 -0.007217 -0.002976 0.000000 0.001569 0.000000
# 2 -0.007217 0.012079 -0.000301 -0.000001 -0.004470 0.000001
# 3 -0.002976 -0.000301 0.010251 -0.000002 -0.002175 0.000004
# 4 0.000000 -0.000001 -0.000002 0.019506 0.000001 0.018755
# 5 0.001569 -0.004470 -0.002175 0.000001 0.032783 -0.000003
# 6 0.000000 0.000001 0.000004 0.018755 -0.000003 -0.026416
#
#
# Mechanical properties :
#
#
# Convention : Reuss Voigt Hill
#
# Bulk Modulus (GPa) = 52.50101 56.15391 54.32746
# Shear Modulus (GPa) = 53.62163 22.16117 37.89140
#
# Velocity S-wave (km/s) = 5.24966 3.37487 4.41297
# Velocity P-wave (km/s) = 7.98299 6.63677 7.34081
#
# Compressibility (1/GPa) = 0.01904725
#
# Stress axis : x y z
#
# Youngs Moduli (GPa) = 56.48171 82.78541 97.54730
#
# Poissons Ratio (x) = 0.59749 0.29026
# Poissons Ratio (y) = 0.40765 0.02939
# Poissons Ratio (z) = 0.16806 0.02494
#
# Static dielectric constant tensor:
#      x y z
#    x 1.666860 0.000000 -0.012670 
#    y 0.000000 1.717580 0.000000 
#    z -0.012670 0.000000 1.737260 
# 
# From -- ./inp_files/302990.got.cif
#   From: 2010.05.17/outbox.cif.g08.bks.cpg/sg12_152_cif.got.tgz:302990.got - 2010.06.03 13:09:07.
