data_PCOD9211575
_publ_section_title
;
Structure prediction by ZEFSAII (Michael W. Deem and Ramdas Pophale) SiO2 
 PCOD9211575
Probable space group: C 2/M
;
_chemical_formula_sum "Si O2"
_cell_formula_units_Z 56
_cell_length_a 9.274249
_cell_length_b 17.512950
_cell_length_c 27.738386
_cell_angle_alpha 90.000000
_cell_angle_beta 144.286688
_cell_angle_gamma 90.000000
_cell_volume 2629.851143
_symmetry_space_group_name_H-M "C 2/M"
_symmetry_group_IT_number 12
_symmetry_cell_setting 'monoclinic'
loop_
_space_group_symop_operation_xyz
x,y,z
-x,y,-z
-x,-y,-z
x,-y,z
1/2+x,1/2+y,z
1/2-x,1/2+y,-z
1/2-x,1/2-y,-z
1/2+x,1/2-y,z
loop_
_atom_site_type_symbol
_atom_site_label
_atom_site_fract_x
_atom_site_fract_y
_atom_site_fract_z
Si Si1 0.029110 0.413431 0.560218
Si Si2 0.788784 0.295662 0.257208
Si Si3 0.272952 0.798020 0.554722
Si Si4 0.492313 0.851623 0.859423
Si Si5 0.271882 0.088484 0.173624
Si Si6 0.309788 0.910139 0.991905
Si Si7 0.977632 0.084471 0.746576
O O1 0.941662 0.500000 0.531744
O O2 0.884983 0.376584 0.565178
O O3 0.000000 0.375335 0.500000
O O4 0.311837 0.412123 0.653618
O O5 0.627535 0.228514 0.189761
O O6 0.889191 0.352581 0.243242
O O7 0.615563 0.347677 0.244486
O O8 0.024060 0.267182 0.352175
O O9 0.250000 0.750000 0.500000
O O10 0.000000 0.807790 0.500000
O O11 0.651264 0.885909 0.859003
O O12 0.643310 0.854651 0.950181
O O13 0.258208 0.904409 0.808366
O O14 0.340319 0.000000 0.199746
O O15 0.976255 0.095929 0.100341
O O16 0.347926 0.000000 0.016014
O O17 0.500000 0.893669 0.000000
O O18 0.938639 0.000000 0.758233
#
# Coordination Sequence:
#
# PCOD9211575 Si02
#       7
#     8   8   8   8   8   8   8
#     4   9  20  39  63  93 125 164 220 278 329 390
#     4  11  26  43  65  96 135 172 222 271 330 397
#     4  11  26  42  68  91 129 180 223 272 334 402
#     4  12  24  39  67 101 135 167 218 276 322 383
#     4  11  24  43  69 100 134 172 218 273 326 388
#     4  10  22  43  70  99 133 178 220 259 325 402
#     4  10  21  40  64  89 126 176 219 263 326 397
#
# _framework density 21.293980999999999
#
# number of rings (size 3 to 8) (size 9 to 14) (size 15 to 20)
#    0.000    1.429    0.000    4.286    8.000    3.714 
#    0.000    2.857    0.000    0.000    0.000    0.000 
#    0.000    0.000    0.000    0.000    0.000    0.000 
#
# Total GULP energy -156488.598676 kJ/mol
# GULP energy per Si atom -5588.878524 kJ/mol
# Density = 2.124551 g / cm^3
# Si number density = 21.293981 Si / 1000 Ang^3
#
#
#
# Elastic Constant Matrix: (Units=GPa)
#
#
# Indices 1 2 3 4 5 6 
#
# 1 71.9426 -7.6468 16.1665 0.0003 -4.4566 0.0001
# 2 -7.6468 86.8829 29.4261 0.0003 -16.6956 0.0001
# 3 16.1665 29.4261 89.5516 -0.0001 -14.5937 0.0002
# 4 0.0003 0.0003 -0.0001 37.1152 0.0001 -9.6839
# 5 -4.4566 -16.6956 -14.5937 0.0001 38.3140 0.0001
# 6 0.0001 0.0001 0.0002 -9.6839 0.0001 25.4396
#
#
#
# Elastic Compliance Matrix: (Units=1/GPa)
#
#
# Indices 1 2 3 4 5 6 
#
# 1 0.015055 0.002787 -0.003359 0.000000 0.001686 0.000000
# 2 0.002787 0.014163 -0.004370 0.000000 0.004832 0.000000
# 3 -0.003359 -0.004370 0.013684 0.000000 0.002918 0.000000
# 4 0.000000 0.000000 0.000000 0.029914 0.000000 0.011387
# 5 0.001686 0.004832 0.002918 0.000000 0.029513 0.000000
# 6 0.000000 0.000000 0.000000 0.011387 0.000000 0.043644
#
#
# Mechanical properties :
#
#
# Convention : Reuss Voigt Hill
#
# Bulk Modulus (GPa) = 30.28513 36.02986 33.15749
# Shear Modulus (GPa) = 29.96449 34.20251 32.08350
#
# Velocity S-wave (km/s) = 3.75531 4.01210 3.88583
# Velocity P-wave (km/s) = 5.74947 6.19835 5.97812
#
# Compressibility (1/GPa) = 0.03301951
#
# Stress axis : x y z
#
# Youngs Moduli (GPa) = 66.42137 70.60451 73.07586
#
# Poissons Ratio (x) = -0.19675 0.24545
# Poissons Ratio (y) = -0.18509 0.31932
# Poissons Ratio (z) = 0.22310 0.30852
#
# Static dielectric constant tensor:
#      x y z
#    x 2.199950 0.000000 0.487040 
#    y 0.000000 1.823790 0.000000 
#    z 0.487040 0.000000 2.469920 
# 
# From -- ./inp_files/356735.got.cif
#   From: 2010.05.17/outbox.cif.g08.bks.cpg/sg12_179_cif.got.tgz:356735.got - 2010.06.03 13:09:07.
