data_PCOD9211866
_publ_section_title
;
Structure prediction by ZEFSAII (Michael W. Deem and Ramdas Pophale) SiO2 
 PCOD9211866
Probable space group: C 2/M
;
_chemical_formula_sum "Si O2"
_cell_formula_units_Z 48
_cell_length_a 27.636795
_cell_length_b 14.835668
_cell_length_c 11.664776
_cell_angle_alpha 90.000000
_cell_angle_beta 30.268249
_cell_angle_gamma 90.000000
_cell_volume 2410.704726
_symmetry_space_group_name_H-M "C 2/M"
_symmetry_group_IT_number 12
_symmetry_cell_setting 'monoclinic'
loop_
_space_group_symop_operation_xyz
x,y,z
-x,y,-z
-x,-y,-z
x,-y,z
1/2+x,1/2+y,z
1/2-x,1/2+y,-z
1/2-x,1/2-y,-z
1/2+x,1/2-y,z
loop_
_atom_site_type_symbol
_atom_site_label
_atom_site_fract_x
_atom_site_fract_y
_atom_site_fract_z
Si Si1 0.463702 0.606614 0.442742
Si Si2 0.329876 0.397119 0.086739
Si Si3 0.229734 0.649376 0.508096
Si Si4 0.846969 0.603167 0.088600
Si Si5 0.458918 0.101474 0.212693
Si Si6 0.223299 0.766807 0.186527
O O1 0.500000 0.611845 0.500000
O O2 0.432578 0.500000 0.487202
O O3 0.380949 0.682480 0.592851
O O4 0.559688 0.623388 0.171387
O O5 0.311143 0.500000 0.087613
O O6 0.312462 0.390732 0.259252
O O7 0.256112 0.327834 0.177700
O O8 0.250000 0.750000 0.500000
O O9 0.203366 0.603046 0.682501
O O10 0.138107 0.652093 0.611611
O O11 0.853903 0.500000 0.036881
O O12 0.791559 0.662628 0.112123
O O13 0.955116 0.639220 0.887869
O O14 0.435728 0.000000 0.299942
O O15 0.500000 0.093647 0.000000
O O16 0.250000 0.750000 0.000000
#
# Coordination Sequence:
#
# PCOD9211866 Si02
#       6
#     8   8   8   8   8   8
#     4  10  22  44  70  94 132 181 224 274 342 404
#     4  11  24  43  67  96 134 179 224 274 341 408
#     4  11  20  38  61  99 135 175 220 272 334 412
#     4  10  21  40  66  98 133 173 219 277 345 406
#     4   8  16  33  59  87 123 166 208 260 328 395
#     4  12  24  41  67 101 129 172 235 285 325 398
#
# _framework density 19.911190999999999
#
# number of rings (size 3 to 8) (size 9 to 14) (size 15 to 20)
#    0.000    1.667    3.333    3.000    0.000    2.000 
#    3.000    0.833    0.000    4.500    0.000    0.000 
#    0.000    0.000    0.000    0.000    0.000    0.000 
#
# Total GULP energy -133691.086195 kJ/mol
# GULP energy per Si atom -5570.461925 kJ/mol
# Density = 1.986587 g / cm^3
# Si number density = 19.911191 Si / 1000 Ang^3
#
#
#
# Elastic Constant Matrix: (Units=GPa)
#
#
# Indices 1 2 3 4 5 6 
#
# 1 121.3075 56.3213 61.0045 0.0000 -11.9538 0.0000
# 2 56.3213 136.1915 55.6393 0.0000 -21.3968 0.0000
# 3 61.0045 55.6393 137.9289 0.0000 -9.7099 0.0000
# 4 0.0000 0.0000 0.0000 31.0565 0.0000 -3.1462
# 5 -11.9538 -21.3968 -9.7099 0.0000 29.7195 0.0000
# 6 0.0000 0.0000 0.0000 -3.1462 0.0000 1.4060
#
#
#
# Elastic Compliance Matrix: (Units=1/GPa)
#
#
# Indices 1 2 3 4 5 6 
#
# 1 0.011738 -0.003082 -0.003861 0.000000 0.001241 0.000000
# 2 -0.003082 0.010497 -0.002484 0.000000 0.005506 0.000000
# 3 -0.003861 -0.002484 0.009953 0.000000 -0.000089 0.000000
# 4 0.000000 0.000000 0.000000 0.041638 0.000000 0.093168
# 5 0.001241 0.005506 -0.000089 0.000000 0.038082 0.000000
# 6 0.000000 0.000000 0.000000 0.093168 0.000000 0.919688
#
#
# Mechanical properties :
#
#
# Convention : Reuss Voigt Hill
#
# Bulk Modulus (GPa) = 74.98907 82.37314 78.68111
# Shear Modulus (GPa) = 4.73981 27.26726 16.00353
#
# Velocity S-wave (km/s) = 1.54455 3.70461 2.83812
# Velocity P-wave (km/s) = 6.39722 7.73039 7.09519
#
# Compressibility (1/GPa) = 0.01333528
#
# Stress axis : x y z
#
# Youngs Moduli (GPa) = 85.18983 95.26676 100.46755
#
# Poissons Ratio (x) = 0.29361 0.38793
# Poissons Ratio (y) = 0.26255 0.24952
# Poissons Ratio (z) = 0.32894 0.23660
#
# Static dielectric constant tensor:
#      x y z
#    x 1.681260 0.000000 0.001490 
#    y 0.000000 1.726140 0.000000 
#    z 0.001490 0.000000 1.776980 
# 
# From -- ./inp_files/189348.got.cif
#   From: 2010.05.17/outbox.cif.g08.bks.cpg/sg12_95_cif.got.tgz:189348.got - 2010.06.03 13:09:07.
