data_PCOD9211322
_publ_section_title
;
Structure prediction by ZEFSAII (Michael W. Deem and Ramdas Pophale) SiO2 
 PCOD9211322
Probable space group: C 2/M
;
_chemical_formula_sum "Si O2"
_cell_formula_units_Z 32
_cell_length_a 16.491831
_cell_length_b 13.554113
_cell_length_c 6.776458
_cell_angle_alpha 90.000000
_cell_angle_beta 75.712834
_cell_angle_gamma 90.000000
_cell_volume 1467.906323
_symmetry_space_group_name_H-M "C 2/M"
_symmetry_group_IT_number 12
_symmetry_cell_setting 'monoclinic'
loop_
_space_group_symop_operation_xyz
x,y,z
-x,y,-z
-x,-y,-z
x,-y,z
1/2+x,1/2+y,z
1/2-x,1/2+y,-z
1/2-x,1/2-y,-z
1/2+x,1/2-y,z
loop_
_atom_site_type_symbol
_atom_site_label
_atom_site_fract_x
_atom_site_fract_y
_atom_site_fract_z
Si Si1 0.374830 0.762378 0.545811
Si Si2 0.912020 0.391003 0.166320
Si Si3 0.409673 0.294311 0.949226
Si Si4 0.291473 0.386057 0.292977
O O1 0.420692 0.841416 0.375626
O O2 0.419415 0.720315 0.711770
O O3 0.345128 0.670737 0.428952
O O4 0.293633 0.823763 0.665672
O O5 0.874141 0.500000 0.198635
O O6 0.868303 0.306714 0.063086
O O7 0.000000 0.400146 0.000000
O O8 0.500000 0.307981 0.000000
O O9 0.345987 0.376850 0.060972
O O10 0.275765 0.500000 0.348871
#
# Coordination Sequence:
#
# PCOD9211322 Si02
#       4
#     8   8   8   8
#     4  10  21  40  61  87 122 160 199 249 304 355
#     4   9  19  34  55  85 118 155 197 240 293 355
#     4  10  22  39  59  88 124 159 199 249 302 358
#     4  10  22  39  62  90 119 159 206 248 297 358
#
# _framework density 21.799754
#
# number of rings (size 3 to 8) (size 9 to 14) (size 15 to 20)
#    0.000    2.250    0.000    1.500    0.000   12.500 
#    0.000    7.500    0.000    0.000    0.000    0.000 
#    0.000    0.000    0.000    0.000    0.000    0.000 
#
# Total GULP energy -89244.119258 kJ/mol
# GULP energy per Si atom -5577.757454 kJ/mol
# Density = 2.175014 g / cm^3
# Si number density = 21.799754 Si / 1000 Ang^3
#
#
#
# Elastic Constant Matrix: (Units=GPa)
#
#
# Indices 1 2 3 4 5 6 
#
# 1 62.5991 3.4502 36.2724 0.0000 -9.1811 0.0000
# 2 3.4502 90.4674 -0.2138 0.0000 -4.9360 0.0000
# 3 36.2724 -0.2138 144.9171 0.0000 1.0548 0.0000
# 4 0.0000 0.0000 0.0000 32.0733 0.0000 -25.4507
# 5 -9.1811 -4.9360 1.0548 0.0000 36.6647 0.0000
# 6 0.0000 0.0000 0.0000 -25.4507 0.0000 34.4787
#
#
#
# Elastic Compliance Matrix: (Units=1/GPa)
#
#
# Indices 1 2 3 4 5 6 
#
# 1 0.019596 -0.000487 -0.004942 0.000000 0.004984 0.000000
# 2 -0.000487 0.011148 0.000128 0.000000 0.001375 0.000000
# 3 -0.004942 0.000128 0.008148 0.000000 -0.001455 0.000000
# 4 0.000000 0.000000 0.000000 0.075264 0.000000 0.055556
# 5 0.004984 0.001375 -0.001455 0.000000 0.028749 0.000000
# 6 0.000000 0.000000 0.000000 0.055556 0.000000 0.070013
#
#
# Mechanical properties :
#
#
# Convention : Reuss Voigt Hill
#
# Bulk Modulus (GPa) = 35.34741 41.88903 38.61822
# Shear Modulus (GPa) = 21.46398 37.87500 29.66949
#
# Velocity S-wave (km/s) = 3.14123 4.17274 3.69318
# Velocity P-wave (km/s) = 5.42275 6.51711 5.99496
#
# Compressibility (1/GPa) = 0.02829062
#
# Stress axis : x y z
#
# Youngs Moduli (GPa) = 51.03109 89.70527 122.72662
#
# Poissons Ratio (x) = 0.04370 0.60649
# Poissons Ratio (y) = 0.02486 -0.01575
# Poissons Ratio (z) = 0.25219 -0.01151
#
# Static dielectric constant tensor:
#      x y z
#    x 1.836780 0.000000 -0.026970 
#    y 0.000000 1.837250 0.000000 
#    z -0.026970 0.000000 1.834540 
# 
# From -- ./inp_files/14325.got.cif
#   From: 2010.05.17/outbox.cif.g08.bks.cpg/sg12_8_cif.got.tgz:14325.got - 2010.06.03 13:09:07.
