data_PCOD9211583
_publ_section_title
;
Structure prediction by ZEFSAII (Michael W. Deem and Ramdas Pophale) SiO2 
 PCOD9211583
Probable space group: C 2/M
;
_chemical_formula_sum "Si O2"
_cell_formula_units_Z 56
_cell_length_a 9.837834
_cell_length_b 18.427846
_cell_length_c 26.594221
_cell_angle_alpha 90.000000
_cell_angle_beta 141.925486
_cell_angle_gamma 90.000000
_cell_volume 2973.207830
_symmetry_space_group_name_H-M "C 2/M"
_symmetry_group_IT_number 12
_symmetry_cell_setting 'monoclinic'
loop_
_space_group_symop_operation_xyz
x,y,z
-x,y,-z
-x,-y,-z
x,-y,z
1/2+x,1/2+y,z
1/2-x,1/2+y,-z
1/2-x,1/2-y,-z
1/2+x,1/2-y,z
loop_
_atom_site_type_symbol
_atom_site_label
_atom_site_fract_x
_atom_site_fract_y
_atom_site_fract_z
Si Si1 0.155715 0.340873 0.714974
Si Si2 0.993975 0.415108 0.765119
Si Si3 0.792341 0.182943 0.476086
Si Si4 0.247070 0.809110 0.089157
Si Si5 0.678961 0.211970 0.164836
Si Si6 0.982347 0.912335 0.729002
Si Si7 0.987789 0.913783 0.617063
O O1 0.110183 0.397587 0.746328
O O2 0.233120 0.266708 0.765613
O O3 0.325834 0.374641 0.724553
O O4 0.925633 0.328747 0.619848
O O5 0.981870 0.500000 0.771405
O O6 0.136362 0.375824 0.848750
O O7 0.741875 0.386281 0.689086
O O8 0.750000 0.250000 0.500000
O O9 0.000000 0.194193 0.500000
O O10 0.851008 0.118440 0.531526
O O11 0.416416 0.789823 0.094417
O O12 0.242005 0.746166 0.129763
O O13 0.000000 0.823996 0.000000
O O14 0.789727 0.132908 0.201721
O O15 0.898974 0.898853 0.647427
O O16 0.003243 0.000000 0.741700
O O17 0.995885 0.000000 0.613657
#
# Coordination Sequence:
#
# PCOD9211583 Si02
#       7
#     8   8   8   8   8   8   8
#     4  11  24  40  66  89 125 171 211 264 311 380
#     4  10  21  40  64  90 122 161 209 256 316 385
#     4  12  27  40  61  92 127 162 217 270 316 362
#     4  11  23  39  66  95 124 162 208 264 317 382
#     4  11  22  41  65  92 129 164 210 257 321 382
#     4  11  23  41  66  93 126 171 216 258 315 378
#     4  10  22  41  62  87 124 168 206 253 315 375
#
# _framework density 18.834876000000001
#
# number of rings (size 3 to 8) (size 9 to 14) (size 15 to 20)
#    0.000    1.143    4.286    1.714    4.000    1.714 
#    0.000    1.429    0.000    0.429    0.000    0.000 
#    0.000    0.000    0.000    0.000    0.000    0.000 
#
# Total GULP energy -156355.402628 kJ/mol
# GULP energy per Si atom -5584.121522 kJ/mol
# Density = 1.879201 g / cm^3
# Si number density = 18.834876 Si / 1000 Ang^3
#
#
#
# Elastic Constant Matrix: (Units=GPa)
#
#
# Indices 1 2 3 4 5 6 
#
# 1 110.6007 10.1955 -3.4179 -0.0001 12.4358 -0.0001
# 2 10.1955 49.5730 8.9847 -0.0001 3.6889 -0.0001
# 3 -3.4179 8.9847 83.2446 0.0001 15.2283 -0.0002
# 4 -0.0001 -0.0001 0.0001 16.4354 0.0000 4.8887
# 5 12.4358 3.6889 15.2283 0.0000 27.9097 -0.0001
# 6 -0.0001 -0.0001 -0.0002 4.8887 -0.0001 17.7434
#
#
#
# Elastic Compliance Matrix: (Units=1/GPa)
#
#
# Indices 1 2 3 4 5 6 
#
# 1 0.009823 -0.001927 0.001517 0.000000 -0.004950 0.000000
# 2 -0.001927 0.021023 -0.002218 0.000000 -0.000710 0.000000
# 3 0.001517 -0.002218 0.013758 0.000000 -0.007889 0.000000
# 4 0.000000 0.000000 0.000000 0.066276 0.000000 -0.018260
# 5 -0.004950 -0.000710 -0.007889 0.000000 0.042434 0.000000
# 6 0.000000 0.000000 0.000000 -0.018260 0.000000 0.061390
#
#
# Mechanical properties :
#
#
# Convention : Reuss Voigt Hill
#
# Bulk Modulus (GPa) = 25.41495 30.54919 27.98207
# Shear Modulus (GPa) = 21.45227 27.59478 24.52353
#
# Velocity S-wave (km/s) = 3.37852 3.83180 3.61228
# Velocity P-wave (km/s) = 5.36116 5.98595 5.68215
#
# Compressibility (1/GPa) = 0.03934692
#
# Stress axis : x y z
#
# Youngs Moduli (GPa) = 101.80672 47.56603 72.68653
#
# Poissons Ratio (x) = 0.09165 -0.11024
# Poissons Ratio (y) = 0.19615 0.16124
# Poissons Ratio (z) = -0.15441 0.10552
#
# Static dielectric constant tensor:
#      x y z
#    x 1.283920 0.000000 0.209600 
#    y 0.000000 1.659550 0.000000 
#    z 0.209600 0.000000 1.542080 
# 
# From -- ./inp_files/197527.got.cif
#   From: 2010.05.17/outbox.cif.g08.bks.cpg/sg12_99_cif.got.tgz:197527.got - 2010.06.03 13:09:07.
