data_PCOD9211209
_publ_section_title
;
Structure prediction by ZEFSAII (Michael W. Deem and Ramdas Pophale) SiO2 
 PCOD9211209
Probable space group: C 2/M
;
_chemical_formula_sum "Si O2"
_cell_formula_units_Z 56
_cell_length_a 12.432983
_cell_length_b 18.272708
_cell_length_c 14.383507
_cell_angle_alpha 90.000000
_cell_angle_beta 60.433221
_cell_angle_gamma 90.000000
_cell_volume 2842.189618
_symmetry_space_group_name_H-M "C 2/M"
_symmetry_group_IT_number 12
_symmetry_cell_setting 'monoclinic'
loop_
_space_group_symop_operation_xyz
x,y,z
-x,y,-z
-x,-y,-z
x,-y,z
1/2+x,1/2+y,z
1/2-x,1/2+y,-z
1/2-x,1/2-y,-z
1/2+x,1/2-y,z
loop_
_atom_site_type_symbol
_atom_site_label
_atom_site_fract_x
_atom_site_fract_y
_atom_site_fract_z
Si Si1 0.703078 0.668813 0.995378
Si Si2 0.072427 0.129587 0.378334
Si Si3 0.990169 0.917279 0.799170
Si Si4 0.792492 0.831226 0.223045
Si Si5 0.955921 0.584161 0.912360
Si Si6 0.483286 0.802566 0.613678
Si Si7 0.652082 0.826438 0.709646
O O1 0.669265 0.668828 0.901205
O O2 0.818234 0.614910 0.962323
O O3 0.750000 0.750000 0.000000
O O4 0.593539 0.640514 0.108023
O O5 0.042748 0.089212 0.295308
O O6 0.032793 0.214479 0.378991
O O7 0.218225 0.132014 0.336887
O O8 0.000000 0.102362 0.500000
O O9 0.131282 0.894061 0.757656
O O10 0.966204 0.000000 0.841842
O O11 0.643959 0.836180 0.292559
O O12 0.827562 0.754572 0.257189
O O13 0.961118 0.500000 0.879599
O O14 0.048105 0.633318 0.813552
O O15 0.000000 0.588073 0.000000
O O16 0.500000 0.825174 0.500000
O O17 0.599822 0.821178 0.627871
#
# Coordination Sequence:
#
# PCOD9211209 Si02
#       7
#     8   8   8   8   8   8   8
#     4  12  23  41  66  95 127 165 214 267 315 379
#     4  10  23  40  67  97 128 168 214 268 320 374
#     4  12  26  43  62  93 137 174 212 259 320 388
#     4  11  23  40  65  94 127 166 215 259 323 377
#     4  11  23  39  61  91 128 168 208 256 319 383
#     4  10  21  39  69 100 124 162 216 274 322 372
#     4  11  21  41  66  97 128 161 213 270 319 370
#
# _framework density 19.703119000000001
#
# number of rings (size 3 to 8) (size 9 to 14) (size 15 to 20)
#    0.000    1.000    2.857    5.143    2.000    5.429 
#    0.000    0.000    0.000    0.857    0.000    0.000 
#    0.000    0.000    0.000    0.000    0.000    0.000 
#
# Total GULP energy -156597.533959 kJ/mol
# GULP energy per Si atom -5592.769070 kJ/mol
# Density = 1.965827 g / cm^3
# Si number density = 19.703119 Si / 1000 Ang^3
#
#
#
# Elastic Constant Matrix: (Units=GPa)
#
#
# Indices 1 2 3 4 5 6 
#
# 1 121.4138 17.0409 19.0012 0.0000 23.6431 0.0000
# 2 17.0409 52.8775 2.2693 0.0000 6.3030 0.0000
# 3 19.0012 2.2693 78.3776 0.0000 18.5494 0.0000
# 4 0.0000 0.0000 0.0000 3.8359 0.0000 10.6457
# 5 23.6431 6.3030 18.5494 0.0000 34.3828 0.0000
# 6 0.0000 0.0000 0.0000 10.6457 0.0000 9.6649
#
#
#
# Elastic Compliance Matrix: (Units=1/GPa)
#
#
# Indices 1 2 3 4 5 6 
#
# 1 0.009861 -0.002443 -0.000941 0.000000 -0.005825 0.000000
# 2 -0.002443 0.019946 0.000553 0.000000 -0.002275 0.000000
# 3 -0.000941 0.000553 0.014721 0.000000 -0.007396 0.000000
# 4 0.000000 0.000000 0.000000 -0.126738 0.000000 0.139600
# 5 -0.005825 -0.002275 -0.007396 0.000000 0.037497 0.000000
# 6 0.000000 0.000000 0.000000 0.139600 0.000000 -0.050301
#
#
# Mechanical properties :
#
#
# Convention : Reuss Voigt Hill
#
# Bulk Modulus (GPa) = 25.72927 36.58798 31.15862
# Shear Modulus (GPa) = -65.44920 23.86722 -20.79099
#
# Velocity S-wave (km/s) = -5.76973 3.48421 -3.25193
# Velocity P-wave (km/s) = 5.59460 5.89883 1.32225
#
# Compressibility (1/GPa) = 0.03886624
#
# Stress axis : x y z
#
# Youngs Moduli (GPa) = 101.41151 50.13435 67.92845
#
# Poissons Ratio (x) = 0.12248 0.06394
# Poissons Ratio (y) = 0.24776 -0.03758
# Poissons Ratio (z) = 0.09545 -0.02773
#
# Static dielectric constant tensor:
#      x y z
#    x 1.667990 0.000000 0.007110 
#    y 0.000000 1.677290 0.000000 
#    z 0.007110 0.000000 1.676990 
# 
# From -- ./inp_files/206588.got.cif
#   From: 2010.05.17/outbox.cif.g08.bks.cpg/sg12_104_cif.got.tgz:206588.got - 2010.06.03 13:09:07.
