data_PCOD9211295
_publ_section_title
;
Structure prediction by ZEFSAII (Michael W. Deem and Ramdas Pophale) SiO2 
 PCOD9211295
Probable space group: C 2/M
;
_chemical_formula_sum "Si O2"
_cell_formula_units_Z 64
_cell_length_a 22.411805
_cell_length_b 28.205234
_cell_length_c 16.383833
_cell_angle_alpha 90.000000
_cell_angle_beta 162.225187
_cell_angle_gamma 90.000000
_cell_volume 3161.664232
_symmetry_space_group_name_H-M "C 2/M"
_symmetry_group_IT_number 12
_symmetry_cell_setting 'monoclinic'
loop_
_space_group_symop_operation_xyz
x,y,z
-x,y,-z
-x,-y,-z
x,-y,z
1/2+x,1/2+y,z
1/2-x,1/2+y,-z
1/2-x,1/2-y,-z
1/2+x,1/2-y,z
loop_
_atom_site_type_symbol
_atom_site_label
_atom_site_fract_x
_atom_site_fract_y
_atom_site_fract_z
Si Si1 0.693239 0.366882 0.595893
Si Si2 0.197614 0.905411 0.311911
Si Si3 0.167699 0.447842 0.345771
Si Si4 0.256227 0.632920 0.013157
Si Si5 0.864142 0.726020 0.760743
Si Si6 0.456346 0.946758 0.347992
Si Si7 0.419529 0.808671 0.651335
Si Si8 0.783512 0.073600 0.213487
O O1 0.784030 0.407254 0.656457
O O2 0.477042 0.353844 0.284089
O O3 0.803815 0.318337 0.735939
O O4 0.695535 0.387002 0.689425
O O5 0.211987 0.935592 0.414860
O O6 0.355411 0.931174 0.459107
O O7 0.276972 0.853666 0.445547
O O8 0.000000 0.902696 0.000000
O O9 0.225383 0.500000 0.390543
O O10 0.932060 0.448568 0.053490
O O11 0.261531 0.597781 0.097557
O O12 0.184585 0.598031 0.848941
O O13 0.114325 0.675484 0.856296
O O14 0.682113 0.760242 0.507981
O O15 0.942747 0.702662 0.778463
O O16 0.000000 0.755092 0.000000
O O17 0.500000 0.949712 0.500000
O O18 0.389977 0.000000 0.234739
O O19 0.000000 0.049489 0.500000
#
# Coordination Sequence:
#
# PCOD9211295 Si02
#       8
#     8   8   8   8   8   8   8   8
#     4  11  23  38  63  90 128 168 207 260 318 383
#     4  11  23  41  63  89 126 163 209 268 326 379
#     4  12  24  40  61  93 128 165 214 267 316 384
#     4  10  21  40  60  88 124 166 210 263 317 378
#     4  11  21  37  65  96 124 163 210 262 322 386
#     4  10  22  38  59  84 118 166 217 264 315 377
#     4  10  21  40  64  91 125 164 210 261 320 385
#     4  10  21  40  65  88 122 172 210 260 326 380
#
# _framework density 20.242502999999999
#
# number of rings (size 3 to 8) (size 9 to 14) (size 15 to 20)
#    0.000    1.375    3.750    2.625    1.750    3.250 
#    0.000    2.500    0.000    9.000    0.000    0.000 
#    0.000    0.000    0.000    0.000    0.000    0.000 
#
# Total GULP energy -178246.458899 kJ/mol
# GULP energy per Si atom -5570.201841 kJ/mol
# Density = 2.019643 g / cm^3
# Si number density = 20.242503 Si / 1000 Ang^3
#
#
#
# Elastic Constant Matrix: (Units=GPa)
#
#
# Indices 1 2 3 4 5 6 
#
# 1 26.0290 16.9993 4.3634 -0.0006 -11.3781 0.0001
# 2 16.9993 88.3873 15.7622 0.0000 1.6013 0.0001
# 3 4.3634 15.7622 110.4571 -0.0009 1.5343 0.0003
# 4 -0.0006 0.0000 -0.0009 47.2156 -0.0003 0.8963
# 5 -11.3781 1.6013 1.5343 -0.0003 35.8224 0.0002
# 6 0.0001 0.0001 0.0003 0.8963 0.0002 2.8447
#
#
#
# Elastic Compliance Matrix: (Units=1/GPa)
#
#
# Indices 1 2 3 4 5 6 
#
# 1 0.052865 -0.010328 -0.000855 0.000001 0.017290 -0.000003
# 2 -0.010328 0.013634 -0.001484 0.000000 -0.003826 0.000001
# 3 -0.000855 -0.001484 0.009307 0.000000 -0.000604 -0.000001
# 4 0.000001 0.000000 0.000000 0.021307 0.000000 -0.006713
# 5 0.017290 -0.003826 -0.000604 0.000000 0.033604 -0.000003
# 6 -0.000003 0.000001 -0.000001 -0.006713 -0.000003 0.353652
#
#
# Mechanical properties :
#
#
# Convention : Reuss Voigt Hill
#
# Bulk Modulus (GPa) = 19.81297 33.23591 26.52444
# Shear Modulus (GPa) = 9.49616 29.69310 19.59463
#
# Velocity S-wave (km/s) = 2.16827 3.83413 3.11464
# Velocity P-wave (km/s) = 4.00968 6.00460 5.10553
#
# Compressibility (1/GPa) = 0.05047198
#
# Stress axis : x y z
#
# Youngs Moduli (GPa) = 18.91606 73.34443 107.44293
#
# Poissons Ratio (x) = 0.75752 0.09182
# Poissons Ratio (y) = 0.19537 0.15950
# Poissons Ratio (z) = 0.01617 0.10888
#
# Static dielectric constant tensor:
#      x y z
#    x 1.714360 0.000000 0.011790 
#    y 0.000000 1.695150 0.000000 
#    z 0.011790 0.000000 1.813940 
# 
# From -- ./inp_files/235997.got.cif
#   From: 2010.05.17/outbox.cif.g08.bks.cpg/sg12_118_cif.got.tgz:235997.got - 2010.06.03 13:09:07.
