data_PCOD9211998
_publ_section_title
;
Structure prediction by ZEFSAII (Michael W. Deem and Ramdas Pophale) SiO2 
 PCOD9211998
Probable space group: C 2/M
;
_chemical_formula_sum "Si O2"
_cell_formula_units_Z 60
_cell_length_a 21.273070
_cell_length_b 12.115299
_cell_length_c 18.271423
_cell_angle_alpha 90.000000
_cell_angle_beta 146.945584
_cell_angle_gamma 90.000000
_cell_volume 2568.502100
_symmetry_space_group_name_H-M "C 2/M"
_symmetry_group_IT_number 12
_symmetry_cell_setting 'monoclinic'
loop_
_space_group_symop_operation_xyz
x,y,z
-x,y,-z
-x,-y,-z
x,-y,z
1/2+x,1/2+y,z
1/2-x,1/2+y,-z
1/2-x,1/2-y,-z
1/2+x,1/2-y,z
loop_
_atom_site_type_symbol
_atom_site_label
_atom_site_fract_x
_atom_site_fract_y
_atom_site_fract_z
Si Si1 0.657676 0.669730 0.729963
Si Si2 0.094328 0.823976 0.501733
Si Si3 0.218995 0.370998 0.883882
Si Si4 0.170312 0.500000 0.136687
Si Si5 0.922707 0.289967 0.861756
Si Si6 0.561737 0.769290 0.853775
Si Si7 0.644750 0.377989 0.402816
Si Si8 0.277151 0.872697 0.389823
O O1 0.533932 0.637866 0.642044
O O2 0.632627 0.644076 0.619902
O O3 0.682950 0.793732 0.779855
O O4 0.765872 0.595120 0.852747
O O5 0.176484 0.869159 0.518775
O O6 0.105220 0.691484 0.511606
O O7 0.224617 0.500000 0.872795
O O8 0.127473 0.347480 0.860262
O O9 0.342014 0.321445 0.029717
O O10 0.121546 0.401943 0.143801
O O11 0.822429 0.203320 0.743219
O O12 0.001318 0.316620 0.867934
O O13 0.000000 0.234246 0.000000
O O14 0.454235 0.709232 0.710047
O O15 0.597624 0.500000 0.341745
O O16 0.750162 0.365765 0.450185
O O17 0.274505 0.000000 0.365181
#
# Coordination Sequence:
#
# PCOD9211998 Si02
#       8
#     8   8   8   4   8   8   8   8
#     4  11  26  43  67 103 136 188 238 286 353 422
#     4  11  23  42  65  97 139 183 237 287 346 418
#     4  11  24  46  71 103 142 187 238 292 359 427
#     4  12  25  47  70 104 142 180 240 298 357 419
#     4  11  24  45  70 104 140 181 235 296 366 421
#     4  10  23  44  70 104 140 181 239 294 362 429
#     4  10  21  40  69  99 137 184 241 298 353 421
#     4  10  23  44  68 101 139 184 239 297 357 423
#
# _framework density 23.359919000000001
#
# number of rings (size 3 to 8) (size 9 to 14) (size 15 to 20)
#    0.000    1.333    2.667    1.800    2.800    2.400 
#    7.200    1.333    0.000    0.000    0.000    0.000 
#    0.000    0.000    0.000    0.000    0.000    0.000 
#
# Total GULP energy -167106.388000 kJ/mol
# GULP energy per Si atom -5570.212933 kJ/mol
# Density = 2.330675 g / cm^3
# Si number density = 23.359919 Si / 1000 Ang^3
#
#
#
# Elastic Constant Matrix: (Units=GPa)
#
#
# Indices 1 2 3 4 5 6 
#
# 1 84.6442 20.7363 16.3074 0.0000 6.9650 0.0000
# 2 20.7363 139.0115 18.2272 0.0000 16.8088 0.0000
# 3 16.3074 18.2272 64.2955 0.0000 1.8887 0.0000
# 4 0.0000 0.0000 0.0000 25.7180 0.0000 -12.4287
# 5 6.9650 16.8088 1.8887 0.0000 35.6905 0.0000
# 6 0.0000 0.0000 0.0000 -12.4287 0.0000 35.6453
#
#
#
# Elastic Compliance Matrix: (Units=1/GPa)
#
#
# Indices 1 2 3 4 5 6 
#
# 1 0.012827 -0.001334 -0.002824 0.000000 -0.001725 0.000000
# 2 -0.001334 0.008049 -0.001843 0.000000 -0.003433 0.000000
# 3 -0.002824 -0.001843 0.016776 0.000000 0.000531 0.000000
# 4 0.000000 0.000000 0.000000 0.046763 0.000000 0.016305
# 5 -0.001725 -0.003433 0.000531 0.000000 0.029944 0.000000
# 6 0.000000 0.000000 0.000000 0.016305 0.000000 0.033739
#
#
# Mechanical properties :
#
#
# Convention : Reuss Voigt Hill
#
# Bulk Modulus (GPa) = 38.98647 44.27699 41.63173
# Shear Modulus (GPa) = 29.64676 34.92278 32.28477
#
# Velocity S-wave (km/s) = 3.56635 3.87070 3.72164
# Velocity P-wave (km/s) = 5.80381 6.24274 6.02727
#
# Compressibility (1/GPa) = 0.02564993
#
# Stress axis : x y z
#
# Youngs Moduli (GPa) = 77.95939 124.23238 59.60789
#
# Poissons Ratio (x) = 0.16579 0.16836
# Poissons Ratio (y) = 0.10403 0.10983
# Poissons Ratio (z) = 0.22019 0.22891
#
# Static dielectric constant tensor:
#      x y z
#    x 1.951470 0.000000 0.035490 
#    y 0.000000 1.871040 0.000000 
#    z 0.035490 0.000000 1.997840 
# 
# From -- ./inp_files/283552.got.cif
#   From: 2010.05.17/outbox.cif.g08.bks.cpg/sg12_142_cif.got.tgz:283552.got - 2010.06.03 13:09:07.
