data_PCOD9211838
_publ_section_title
;
Structure prediction by ZEFSAII (Michael W. Deem and Ramdas Pophale) SiO2 
 PCOD9211838
Probable space group: C 2/M
;
_chemical_formula_sum "Si O2"
_cell_formula_units_Z 60
_cell_length_a 20.379031
_cell_length_b 11.671953
_cell_length_c 22.547912
_cell_angle_alpha 90.000000
_cell_angle_beta 145.553706
_cell_angle_gamma 90.000000
_cell_volume 3033.671219
_symmetry_space_group_name_H-M "C 2/M"
_symmetry_group_IT_number 12
_symmetry_cell_setting 'monoclinic'
loop_
_space_group_symop_operation_xyz
x,y,z
-x,y,-z
-x,-y,-z
x,-y,z
1/2+x,1/2+y,z
1/2-x,1/2+y,-z
1/2-x,1/2-y,-z
1/2+x,1/2-y,z
loop_
_atom_site_type_symbol
_atom_site_label
_atom_site_fract_x
_atom_site_fract_y
_atom_site_fract_z
Si Si1 0.410236 0.635587 0.626879
Si Si2 0.839665 0.500000 0.740188
Si Si3 0.060342 0.313150 0.103415
Si Si4 0.632260 0.867969 0.601633
Si Si5 0.758050 0.710537 0.601637
Si Si6 0.381365 0.867622 0.065966
Si Si7 0.227185 0.131382 0.175268
Si Si8 0.342804 0.728764 0.155451
O O1 0.395353 0.500000 0.625932
O O2 0.349504 0.669204 0.519526
O O3 0.342695 0.711708 0.625065
O O4 0.545559 0.668195 0.733177
O O5 0.850496 0.400117 0.800452
O O6 0.821433 0.601160 0.676299
O O7 0.120380 0.198236 0.125276
O O8 0.963443 0.298687 0.082128
O O9 0.000000 0.364365 0.000000
O O10 0.500000 0.829057 0.500000
O O11 0.710002 0.788823 0.618593
O O12 0.675241 0.866815 0.701064
O O13 0.638192 0.000000 0.584821
O O14 0.382045 0.813291 0.131428
O O15 0.426181 0.000000 0.098423
O O16 0.250824 0.857518 0.943718
O O17 0.275010 0.198642 0.154321
O O18 0.199292 0.000000 0.139872
#
# Coordination Sequence:
#
# PCOD9211838 Si02
#       8
#     8   4   8   8   8   8   8   8
#     4  11  24  43  67  98 135 177 223 278 339 404
#     4  12  23  42  67  98 132 174 226 276 330 404
#     4  12  24  43  69 101 131 179 229 280 338 402
#     4  10  21  40  66  94 129 171 221 275 336 405
#     4  11  23  43  66  98 133 174 227 276 339 403
#     4  11  24  43  66  96 134 180 228 279 335 406
#     4  11  24  44  67 100 135 175 225 280 339 400
#     4  11  24  44  66  99 136 177 226 277 342 399
#
# _framework density 19.778016999999998
#
# number of rings (size 3 to 8) (size 9 to 14) (size 15 to 20)
#    0.000    0.933    4.000    3.000    0.000    0.267 
#    2.400    1.000    0.000    0.000    0.000    0.000 
#    0.000    0.000    0.000    0.000    0.000    0.000 
#
# Total GULP energy -167125.519125 kJ/mol
# GULP energy per Si atom -5570.850638 kJ/mol
# Density = 1.973300 g / cm^3
# Si number density = 19.778017 Si / 1000 Ang^3
#
#
#
# Elastic Constant Matrix: (Units=GPa)
#
#
# Indices 1 2 3 4 5 6 
#
# 1 94.2706 37.1918 14.4207 0.0000 -12.9344 0.0000
# 2 37.1918 106.6600 22.8738 0.0000 -8.8992 0.0000
# 3 14.4207 22.8738 84.1957 0.0000 -10.1114 0.0000
# 4 0.0000 0.0000 0.0000 22.8288 0.0000 -2.0018
# 5 -12.9344 -8.8992 -10.1114 0.0000 33.3560 0.0000
# 6 0.0000 0.0000 0.0000 -2.0018 0.0000 23.5108
#
#
#
# Elastic Compliance Matrix: (Units=1/GPa)
#
#
# Indices 1 2 3 4 5 6 
#
# 1 0.012799 -0.004014 -0.000658 0.000000 0.003693 0.000000
# 2 -0.004014 0.011332 -0.002299 0.000000 0.000770 0.000000
# 3 -0.000658 -0.002299 0.012983 0.000000 0.003067 0.000000
# 4 0.000000 0.000000 0.000000 0.044134 0.000000 0.003758
# 5 0.003693 0.000770 0.003067 0.000000 0.032547 0.000000
# 6 0.000000 0.000000 0.000000 0.003758 0.000000 0.042854
#
#
# Mechanical properties :
#
#
# Convention : Reuss Voigt Hill
#
# Bulk Modulus (GPa) = 43.15480 48.23321 45.69400
# Shear Modulus (GPa) = 28.04061 29.98179 29.01120
#
# Velocity S-wave (km/s) = 3.76941 3.89770 3.83409
# Velocity P-wave (km/s) = 6.38839 6.68553 6.53865
#
# Compressibility (1/GPa) = 0.02317240
#
# Stress axis : x y z
#
# Youngs Moduli (GPa) = 78.13410 88.24312 77.02575
#
# Poissons Ratio (x) = 0.35417 0.05070
# Poissons Ratio (y) = 0.31359 0.17707
# Poissons Ratio (z) = 0.05143 0.20285
#
# Static dielectric constant tensor:
#      x y z
#    x 1.671220 0.000000 0.041750 
#    y 0.000000 1.656250 0.000000 
#    z 0.041750 0.000000 1.770240 
# 
# From -- ./inp_files/315976.got.cif
#   From: 2010.05.17/outbox.cif.g08.bks.cpg/sg12_158_cif.got.tgz:315976.got - 2010.06.03 13:09:07.
