data_PCOD9211373
_publ_section_title
;
Structure prediction by ZEFSAII (Michael W. Deem and Ramdas Pophale) SiO2 
 PCOD9211373
Probable space group: C 2/M
;
_chemical_formula_sum "Si O2"
_cell_formula_units_Z 40
_cell_length_a 18.241987
_cell_length_b 13.771837
_cell_length_c 9.125512
_cell_angle_alpha 90.000000
_cell_angle_beta 106.463564
_cell_angle_gamma 90.000000
_cell_volume 2198.568156
_symmetry_space_group_name_H-M "C 2/M"
_symmetry_group_IT_number 12
_symmetry_cell_setting 'monoclinic'
loop_
_space_group_symop_operation_xyz
x,y,z
-x,y,-z
-x,-y,-z
x,-y,z
1/2+x,1/2+y,z
1/2-x,1/2+y,-z
1/2-x,1/2-y,-z
1/2+x,1/2-y,z
loop_
_atom_site_type_symbol
_atom_site_label
_atom_site_fract_x
_atom_site_fract_y
_atom_site_fract_z
Si Si1 0.049882 0.732089 0.883962
Si Si2 0.350286 0.613632 0.205251
Si Si3 0.806036 0.725055 0.399242
Si Si4 0.446278 0.892197 0.609767
Si Si5 0.296578 0.885138 0.091217
O O1 0.079296 0.833670 0.835193
O O2 0.128183 0.667568 0.933188
O O3 0.993284 0.674142 0.746119
O O4 0.000000 0.745668 0.000000
O O5 0.362110 0.500000 0.237095
O O6 0.336209 0.675006 0.344592
O O7 0.275339 0.625160 0.058513
O O8 0.750000 0.750000 0.500000
O O9 0.871464 0.660714 0.510070
O O10 0.779062 0.664558 0.239228
O O11 0.500000 0.902346 0.500000
O O12 0.430279 0.000000 0.661376
O O13 0.312118 0.000000 0.120433
#
# Coordination Sequence:
#
# PCOD9211373 Si02
#       5
#     8   8   8   8   8
#     4  11  23  38  62  89 122 151 197 247 298 348
#     4  10  23  42  61  83 120 166 206 238 285 354
#     4  11  23  38  61  89 124 154 197 246 299 354
#     4  11  22  39  62  89 119 153 191 246 308 353
#     4  10  21  40  62  86 119 160 199 244 295 352
#
# _framework density 18.193660000000001
#
# number of rings (size 3 to 8) (size 9 to 14) (size 15 to 20)
#    0.000    1.400    4.000    3.600    5.600    3.600 
#    0.000    2.000    0.000    0.000    0.000    0.000 
#    0.000    0.000    0.000    0.000    0.000    0.000 
#
# Total GULP energy -111580.770676 kJ/mol
# GULP energy per Si atom -5579.038534 kJ/mol
# Density = 1.815225 g / cm^3
# Si number density = 18.193660 Si / 1000 Ang^3
#
#
#
# Elastic Constant Matrix: (Units=GPa)
#
#
# Indices 1 2 3 4 5 6 
#
# 1 64.1780 19.0027 33.7082 0.0000 -22.8887 0.0000
# 2 19.0027 116.6795 19.7764 0.0000 -7.1798 0.0000
# 3 33.7082 19.7764 54.7762 0.0000 -25.9455 0.0000
# 4 0.0000 0.0000 0.0000 17.7311 0.0000 14.9487
# 5 -22.8887 -7.1798 -25.9455 0.0000 46.0800 0.0000
# 6 0.0000 0.0000 0.0000 14.9487 0.0000 26.9938
#
#
#
# Elastic Compliance Matrix: (Units=1/GPa)
#
#
# Indices 1 2 3 4 5 6 
#
# 1 0.024078 -0.001602 -0.011853 0.000000 0.005036 0.000000
# 2 -0.001602 0.009248 -0.002792 0.000000 -0.000927 0.000000
# 3 -0.011853 -0.002792 0.032133 0.000000 0.011770 0.000000
# 4 0.000000 0.000000 0.000000 0.105789 0.000000 -0.058584
# 5 0.005036 -0.000927 0.011770 0.000000 0.030686 0.000000
# 6 0.000000 0.000000 0.000000 -0.058584 0.000000 0.069488
#
#
# Mechanical properties :
#
#
# Convention : Reuss Voigt Hill
#
# Bulk Modulus (GPa) = 30.33575 42.28981 36.31278
# Shear Modulus (GPa) = 15.87784 29.03739 22.45762
#
# Velocity S-wave (km/s) = 2.95738 3.99935 3.51716
# Velocity P-wave (km/s) = 5.32648 6.67991 6.04122
#
# Compressibility (1/GPa) = 0.03296441
#
# Stress axis : x y z
#
# Youngs Moduli (GPa) = 41.53194 108.13618 31.12039
#
# Poissons Ratio (x) = 0.17328 0.36887
# Poissons Ratio (y) = 0.06655 0.08688
# Poissons Ratio (z) = 0.49228 0.30188
#
# Static dielectric constant tensor:
#      x y z
#    x 1.575970 0.000000 0.052570 
#    y 0.000000 1.653930 0.000000 
#    z 0.052570 0.000000 1.555360 
# 
# From -- ./inp_files/72392.got.cif
#   From: 2010.05.17/outbox.cif.g08.bks.cpg/sg12_37_cif.got.tgz:72392.got - 2010.06.03 13:09:07.
