data_PCOD9211012
_publ_section_title
;
Structure prediction by ZEFSAII (Michael W. Deem and Ramdas Pophale) SiO2 
 PCOD9211012
Probable space group: C 2/M
;
_chemical_formula_sum "Si O2"
_cell_formula_units_Z 48
_cell_length_a 20.484039
_cell_length_b 14.050538
_cell_length_c 24.536927
_cell_angle_alpha 90.000000
_cell_angle_beta 161.048108
_cell_angle_gamma 90.000000
_cell_volume 2293.560299
_symmetry_space_group_name_H-M "C 2/M"
_symmetry_group_IT_number 12
_symmetry_cell_setting 'monoclinic'
loop_
_space_group_symop_operation_xyz
x,y,z
-x,y,-z
-x,-y,-z
x,-y,z
1/2+x,1/2+y,z
1/2-x,1/2+y,-z
1/2-x,1/2-y,-z
1/2+x,1/2-y,z
loop_
_atom_site_type_symbol
_atom_site_label
_atom_site_fract_x
_atom_site_fract_y
_atom_site_fract_z
Si Si1 0.798475 0.386724 0.491800
Si Si2 0.489442 0.609523 0.071830
Si Si3 0.605600 0.395154 0.642627
Si Si4 0.196655 0.692902 0.753970
Si Si5 0.523221 0.715053 0.826462
Si Si6 0.690467 0.104836 0.371728
O O1 0.797757 0.500000 0.480484
O O2 0.584764 0.339545 0.308566
O O3 0.844588 0.374091 0.592278
O O4 0.969875 0.335283 0.590979
O O5 0.426006 0.500000 0.017398
O O6 0.704687 0.624008 0.213128
O O7 0.496504 0.645007 0.138518
O O8 0.331672 0.673718 0.913844
O O9 0.500000 0.384650 0.500000
O O10 0.706928 0.500000 0.722707
O O11 0.720119 0.299318 0.749019
O O12 0.425760 0.398687 0.544637
O O13 0.400821 0.812727 0.736846
O O14 0.750000 0.750000 0.000000
O O15 0.605502 0.000000 0.292501
#
# Coordination Sequence:
#
# PCOD9211012 Si02
#       6
#     8   8   8   8   8   8
#     4  11  23  40  66  97 129 170 224 274 324 392
#     4  11  25  44  64  97 137 174 212 267 334 390
#     4  10  21  39  65  94 124 164 217 270 315 376
#     4  11  22  41  71  94 130 176 215 265 330 394
#     4  12  25  39  62  92 133 172 214 269 323 388
#     4  10  22  41  64  90 125 170 217 271 327 384
#
# _framework density 20.928160999999999
#
# number of rings (size 3 to 8) (size 9 to 14) (size 15 to 20)
#    0.000    1.167    1.667    5.000    2.333    2.667 
#    0.000    4.167    0.000    0.000    0.000    0.000 
#    0.000    0.000    0.000    0.000    0.000    0.000 
#
# Total GULP energy -134057.282405 kJ/mol
# GULP energy per Si atom -5585.720100 kJ/mol
# Density = 2.088053 g / cm^3
# Si number density = 20.928161 Si / 1000 Ang^3
#
#
#
# Elastic Constant Matrix: (Units=GPa)
#
#
# Indices 1 2 3 4 5 6 
#
# 1 46.4581 7.7579 4.6853 0.0090 2.7115 0.0019
# 2 7.7579 161.0475 38.7645 0.0347 -28.5302 0.0106
# 3 4.6853 38.7645 55.5046 0.0163 9.0572 0.0036
# 4 0.0090 0.0347 0.0163 26.6644 0.0154 -3.6818
# 5 2.7115 -28.5302 9.0572 0.0154 20.4042 0.0057
# 6 0.0019 0.0106 0.0036 -3.6818 0.0057 29.4893
#
#
#
# Elastic Compliance Matrix: (Units=1/GPa)
#
#
# Indices 1 2 3 4 5 6 
#
# 1 0.022257 -0.002574 0.001066 -0.000001 -0.007031 0.000001
# 2 -0.002574 0.014628 -0.014438 -0.000027 0.027205 -0.000012
# 3 0.001066 -0.014438 0.033774 0.000020 -0.035322 0.000010
# 4 -0.000001 -0.000027 0.000020 0.038161 -0.000076 0.004764
# 5 -0.007031 0.027205 -0.035322 -0.000076 0.103663 -0.000034
# 6 0.000001 -0.000012 0.000010 0.004764 -0.000034 0.034505
#
#
# Mechanical properties :
#
#
# Convention : Reuss Voigt Hill
#
# Bulk Modulus (GPa) = 25.79501 40.60285 33.19893
# Shear Modulus (GPa) = 17.13474 29.43174 23.28324
#
# Velocity S-wave (km/s) = 2.86447 3.75416 3.33908
# Velocity P-wave (km/s) = 4.82623 6.18343 5.54650
#
# Compressibility (1/GPa) = 0.03876718
#
# Stress axis : x y z
#
# Youngs Moduli (GPa) = 44.92870 68.36089 29.60836
#
# Poissons Ratio (x) = 0.17599 -0.03158
# Poissons Ratio (y) = 0.11567 0.42750
# Poissons Ratio (z) = -0.04791 0.98702
#
# Static dielectric constant tensor:
#      x y z
#    x 1.747870 0.000000 0.015220 
#    y 0.000000 1.828030 0.000000 
#    z 0.015220 0.000000 1.757600 
# 
# From -- ./inp_files/347523.got.cif
#   From: 2010.05.17/outbox.cif.g08.bks.cpg/sg12_174_cif.got.tgz:347523.got - 2010.06.03 13:09:07.
