data_PCOD9211501
_publ_section_title
;
Structure prediction by ZEFSAII (Michael W. Deem and Ramdas Pophale) SiO2 
 PCOD9211501
Probable space group: C 2/M
;
_chemical_formula_sum "Si O2"
_cell_formula_units_Z 64
_cell_length_a 22.325743
_cell_length_b 8.926655
_cell_length_c 20.355366
_cell_angle_alpha 90.000000
_cell_angle_beta 46.191692
_cell_angle_gamma 90.000000
_cell_volume 2927.562233
_symmetry_space_group_name_H-M "C 2/M"
_symmetry_group_IT_number 12
_symmetry_cell_setting 'monoclinic'
loop_
_space_group_symop_operation_xyz
x,y,z
-x,y,-z
-x,-y,-z
x,-y,z
1/2+x,1/2+y,z
1/2-x,1/2+y,-z
1/2-x,1/2-y,-z
1/2+x,1/2-y,z
loop_
_atom_site_type_symbol
_atom_site_label
_atom_site_fract_x
_atom_site_fract_y
_atom_site_fract_z
Si Si1 0.706358 0.677284 0.873351
Si Si2 0.810937 0.822419 0.900193
Si Si3 0.041080 0.674820 0.040193
Si Si4 0.998392 0.176758 0.200268
Si Si5 0.745178 0.679418 0.293119
Si Si6 0.775067 0.175448 0.548552
Si Si7 0.960778 0.176114 0.370504
Si Si8 0.571584 0.174352 0.390468
O O1 0.712802 0.500000 0.867381
O O2 0.784738 0.748315 0.851407
O O3 0.701491 0.743979 0.804077
O O4 0.624791 0.728228 0.974549
O O5 0.906064 0.799535 0.848723
O O6 0.796375 0.000000 0.907611
O O7 0.750000 0.750000 0.000000
O O8 0.061460 0.500000 0.033539
O O9 0.986538 0.730478 0.142907
O O10 0.000000 0.692848 0.000000
O O11 0.947563 0.218883 0.304269
O O12 0.986575 0.000000 0.195691
O O13 0.754483 0.500000 0.283218
O O14 0.761812 0.733357 0.354880
O O15 0.650484 0.725580 0.348685
O O16 0.750000 0.250000 0.500000
O O17 0.874929 0.190033 0.474741
O O18 0.755331 0.000000 0.559381
O O19 0.029568 0.272306 0.354890
O O20 0.985548 0.000000 0.351568
O O21 0.500000 0.188985 0.500000
O O22 0.596976 0.000000 0.367962
#
# Coordination Sequence:
#
# PCOD9211501 Si02
#       8
#     8   8   8   8   8   8   8   8
#     4  12  25  41  64  94 126 163 206 255 312 370
#     4  11  21  36  61  94 128 163 199 247 307 370
#     4  11  25  44  65  89 121 161 208 258 310 368
#     4  10  22  39  63  92 122 158 203 250 304 367
#     4  11  23  41  64  91 125 166 208 252 307 371
#     4  10  23  41  63  88 119 161 208 257 306 362
#     4  10  21  40  63  90 122 161 206 248 303 369
#     4  11  22  36  60  95 129 161 201 252 308 366
#
# _framework density 21.861191999999999
#
# number of rings (size 3 to 8) (size 9 to 14) (size 15 to 20)
#    0.000    1.250    2.500    3.375    0.000    6.000 
#    0.000    2.500    0.000    0.000    0.000    0.000 
#    0.000    0.000    0.000    0.000    0.000    0.000 
#
# Total GULP energy -179037.285386 kJ/mol
# GULP energy per Si atom -5594.915168 kJ/mol
# Density = 2.181143 g / cm^3
# Si number density = 21.861192 Si / 1000 Ang^3
#
#
#
# Elastic Constant Matrix: (Units=GPa)
#
#
# Indices 1 2 3 4 5 6 
#
# 1 60.9298 28.6852 9.5328 -0.0001 34.0918 0.0001
# 2 28.6852 73.7408 24.5467 0.0001 16.8371 -0.0001
# 3 9.5328 24.5467 102.2330 0.0001 40.3351 -0.0001
# 4 -0.0001 0.0001 0.0001 32.2400 0.0000 9.1048
# 5 34.0918 16.8371 40.3351 0.0000 41.6269 0.0001
# 6 0.0001 -0.0001 -0.0001 9.1048 0.0001 25.8189
#
#
#
# Elastic Compliance Matrix: (Units=1/GPa)
#
#
# Indices 1 2 3 4 5 6 
#
# 1 0.051638 -0.014082 0.021053 0.000000 -0.056994 0.000000
# 2 -0.014082 0.019024 -0.007720 0.000000 0.011319 0.000000
# 3 0.021053 -0.007720 0.024677 0.000000 -0.038030 0.000000
# 4 0.000000 0.000000 0.000000 0.034448 0.000000 -0.012148
# 5 -0.056994 0.011319 -0.038030 0.000000 0.102972 0.000000
# 6 0.000000 0.000000 0.000000 -0.012148 0.000000 0.043015
#
#
# Mechanical properties :
#
#
# Convention : Reuss Voigt Hill
#
# Bulk Modulus (GPa) = 10.65646 40.27031 25.46339
# Shear Modulus (GPa) = 16.20469 31.54642 23.87555
#
# Velocity S-wave (km/s) = 2.72555 3.80285 3.30834
# Velocity P-wave (km/s) = 3.84578 6.14354 5.12509
#
# Compressibility (1/GPa) = 0.09383976
#
# Stress axis : x y z
#
# Youngs Moduli (GPa) = 19.36564 52.56408 40.52432
#
# Poissons Ratio (x) = 0.74019 -0.85314
# Poissons Ratio (y) = 0.27270 0.31287
# Poissons Ratio (z) = -0.40770 0.40582
#
# Static dielectric constant tensor:
#      x y z
#    x 1.809320 0.000000 0.013460 
#    y 0.000000 1.732520 0.000000 
#    z 0.013460 0.000000 1.831310 
# 
# From -- ./inp_files/324114.got.cif
#   From: 2010.05.17/outbox.cif.g08.bks.cpg/sg12_163_cif.got.tgz:324114.got - 2010.06.03 13:09:07.
