data_PCOD9211287
_publ_section_title
;
Structure prediction by ZEFSAII (Michael W. Deem and Ramdas Pophale) SiO2 
 PCOD9211287
Probable space group: C 2/M
;
_chemical_formula_sum "Si O2"
_cell_formula_units_Z 42
_cell_length_a 21.253119
_cell_length_b 7.492489
_cell_length_c 12.072735
_cell_angle_alpha 90.000000
_cell_angle_beta 126.865420
_cell_angle_gamma 90.000000
_cell_volume 1538.048023
_symmetry_space_group_name_H-M "C 2/M"
_symmetry_group_IT_number 12
_symmetry_cell_setting 'monoclinic'
loop_
_space_group_symop_operation_xyz
x,y,z
-x,y,-z
-x,-y,-z
x,-y,z
1/2+x,1/2+y,z
1/2-x,1/2+y,-z
1/2-x,1/2-y,-z
1/2+x,1/2-y,z
loop_
_atom_site_type_symbol
_atom_site_label
_atom_site_fract_x
_atom_site_fract_y
_atom_site_fract_z
Si Si1 0.085869 0.293560 0.102542
Si Si2 0.000000 0.500000 0.500000
Si Si3 0.931675 0.788634 0.155255
Si Si4 0.586677 0.716970 0.431158
Si Si5 0.296948 0.202151 0.161166
Si Si6 0.246092 0.702297 0.346237
O O1 0.075965 0.500000 0.126713
O O2 0.106625 0.295334 0.993411
O O3 0.160068 0.210596 0.243807
O O4 0.000000 0.204884 0.000000
O O5 0.947810 0.342831 0.509928
O O6 0.886967 0.717183 0.215892
O O7 0.024441 0.752196 0.265734
O O8 0.919422 0.000000 0.138602
O O9 0.584143 0.500000 0.450672
O O10 0.677572 0.770493 0.508180
O O11 0.277962 0.305369 0.252422
O O12 0.278265 0.000000 0.169994
O O13 0.250000 0.250000 0.000000
O O14 0.233938 0.500000 0.369661
#
# Coordination Sequence:
#
# PCOD9211287 Si02
#       6
#     8   2   8   8   8   8
#     4  10  22  41  67  92 117 156 208 265 314 361
#     4  12  22  36  64  94 124 176 202 250 308 360
#     4  11  23  40  60  87 124 163 202 250 306 369
#     4  10  24  40  58  88 129 169 208 247 303 374
#     4  12  23  34  55  88 123 159 198 244 300 370
#     4  10  21  40  60  85 124 163 201 249 306 369
#
# _framework density 27.307341999999998
#
# number of rings (size 3 to 8) (size 9 to 14) (size 15 to 20)
#    0.000    1.333    1.905    3.714    6.667    3.429 
#    0.000    0.952    0.000    0.000    0.000    0.000 
#    0.000    0.000    0.000    0.000    0.000    0.000 
#
# Total GULP energy -117265.750665 kJ/mol
# GULP energy per Si atom -5584.083365 kJ/mol
# Density = 2.724519 g / cm^3
# Si number density = 27.307342 Si / 1000 Ang^3
#
#
#
# Elastic Constant Matrix: (Units=GPa)
#
#
# Indices 1 2 3 4 5 6 
#
# 1 145.4274 9.4643 49.2910 0.0000 48.1257 0.0000
# 2 9.4643 163.2792 20.1543 0.0000 -7.0267 0.0000
# 3 49.2910 20.1543 168.7617 0.0000 39.7928 0.0000
# 4 0.0000 0.0000 0.0000 14.2772 0.0000 -9.7462
# 5 48.1257 -7.0267 39.7928 0.0000 72.9582 0.0000
# 6 0.0000 0.0000 0.0000 -9.7462 0.0000 25.6801
#
#
#
# Elastic Compliance Matrix: (Units=1/GPa)
#
#
# Indices 1 2 3 4 5 6 
#
# 1 0.009141 -0.000596 -0.001335 0.000000 -0.005359 0.000000
# 2 -0.000596 0.006340 -0.000941 0.000000 0.001517 0.000000
# 3 -0.001335 -0.000941 0.007163 0.000000 -0.003117 0.000000
# 4 0.000000 0.000000 0.000000 0.094534 0.000000 0.035878
# 5 -0.005359 0.001517 -0.003117 0.000000 0.019087 0.000000
# 6 0.000000 0.000000 0.000000 0.035878 0.000000 0.052557
#
#
# Mechanical properties :
#
#
# Convention : Reuss Voigt Hill
#
# Bulk Modulus (GPa) = 59.16886 70.58749 64.87817
# Shear Modulus (GPa) = 24.97516 49.15366 37.06441
#
# Velocity S-wave (km/s) = 3.02751 4.24726 3.68816
# Velocity P-wave (km/s) = 5.82545 7.06808 6.47663
#
# Compressibility (1/GPa) = 0.01690078
#
# Stress axis : x y z
#
# Youngs Moduli (GPa) = 109.39771 157.71848 139.61203
#
# Poissons Ratio (x) = 0.09395 0.18640
# Poissons Ratio (y) = 0.06516 0.13136
# Poissons Ratio (z) = 0.14606 0.14839
#
# Static dielectric constant tensor:
#      x y z
#    x 2.283520 0.000000 0.019300 
#    y 0.000000 2.015210 0.000000 
#    z 0.019300 0.000000 2.195850 
# 
# From -- ./inp_files/163290.got.cif
#   From: 2010.05.17/outbox.cif.g08.bks.cpg/sg12_82_cif.got.tgz:163290.got - 2010.06.03 13:09:07.
