data_PCOD9211522
_publ_section_title
;
Structure prediction by ZEFSAII (Michael W. Deem and Ramdas Pophale) SiO2 
 PCOD9211522
Probable space group: C 2/M
;
_chemical_formula_sum "Si O2"
_cell_formula_units_Z 42
_cell_length_a 24.632820
_cell_length_b 15.948660
_cell_length_c 7.332532
_cell_angle_alpha 90.000000
_cell_angle_beta 144.205845
_cell_angle_gamma 90.000000
_cell_volume 1684.826976
_symmetry_space_group_name_H-M "C 2/M"
_symmetry_group_IT_number 12
_symmetry_cell_setting 'monoclinic'
loop_
_space_group_symop_operation_xyz
x,y,z
-x,y,-z
-x,-y,-z
x,-y,z
1/2+x,1/2+y,z
1/2-x,1/2+y,-z
1/2-x,1/2-y,-z
1/2+x,1/2-y,z
loop_
_atom_site_type_symbol
_atom_site_label
_atom_site_fract_x
_atom_site_fract_y
_atom_site_fract_z
Si Si1 0.420339 0.857254 0.018345
Si Si2 0.574222 0.600703 0.434547
Si Si3 0.382231 0.099855 0.314965
Si Si4 0.287821 0.600107 0.887707
Si Si5 0.127227 0.171732 0.211662
Si Si6 0.500000 0.000000 0.000000
O O1 0.527696 0.849082 0.378908
O O2 0.368920 0.887318 0.063037
O O3 0.387130 0.769741 0.851567
O O4 0.429408 0.927371 0.889372
O O5 0.580686 0.500000 0.434504
O O6 0.618783 0.624787 0.748166
O O7 0.468610 0.627708 0.116541
O O8 0.634494 0.643102 0.439110
O O9 0.406863 0.000000 0.417413
O O10 0.295479 0.121656 0.202982
O O11 0.288170 0.500000 0.867004
O O12 0.292160 0.641126 0.702419
#
# Coordination Sequence:
#
# PCOD9211522 Si02
#       6
#     8   8   8   8   8   2
#     4  11  23  40  65  91 126 168 218 264 316 385
#     4  10  21  40  63  92 130 167 215 262 312 390
#     4  10  21  45  63  90 126 167 217 265 316 385
#     4  10  22  40  68  96 126 172 211 262 328 385
#     4  11  22  39  63  96 130 165 212 267 323 378
#     4  12  20  42  68  92 118 182 226 256 320 374
#
# _framework density 24.928374999999999
#
# number of rings (size 3 to 8) (size 9 to 14) (size 15 to 20)
#    0.000    1.524    1.905    4.571    5.333    2.286 
#    3.429    0.952    0.000    0.000    0.000    0.000 
#    0.000    0.000    0.000    0.000    0.000    0.000 
#
# Total GULP energy -117519.981445 kJ/mol
# GULP energy per Si atom -5596.189593 kJ/mol
# Density = 2.487164 g / cm^3
# Si number density = 24.928375 Si / 1000 Ang^3
#
#
#
# Elastic Constant Matrix: (Units=GPa)
#
#
# Indices 1 2 3 4 5 6 
#
# 1 201.7200 65.1855 14.0745 0.0000 -8.2259 0.0000
# 2 65.1855 99.7492 10.6188 0.0000 -1.2321 0.0000
# 3 14.0745 10.6188 62.7120 0.0000 -6.2523 0.0000
# 4 0.0000 0.0000 0.0000 72.7609 0.0000 15.1070
# 5 -8.2259 -1.2321 -6.2523 0.0000 32.7013 0.0000
# 6 0.0000 0.0000 0.0000 15.1070 0.0000 3.9091
#
#
#
# Elastic Compliance Matrix: (Units=1/GPa)
#
#
# Indices 1 2 3 4 5 6 
#
# 1 0.006374 -0.004084 -0.000606 0.000000 0.001334 0.000000
# 2 -0.004084 0.012826 -0.001335 0.000000 -0.000799 0.000000
# 3 -0.000606 -0.001335 0.016604 0.000000 0.002972 0.000000
# 4 0.000000 0.000000 0.000000 0.069544 0.000000 -0.268756
# 5 0.001334 -0.000799 0.002972 0.000000 0.031453 0.000000
# 6 0.000000 0.000000 0.000000 -0.268756 0.000000 1.294431
#
#
# Mechanical properties :
#
#
# Convention : Reuss Voigt Hill
#
# Bulk Modulus (GPa) = 42.09781 60.43765 51.26773
# Shear Modulus (GPa) = 3.44542 40.16110 21.80326
#
# Velocity S-wave (km/s) = 1.17691 4.01816 2.96063
# Velocity P-wave (km/s) = 4.33255 6.76939 5.68311
#
# Compressibility (1/GPa) = 0.02375421
#
# Stress axis : x y z
#
# Youngs Moduli (GPa) = 156.89076 77.96395 60.22563
#
# Poissons Ratio (x) = 0.31843 0.03649
# Poissons Ratio (y) = 0.64079 0.08040
# Poissons Ratio (z) = 0.09507 0.10407
#
# Static dielectric constant tensor:
#      x y z
#    x 1.928190 0.000000 0.084910 
#    y 0.000000 1.887590 0.000000 
#    z 0.084910 0.000000 1.887570 
# 
# From -- ./inp_files/104823.got.cif
#   From: 2010.05.17/outbox.cif.g08.bks.cpg/sg12_53_cif.got.tgz:104823.got - 2010.06.03 13:09:07.
