data_PCOD9211816
_publ_section_title
;
Structure prediction by ZEFSAII (Michael W. Deem and Ramdas Pophale) SiO2 
 PCOD9211816
Probable space group: C 2/M
;
_chemical_formula_sum "Si O2"
_cell_formula_units_Z 48
_cell_length_a 19.152664
_cell_length_b 21.124159
_cell_length_c 8.018577
_cell_angle_alpha 90.000000
_cell_angle_beta 134.819428
_cell_angle_gamma 90.000000
_cell_volume 2301.205117
_symmetry_space_group_name_H-M "C 2/M"
_symmetry_group_IT_number 12
_symmetry_cell_setting 'monoclinic'
loop_
_space_group_symop_operation_xyz
x,y,z
-x,y,-z
-x,-y,-z
x,-y,z
1/2+x,1/2+y,z
1/2-x,1/2+y,-z
1/2-x,1/2-y,-z
1/2+x,1/2-y,z
loop_
_atom_site_type_symbol
_atom_site_label
_atom_site_fract_x
_atom_site_fract_y
_atom_site_fract_z
Si Si1 0.291224 0.928289 0.757261
Si Si2 0.023325 0.785042 0.215773
Si Si3 0.685072 0.707071 0.011709
Si Si4 0.898465 0.112299 0.388446
Si Si5 0.003773 0.427763 0.801631
Si Si6 0.159865 0.334209 0.455426
O O1 0.185413 0.926945 0.663034
O O2 0.297639 0.874614 0.626876
O O3 0.309786 0.000000 0.723312
O O4 0.381183 0.914498 0.036578
O O5 0.069630 0.831517 0.430303
O O6 0.096970 0.727604 0.302159
O O7 0.000000 0.818209 0.000000
O O8 0.918222 0.761252 0.109072
O O9 0.752007 0.687816 0.279506
O O10 0.750000 0.750000 0.000000
O O11 0.651723 0.645200 0.854679
O O12 0.000000 0.080828 0.500000
O O13 0.982311 0.500000 0.718625
O O14 0.921653 0.380324 0.597217
O O15 0.000000 0.422329 0.000000
#
# Coordination Sequence:
#
# PCOD9211816 Si02
#       6
#     8   8   8   8   8   8
#     4  10  21  40  66  93 121 163 216 262 305 359
#     4  11  23  37  60  92 123 158 209 260 308 369
#     4  11  24  39  56  89 132 167 204 243 311 387
#     4  10  23  42  59  86 130 166 203 257 312 371
#     4   8  16  32  55  88 121 150 198 255 299 346
#     4  11  21  35  64  91 125 163 203 257 310 373
#
# _framework density 20.858636000000001
#
# number of rings (size 3 to 8) (size 9 to 14) (size 15 to 20)
#    0.000    1.833    1.667    4.000    4.667    1.667 
#    0.000    1.667    0.000   12.500    0.000    0.000 
#    0.000    0.000    0.000    0.000    0.000    0.000 
#
# Total GULP energy -134002.702771 kJ/mol
# GULP energy per Si atom -5583.445949 kJ/mol
# Density = 2.081116 g / cm^3
# Si number density = 20.858636 Si / 1000 Ang^3
#
#
#
# Elastic Constant Matrix: (Units=GPa)
#
#
# Indices 1 2 3 4 5 6 
#
# 1 110.5077 23.5798 30.6920 0.0000 35.0461 0.0000
# 2 23.5798 60.3407 27.4338 0.0000 10.4047 0.0000
# 3 30.6920 27.4338 95.7404 0.0000 21.6272 0.0000
# 4 0.0000 0.0000 0.0000 15.2673 0.0000 9.2694
# 5 35.0461 10.4047 21.6272 0.0000 37.1387 0.0000
# 6 0.0000 0.0000 0.0000 9.2694 0.0000 24.1164
#
#
#
# Elastic Compliance Matrix: (Units=1/GPa)
#
#
# Indices 1 2 3 4 5 6 
#
# 1 0.013553 -0.002902 -0.000930 0.000000 -0.011435 0.000000
# 2 -0.002902 0.019878 -0.004751 0.000000 -0.000064 0.000000
# 3 -0.000930 -0.004751 0.013363 0.000000 -0.005573 0.000000
# 4 0.000000 0.000000 0.000000 0.085437 0.000000 -0.032839
# 5 -0.011435 -0.000064 -0.005573 0.000000 0.040980 0.000000
# 6 0.000000 0.000000 0.000000 -0.032839 0.000000 0.054087
#
#
# Mechanical properties :
#
#
# Convention : Reuss Voigt Hill
#
# Bulk Modulus (GPa) = 33.75184 47.77779 40.76482
# Shear Modulus (GPa) = 19.65870 27.63002 23.64436
#
# Velocity S-wave (km/s) = 3.07330 3.64350 3.37048
# Velocity P-wave (km/s) = 5.36749 6.37616 5.89344
#
# Compressibility (1/GPa) = 0.02962802
#
# Stress axis : x y z
#
# Youngs Moduli (GPa) = 73.78428 50.30796 74.83070
#
# Poissons Ratio (x) = 0.14597 0.06962
# Poissons Ratio (y) = 0.21409 0.35553
# Poissons Ratio (z) = 0.06864 0.23902
#
# Static dielectric constant tensor:
#      x y z
#    x 1.824600 0.000000 0.022000 
#    y 0.000000 1.722360 0.000000 
#    z 0.022000 0.000000 1.741450 
# 
# From -- ./inp_files/89714.got.cif
#   From: 2010.05.17/outbox.cif.g08.bks.cpg/sg12_45_cif.got.tgz:89714.got - 2010.06.03 13:09:07.
