data_PCOD9211707
_publ_section_title
;
Structure prediction by ZEFSAII (Michael W. Deem and Ramdas Pophale) SiO2 
 PCOD9211707
Probable space group: C 2/M
;
_chemical_formula_sum "Si O2"
_cell_formula_units_Z 48
_cell_length_a 24.754023
_cell_length_b 24.238922
_cell_length_c 10.953833
_cell_angle_alpha 90.000000
_cell_angle_beta 23.125406
_cell_angle_gamma 90.000000
_cell_volume 2581.284118
_symmetry_space_group_name_H-M "C 2/M"
_symmetry_group_IT_number 12
_symmetry_cell_setting 'monoclinic'
loop_
_space_group_symop_operation_xyz
x,y,z
-x,y,-z
-x,-y,-z
x,-y,z
1/2+x,1/2+y,z
1/2-x,1/2+y,-z
1/2-x,1/2-y,-z
1/2+x,1/2-y,z
loop_
_atom_site_type_symbol
_atom_site_label
_atom_site_fract_x
_atom_site_fract_y
_atom_site_fract_z
Si Si1 0.333274 0.563788 0.852653
Si Si2 0.721270 0.064779 0.811277
Si Si3 0.443053 0.648027 0.255259
Si Si4 0.635552 0.767701 0.638447
Si Si5 0.545655 0.065321 0.773682
Si Si6 0.774982 0.866496 0.200248
O O1 0.500000 0.568611 0.500000
O O2 0.305245 0.500000 0.953615
O O3 0.263691 0.569202 0.864538
O O4 0.274883 0.611651 0.061721
O O5 0.822064 0.104926 0.528710
O O6 0.739665 0.000000 0.738993
O O7 0.565575 0.081150 0.098727
O O8 0.397719 0.711314 0.363294
O O9 0.500000 0.642730 0.000000
O O10 0.567799 0.637377 0.087143
O O11 0.750000 0.750000 0.500000
O O12 0.694590 0.812946 0.421125
O O13 0.500000 0.783902 0.000000
O O14 0.697355 0.085126 0.432272
O O15 0.544273 0.000000 0.781390
O O16 0.500000 0.087178 0.000000
#
# Coordination Sequence:
#
# PCOD9211707 Si02
#       6
#     8   8   8   8   8   8
#     4  10  21  40  65  91 124 170 216 257 305 370
#     4  10  22  40  62  90 131 168 204 258 312 377
#     4  11  22  37  61  92 121 160 210 253 317 382
#     4  11  23  41  62  91 125 163 207 261 320 382
#     4  10  22  37  58  93 130 159 198 259 324 378
#     4  12  22  37  64  89 120 165 212 258 306 374
#
# _framework density 18.595396000000001
#
# number of rings (size 3 to 8) (size 9 to 14) (size 15 to 20)
#    0.000    1.333    5.000    2.000    2.333    1.667 
#    0.000    3.333    0.000    0.000    0.000    0.000 
#    0.000    0.000    0.000    0.000    0.000    0.000 
#
# Total GULP energy -133825.997536 kJ/mol
# GULP energy per Si atom -5576.083231 kJ/mol
# Density = 1.855307 g / cm^3
# Si number density = 18.595396 Si / 1000 Ang^3
#
#
#
# Elastic Constant Matrix: (Units=GPa)
#
#
# Indices 1 2 3 4 5 6 
#
# 1 72.3792 39.9833 6.8818 0.0005 -7.8219 -0.0005
# 2 39.9833 89.0146 38.6177 0.0001 8.7494 0.0000
# 3 6.8818 38.6177 54.8559 -0.0001 -6.1936 0.0000
# 4 0.0005 0.0001 -0.0001 1.2337 -0.0006 26.5661
# 5 -7.8219 8.7494 -6.1936 -0.0006 33.6788 0.0004
# 6 -0.0005 0.0000 0.0000 26.5661 0.0004 20.2151
#
#
#
# Elastic Compliance Matrix: (Units=1/GPa)
#
#
# Indices 1 2 3 4 5 6 
#
# 1 0.022427 -0.015029 0.008982 0.000000 0.010765 0.000000
# 2 -0.015029 0.027733 -0.019245 0.000000 -0.014234 0.000000
# 3 0.008982 -0.019245 0.032118 0.000000 0.012992 0.000000
# 4 0.000000 0.000000 0.000000 -0.029692 -0.000001 0.039021
# 5 0.010765 -0.014234 0.012992 -0.000001 0.038280 0.000001
# 6 0.000000 0.000000 0.000000 0.039021 0.000001 -0.001812
#
#
# Mechanical properties :
#
#
# Convention : Reuss Voigt Hill
#
# Bulk Modulus (GPa) = 31.55154 43.02391 37.28773
# Shear Modulus (GPa) = 33.28824 19.74332 26.51578
#
# Velocity S-wave (km/s) = 4.23559 3.26196 3.78025
# Velocity P-wave (km/s) = 6.39722 6.11345 6.25695
#
# Compressibility (1/GPa) = 0.03169418
#
# Stress axis : x y z
#
# Youngs Moduli (GPa) = 44.58818 36.05803 31.13498
#
# Poissons Ratio (x) = 0.54190 -0.27965
# Poissons Ratio (y) = 0.67010 0.59921
# Poissons Ratio (z) = -0.40048 0.69395
#
# Static dielectric constant tensor:
#      x y z
#    x 1.666610 0.000000 0.001380 
#    y 0.000000 1.654800 0.000000 
#    z 0.001380 0.000000 1.646420 
# 
# From -- ./inp_files/185014.got.cif
#   From: 2010.05.17/outbox.cif.g08.bks.cpg/sg12_93_cif.got.tgz:185014.got - 2010.06.03 13:09:07.
