data_PCOD9211212
_publ_section_title
;
Structure prediction by ZEFSAII (Michael W. Deem and Ramdas Pophale) SiO2 
 PCOD9211212
Probable space group: C 2/M
;
_chemical_formula_sum "Si O2"
_cell_formula_units_Z 28
_cell_length_a 7.980277
_cell_length_b 20.703703
_cell_length_c 12.074532
_cell_angle_alpha 90.000000
_cell_angle_beta 37.978345
_cell_angle_gamma 90.000000
_cell_volume 1227.631735
_symmetry_space_group_name_H-M "C 2/M"
_symmetry_group_IT_number 12
_symmetry_cell_setting 'monoclinic'
loop_
_space_group_symop_operation_xyz
x,y,z
-x,y,-z
-x,-y,-z
x,-y,z
1/2+x,1/2+y,z
1/2-x,1/2+y,-z
1/2-x,1/2-y,-z
1/2+x,1/2-y,z
loop_
_atom_site_type_symbol
_atom_site_label
_atom_site_fract_x
_atom_site_fract_y
_atom_site_fract_z
Si Si1 0.203784 0.568719 0.996070
Si Si2 0.519526 0.696076 0.117818
Si Si3 0.500000 0.831687 0.500000
Si Si4 0.716879 0.075736 0.583382
O O1 0.353559 0.500000 0.928249
O O2 0.022469 0.578504 0.199978
O O3 0.388305 0.629514 0.875668
O O4 0.000000 0.564631 0.000000
O O5 0.233501 0.712305 0.322569
O O6 0.500000 0.679695 0.000000
O O7 0.750000 0.750000 0.000000
O O8 0.372873 0.877131 0.469357
O O9 0.000000 0.092375 0.500000
O O10 0.742935 0.000000 0.534160
#
# Coordination Sequence:
#
# PCOD9211212 Si02
#       4
#     8   8   4   8
#     4  10  21  42  71 103 145 188 232 298 361 423
#     4  12  27  48  70 104 141 188 244 302 363 437
#     4  12  25  46  74 102 141 196 238 300 366 434
#     4  10  21  39  69 110 149 187 236 293 361 438
#
# _framework density 22.808143000000001
#
# number of rings (size 3 to 8) (size 9 to 14) (size 15 to 20)
#    0.000    1.143    2.857    3.000    0.000    6.286 
#    2.571    0.000    0.000    0.000    0.000    0.000 
#    0.000    0.000    0.000    0.000    0.000    0.000 
#
# Total GULP energy -78286.696149 kJ/mol
# GULP energy per Si atom -5591.906868 kJ/mol
# Density = 2.275623 g / cm^3
# Si number density = 22.808143 Si / 1000 Ang^3
#
#
#
# Elastic Constant Matrix: (Units=GPa)
#
#
# Indices 1 2 3 4 5 6 
#
# 1 99.2378 20.4442 19.5894 0.0000 4.9855 0.0000
# 2 20.4442 82.5126 49.6993 0.0000 -16.3514 0.0000
# 3 19.5894 49.6993 168.8884 0.0000 3.2080 0.0000
# 4 0.0000 0.0000 0.0000 44.1995 0.0000 -22.0831
# 5 4.9855 -16.3514 3.2080 0.0000 34.7955 0.0000
# 6 0.0000 0.0000 0.0000 -22.0831 0.0000 8.4953
#
#
#
# Elastic Compliance Matrix: (Units=1/GPa)
#
#
# Indices 1 2 3 4 5 6 
#
# 1 0.010930 -0.003130 -0.000289 0.000000 -0.003010 0.000000
# 2 -0.003130 0.017767 -0.005041 0.000000 0.009262 0.000000
# 3 -0.000289 -0.005041 0.007495 0.000000 -0.003019 0.000000
# 4 0.000000 0.000000 0.000000 -0.075731 0.000000 -0.196860
# 5 -0.003010 0.009262 -0.003019 0.000000 0.033802 0.000000
# 6 0.000000 0.000000 0.000000 -0.196860 0.000000 -0.394015
#
#
# Mechanical properties :
#
#
# Convention : Reuss Voigt Hill
#
# Bulk Modulus (GPa) = 51.89279 58.90050 55.39664
# Shear Modulus (GPa) = -13.28351 34.89178 10.80413
#
# Velocity S-wave (km/s) = -2.41592 3.91550 2.17882
# Velocity P-wave (km/s) = 3.87544 6.80602 5.53809
#
# Compressibility (1/GPa) = 0.01927050
#
# Stress axis : x y z
#
# Youngs Moduli (GPa) = 91.49068 56.28434 133.41420
#
# Poissons Ratio (x) = 0.17619 0.03861
# Poissons Ratio (y) = 0.28640 0.67256
# Poissons Ratio (z) = 0.02648 0.28374
#
# Static dielectric constant tensor:
#      x y z
#    x 2.708580 0.000000 -0.854640 
#    y 0.000000 1.691870 0.000000 
#    z -0.854640 0.000000 2.714930 
# 
# From -- ./inp_files/197395.got.cif
#   From: 2010.05.17/outbox.cif.g08.bks.cpg/sg12_99_cif.got.tgz:197395.got - 2010.06.03 13:09:07.
