data_PCOD9211952
_publ_section_title
;
Structure prediction by ZEFSAII (Michael W. Deem and Ramdas Pophale) SiO2 
 PCOD9211952
Probable space group: C 2/M
;
_chemical_formula_sum "Si O2"
_cell_formula_units_Z 42
_cell_length_a 15.119151
_cell_length_b 7.922538
_cell_length_c 18.155844
_cell_angle_alpha 90.000000
_cell_angle_beta 63.729694
_cell_angle_gamma 90.000000
_cell_volume 1950.127764
_symmetry_space_group_name_H-M "C 2/M"
_symmetry_group_IT_number 12
_symmetry_cell_setting 'monoclinic'
loop_
_space_group_symop_operation_xyz
x,y,z
-x,y,-z
-x,-y,-z
x,-y,z
1/2+x,1/2+y,z
1/2-x,1/2+y,-z
1/2-x,1/2-y,-z
1/2+x,1/2-y,z
loop_
_atom_site_type_symbol
_atom_site_label
_atom_site_fract_x
_atom_site_fract_y
_atom_site_fract_z
Si Si1 0.915184 0.304850 0.585166
Si Si2 0.145834 0.201900 0.119800
Si Si3 0.216896 0.306576 0.593802
Si Si4 0.996990 0.196204 0.296388
Si Si5 0.638732 0.696702 0.948058
Si Si6 0.000000 0.500000 0.000000
O O1 0.899337 0.500000 0.569951
O O2 0.811643 0.215118 0.610545
O O3 0.000000 0.233906 0.500000
O O4 0.956495 0.292330 0.651758
O O5 0.245616 0.285330 0.113239
O O6 0.050662 0.252135 0.201865
O O7 0.159039 0.000000 0.119149
O O8 0.134649 0.239287 0.037485
O O9 0.187251 0.500000 0.599672
O O10 0.250000 0.250000 0.500000
O O11 0.120553 0.212041 0.658258
O O12 0.022054 0.000000 0.298077
O O13 0.609520 0.500000 0.946063
O O14 0.572954 0.846899 0.939974
#
# Coordination Sequence:
#
# PCOD9211952 Si02
#       6
#     8   8   8   8   8   2
#     4  11  23  40  62  89 122 161 210 262 317 384
#     4   9  20  42  65  92 124 170 216 259 315 388
#     4  12  24  40  62  89 121 162 211 262 322 385
#     4  11  23  41  66  93 126 167 213 266 321 379
#     4  10  21  40  68  94 132 174 212 259 324 381
#     4  12  22  40  64 106 128 162 214 272 306 386
#
# _framework density 21.537050000000001
#
# number of rings (size 3 to 8) (size 9 to 14) (size 15 to 20)
#    0.000    1.333    2.857    3.143    1.333    2.286 
#    3.429    0.000    0.000    0.000    0.000    0.000 
#    0.000    0.000    0.000    0.000    0.000    0.000 
#
# Total GULP energy -117074.994705 kJ/mol
# GULP energy per Si atom -5574.999748 kJ/mol
# Density = 2.148803 g / cm^3
# Si number density = 21.537050 Si / 1000 Ang^3
#
#
#
# Elastic Constant Matrix: (Units=GPa)
#
#
# Indices 1 2 3 4 5 6 
#
# 1 93.9495 8.3728 24.6401 0.0000 -27.8404 0.0000
# 2 8.3728 61.7701 -8.3933 0.0000 -1.1693 0.0000
# 3 24.6401 -8.3933 99.6861 0.0000 -32.0018 0.0000
# 4 0.0000 0.0000 0.0000 13.1383 0.0000 -5.6986
# 5 -27.8404 -1.1693 -32.0018 0.0000 31.2165 0.0000
# 6 0.0000 0.0000 0.0000 -5.6986 0.0000 24.2871
#
#
#
# Elastic Compliance Matrix: (Units=1/GPa)
#
#
# Indices 1 2 3 4 5 6 
#
# 1 0.014677 -0.001647 0.000620 0.000000 0.013664 0.000000
# 2 -0.001647 0.016755 0.002307 0.000000 0.001524 0.000000
# 3 0.000620 0.002307 0.015319 0.000000 0.016344 0.000000
# 4 0.000000 0.000000 0.000000 0.084737 0.000000 0.019882
# 5 0.013664 0.001524 0.016344 0.000000 0.061032 0.000000
# 6 0.000000 0.000000 0.000000 0.019882 0.000000 0.045839
#
#
# Mechanical properties :
#
#
# Convention : Reuss Voigt Hill
#
# Bulk Modulus (GPa) = 20.27920 33.84941 27.06430
# Shear Modulus (GPa) = 19.82268 29.11411 24.46840
#
# Velocity S-wave (km/s) = 3.03710 3.68069 3.37428
# Velocity P-wave (km/s) = 4.66208 5.81500 5.27017
#
# Compressibility (1/GPa) = 0.04931161
#
# Stress axis : x y z
#
# Youngs Moduli (GPa) = 68.13312 59.68515 65.27692
#
# Poissons Ratio (x) = 0.09828 -0.04046
# Poissons Ratio (y) = 0.11219 -0.15059
# Poissons Ratio (z) = -0.04223 -0.13769
#
# Static dielectric constant tensor:
#      x y z
#    x 1.779080 0.000000 -0.048120 
#    y 0.000000 1.772900 0.000000 
#    z -0.048120 0.000000 1.929440 
# 
# From -- ./inp_files/267015.got.cif
#   From: 2010.05.17/outbox.cif.g08.bks.cpg/sg12_134_cif.got.tgz:267015.got - 2010.06.03 13:09:07.
