data_PCOD9211118
_publ_section_title
;
Structure prediction by ZEFSAII (Michael W. Deem and Ramdas Pophale) SiO2 
 PCOD9211118
Probable space group: C 2/M
;
_chemical_formula_sum "Si O2"
_cell_formula_units_Z 36
_cell_length_a 9.090860
_cell_length_b 21.349653
_cell_length_c 12.090452
_cell_angle_alpha 90.000000
_cell_angle_beta 129.317866
_cell_angle_gamma 90.000000
_cell_volume 1815.426804
_symmetry_space_group_name_H-M "C 2/M"
_symmetry_group_IT_number 12
_symmetry_cell_setting 'monoclinic'
loop_
_space_group_symop_operation_xyz
x,y,z
-x,y,-z
-x,-y,-z
x,-y,z
1/2+x,1/2+y,z
1/2-x,1/2+y,-z
1/2-x,1/2-y,-z
1/2+x,1/2-y,z
loop_
_atom_site_type_symbol
_atom_site_label
_atom_site_fract_x
_atom_site_fract_y
_atom_site_fract_z
Si Si1 0.500000 0.249155 0.000000
Si Si2 0.216019 0.072104 0.060695
Si Si3 0.454544 0.925756 0.608922
Si Si4 0.357879 0.327611 0.142454
Si Si5 0.849962 0.182493 0.527241
O O1 0.560708 0.288585 0.922539
O O2 0.313969 0.209245 0.881920
O O3 0.361351 0.089016 0.227849
O O4 0.248623 0.000000 0.050309
O O5 0.233282 0.112280 0.958843
O O6 0.000000 0.079118 0.000000
O O7 0.500000 0.919251 0.500000
O O8 0.297819 0.873887 0.564727
O O9 0.403823 0.000000 0.602509
O O10 0.528548 0.337456 0.307547
O O11 0.750000 0.250000 0.500000
O O12 0.000000 0.189363 0.500000
#
# Coordination Sequence:
#
# PCOD9211118 Si02
#       5
#     4   8   8   8   8
#     4  10  24  38  64  90 126 160 210 254 328 370
#     4  10  21  39  66  95 124 166 218 264 313 380
#     4  10  23  43  67  95 133 175 218 268 327 392
#     4  11  23  41  64  92 125 167 208 267 312 389
#     4  12  27  42  66  98 134 173 217 271 329 392
#
# _framework density 19.830047
#
# number of rings (size 3 to 8) (size 9 to 14) (size 15 to 20)
#    0.000    1.333    1.111    3.333    9.333    3.111 
#    0.000    0.556    0.000    0.000    0.000    0.000 
#    0.000    0.000    0.000    0.000    0.000    0.000 
#
# Total GULP energy -100559.289246 kJ/mol
# GULP energy per Si atom -5586.627180 kJ/mol
# Density = 1.978491 g / cm^3
# Si number density = 19.830047 Si / 1000 Ang^3
#
#
#
# Elastic Constant Matrix: (Units=GPa)
#
#
# Indices 1 2 3 4 5 6 
#
# 1 102.1371 61.6020 35.9349 0.0000 15.2134 0.0000
# 2 61.6020 106.1579 67.0403 0.0000 17.0485 0.0000
# 3 35.9349 67.0403 174.3024 0.0000 22.6019 0.0000
# 4 0.0000 0.0000 0.0000 19.7032 0.0000 19.8837
# 5 15.2134 17.0485 22.6019 0.0000 29.2971 0.0000
# 6 0.0000 0.0000 0.0000 19.8837 0.0000 13.9035
#
#
#
# Elastic Compliance Matrix: (Units=1/GPa)
#
#
# Indices 1 2 3 4 5 6 
#
# 1 0.015361 -0.008782 0.000647 0.000000 -0.003366 0.000000
# 2 -0.008782 0.017887 -0.004790 0.000000 -0.002153 0.000000
# 3 0.000647 -0.004790 0.007920 0.000000 -0.003659 0.000000
# 4 0.000000 0.000000 0.000000 -0.114507 0.000000 0.163760
# 5 -0.003366 -0.002153 -0.003659 0.000000 0.039957 0.000000
# 6 0.000000 0.000000 0.000000 0.163760 0.000000 -0.162274
#
#
# Mechanical properties :
#
#
# Convention : Reuss Voigt Hill
#
# Bulk Modulus (GPa) = 65.27872 79.08353 72.18113
# Shear Modulus (GPa) = -30.35810 27.11545 -1.62133
#
# Velocity S-wave (km/s) = -3.91693 3.70184 -0.90520
# Velocity P-wave (km/s) = 3.54035 7.63143 5.94865
#
# Compressibility (1/GPa) = 0.01531893
#
# Stress axis : x y z
#
# Youngs Moduli (GPa) = 65.09959 55.90751 126.25495
#
# Poissons Ratio (x) = 0.49099 -0.08172
# Poissons Ratio (y) = 0.57171 0.60474
# Poissons Ratio (z) = -0.04214 0.26779
#
# Static dielectric constant tensor:
#      x y z
#    x 1.564380 0.000000 0.233280 
#    y 0.000000 1.732650 0.000000 
#    z 0.233280 0.000000 1.420910 
# 
# From -- ./inp_files/122245.got.cif
#   From: 2010.05.17/outbox.cif.g08.bks.cpg/sg12_62_cif.got.tgz:122245.got - 2010.06.03 13:09:07.
