data_PCOD9211459
_publ_section_title
;
Structure prediction by ZEFSAII (Michael W. Deem and Ramdas Pophale) SiO2 
 PCOD9211459
Probable space group: C 2/M
;
_chemical_formula_sum "Si O2"
_cell_formula_units_Z 64
_cell_length_a 18.845527
_cell_length_b 8.845311
_cell_length_c 29.109528
_cell_angle_alpha 90.000000
_cell_angle_beta 43.891840
_cell_angle_gamma 90.000000
_cell_volume 3364.164760
_symmetry_space_group_name_H-M "C 2/M"
_symmetry_group_IT_number 12
_symmetry_cell_setting 'monoclinic'
loop_
_space_group_symop_operation_xyz
x,y,z
-x,y,-z
-x,-y,-z
x,-y,z
1/2+x,1/2+y,z
1/2-x,1/2+y,-z
1/2-x,1/2-y,-z
1/2+x,1/2-y,z
loop_
_atom_site_type_symbol
_atom_site_label
_atom_site_fract_x
_atom_site_fract_y
_atom_site_fract_z
Si Si1 0.353494 0.316151 0.815490
Si Si2 0.914523 0.182323 0.309847
Si Si3 0.224367 0.321666 0.963599
Si Si4 0.811415 0.318730 0.183488
Si Si5 0.487146 0.330804 0.951570
Si Si6 0.026074 0.319078 0.434728
Si Si7 0.249903 0.680533 0.683271
Si Si8 0.362465 0.318612 0.440074
O O1 0.355367 0.500000 0.815385
O O2 0.471089 0.266694 0.757538
O O3 0.294124 0.263354 0.888851
O O4 0.285878 0.274283 0.802592
O O5 0.828156 0.255703 0.318223
O O6 0.896809 0.216370 0.371841
O O7 0.908549 0.000000 0.307427
O O8 0.239092 0.500000 0.958607
O O9 0.250000 0.250000 0.000000
O O10 0.106780 0.281218 0.010817
O O11 0.825998 0.500000 0.170922
O O12 0.791707 0.288165 0.246084
O O13 0.910717 0.232418 0.119095
O O14 0.463499 0.500000 0.944711
O O15 0.500000 0.341407 0.000000
O O16 0.024879 0.500000 0.429556
O O17 0.138798 0.254935 0.372809
O O18 0.000000 0.284804 0.500000
O O19 0.942995 0.247281 0.439103
O O20 0.259363 0.500000 0.673626
O O21 0.358707 0.500000 0.446656
O O22 0.250000 0.250000 0.500000
#
# Coordination Sequence:
#
# PCOD9211459 Si02
#       8
#     8   8   8   8   8   8   8   8
#     4   9  19  38  62  83 111 157 201 240 300 364
#     4  10  22  41  62  87 123 163 201 245 300 363
#     4  11  23  39  61  87 119 158 199 249 307 366
#     4  10  21  40  63  87 118 158 205 251 304 368
#     4  11  23  39  60  89 121 156 202 254 303 361
#     4  11  24  42  65  93 126 165 206 249 301 360
#     4  11  24  40  62  94 125 158 202 254 304 356
#     4  11  23  40  65  94 127 165 205 252 299 354
#
# _framework density 19.024038999999998
#
# number of rings (size 3 to 8) (size 9 to 14) (size 15 to 20)
#    0.000    1.500    1.250    3.375    1.750    8.500 
#    0.000    1.250    0.000    0.000    0.000    0.000 
#    0.000    0.000    0.000    0.000    0.000    0.000 
#
# Total GULP energy -178819.200635 kJ/mol
# GULP energy per Si atom -5588.100020 kJ/mol
# Density = 1.898074 g / cm^3
# Si number density = 19.024039 Si / 1000 Ang^3
#
#
#
# Elastic Constant Matrix: (Units=GPa)
#
#
# Indices 1 2 3 4 5 6 
#
# 1 176.8511 56.8982 92.5966 0.0000 1.2874 0.0003
# 2 56.8982 55.5371 63.7109 0.0001 10.6151 0.0008
# 3 92.5966 63.7109 158.7931 -0.0001 -10.8174 0.0001
# 4 0.0000 0.0001 -0.0001 12.0865 0.0000 -3.4652
# 5 1.2874 10.6151 -10.8174 0.0000 34.4374 0.0000
# 6 0.0003 0.0008 0.0001 -3.4652 0.0000 33.9724
#
#
#
# Elastic Compliance Matrix: (Units=1/GPa)
#
#
# Indices 1 2 3 4 5 6 
#
# 1 0.009120 -0.006399 -0.002697 0.000000 0.000784 0.000000
# 2 -0.006399 0.047338 -0.016594 -0.000001 -0.019565 -0.000001
# 3 -0.002697 -0.016594 0.015209 0.000000 0.009993 0.000000
# 4 0.000000 -0.000001 0.000000 0.085230 0.000000 0.008694
# 5 0.000784 -0.019565 0.009993 0.000000 0.038179 0.000001
# 6 0.000000 -0.000001 0.000000 0.008694 0.000001 0.030322
#
#
# Mechanical properties :
#
#
# Convention : Reuss Voigt Hill
#
# Bulk Modulus (GPa) = 49.29563 90.84364 70.06963
# Shear Modulus (GPa) = 17.63420 27.96430 22.79925
#
# Velocity S-wave (km/s) = 3.04788 3.83815 3.46561
# Velocity P-wave (km/s) = 6.19311 8.21569 7.27503
#
# Compressibility (1/GPa) = 0.02028577
#
# Stress axis : x y z
#
# Youngs Moduli (GPa) = 109.65307 21.12472 65.75078
#
# Poissons Ratio (x) = 0.13518 0.17733
# Poissons Ratio (y) = 0.70168 1.09108
# Poissons Ratio (z) = 0.29574 0.35055
#
# Static dielectric constant tensor:
#      x y z
#    x 1.538040 0.000000 0.056530 
#    y 0.000000 1.655680 0.000000 
#    z 0.056530 0.000000 1.609900 
# 
# From -- ./inp_files/378116.got.cif
#   From: 2010.05.17/outbox.cif.g08.bks.cpg/sg12_190_cif.got.tgz:378116.got - 2010.06.03 13:09:07.
