data_PCOD9211049
_publ_section_title
;
Structure prediction by ZEFSAII (Michael W. Deem and Ramdas Pophale) SiO2 
 PCOD9211049
Probable space group: C 2/M
;
_chemical_formula_sum "Si O2"
_cell_formula_units_Z 56
_cell_length_a 9.987782
_cell_length_b 17.950969
_cell_length_c 17.253423
_cell_angle_alpha 90.000000
_cell_angle_beta 109.663218
_cell_angle_gamma 90.000000
_cell_volume 2912.987919
_symmetry_space_group_name_H-M "C 2/M"
_symmetry_group_IT_number 12
_symmetry_cell_setting 'monoclinic'
loop_
_space_group_symop_operation_xyz
x,y,z
-x,y,-z
-x,-y,-z
x,-y,z
1/2+x,1/2+y,z
1/2-x,1/2+y,-z
1/2-x,1/2-y,-z
1/2+x,1/2-y,z
loop_
_atom_site_type_symbol
_atom_site_label
_atom_site_fract_x
_atom_site_fract_y
_atom_site_fract_z
Si Si1 0.581175 0.175216 0.191939
Si Si2 0.332183 0.822660 0.487983
Si Si3 0.091500 0.846473 0.164079
Si Si4 0.774152 0.911618 0.106018
Si Si5 0.232557 0.417825 0.667934
Si Si6 0.598889 0.084150 0.352047
Si Si7 0.224999 0.672153 0.947887
O O1 0.615282 0.262558 0.198870
O O2 0.676853 0.130768 0.149095
O O3 0.608045 0.137282 0.279652
O O4 0.418021 0.173409 0.130847
O O5 0.500000 0.809131 0.500000
O O6 0.250000 0.750000 0.500000
O O7 0.256863 0.857737 0.398108
O O8 0.328753 0.881259 0.558074
O O9 0.180945 0.898473 0.238443
O O10 0.148073 0.844396 0.087125
O O11 0.929964 0.874049 0.136973
O O12 0.780843 0.000000 0.120765
O O13 0.713048 0.892016 0.009494
O O14 0.272987 0.500000 0.646977
O O15 0.067488 0.419404 0.659011
O O16 0.648220 0.000000 0.344652
O O17 0.250000 0.750000 0.000000
#
# Coordination Sequence:
#
# PCOD9211049 Si02
#       7
#     8   8   8   8   8   8   8
#     4  12  23  42  68  92 130 170 219 268 324 391
#     4  10  21  41  67  95 129 162 210 258 313 381
#     4  12  23  42  68  92 130 170 219 268 324 391
#     4  12  28  42  62  97 134 168 213 279 341 382
#     4  10  21  39  65  96 126 164 214 264 318 376
#     4  10  21  39  65  96 126 164 214 264 318 376
#     4  12  24  44  66  93 124 170 226 277 321 394
#
# _framework density 19.224246999999998
#
# number of rings (size 3 to 8) (size 9 to 14) (size 15 to 20)
#    0.000    0.857    4.286    3.000    0.000    5.143 
#    2.571    0.000    0.000    0.857    0.000    0.000 
#    0.000    0.000    0.000    0.000    0.000    0.000 
#
# Total GULP energy -156457.086303 kJ/mol
# GULP energy per Si atom -5587.753082 kJ/mol
# Density = 1.918049 g / cm^3
# Si number density = 19.224247 Si / 1000 Ang^3
#
#
#
# Elastic Constant Matrix: (Units=GPa)
#
#
# Indices 1 2 3 4 5 6 
#
# 1 55.8823 18.5317 1.6300 0.0000 -10.2694 0.0000
# 2 18.5317 97.1040 -7.4087 0.0000 -16.9511 0.0000
# 3 1.6300 -7.4087 63.1120 0.0000 -12.2761 0.0000
# 4 0.0000 0.0000 0.0000 21.4644 0.0000 0.8483
# 5 -10.2694 -16.9511 -12.2761 0.0000 25.2653 0.0000
# 6 0.0000 0.0000 0.0000 0.8483 0.0000 10.0343
#
#
#
# Elastic Compliance Matrix: (Units=1/GPa)
#
#
# Indices 1 2 3 4 5 6 
#
# 1 0.019960 -0.002628 0.000454 0.000000 0.006571 0.000000
# 2 -0.002628 0.012624 0.003301 0.000000 0.009006 0.000000
# 3 0.000454 0.003301 0.018429 0.000000 0.011354 0.000000
# 4 0.000000 0.000000 0.000000 0.046745 0.000000 -0.003952
# 5 0.006571 0.009006 0.011354 0.000000 0.053810 0.000000
# 6 0.000000 0.000000 0.000000 -0.003952 0.000000 0.099992
#
#
# Mechanical properties :
#
#
# Convention : Reuss Voigt Hill
#
# Bulk Modulus (GPa) = 18.77256 26.84492 22.80874
# Shear Modulus (GPa) = 18.72237 24.90917 21.81577
#
# Velocity S-wave (km/s) = 3.12411 3.60351 3.37234
# Velocity P-wave (km/s) = 4.77490 5.59537 5.20134
#
# Compressibility (1/GPa) = 0.05326925
#
# Stress axis : x y z
#
# Youngs Moduli (GPa) = 50.09919 79.21627 54.26169
#
# Poissons Ratio (x) = 0.20815 -0.02464
# Poissons Ratio (y) = 0.13164 -0.17914
# Poissons Ratio (z) = -0.02275 -0.26153
#
# Static dielectric constant tensor:
#      x y z
#    x 1.663310 0.000000 0.013440 
#    y 0.000000 1.665530 0.000000 
#    z 0.013440 0.000000 1.673320 
# 
# From -- ./inp_files/257144.got.cif
#   From: 2010.05.17/outbox.cif.g08.bks.cpg/sg12_129_cif.got.tgz:257144.got - 2010.06.03 13:09:07.
