data_PCOD9211452
_publ_section_title
;
Structure prediction by ZEFSAII (Michael W. Deem and Ramdas Pophale) SiO2 
 PCOD9211452
Probable space group: C 2/M
;
_chemical_formula_sum "Si O2"
_cell_formula_units_Z 56
_cell_length_a 27.380578
_cell_length_b 8.649310
_cell_length_c 20.320403
_cell_angle_alpha 90.000000
_cell_angle_beta 35.732031
_cell_angle_gamma 90.000000
_cell_volume 2810.383610
_symmetry_space_group_name_H-M "C 2/M"
_symmetry_group_IT_number 12
_symmetry_cell_setting 'monoclinic'
loop_
_space_group_symop_operation_xyz
x,y,z
-x,y,-z
-x,-y,-z
x,-y,z
1/2+x,1/2+y,z
1/2-x,1/2+y,-z
1/2-x,1/2-y,-z
1/2+x,1/2-y,z
loop_
_atom_site_type_symbol
_atom_site_label
_atom_site_fract_x
_atom_site_fract_y
_atom_site_fract_z
Si Si1 0.996605 0.685138 0.185280
Si Si2 0.195927 0.686385 0.619035
Si Si3 0.282079 0.814503 0.895318
Si Si4 0.931959 0.188159 0.521190
Si Si5 0.960163 0.185086 0.719224
Si Si6 0.142251 0.815392 0.940498
Si Si7 0.755222 0.686896 0.287728
O O1 0.999999 0.500000 0.181203
O O2 0.900685 0.735332 0.281238
O O3 0.028547 0.744986 0.220931
O O4 0.056571 0.748078 0.062676
O O5 0.198250 0.500000 0.613822
O O6 0.250000 0.750000 0.500000
O O7 0.231733 0.733298 0.650849
O O8 0.373115 0.743278 0.784019
O O9 0.215245 0.771644 0.912718
O O10 0.287645 0.000000 0.892493
O O11 0.250000 0.750000 0.000000
O O12 0.836823 0.240223 0.635256
O O13 0.000000 0.242668 0.500000
O O14 0.965544 0.228857 0.411856
O O15 0.931152 0.000000 0.525462
O O16 0.957565 0.000000 0.727564
O O17 0.172471 0.751848 0.837700
O O18 0.136692 0.000000 0.944851
O O19 0.757370 0.500000 0.282214
#
# Coordination Sequence:
#
# PCOD9211452 Si02
#       7
#     8   8   8   8   8   8   8
#     4  11  23  39  60  86 118 156 201 248 300 361
#     4  10  23  42  65  92 119 156 203 250 303 362
#     4  11  22  36  56  84 121 161 202 244 297 358
#     4   9  18  33  56  86 116 151 193 237 292 357
#     4  11  21  35  59  89 120 155 201 252 301 356
#     4  11  24  40  59  88 122 157 201 248 302 362
#     4  10  21  40  63  86 119 160 200 247 302 360
#
# _framework density 19.926106000000001
#
# number of rings (size 3 to 8) (size 9 to 14) (size 15 to 20)
#    0.000    1.571    1.429    3.429    0.000    6.286 
#    0.000    4.286    0.000    3.857    0.000    0.000 
#    0.000    0.000    0.000    0.000    0.000    0.000 
#
# Total GULP energy -156540.798942 kJ/mol
# GULP energy per Si atom -5590.742819 kJ/mol
# Density = 1.988075 g / cm^3
# Si number density = 19.926106 Si / 1000 Ang^3
#
#
#
# Elastic Constant Matrix: (Units=GPa)
#
#
# Indices 1 2 3 4 5 6 
#
# 1 101.7310 26.9654 67.1633 0.0005 0.0228 0.0010
# 2 26.9654 26.0896 32.5937 -0.0026 -1.0445 0.0051
# 3 67.1633 32.5937 180.0682 -0.0004 0.6990 0.0008
# 4 0.0005 -0.0026 -0.0004 29.8289 0.0011 1.6203
# 5 0.0228 -1.0445 0.6990 0.0011 40.1738 -0.0005
# 6 0.0010 0.0051 0.0008 1.6203 -0.0005 14.2797
#
#
#
# Elastic Compliance Matrix: (Units=1/GPa)
#
#
# Indices 1 2 3 4 5 6 
#
# 1 0.015195 -0.011159 -0.003647 -0.000001 -0.000235 0.000003
# 2 -0.011159 0.057808 -0.006308 0.000006 0.001619 -0.000020
# 3 -0.003647 -0.006308 0.008057 0.000000 -0.000302 0.000002
# 4 -0.000001 0.000006 0.000000 0.033732 -0.000001 -0.003827
# 5 -0.000235 0.001619 -0.000302 -0.000001 0.024939 0.000000
# 6 0.000003 -0.000020 0.000002 -0.003827 0.000000 0.070464
#
#
# Mechanical properties :
#
#
# Convention : Reuss Voigt Hill
#
# Bulk Modulus (GPa) = 25.75140 62.37038 44.06089
# Shear Modulus (GPa) = 18.84181 28.93424 23.88802
#
# Velocity S-wave (km/s) = 3.07837 3.81475 3.46617
# Velocity P-wave (km/s) = 5.05833 7.12544 6.17894
#
# Compressibility (1/GPa) = 0.03883284
#
# Stress axis : x y z
#
# Youngs Moduli (GPa) = 65.80914 17.29865 124.12055
#
# Poissons Ratio (x) = 0.19303 0.45267
# Poissons Ratio (y) = 0.73435 0.78294
# Poissons Ratio (z) = 0.24001 0.10912
#
# Static dielectric constant tensor:
#      x y z
#    x 1.698300 0.000000 -0.010970 
#    y 0.000000 1.672540 0.000000 
#    z -0.010970 0.000000 1.690680 
# 
# From -- ./inp_files/329538.got.cif
#   From: 2010.05.17/outbox.cif.g08.bks.cpg/sg12_165_cif.got.tgz:329538.got - 2010.06.03 13:09:07.
