data_PCOD9211085
_publ_section_title
;
Structure prediction by ZEFSAII (Michael W. Deem and Ramdas Pophale) SiO2 
 PCOD9211085
Probable space group: C 2/M
;
_chemical_formula_sum "Si O2"
_cell_formula_units_Z 58
_cell_length_a 24.211752
_cell_length_b 7.570317
_cell_length_c 12.854619
_cell_angle_alpha 90.000000
_cell_angle_beta 108.572319
_cell_angle_gamma 90.000000
_cell_volume 2233.429642
_symmetry_space_group_name_H-M "C 2/M"
_symmetry_group_IT_number 12
_symmetry_cell_setting 'monoclinic'
loop_
_space_group_symop_operation_xyz
x,y,z
-x,y,-z
-x,-y,-z
x,-y,z
1/2+x,1/2+y,z
1/2-x,1/2+y,-z
1/2-x,1/2-y,-z
1/2+x,1/2-y,z
loop_
_atom_site_type_symbol
_atom_site_label
_atom_site_fract_x
_atom_site_fract_y
_atom_site_fract_z
Si Si1 0.500000 0.500000 0.000000
Si Si2 0.047626 0.205164 0.623575
Si Si3 0.858382 0.784989 0.470439
Si Si4 0.749133 0.704836 0.297058
Si Si5 0.550343 0.700777 0.308159
Si Si6 0.413469 0.789427 0.057586
Si Si7 0.197655 0.288081 0.886918
Si Si8 0.124374 0.691038 0.187929
O O1 0.464128 0.656719 0.049148
O O2 0.105461 0.283687 0.608527
O O3 0.000000 0.215352 0.500000
O O4 0.012290 0.281108 0.700985
O O5 0.937514 0.000000 0.350262
O O6 0.793207 0.722053 0.418483
O O7 0.897171 0.723524 0.590887
O O8 0.856600 0.000000 0.471906
O O9 0.735548 0.500000 0.270268
O O10 0.780508 0.778216 0.212335
O O11 0.687193 0.792711 0.275260
O O12 0.543195 0.500000 0.341454
O O13 0.576221 0.686785 0.209777
O O14 0.370395 0.783632 0.930676
O O15 0.429893 0.000000 0.077434
O O16 0.367781 0.728618 0.119644
O O17 0.192428 0.500000 0.878690
O O18 0.250000 0.250000 0.000000
O O19 0.098385 0.500000 0.192940
#
# Coordination Sequence:
#
# PCOD9211085 Si02
#       8
#     2   8   8   8   8   8   8   8
#     4  12  26  44  76  98 132 186 218 262 334 398
#     4   7  12  28  53  78 105 143 191 243 294 350
#     4   9  18  35  56  85 120 156 196 256 314 362
#     4  11  23  37  59  88 119 155 204 260 317 382
#     4   9  18  34  59  84 116 159 209 250 299 374
#     4  10  24  46  67  99 138 170 217 272 324 395
#     4  10  21  39  66  92 122 160 208 270 326 387
#     4  11  23  39  60  86 120 163 203 257 317 375
#
# _framework density 25.969028999999999
#
# number of rings (size 3 to 8) (size 9 to 14) (size 15 to 20)
#    0.000    2.345    1.379    2.690    2.897    1.655 
#    2.483    0.690    0.000    2.483    0.000    0.000 
#    0.000    0.000    0.000    0.000    0.000    0.000 
#
# Total GULP energy -161701.440799 kJ/mol
# GULP energy per Si atom -5575.911752 kJ/mol
# Density = 2.590992 g / cm^3
# Si number density = 25.969029 Si / 1000 Ang^3
#
#
#
# Elastic Constant Matrix: (Units=GPa)
#
#
# Indices 1 2 3 4 5 6 
#
# 1 161.6259 28.3153 28.9781 0.0000 -7.7195 0.0000
# 2 28.3153 99.0822 -5.7814 0.0000 -8.8426 0.0000
# 3 28.9781 -5.7814 41.0450 0.0000 -0.5198 0.0000
# 4 0.0000 0.0000 0.0000 -0.7937 0.0000 20.8513
# 5 -7.7195 -8.8426 -0.5198 0.0000 57.6264 0.0000
# 6 0.0000 0.0000 0.0000 20.8513 0.0000 -80.2595
#
#
#
# Elastic Compliance Matrix: (Units=1/GPa)
#
#
# Indices 1 2 3 4 5 6 
#
# 1 0.007684 -0.002479 -0.005766 0.000000 0.000597 0.000000
# 2 -0.002479 0.011121 0.003334 0.000000 0.001404 0.000000
# 3 -0.005766 0.003334 0.028904 0.000000 0.000000 0.000000
# 4 0.000000 0.000000 0.000000 0.216289 0.000000 0.056192
# 5 0.000597 0.001404 0.000000 0.000000 0.017649 0.000000
# 6 0.000000 0.000000 0.000000 0.056192 0.000000 0.002139
#
#
# Mechanical properties :
#
#
# Convention : Reuss Voigt Hill
#
# Bulk Modulus (GPa) = 26.39425 44.97526 35.68475
# Shear Modulus (GPa) = 16.32721 11.99738 14.16229
#
# Velocity S-wave (km/s) = 2.51015 2.15172 2.33781
# Velocity P-wave (km/s) = 4.31125 4.85073 4.58893
#
# Compressibility (1/GPa) = 0.03788704
#
# Stress axis : x y z
#
# Youngs Moduli (GPa) = 130.14359 89.92003 34.59688
#
# Poissons Ratio (x) = 0.22292 0.19950
# Poissons Ratio (y) = 0.32263 -0.11536
# Poissons Ratio (z) = 0.75047 -0.29984
#
# Static dielectric constant tensor:
#      x y z
#    x 2.015080 0.000000 -0.008380 
#    y 0.000000 2.004650 0.000000 
#    z -0.008380 0.000000 2.124660 
# 
# From -- ./inp_files/237716.got.cif
#   From: 2010.05.17/outbox.cif.g08.bks.cpg/sg12_119_cif.got.tgz:237716.got - 2010.06.03 13:09:07.
