data_PCOD9211805
_publ_section_title
;
Structure prediction by ZEFSAII (Michael W. Deem and Ramdas Pophale) SiO2 
 PCOD9211805
Probable space group: C 2/M
;
_chemical_formula_sum "Si O2"
_cell_formula_units_Z 56
_cell_length_a 19.263527
_cell_length_b 8.182418
_cell_length_c 16.503934
_cell_angle_alpha 90.000000
_cell_angle_beta 89.502640
_cell_angle_gamma 90.000000
_cell_volume 2601.288872
_symmetry_space_group_name_H-M "C 2/M"
_symmetry_group_IT_number 12
_symmetry_cell_setting 'monoclinic'
loop_
_space_group_symop_operation_xyz
x,y,z
-x,y,-z
-x,-y,-z
x,-y,z
1/2+x,1/2+y,z
1/2-x,1/2+y,-z
1/2-x,1/2-y,-z
1/2+x,1/2-y,z
loop_
_atom_site_type_symbol
_atom_site_label
_atom_site_fract_x
_atom_site_fract_y
_atom_site_fract_z
Si Si1 0.084947 0.688928 0.831144
Si Si2 0.960513 0.811585 0.921291
Si Si3 0.419520 0.698414 0.343230
Si Si4 0.345835 0.190149 0.812414
Si Si5 0.079532 0.805642 0.349222
Si Si6 0.218586 0.803246 0.914639
Si Si7 0.669976 0.302441 0.500028
O O1 0.064219 0.500000 0.836264
O O2 0.018415 0.799793 0.850989
O O3 0.109061 0.732167 0.740739
O O4 0.144182 0.728789 0.895357
O O5 0.895205 0.713700 0.889946
O O6 0.940382 0.000000 0.936458
O O7 0.000000 0.747051 0.000000
O O8 0.419061 0.500000 0.339205
O O9 0.499915 0.755455 0.350938
O O10 0.372331 0.748681 0.419438
O O11 0.382065 0.274679 0.736094
O O12 0.271180 0.251110 0.842730
O O13 0.340188 0.000000 0.792538
O O14 0.127508 0.741626 0.421780
O O15 0.073801 0.000000 0.360717
O O16 0.213677 0.000000 0.913249
O O17 0.250000 0.750000 0.000000
O O18 0.669163 0.500000 0.498359
O O19 0.750000 0.250000 0.500000
#
# Coordination Sequence:
#
# PCOD9211805 Si02
#       7
#     8   8   8   8   8   8   8
#     4  12  25  40  63  94 128 166 213 262 313 374
#     4  11  23  40  64  92 124 164 209 258 313 373
#     4  10  21  41  66  91 125 167 211 258 311 370
#     4  11  24  40  62  93 127 163 207 260 315 370
#     4  10  21  40  66  92 123 166 212 253 307 373
#     4  11  25  44  64  90 127 169 214 263 321 378
#     4  10  23  41  64  96 128 164 208 257 312 373
#
# _framework density 21.52779
#
# number of rings (size 3 to 8) (size 9 to 14) (size 15 to 20)
#    0.000    1.286    1.429    3.857    2.000    8.571 
#    0.000    0.000    0.000    2.571    0.000    0.000 
#    0.000    0.000    0.000    0.000    0.000    0.000 
#
# Total GULP energy -156581.304453 kJ/mol
# GULP energy per Si atom -5592.189445 kJ/mol
# Density = 2.147879 g / cm^3
# Si number density = 21.527790 Si / 1000 Ang^3
#
#
#
# Elastic Constant Matrix: (Units=GPa)
#
#
# Indices 1 2 3 4 5 6 
#
# 1 96.5605 2.1867 21.5264 0.0000 -4.0534 0.0000
# 2 2.1867 23.6240 3.0661 0.0000 0.3127 0.0000
# 3 21.5264 3.0661 103.1201 0.0000 3.9738 0.0000
# 4 0.0000 0.0000 0.0000 22.2990 0.0000 7.1951
# 5 -4.0534 0.3127 3.9738 0.0000 38.7790 0.0000
# 6 0.0000 0.0000 0.0000 7.1951 0.0000 20.8560
#
#
#
# Elastic Compliance Matrix: (Units=1/GPa)
#
#
# Indices 1 2 3 4 5 6 
#
# 1 0.010948 -0.000731 -0.002317 0.000000 0.001388 0.000000
# 2 -0.000731 0.042544 -0.001101 0.000000 -0.000307 0.000000
# 3 -0.002317 -0.001101 0.010263 0.000000 -0.001285 0.000000
# 4 0.000000 0.000000 0.000000 0.050462 0.000000 -0.017409
# 5 0.001388 -0.000307 -0.001285 0.000000 0.026066 0.000000
# 6 0.000000 0.000000 0.000000 -0.017409 0.000000 0.053954
#
#
# Mechanical properties :
#
#
# Convention : Reuss Voigt Hill
#
# Bulk Modulus (GPa) = 18.03162 30.76254 24.39708
# Shear Modulus (GPa) = 22.62226 29.48848 26.05537
#
# Velocity S-wave (km/s) = 3.24518 3.70508 3.48273
# Velocity P-wave (km/s) = 4.73664 5.71176 5.24690
#
# Compressibility (1/GPa) = 0.05545814
#
# Stress axis : x y z
#
# Youngs Moduli (GPa) = 91.34463 23.50484 97.43403
#
# Poissons Ratio (x) = 0.01718 0.22576
# Poissons Ratio (y) = 0.06677 0.10723
# Poissons Ratio (z) = 0.21165 0.02587
#
# Static dielectric constant tensor:
#      x y z
#    x 1.764350 0.000000 -0.010600 
#    y 0.000000 1.769080 0.000000 
#    z -0.010600 0.000000 1.795440 
# 
# From -- ./inp_files/230883.got.cif
#   From: 2010.05.17/outbox.cif.g08.bks.cpg/sg12_116_cif.got.tgz:230883.got - 2010.06.03 13:09:07.
