data_PCOD9211488
_publ_section_title
;
Structure prediction by ZEFSAII (Michael W. Deem and Ramdas Pophale) SiO2 
 PCOD9211488
Probable space group: C 2/M
;
_chemical_formula_sum "Si O2"
_cell_formula_units_Z 56
_cell_length_a 18.758864
_cell_length_b 7.845897
_cell_length_c 17.280500
_cell_angle_alpha 90.000000
_cell_angle_beta 100.784760
_cell_angle_gamma 90.000000
_cell_volume 2498.422999
_symmetry_space_group_name_H-M "C 2/M"
_symmetry_group_IT_number 12
_symmetry_cell_setting 'monoclinic'
loop_
_space_group_symop_operation_xyz
x,y,z
-x,y,-z
-x,-y,-z
x,-y,z
1/2+x,1/2+y,z
1/2-x,1/2+y,-z
1/2-x,1/2-y,-z
1/2+x,1/2-y,z
loop_
_atom_site_type_symbol
_atom_site_label
_atom_site_fract_x
_atom_site_fract_y
_atom_site_fract_z
Si Si1 0.053320 0.801821 0.574908
Si Si2 0.803715 0.797416 0.825964
Si Si3 0.042435 0.198876 0.745340
Si Si4 0.837427 0.302380 0.113213
Si Si5 0.384059 0.200813 0.696841
Si Si6 0.333347 0.796443 0.517855
Si Si7 0.583770 0.206570 0.022519
O O1 0.052294 0.729071 0.660413
O O2 0.129752 0.788364 0.548613
O O3 0.000000 0.721603 0.500000
O O4 0.031476 0.000000 0.579965
O O5 0.733040 0.728189 0.857499
O O6 0.818254 0.729111 0.742852
O O7 0.874549 0.755792 0.891268
O O8 0.795408 0.000000 0.817199
O O9 0.093996 0.292584 0.815676
O O10 0.957009 0.214025 0.743913
O O11 0.063805 0.000000 0.751500
O O12 0.819365 0.500000 0.093570
O O13 0.866344 0.227258 0.038361
O O14 0.367746 0.263237 0.606513
O O15 0.398157 0.000000 0.695204
O O16 0.250000 0.750000 0.500000
O O17 0.342673 0.000000 0.514874
O O18 0.581581 0.000000 0.017451
O O19 0.500000 0.265562 0.000000
#
# Coordination Sequence:
#
# PCOD9211488 Si02
#       7
#     8   8   8   8   8   8   8
#     4  10  21  40  63  89 123 160 202 254 309 365
#     4  11  24  40  62  92 126 163 205 253 301 355
#     4  11  23  39  64  93 122 160 205 254 306 364
#     4  10  23  41  61  92 130 164 201 248 303 363
#     4  11  24  42  62  87 121 162 207 254 308 368
#     4  11  25  41  62  89 121 162 208 258 310 365
#     4  10  21  40  66  92 122 163 204 247 304 364
#
# _framework density 22.414138000000001
#
# number of rings (size 3 to 8) (size 9 to 14) (size 15 to 20)
#    0.000    1.429    1.429    3.000    2.000    6.286 
#    0.000    0.000    0.000    0.000    0.000    0.000 
#    0.000    0.000    0.000    0.000    0.000    0.000 
#
# Total GULP energy -156530.458046 kJ/mol
# GULP energy per Si atom -5590.373502 kJ/mol
# Density = 2.236312 g / cm^3
# Si number density = 22.414138 Si / 1000 Ang^3
#
#
#
# Elastic Constant Matrix: (Units=GPa)
#
#
# Indices 1 2 3 4 5 6 
#
# 1 99.9685 -5.3858 8.0234 0.0000 -17.2383 0.0000
# 2 -5.3858 38.1010 -2.2084 0.0000 -4.3555 0.0000
# 3 8.0234 -2.2084 79.7950 0.0000 -22.0946 0.0000
# 4 0.0000 0.0000 0.0000 17.7479 0.0000 -2.1394
# 5 -17.2383 -4.3555 -22.0946 0.0000 45.7380 0.0000
# 6 0.0000 0.0000 0.0000 -2.1394 0.0000 16.1979
#
#
#
# Elastic Compliance Matrix: (Units=1/GPa)
#
#
# Indices 1 2 3 4 5 6 
#
# 1 0.010853 0.002044 0.000175 0.000000 0.004370 0.000000
# 2 0.002044 0.027111 0.001700 0.000000 0.004173 0.000000
# 3 0.000175 0.001700 0.014574 0.000000 0.007268 0.000000
# 4 0.000000 0.000000 0.000000 0.057256 0.000000 0.007562
# 5 0.004370 0.004173 0.007268 0.000000 0.027419 0.000000
# 6 0.000000 0.000000 0.000000 0.007562 0.000000 0.062735
#
#
# Mechanical properties :
#
#
# Convention : Reuss Voigt Hill
#
# Bulk Modulus (GPa) = 16.56288 24.30254 20.43271
# Shear Modulus (GPa) = 23.55888 30.43246 26.99567
#
# Velocity S-wave (km/s) = 3.24554 3.68874 3.47422
# Velocity P-wave (km/s) = 4.63144 5.38595 5.02288
#
# Compressibility (1/GPa) = 0.06037599
#
# Stress axis : x y z
#
# Youngs Moduli (GPa) = 92.14322 36.88603 68.61500
#
# Poissons Ratio (x) = -0.07539 -0.01202
# Poissons Ratio (y) = -0.18832 -0.11667
# Poissons Ratio (z) = -0.01615 -0.06272
#
# Static dielectric constant tensor:
#      x y z
#    x 1.867900 0.000000 -0.017800 
#    y 0.000000 1.815790 0.000000 
#    z -0.017800 0.000000 1.906880 
# 
# From -- ./inp_files/275504.got.cif
#   From: 2010.05.17/outbox.cif.g08.bks.cpg/sg12_138_cif.got.tgz:275504.got - 2010.06.03 13:09:07.
