data_PCOD9211246
_publ_section_title
;
Structure prediction by ZEFSAII (Michael W. Deem and Ramdas Pophale) SiO2 
 PCOD9211246
Probable space group: C 2/M
;
_chemical_formula_sum "Si O2"
_cell_formula_units_Z 44
_cell_length_a 9.666044
_cell_length_b 31.439615
_cell_length_c 7.749093
_cell_angle_alpha 90.000000
_cell_angle_beta 133.242711
_cell_angle_gamma 90.000000
_cell_volume 1715.463394
_symmetry_space_group_name_H-M "C 2/M"
_symmetry_group_IT_number 12
_symmetry_cell_setting 'monoclinic'
loop_
_space_group_symop_operation_xyz
x,y,z
-x,y,-z
-x,-y,-z
x,-y,z
1/2+x,1/2+y,z
1/2-x,1/2+y,-z
1/2-x,1/2-y,-z
1/2+x,1/2-y,z
loop_
_atom_site_type_symbol
_atom_site_label
_atom_site_fract_x
_atom_site_fract_y
_atom_site_fract_z
Si Si1 0.310204 0.314762 0.658431
Si Si2 0.509859 0.000000 0.797913
Si Si3 0.579911 0.596027 0.370926
Si Si4 0.500000 0.757239 0.000000
Si Si5 0.022007 0.412529 0.815588
Si Si6 0.603645 0.179782 0.842496
Si Si7 0.934566 0.000000 0.644715
O O1 0.434384 0.357513 0.733237
O O2 0.435848 0.272531 0.784499
O O3 0.126416 0.315944 0.377436
O O4 0.209587 0.311023 0.758232
O O5 0.602903 0.043390 0.815365
O O6 0.293512 0.000000 0.552078
O O7 0.500000 0.000000 0.000000
O O8 0.500000 0.599969 0.500000
O O9 0.809635 0.592170 0.564534
O O10 0.512349 0.548616 0.248877
O O11 0.349432 0.789586 0.959510
O O12 0.138853 0.370224 0.894968
O O13 0.000000 0.417046 0.000000
O O14 0.000000 0.000000 0.500000
#
# Coordination Sequence:
#
# PCOD9211246 Si02
#       7
#     8   4   8   4   8   8   4
#     4  10  23  39  56  84 111 141 182 238 276 327
#     4   8  14  24  45  79 108 131 175 217 255 320
#     4   9  18  34  55  83 113 145 181 222 270 325
#     4  12  22  40  60  80 104 148 194 230 278 334
#     4   9  16  30  53  79 107 142 176 217 269 325
#     4  10  21  40  58  79 112 145 183 228 284 330
#     4   8  14  28  53  78 108 146 180 211 261 328
#
# _framework density 25.649046999999999
#
# number of rings (size 3 to 8) (size 9 to 14) (size 15 to 20)
#    0.000    2.545    0.909    1.091    0.000    1.455 
#    9.818    0.909    0.000    6.000    0.000    0.000 
#    0.000    0.000    0.000    0.000    0.000    0.000 
#
# Total GULP energy -122580.526148 kJ/mol
# GULP energy per Si atom -5571.842098 kJ/mol
# Density = 2.559067 g / cm^3
# Si number density = 25.649047 Si / 1000 Ang^3
#
#
#
# Elastic Constant Matrix: (Units=GPa)
#
#
# Indices 1 2 3 4 5 6 
#
# 1 81.3609 47.9516 24.2952 0.0000 6.8019 0.0000
# 2 47.9516 234.3474 16.2387 0.0000 -2.4642 0.0000
# 3 24.2952 16.2387 49.4308 0.0000 12.3766 0.0000
# 4 0.0000 0.0000 0.0000 11.2423 0.0000 -20.3349
# 5 6.8019 -2.4642 12.3766 0.0000 40.9505 0.0000
# 6 0.0000 0.0000 0.0000 -20.3349 0.0000 -45.0661
#
#
#
# Elastic Compliance Matrix: (Units=1/GPa)
#
#
# Indices 1 2 3 4 5 6 
#
# 1 0.016038 -0.002822 -0.006758 0.000000 -0.000791 0.000000
# 2 -0.002822 0.004885 -0.000442 0.000000 0.000896 0.000000
# 3 -0.006758 -0.000442 0.025340 0.000000 -0.006563 0.000000
# 4 0.000000 0.000000 0.000000 0.048977 0.000000 -0.022099
# 5 -0.000791 0.000896 -0.006563 0.000000 0.026589 0.000000
# 6 0.000000 0.000000 0.000000 -0.022099 0.000000 -0.012218
#
#
# Mechanical properties :
#
#
# Convention : Reuss Voigt Hill
#
# Bulk Modulus (GPa) = 38.13912 60.23445 49.18678
# Shear Modulus (GPa) = 36.12902 19.86890 27.99896
#
# Velocity S-wave (km/s) = 3.75719 2.78626 3.30755
# Velocity P-wave (km/s) = 5.80723 5.82118 5.81421
#
# Compressibility (1/GPa) = 0.02621980
#
# Stress axis : x y z
#
# Youngs Moduli (GPa) = 62.35196 204.72467 39.46314
#
# Poissons Ratio (x) = 0.57768 0.26667
# Poissons Ratio (y) = 0.17594 0.01745
# Poissons Ratio (z) = 0.42135 0.09053
#
# Static dielectric constant tensor:
#      x y z
#    x 1.901660 0.000000 0.036430 
#    y 0.000000 2.304170 0.000000 
#    z 0.036430 0.000000 2.081950 
# 
# From -- ./inp_files/54433.got.cif
#   From: 2010.05.17/outbox.cif.g08.bks.cpg/sg12_28_cif.got.tgz:54433.got - 2010.06.03 13:09:07.
