data_PCOD9211901
_publ_section_title
;
Structure prediction by ZEFSAII (Michael W. Deem and Ramdas Pophale) SiO2 
 PCOD9211901
Probable space group: C 2/M
;
_chemical_formula_sum "Si O2"
_cell_formula_units_Z 56
_cell_length_a 18.884181
_cell_length_b 8.853891
_cell_length_c 18.204392
_cell_angle_alpha 90.000000
_cell_angle_beta 68.059874
_cell_angle_gamma 90.000000
_cell_volume 2823.302749
_symmetry_space_group_name_H-M "C 2/M"
_symmetry_group_IT_number 12
_symmetry_cell_setting 'monoclinic'
loop_
_space_group_symop_operation_xyz
x,y,z
-x,y,-z
-x,-y,-z
x,-y,z
1/2+x,1/2+y,z
1/2-x,1/2+y,-z
1/2-x,1/2-y,-z
1/2+x,1/2-y,z
loop_
_atom_site_type_symbol
_atom_site_label
_atom_site_fract_x
_atom_site_fract_y
_atom_site_fract_z
Si Si1 0.438832 0.823386 0.966312
Si Si2 0.928908 0.180692 0.475288
Si Si3 0.027946 0.820462 0.201746
Si Si4 0.732807 0.175332 0.928593
Si Si5 0.108305 0.680632 0.666055
Si Si6 0.664498 0.179278 0.234948
Si Si7 0.782889 0.819410 0.632911
O O1 0.440915 0.735367 0.889000
O O2 0.455652 0.000000 0.942812
O O3 0.500000 0.763200 0.000000
O O4 0.358300 0.819832 0.038771
O O5 0.924317 0.262421 0.399097
O O6 0.848825 0.209468 0.547686
O O7 0.000000 0.226317 0.500000
O O8 0.936269 0.000000 0.460204
O O9 0.085604 0.757053 0.240999
O O10 0.944544 0.753313 0.250729
O O11 0.026164 0.000000 0.205336
O O12 0.773949 0.266532 0.848926
O O13 0.757897 0.000000 0.916720
O O14 0.750000 0.250000 0.000000
O O15 0.102944 0.500000 0.672196
O O16 0.197610 0.723218 0.640212
O O17 0.692785 0.234516 0.302827
O O18 0.655328 0.000000 0.236253
O O19 0.782593 0.000000 0.647492
#
# Coordination Sequence:
#
# PCOD9211901 Si02
#       7
#     8   8   8   8   8   8   8
#     4  10  23  42  64  90 123 164 209 259 316 374
#     4  10  21  40  67  96 127 165 211 258 307 367
#     4  12  25  42  64  90 124 165 213 265 316 373
#     4  11  22  39  64  92 125 165 208 260 315 371
#     4  11  24  41  64  93 130 169 209 256 311 373
#     4  12  25  41  64  93 127 165 212 263 313 375
#     4  10  23  42  64  94 131 170 207 254 314 371
#
# _framework density 19.834925999999999
#
# number of rings (size 3 to 8) (size 9 to 14) (size 15 to 20)
#    0.000    1.143    1.429    4.714    2.000    4.000 
#    0.000    0.000    0.000    0.000    0.000    0.000 
#    0.000    0.000    0.000    0.000    0.000    0.000 
#
# Total GULP energy -156599.315885 kJ/mol
# GULP energy per Si atom -5592.832710 kJ/mol
# Density = 1.978978 g / cm^3
# Si number density = 19.834926 Si / 1000 Ang^3
#
#
#
# Elastic Constant Matrix: (Units=GPa)
#
#
# Indices 1 2 3 4 5 6 
#
# 1 108.2924 30.0766 15.5887 0.0000 -6.3532 0.0000
# 2 30.0766 67.4038 37.6990 0.0000 -5.5650 0.0000
# 3 15.5887 37.6990 63.2006 0.0000 -11.5095 0.0000
# 4 0.0000 0.0000 0.0000 37.9282 0.0000 0.4568
# 5 -6.3532 -5.5650 -11.5095 0.0000 33.9625 0.0000
# 6 0.0000 0.0000 0.0000 0.4568 0.0000 24.9435
#
#
#
# Elastic Compliance Matrix: (Units=1/GPa)
#
#
# Indices 1 2 3 4 5 6 
#
# 1 0.010604 -0.004945 0.000584 0.000000 0.001371 0.000000
# 2 -0.004945 0.024596 -0.013734 0.000000 -0.001549 0.000000
# 3 0.000584 -0.013734 0.025025 0.000000 0.006340 0.000000
# 4 0.000000 0.000000 0.000000 0.026371 0.000000 -0.000483
# 5 0.001371 -0.001549 0.006340 0.000000 0.031595 0.000000
# 6 0.000000 0.000000 0.000000 -0.000483 0.000000 0.040099
#
#
# Mechanical properties :
#
#
# Convention : Reuss Voigt Hill
#
# Bulk Modulus (GPa) = 41.60529 45.06947 43.33738
# Shear Modulus (GPa) = 24.69219 29.73568 27.21393
#
# Velocity S-wave (km/s) = 3.53212 3.87610 3.70810
# Velocity P-wave (km/s) = 6.13643 6.54246 6.34270
#
# Compressibility (1/GPa) = 0.02403540
#
# Stress axis : x y z
#
# Youngs Moduli (GPa) = 94.30340 40.65714 39.95959
#
# Poissons Ratio (x) = 0.20105 -0.02333
# Poissons Ratio (y) = 0.46634 0.54880
# Poissons Ratio (z) = -0.05506 0.55838
#
# Static dielectric constant tensor:
#      x y z
#    x 1.700060 0.000000 0.013550 
#    y 0.000000 1.670070 0.000000 
#    z 0.013550 0.000000 1.596150 
# 
# From -- ./inp_files/275093.got.cif
#   From: 2010.05.17/outbox.cif.g08.bks.cpg/sg12_138_cif.got.tgz:275093.got - 2010.06.03 13:09:07.
