data_PCOD9211543
_publ_section_title
;
Structure prediction by ZEFSAII (Michael W. Deem and Ramdas Pophale) SiO2 
 PCOD9211543
Probable space group: C 2/M
;
_chemical_formula_sum "Si O2"
_cell_formula_units_Z 48
_cell_length_a 24.551596
_cell_length_b 8.292697
_cell_length_c 12.223657
_cell_angle_alpha 90.000000
_cell_angle_beta 90.936800
_cell_angle_gamma 90.000000
_cell_volume 2488.391039
_symmetry_space_group_name_H-M "C 2/M"
_symmetry_group_IT_number 12
_symmetry_cell_setting 'monoclinic'
loop_
_space_group_symop_operation_xyz
x,y,z
-x,y,-z
-x,-y,-z
x,-y,z
1/2+x,1/2+y,z
1/2-x,1/2+y,-z
1/2-x,1/2-y,-z
1/2+x,1/2-y,z
loop_
_atom_site_type_symbol
_atom_site_label
_atom_site_fract_x
_atom_site_fract_y
_atom_site_fract_z
Si Si1 0.795739 0.195114 0.586075
Si Si2 0.766413 0.805218 0.828788
Si Si3 0.957582 0.195420 0.092118
Si Si4 0.665296 0.694672 0.959211
Si Si5 0.085025 0.809766 0.484165
Si Si6 0.991122 0.311745 0.331889
O O1 0.750000 0.250000 0.500000
O O2 0.782112 0.251947 0.708494
O O3 0.855365 0.248705 0.548125
O O4 0.796708 0.000000 0.588887
O O5 0.707013 0.750107 0.866812
O O6 0.767162 0.000000 0.828174
O O7 0.808818 0.750589 0.924260
O O8 0.896228 0.250094 0.062393
O O9 0.976256 0.257785 0.210234
O O10 0.957370 0.000000 0.095382
O O11 0.000000 0.245911 0.000000
O O12 0.664902 0.500000 0.960332
O O13 0.059153 0.722750 0.588011
O O14 0.042411 0.782854 0.384215
O O15 0.087646 0.000000 0.509043
O O16 0.004152 0.500000 0.335666
#
# Coordination Sequence:
#
# PCOD9211543 Si02
#       6
#     8   8   8   8   8   8
#     4  10  23  38  59  87 117 151 192 238 285 339
#     4   9  19  37  58  83 113 148 186 232 287 335
#     4  10  22  38  61  87 114 152 196 240 284 343
#     4   9  19  36  59  84 111 146 191 233 279 339
#     4  10  21  40  64  86 113 154 201 240 283 348
#     4  11  23  39  60  87 120 153 189 242 300 348
#
# _framework density 19.289572
#
# number of rings (size 3 to 8) (size 9 to 14) (size 15 to 20)
#    0.000    2.167    0.000    3.000    4.667    3.000 
#    0.000    0.000    0.000    0.000    0.000    0.000 
#    0.000    0.000    0.000    0.000    0.000    0.000 
#
# Total GULP energy -134046.318447 kJ/mol
# GULP energy per Si atom -5585.263269 kJ/mol
# Density = 1.924567 g / cm^3
# Si number density = 19.289572 Si / 1000 Ang^3
#
#
#
# Elastic Constant Matrix: (Units=GPa)
#
#
# Indices 1 2 3 4 5 6 
#
# 1 145.9373 -2.4846 80.8729 0.0000 -13.4741 0.0000
# 2 -2.4846 7.8853 -3.3118 0.0000 -0.5863 0.0000
# 3 80.8729 -3.3118 140.0742 0.0000 -6.3054 0.0000
# 4 0.0000 0.0000 0.0000 9.3894 0.0000 3.5911
# 5 -13.4741 -0.5863 -6.3054 0.0000 13.2384 0.0000
# 6 0.0000 0.0000 0.0000 3.5911 0.0000 25.0119
#
#
#
# Elastic Compliance Matrix: (Units=1/GPa)
#
#
# Indices 1 2 3 4 5 6 
#
# 1 0.010915 0.001589 -0.005887 0.000000 0.008376 0.000000
# 2 0.001589 0.129010 0.002517 0.000000 0.008530 0.000000
# 3 -0.005887 0.002517 0.010559 0.000000 -0.000851 0.000000
# 4 0.000000 0.000000 0.000000 0.112691 0.000000 -0.016180
# 5 0.008376 0.008530 -0.000851 0.000000 0.084035 0.000000
# 6 0.000000 0.000000 0.000000 -0.016180 0.000000 0.042304
#
#
# Mechanical properties :
#
#
# Convention : Reuss Voigt Hill
#
# Bulk Modulus (GPa) = 6.80634 49.33884 28.07259
# Shear Modulus (GPa) = 11.31090 24.11597 17.71343
#
# Velocity S-wave (km/s) = 2.42414 3.53966 3.03362
# Velocity P-wave (km/s) = 3.37216 6.50685 5.18221
#
# Compressibility (1/GPa) = 0.14692183
#
# Stress axis : x y z
#
# Youngs Moduli (GPa) = 91.61545 7.75134 94.70272
#
# Poissons Ratio (x) = -0.01232 0.55755
# Poissons Ratio (y) = -0.14562 -0.23833
# Poissons Ratio (z) = 0.53937 -0.01951
#
# Static dielectric constant tensor:
#      x y z
#    x 1.654070 0.000000 -0.002130 
#    y 0.000000 1.672230 0.000000 
#    z -0.002130 0.000000 1.645190 
# 
# From -- ./inp_files/172261.got.cif
#   From: 2010.05.17/outbox.cif.g08.bks.cpg/sg12_87_cif.got.tgz:172261.got - 2010.06.03 13:09:07.
