data_PCOD9211799
_publ_section_title
;
Structure prediction by ZEFSAII (Michael W. Deem and Ramdas Pophale) SiO2 
 PCOD9211799
Probable space group: C 2/M
;
_chemical_formula_sum "Si O2"
_cell_formula_units_Z 48
_cell_length_a 20.491470
_cell_length_b 14.302636
_cell_length_c 11.660680
_cell_angle_alpha 90.000000
_cell_angle_beta 42.266100
_cell_angle_gamma 90.000000
_cell_volume 2298.548419
_symmetry_space_group_name_H-M "C 2/M"
_symmetry_group_IT_number 12
_symmetry_cell_setting 'monoclinic'
loop_
_space_group_symop_operation_xyz
x,y,z
-x,y,-z
-x,-y,-z
x,-y,z
1/2+x,1/2+y,z
1/2-x,1/2+y,-z
1/2-x,1/2-y,-z
1/2+x,1/2-y,z
loop_
_atom_site_type_symbol
_atom_site_label
_atom_site_fract_x
_atom_site_fract_y
_atom_site_fract_z
Si Si1 0.105925 0.308987 0.896501
Si Si2 0.463543 0.289107 0.426779
Si Si3 0.850811 0.300077 0.904069
Si Si4 0.135365 0.603189 0.347301
Si Si5 0.658487 0.396896 0.802845
Si Si6 0.286158 0.392007 0.535697
O O1 0.100201 0.196249 0.905151
O O2 0.188394 0.338871 0.699211
O O3 0.144203 0.336861 0.973023
O O4 0.000000 0.346406 0.000000
O O5 0.500000 0.331675 0.500000
O O6 0.558783 0.271370 0.227328
O O7 0.418794 0.187828 0.519065
O O8 0.379051 0.346217 0.476158
O O9 0.868574 0.377222 0.782999
O O10 0.750000 0.250000 0.000000
O O11 0.099102 0.500000 0.425183
O O12 0.246801 0.607600 0.240584
O O13 0.613299 0.500000 0.877561
O O14 0.695504 0.389790 0.623914
O O15 0.276535 0.500000 0.583157
#
# Coordination Sequence:
#
# PCOD9211799 Si02
#       6
#     8   8   8   8   8   8
#     4  12  24  39  66  95 131 166 204 264 331 374
#     4  10  21  40  67  89 121 166 217 257 304 376
#     4  11  22  40  60  94 131 162 200 259 323 375
#     4  10  21  40  67  93 120 163 212 254 302 369
#     4  10  21  40  66  91 121 164 213 256 302 374
#     4  11  24  43  63  89 126 170 218 261 308 375
#
# _framework density 20.882743999999999
#
# number of rings (size 3 to 8) (size 9 to 14) (size 15 to 20)
#    0.000    1.333    3.333    2.500    2.333    4.667 
#    0.000    1.667    0.000    0.000    0.000    0.000 
#    0.000    0.000    0.000    0.000    0.000    0.000 
#
# Total GULP energy -134091.172243 kJ/mol
# GULP energy per Si atom -5587.132177 kJ/mol
# Density = 2.083521 g / cm^3
# Si number density = 20.882744 Si / 1000 Ang^3
#
#
#
# Elastic Constant Matrix: (Units=GPa)
#
#
# Indices 1 2 3 4 5 6 
#
# 1 121.2985 30.0696 22.9154 0.0000 -11.8283 0.0000
# 2 30.0696 93.8001 6.5947 0.0000 -1.3501 0.0000
# 3 22.9154 6.5947 41.4985 0.0000 -10.4877 0.0000
# 4 0.0000 0.0000 0.0000 -31.4670 0.0000 95.4328
# 5 -11.8283 -1.3501 -10.4877 0.0000 46.7243 0.0000
# 6 0.0000 0.0000 0.0000 95.4328 0.0000 -157.8091
#
#
#
# Elastic Compliance Matrix: (Units=1/GPa)
#
#
# Indices 1 2 3 4 5 6 
#
# 1 0.009974 -0.002847 -0.004705 0.000000 0.001387 0.000000
# 2 -0.002847 0.011594 -0.000390 0.000000 -0.000473 0.000000
# 3 -0.004705 -0.000390 0.028044 0.000000 0.005093 0.000000
# 4 0.000000 0.000000 0.000000 0.038103 0.000000 0.023042
# 5 0.001387 -0.000473 0.005093 0.000000 0.022883 0.000000
# 6 0.000000 0.000000 0.000000 0.023042 0.000000 0.007598
#
#
# Mechanical properties :
#
#
# Convention : Reuss Voigt Hill
#
# Bulk Modulus (GPa) = 29.64792 41.75070 35.69931
# Shear Modulus (GPa) = 34.40645 -15.37589 9.51528
#
# Velocity S-wave (km/s) = 4.06347 -2.71642 2.13692
# Velocity P-wave (km/s) = 6.02029 3.19339 4.81880
#
# Compressibility (1/GPa) = 0.03372917
#
# Stress axis : x y z
#
# Youngs Moduli (GPa) = 100.26270 86.25055 35.65796
#
# Poissons Ratio (x) = 0.24552 0.16776
# Poissons Ratio (y) = 0.28541 0.01391
# Poissons Ratio (z) = 0.47171 0.03365
#
# Static dielectric constant tensor:
#      x y z
#    x 1.764970 0.000000 -0.008640 
#    y 0.000000 1.756380 0.000000 
#    z -0.008640 0.000000 1.765380 
# 
# From -- ./inp_files/167541.got.cif
#   From: 2010.05.17/outbox.cif.g08.bks.cpg/sg12_84_cif.got.tgz:167541.got - 2010.06.03 13:09:07.
