data_PCOD9211677
_publ_section_title
;
Structure prediction by ZEFSAII (Michael W. Deem and Ramdas Pophale) SiO2 
 PCOD9211677
Probable space group: C 2/M
;
_chemical_formula_sum "Si O2"
_cell_formula_units_Z 56
_cell_length_a 13.108274
_cell_length_b 28.273124
_cell_length_c 8.479051
_cell_angle_alpha 90.000000
_cell_angle_beta 58.651643
_cell_angle_gamma 90.000000
_cell_volume 2683.704082
_symmetry_space_group_name_H-M "C 2/M"
_symmetry_group_IT_number 12
_symmetry_cell_setting 'monoclinic'
loop_
_space_group_symop_operation_xyz
x,y,z
-x,y,-z
-x,-y,-z
x,-y,z
1/2+x,1/2+y,z
1/2-x,1/2+y,-z
1/2-x,1/2-y,-z
1/2+x,1/2-y,z
loop_
_atom_site_type_symbol
_atom_site_label
_atom_site_fract_x
_atom_site_fract_y
_atom_site_fract_z
Si Si1 0.872617 0.599038 0.550019
Si Si2 0.431117 0.398750 0.892704
Si Si3 0.250593 0.550848 0.839155
Si Si4 0.859256 0.947402 0.405239
Si Si5 0.860324 0.729853 0.100058
Si Si6 0.260925 0.822408 0.872020
Si Si7 0.616654 0.862184 0.807222
O O1 0.757417 0.566086 0.605530
O O2 0.832373 0.639364 0.708475
O O3 0.899355 0.620542 0.356164
O O4 0.000000 0.577084 0.500000
O O5 0.335657 0.438167 0.917099
O O6 0.541707 0.406496 0.685921
O O7 0.500000 0.406677 0.000000
O O8 0.353378 0.351032 0.964704
O O9 0.188938 0.500000 0.907918
O O10 0.323187 0.549242 0.616968
O O11 0.170760 0.596286 0.870645
O O12 0.903303 0.000000 0.322756
O O13 0.789537 0.778107 0.184010
O O14 0.817901 0.688109 0.250838
O O15 0.833022 0.704499 0.952680
O O16 0.000000 0.742461 0.000000
O O17 0.500000 0.850326 0.000000
#
# Coordination Sequence:
#
# PCOD9211677 Si02
#       7
#     8   8   8   8   8   8   8
#     4  11  23  40  65  91 129 166 206 266 309 372
#     4  12  22  38  62  91 127 160 205 260 313 377
#     4  10  22  40  62  89 124 166 213 259 310 374
#     4  10  23  42  63  91 128 171 210 257 315 373
#     4  10  21  40  68  90 125 167 207 256 309 383
#     4  11  23  41  63  97 128 162 207 259 324 366
#     4  10  21  40  65  88 121 168 212 254 311 370
#
# _framework density 20.866682999999998
#
# number of rings (size 3 to 8) (size 9 to 14) (size 15 to 20)
#    0.000    1.429    2.857    3.000    0.000    3.429 
#    0.000    0.000    3.143    0.000    0.000    0.000 
#    0.000    0.000    0.000    0.000    0.000    0.000 
#
# Total GULP energy -155926.697885 kJ/mol
# GULP energy per Si atom -5568.810639 kJ/mol
# Density = 2.081919 g / cm^3
# Si number density = 20.866683 Si / 1000 Ang^3
#
#
#
# Elastic Constant Matrix: (Units=GPa)
#
#
# Indices 1 2 3 4 5 6 
#
# 1 103.9782 30.4678 7.5326 0.0000 4.4582 0.0000
# 2 30.4678 104.5722 6.7629 0.0000 -12.8440 0.0000
# 3 7.5326 6.7629 30.8735 0.0000 -4.5809 0.0000
# 4 0.0000 0.0000 0.0000 3.4187 0.0000 -17.3920
# 5 4.4582 -12.8440 -4.5809 0.0000 26.9335 0.0000
# 6 0.0000 0.0000 0.0000 -17.3920 0.0000 -322.4301
#
#
#
# Elastic Compliance Matrix: (Units=1/GPa)
#
#
# Indices 1 2 3 4 5 6 
#
# 1 0.011000 -0.003526 -0.002494 0.000000 -0.003926 0.000000
# 2 -0.003526 0.011360 -0.000757 0.000000 0.005872 0.000000
# 3 -0.002494 -0.000757 0.034031 0.000000 0.005840 0.000000
# 4 0.000000 0.000000 0.000000 0.229522 0.000000 -0.012381
# 5 -0.003926 0.005872 0.005840 0.000000 0.041572 0.000000
# 6 0.000000 0.000000 0.000000 -0.012381 0.000000 -0.002434
#
#
# Mechanical properties :
#
#
# Convention : Reuss Voigt Hill
#
# Bulk Modulus (GPa) = 23.34399 36.55006 29.94703
# Shear Modulus (GPa) = 14.16897 -45.43819 -15.63461
#
# Velocity S-wave (km/s) = 2.60864 -4.67148 -2.74023
# Velocity P-wave (km/s) = 4.50386 3.39750 2.09067
#
# Compressibility (1/GPa) = 0.04283757
#
# Stress axis : x y z
#
# Youngs Moduli (GPa) = 90.91304 88.02637 29.38493
#
# Poissons Ratio (x) = 0.31036 0.07328
# Poissons Ratio (y) = 0.32053 0.02224
# Poissons Ratio (z) = 0.22673 0.06663
#
# Static dielectric constant tensor:
#      x y z
#    x 1.814770 0.000000 -0.013320 
#    y 0.000000 1.849330 0.000000 
#    z -0.013320 0.000000 1.774470 
# 
# From -- ./inp_files/54604.got.cif
#   From: 2010.05.17/outbox.cif.g08.bks.cpg/sg12_28_cif.got.tgz:54604.got - 2010.06.03 13:09:07.
