data_PCOD9211253
_publ_section_title
;
Structure prediction by ZEFSAII (Michael W. Deem and Ramdas Pophale) SiO2 
 PCOD9211253
Probable space group: C 2/M
;
_chemical_formula_sum "Si O2"
_cell_formula_units_Z 48
_cell_length_a 22.793361
_cell_length_b 23.642217
_cell_length_c 14.233825
_cell_angle_alpha 90.000000
_cell_angle_beta 18.406457
_cell_angle_gamma 90.000000
_cell_volume 2421.975579
_symmetry_space_group_name_H-M "C 2/M"
_symmetry_group_IT_number 12
_symmetry_cell_setting 'monoclinic'
loop_
_space_group_symop_operation_xyz
x,y,z
-x,y,-z
-x,-y,-z
x,-y,z
1/2+x,1/2+y,z
1/2-x,1/2+y,-z
1/2-x,1/2-y,-z
1/2+x,1/2-y,z
loop_
_atom_site_type_symbol
_atom_site_label
_atom_site_fract_x
_atom_site_fract_y
_atom_site_fract_z
Si Si1 0.468732 0.861051 0.251269
Si Si2 0.093287 0.146279 0.712811
Si Si3 0.800118 0.819741 0.641071
Si Si4 0.751732 0.066216 0.264862
Si Si5 0.000000 0.618646 0.500000
Si Si6 0.447511 0.221729 0.715309
Si Si7 0.000000 0.242878 0.000000
O O1 0.306942 0.863304 0.418754
O O2 0.392706 0.907902 0.439419
O O3 0.484237 0.801669 0.286319
O O4 0.673143 0.862511 0.894080
O O5 0.072589 0.151502 0.631897
O O6 0.946523 0.099777 0.972205
O O7 0.041631 0.202835 0.848324
O O8 0.908801 0.771069 0.532789
O O9 0.661863 0.783286 0.787062
O O10 0.658034 0.080818 0.306991
O O11 0.777272 0.000000 0.239575
O O12 0.062122 0.663601 0.327268
O O13 0.250000 0.250000 0.000000
#
# Coordination Sequence:
#
# PCOD9211253 Si02
#       7
#     8   8   8   8   4   8   4
#     4  11  22  38  56  89 124 159 206 247 306 373
#     4  12  21  37  57  94 121 161 211 246 297 380
#     4  12  22  34  60  91 132 168 190 239 312 374
#     4  11  24  43  66  83 114 162 218 279 316 353
#     4  10  21  40  58  88 114 152 213 250 300 372
#     4  11  21  36  57  89 130 166 195 240 298 378
#     4  12  18  34  57  88 125 164 194 232 292 374
#
# _framework density 19.818532000000001
#
# number of rings (size 3 to 8) (size 9 to 14) (size 15 to 20)
#    0.000    0.667    5.000    4.750    0.000    1.333 
#    0.000    0.833    0.000    2.000    0.000    5.833 
#    0.000    0.000    0.000    0.000    0.000    0.000 
#
# Total GULP energy -133820.670975 kJ/mol
# GULP energy per Si atom -5575.861291 kJ/mol
# Density = 1.977342 g / cm^3
# Si number density = 19.818532 Si / 1000 Ang^3
#
#
#
# Elastic Constant Matrix: (Units=GPa)
#
#
# Indices 1 2 3 4 5 6 
#
# 1 59.1056 13.0938 19.2174 -0.0218 -3.4570 0.0029
# 2 13.0938 89.9095 45.7703 -0.0280 -2.8978 -0.0099
# 3 19.2174 45.7703 90.1221 -0.0330 3.9899 0.0106
# 4 -0.0218 -0.0280 -0.0330 2.6658 -0.0027 2.2487
# 5 -3.4570 -2.8978 3.9899 -0.0027 41.8236 -0.0148
# 6 0.0029 -0.0099 0.0106 2.2487 -0.0148 26.9339
#
#
#
# Elastic Compliance Matrix: (Units=1/GPa)
#
#
# Indices 1 2 3 4 5 6 
#
# 1 0.018368 -0.000785 -0.003598 0.000107 0.001807 -0.000009
# 2 -0.000785 0.015166 -0.007611 0.000056 0.001712 0.000005
# 3 -0.003598 -0.007611 0.015832 0.000100 -0.002335 -0.000018
# 4 0.000107 0.000056 0.000100 0.403550 0.000017 -0.033693
# 5 0.001807 0.001712 -0.002335 0.000017 0.024401 0.000013
# 6 -0.000009 0.000005 -0.000018 -0.033693 0.000013 0.039941
#
#
# Mechanical properties :
#
#
# Convention : Reuss Voigt Hill
#
# Bulk Modulus (GPa) = 39.40315 43.92224 41.66270
# Shear Modulus (GPa) = 9.09577 25.02170 17.05873
#
# Velocity S-wave (km/s) = 2.14464 3.55708 2.93703
# Velocity P-wave (km/s) = 5.10468 6.25146 5.70695
#
# Compressibility (1/GPa) = 0.02537868
#
# Stress axis : x y z
#
# Youngs Moduli (GPa) = 54.44130 65.93572 63.16299
#
# Poissons Ratio (x) = 0.05177 0.22727
# Poissons Ratio (y) = 0.04274 0.48072
# Poissons Ratio (z) = 0.19588 0.50183
#
# Static dielectric constant tensor:
#      x y z
#    x 1.900360 0.000000 0.039070 
#    y 0.000000 1.665280 0.000020 
#    z 0.039070 0.000020 1.767970 
# 
# From -- ./inp_files/242049.got.cif
#   From: 2010.05.17/outbox.cif.g08.bks.cpg/sg12_122_cif.got.tgz:242049.got - 2010.06.03 13:09:07.
