data_PCOD9211335
_publ_section_title
;
Structure prediction by ZEFSAII (Michael W. Deem and Ramdas Pophale) SiO2 
 PCOD9211335
Probable space group: C 2/M
;
_chemical_formula_sum "Si O2"
_cell_formula_units_Z 56
_cell_length_a 12.056630
_cell_length_b 19.032452
_cell_length_c 13.554163
_cell_angle_alpha 90.000000
_cell_angle_beta 61.317519
_cell_angle_gamma 90.000000
_cell_volume 2728.588370
_symmetry_space_group_name_H-M "C 2/M"
_symmetry_group_IT_number 12
_symmetry_cell_setting 'monoclinic'
loop_
_space_group_symop_operation_xyz
x,y,z
-x,y,-z
-x,-y,-z
x,-y,z
1/2+x,1/2+y,z
1/2-x,1/2+y,-z
1/2-x,1/2-y,-z
1/2+x,1/2-y,z
loop_
_atom_site_type_symbol
_atom_site_label
_atom_site_fract_x
_atom_site_fract_y
_atom_site_fract_z
Si Si1 0.463935 0.084596 0.177379
Si Si2 0.877825 0.292009 0.319514
Si Si3 0.788478 0.919513 0.843856
Si Si4 0.779866 0.670695 0.953751
Si Si5 0.097779 0.818449 0.865462
Si Si6 0.889408 0.813334 0.476874
Si Si7 0.067326 0.918535 0.696928
O O1 0.422613 0.127862 0.291821
O O2 0.340861 0.094623 0.159697
O O3 0.586203 0.130101 0.092426
O O4 0.487338 0.000000 0.173897
O O5 0.905057 0.249361 0.206015
O O6 0.937509 0.249208 0.384721
O O7 0.729590 0.290202 0.407706
O O8 0.918989 0.911037 0.729142
O O9 0.781673 0.000000 0.878644
O O10 0.802283 0.872958 0.934111
O O11 0.731742 0.670042 0.862512
O O12 0.750000 0.750000 0.000000
O O13 0.078766 0.883191 0.799238
O O14 0.000000 0.812178 0.000000
O O15 0.853089 0.874525 0.415743
O O16 0.000000 0.837098 0.500000
O O17 0.098960 0.000000 0.685965
#
# Coordination Sequence:
#
# PCOD9211335 Si02
#       7
#     8   8   8   8   8   8   8
#     4  11  24  40  61  91 129 167 216 270 324 387
#     4  10  23  41  63  93 124 167 218 268 329 382
#     4  10  21  40  61  89 133 173 208 260 319 382
#     4  12  24  36  62  90 127 177 215 259 311 391
#     4  11  22  40  64  95 132 172 216 262 325 396
#     4  10  22  40  66  90 124 166 217 281 325 375
#     4  10  22  39  65  98 130 170 217 266 327 392
#
# _framework density 20.523433000000001
#
# number of rings (size 3 to 8) (size 9 to 14) (size 15 to 20)
#    0.000    1.429    1.429    3.429    4.000    3.429 
#    0.000    0.000    0.000    0.429    0.000    0.000 
#    0.000    0.000    0.000    0.000    0.000    0.000 
#
# Total GULP energy -156074.504987 kJ/mol
# GULP energy per Si atom -5574.089464 kJ/mol
# Density = 2.047672 g / cm^3
# Si number density = 20.523433 Si / 1000 Ang^3
#
#
#
# Elastic Constant Matrix: (Units=GPa)
#
#
# Indices 1 2 3 4 5 6 
#
# 1 51.3176 40.4416 10.7498 0.0000 9.7174 0.0000
# 2 40.4416 124.9359 50.2169 0.0000 9.7836 0.0000
# 3 10.7498 50.2169 99.1677 0.0000 16.6949 0.0000
# 4 0.0000 0.0000 0.0000 18.9374 0.0000 -9.9395
# 5 9.7174 9.7836 16.6949 0.0000 14.7220 0.0000
# 6 0.0000 0.0000 0.0000 -9.9395 0.0000 23.5691
#
#
#
# Elastic Compliance Matrix: (Units=1/GPa)
#
#
# Indices 1 2 3 4 5 6 
#
# 1 0.030131 -0.010346 0.005146 0.000000 -0.018848 0.000000
# 2 -0.010346 0.013617 -0.006674 0.000000 0.005348 0.000000
# 3 0.005146 -0.006674 0.015735 0.000000 -0.016805 0.000000
# 4 0.000000 0.000000 0.000000 0.067816 0.000000 0.028599
# 5 -0.018848 0.005348 -0.016805 0.000000 0.095869 0.000000
# 6 0.000000 0.000000 0.000000 0.028599 0.000000 0.054489
#
#
# Mechanical properties :
#
#
# Convention : Reuss Voigt Hill
#
# Bulk Modulus (GPa) = 27.98446 53.13754 40.56100
# Shear Modulus (GPa) = 15.95837 23.04658 19.50247
#
# Velocity S-wave (km/s) = 2.79152 3.35466 3.08596
# Velocity P-wave (km/s) = 4.90460 6.39941 5.70120
#
# Compressibility (1/GPa) = 0.03573412
#
# Stress axis : x y z
#
# Youngs Moduli (GPa) = 33.18891 73.43883 63.55307
#
# Poissons Ratio (x) = 0.75976 -0.32702
# Poissons Ratio (y) = 0.34336 0.42417
# Poissons Ratio (z) = -0.17078 0.49015
#
# Static dielectric constant tensor:
#      x y z
#    x 1.787000 0.000000 -0.043700 
#    y 0.000000 1.731090 0.000000 
#    z -0.043700 0.000000 1.783020 
# 
# From -- ./inp_files/206572.got.cif
#   From: 2010.05.17/outbox.cif.g08.bks.cpg/sg12_104_cif.got.tgz:206572.got - 2010.06.03 13:09:07.
