data_PCOD9211423
_publ_section_title
;
Structure prediction by ZEFSAII (Michael W. Deem and Ramdas Pophale) SiO2 
 PCOD9211423
Probable space group: C 2/M
;
_chemical_formula_sum "Si O2"
_cell_formula_units_Z 64
_cell_length_a 23.069023
_cell_length_b 22.954200
_cell_length_c 12.280866
_cell_angle_alpha 90.000000
_cell_angle_beta 27.430877
_cell_angle_gamma 90.000000
_cell_volume 2995.835657
_symmetry_space_group_name_H-M "C 2/M"
_symmetry_group_IT_number 12
_symmetry_cell_setting 'monoclinic'
loop_
_space_group_symop_operation_xyz
x,y,z
-x,y,-z
-x,-y,-z
x,-y,z
1/2+x,1/2+y,z
1/2-x,1/2+y,-z
1/2-x,1/2-y,-z
1/2+x,1/2-y,z
loop_
_atom_site_type_symbol
_atom_site_label
_atom_site_fract_x
_atom_site_fract_y
_atom_site_fract_z
Si Si1 0.314918 0.062949 0.084490
Si Si2 0.482930 0.788403 0.728528
Si Si3 0.233398 0.241738 0.755678
Si Si4 0.283228 0.388603 0.195546
Si Si5 0.039763 0.935410 0.808399
Si Si6 0.080432 0.601756 0.701300
Si Si7 0.875350 0.386316 0.756189
Si Si8 0.759169 0.641682 0.370023
O O1 0.255486 0.113546 0.255910
O O2 0.256536 0.000000 0.199702
O O3 0.458678 0.062684 0.887944
O O4 0.317629 0.078792 0.953098
O O5 0.614270 0.757060 0.474795
O O6 0.532996 0.836054 0.732609
O O7 0.424651 0.826226 0.727779
O O8 0.366416 0.756009 0.981263
O O9 0.197701 0.175625 0.784371
O O10 0.218464 0.290142 0.686173
O O11 0.190445 0.419239 0.436412
O O12 0.214725 0.377827 0.195440
O O13 0.409619 0.423388 0.964344
O O14 0.131160 0.881425 0.635758
O O15 0.093007 0.000000 0.694508
O O16 0.000000 0.935523 0.000000
O O17 0.135289 0.612777 0.728986
O O18 0.000000 0.416656 0.500000
#
# Coordination Sequence:
#
# PCOD9211423 Si02
#       8
#     8   8   8   8   8   8   8   8
#     4  11  24  40  65  98 128 171 227 281 343 404
#     4  10  22  40  61 103 133 184 225 283 345 419
#     4  11  22  40  68  98 145 182 229 285 353 418
#     4  11  23  43  68 101 128 177 230 278 345 412
#     4  11  25  46  68  97 139 182 233 288 345 423
#     4  10  21  40  62  92 137 171 220 281 341 402
#     4  11  20  45  66  92 135 166 226 284 339 410
#     4  12  23  43  66  97 137 185 225 278 351 414
#
# _framework density 21.362987
#
# number of rings (size 3 to 8) (size 9 to 14) (size 15 to 20)
#    0.000    1.125    7.500    1.500    0.000    5.250 
#    2.250    0.625    0.000    1.500    0.000    0.000 
#    0.000    0.000    0.000    0.000    0.000    0.000 
#
# Total GULP energy -178505.529168 kJ/mol
# GULP energy per Si atom -5578.297786 kJ/mol
# Density = 2.131436 g / cm^3
# Si number density = 21.362987 Si / 1000 Ang^3
#
#
#
# Elastic Constant Matrix: (Units=GPa)
#
#
# Indices 1 2 3 4 5 6 
#
# 1 65.2962 2.5613 20.1503 0.0028 8.3604 -0.0022
# 2 2.5613 52.1524 6.5020 0.0006 9.5875 -0.0007
# 3 20.1503 6.5020 95.8866 0.0017 3.2848 -0.0018
# 4 0.0028 0.0006 0.0017 -18.1803 -0.0013 8.5393
# 5 8.3604 9.5875 3.2848 -0.0013 32.9878 0.0013
# 6 -0.0022 -0.0007 -0.0018 8.5393 0.0013 -12.0532
#
#
#
# Elastic Compliance Matrix: (Units=1/GPa)
#
#
# Indices 1 2 3 4 5 6 
#
# 1 0.016877 0.000341 -0.003432 0.000002 -0.004035 -0.000002
# 2 0.000341 0.020397 -0.001253 0.000000 -0.005890 -0.000001
# 3 -0.003432 -0.001253 0.011231 0.000000 0.000115 -0.000001
# 4 0.000002 0.000000 0.000000 -0.082437 -0.000002 -0.058404
# 5 -0.004035 -0.005890 0.000115 -0.000002 0.033037 0.000003
# 6 -0.000002 -0.000001 -0.000001 -0.058404 0.000003 -0.124343
#
#
# Mechanical properties :
#
#
# Convention : Reuss Voigt Hill
#
# Bulk Modulus (GPa) = 25.11470 30.19583 27.65527
# Shear Modulus (GPa) = -48.41291 12.82563 -17.79364
#
# Velocity S-wave (km/s) = -4.76563 2.45290 -2.88916
# Velocity P-wave (km/s) = 4.30116 4.71037 1.35787
#
# Compressibility (1/GPa) = 0.03981731
#
# Stress axis : x y z
#
# Youngs Moduli (GPa) = 59.25221 49.02736 89.03837
#
# Poissons Ratio (x) = -0.01670 0.30554
# Poissons Ratio (y) = -0.02019 0.11156
# Poissons Ratio (z) = 0.20333 0.06143
#
# Static dielectric constant tensor:
#      x y z
#    x 1.767650 0.000000 -0.010620 
#    y 0.000000 1.789800 0.000000 
#    z -0.010620 0.000000 1.856230 
# 
# From -- ./inp_files/178383.got.cif
#   From: 2010.05.17/outbox.cif.g08.bks.cpg/sg12_90_cif.got.tgz:178383.got - 2010.06.03 13:09:07.
