data_PCOD9211192
_publ_section_title
;
Structure prediction by ZEFSAII (Michael W. Deem and Ramdas Pophale) SiO2 
 PCOD9211192
Probable space group: C 2/M
;
_chemical_formula_sum "Si O2"
_cell_formula_units_Z 44
_cell_length_a 28.590317
_cell_length_b 8.842505
_cell_length_c 28.166918
_cell_angle_alpha 90.000000
_cell_angle_beta 15.565778
_cell_angle_gamma 90.000000
_cell_volume 1910.848669
_symmetry_space_group_name_H-M "C 2/M"
_symmetry_group_IT_number 12
_symmetry_cell_setting 'monoclinic'
loop_
_space_group_symop_operation_xyz
x,y,z
-x,y,-z
-x,-y,-z
x,-y,z
1/2+x,1/2+y,z
1/2-x,1/2+y,-z
1/2-x,1/2-y,-z
1/2+x,1/2-y,z
loop_
_atom_site_type_symbol
_atom_site_label
_atom_site_fract_x
_atom_site_fract_y
_atom_site_fract_z
Si Si1 0.015025 0.785828 0.331777
Si Si2 0.282571 0.500000 0.504649
Si Si3 0.087678 0.326796 0.062013
Si Si4 0.049297 0.500000 0.233955
Si Si5 0.527990 0.326122 0.918235
Si Si6 0.450795 0.500000 0.844753
Si Si7 0.442363 0.174856 0.504636
O O1 0.014377 0.634720 0.303172
O O2 0.006012 0.766041 0.396909
O O3 0.205837 0.845255 0.131778
O O4 0.844099 0.864949 0.478164
O O5 0.092274 0.500000 0.668687
O O6 0.412069 0.500000 0.332140
O O7 0.014168 0.500000 0.139394
O O8 0.059075 0.279148 0.035413
O O9 0.033027 0.165995 0.143289
O O10 0.250842 0.500000 0.021577
O O11 0.462554 0.500000 0.977319
O O12 0.733807 0.327336 0.707214
O O13 0.500000 0.280115 0.000000
O O14 0.500000 0.231683 0.500000
O O15 0.505273 0.000000 0.439056
#
# Coordination Sequence:
#
# PCOD9211192 Si02
#       7
#     8   4   8   4   8   4   8
#     4  11  23  45  63 102 137 180 235 297 354 426
#     4  12  26  48  69 100 148 186 243 306 354 444
#     4  11  23  44  69 102 143 186 241 300 356 438
#     4  10  24  44  73 100 138 189 243 293 363 423
#     4  10  21  39  68 106 141 186 239 292 359 442
#     4  10  26  48  75 102 142 197 241 304 370 421
#     4  10  21  40  72 103 137 184 235 291 366 440
#
# _framework density 23.026418
#
# number of rings (size 3 to 8) (size 9 to 14) (size 15 to 20)
#    0.000    1.455    2.727    1.636    2.545    4.727 
#    6.545    0.455    0.000    0.000    0.000    0.000 
#    0.000    0.000    0.000    0.000    0.000    0.000 
#
# Total GULP energy -122780.184195 kJ/mol
# GULP energy per Si atom -5580.917463 kJ/mol
# Density = 2.297401 g / cm^3
# Si number density = 23.026418 Si / 1000 Ang^3
#
#
#
# Elastic Constant Matrix: (Units=GPa)
#
#
# Indices 1 2 3 4 5 6 
#
# 1 173.8859 82.0263 30.1495 0.0186 10.0587 -0.0048
# 2 82.0263 138.3458 28.2147 0.0025 -2.0063 -0.0080
# 3 30.1495 28.2147 39.6111 0.0473 3.8296 -0.0209
# 4 0.0186 0.0025 0.0473 26.3384 -0.0190 -14.7878
# 5 10.0587 -2.0063 3.8296 -0.0190 46.6224 0.0040
# 6 -0.0048 -0.0080 -0.0209 -14.7878 0.0040 26.6428
#
#
#
# Elastic Compliance Matrix: (Units=1/GPa)
#
#
# Indices 1 2 3 4 5 6 
#
# 1 0.008479 -0.004412 -0.003140 -0.000003 -0.001761 -0.000004
# 2 -0.004412 0.010788 -0.004498 0.000016 0.001786 0.000007
# 3 -0.003140 -0.004498 0.031040 -0.000061 -0.002066 -0.000011
# 4 -0.000003 0.000016 -0.000061 0.055156 0.000026 0.030614
# 5 -0.001761 0.001786 -0.002066 0.000026 0.022075 0.000010
# 6 -0.000004 0.000007 -0.000011 0.030614 0.000010 0.054525
#
#
# Mechanical properties :
#
#
# Convention : Reuss Voigt Hill
#
# Bulk Modulus (GPa) = 38.16190 70.29153 54.22671
# Shear Modulus (GPa) = 23.26681 34.01754 28.64217
#
# Velocity S-wave (km/s) = 3.18219 3.84777 3.53070
# Velocity P-wave (km/s) = 5.48734 7.09459 6.34208
#
# Compressibility (1/GPa) = 0.02620415
#
# Stress axis : x y z
#
# Youngs Moduli (GPa) = 117.94445 92.69976 32.21687
#
# Poissons Ratio (x) = 0.40900 0.10117
# Poissons Ratio (y) = 0.52038 0.14492
# Poissons Ratio (z) = 0.37039 0.41699
#
# Static dielectric constant tensor:
#      x y z
#    x 1.812060 0.000000 0.008560 
#    y 0.000000 1.902410 0.000010 
#    z 0.008560 0.000010 1.895520 
# 
# From -- ./inp_files/369031.got.cif
#   From: 2010.05.17/outbox.cif.g08.bks.cpg/sg12_185_cif.got.tgz:369031.got - 2010.06.03 13:09:07.
