data_PCOD9211458
_publ_section_title
;
Structure prediction by ZEFSAII (Michael W. Deem and Ramdas Pophale) SiO2 
 PCOD9211458
Probable space group: C 2/M
;
_chemical_formula_sum "Si O2"
_cell_formula_units_Z 56
_cell_length_a 17.851397
_cell_length_b 18.567919
_cell_length_c 9.989991
_cell_angle_alpha 90.000000
_cell_angle_beta 114.425914
_cell_angle_gamma 90.000000
_cell_volume 3014.941760
_symmetry_space_group_name_H-M "C 2/M"
_symmetry_group_IT_number 12
_symmetry_cell_setting 'monoclinic'
loop_
_space_group_symop_operation_xyz
x,y,z
-x,y,-z
-x,-y,-z
x,-y,z
1/2+x,1/2+y,z
1/2-x,1/2+y,-z
1/2-x,1/2-y,-z
1/2+x,1/2-y,z
loop_
_atom_site_type_symbol
_atom_site_label
_atom_site_fract_x
_atom_site_fract_y
_atom_site_fract_z
Si Si1 0.640435 0.230352 0.325267
Si Si2 0.519670 0.320363 0.872325
Si Si3 0.312915 0.705892 0.353293
Si Si4 0.406318 0.082055 0.583639
Si Si5 0.395088 0.918245 0.263404
Si Si6 0.160268 0.722139 0.893946
Si Si7 0.925277 0.084878 0.339196
O O1 0.559477 0.271703 0.219542
O O2 0.662986 0.272162 0.479236
O O3 0.716610 0.226186 0.279328
O O4 0.626594 0.147186 0.353489
O O5 0.594290 0.263385 0.934791
O O6 0.544912 0.376529 0.775550
O O7 0.500000 0.356139 0.000000
O O8 0.357255 0.752810 0.272292
O O9 0.345255 0.626379 0.339280
O O10 0.505554 0.087651 0.665440
O O11 0.376432 0.092588 0.407912
O O12 0.384237 0.000000 0.606312
O O13 0.353377 0.862769 0.130664
O O14 0.372572 0.000000 0.213030
O O15 0.250000 0.750000 0.000000
O O16 0.000000 0.094388 0.500000
O O17 0.910719 0.000000 0.309973
#
# Coordination Sequence:
#
# PCOD9211458 Si02
#       7
#     8   8   8   8   8   8   8
#     4  11  19  35  58  88 124 150 195 249 302 357
#     4  11  23  38  62  88 120 155 200 253 307 360
#     4  10  22  34  57  87 116 154 200 251 293 361
#     4   9  17  30  56  89 117 147 187 245 305 360
#     4   9  17  31  54  85 115 147 194 244 299 361
#     4  11  21  36  56  81 118 158 202 243 294 361
#     4  10  21  40  63  87 117 160 206 248 303 362
#
# _framework density 18.574155999999999
#
# number of rings (size 3 to 8) (size 9 to 14) (size 15 to 20)
#    0.000    1.857    4.286    1.714    0.000    0.857 
#    0.000    2.857    0.000    6.000    0.000    0.000 
#    0.000    0.000    0.000    0.000    0.000    0.000 
#
# Total GULP energy -156015.624730 kJ/mol
# GULP energy per Si atom -5571.986598 kJ/mol
# Density = 1.853188 g / cm^3
# Si number density = 18.574156 Si / 1000 Ang^3
#
#
#
# Elastic Constant Matrix: (Units=GPa)
#
#
# Indices 1 2 3 4 5 6 
#
# 1 81.8769 23.0343 32.0652 0.0000 -2.0457 0.0000
# 2 23.0343 117.4136 38.2834 0.0000 -2.2810 0.0000
# 3 32.0652 38.2834 65.7181 0.0000 -4.6006 0.0000
# 4 0.0000 0.0000 0.0000 18.5366 0.0000 6.4855
# 5 -2.0457 -2.2810 -4.6006 0.0000 35.3862 0.0000
# 6 0.0000 0.0000 0.0000 6.4855 0.0000 17.6800
#
#
#
# Elastic Compliance Matrix: (Units=1/GPa)
#
#
# Indices 1 2 3 4 5 6 
#
# 1 0.015144 -0.000693 -0.006991 0.000000 -0.000078 0.000000
# 2 -0.000693 0.010546 -0.005813 0.000000 -0.000116 0.000000
# 3 -0.006991 -0.005813 0.022161 0.000000 0.002102 0.000000
# 4 0.000000 0.000000 0.000000 0.061891 0.000000 -0.022703
# 5 -0.000078 -0.000116 0.002102 0.000000 0.028521 0.000000
# 6 0.000000 0.000000 0.000000 -0.022703 0.000000 0.064889
#
#
# Mechanical properties :
#
#
# Convention : Reuss Voigt Hill
#
# Bulk Modulus (GPa) = 47.94624 50.19718 49.07171
# Shear Modulus (GPa) = 21.08815 25.76226 23.42521
#
# Velocity S-wave (km/s) = 3.37315 3.72828 3.55515
# Velocity P-wave (km/s) = 6.40627 6.75406 6.58246
#
# Compressibility (1/GPa) = 0.02085669
#
# Stress axis : x y z
#
# Youngs Moduli (GPa) = 66.03124 94.82143 45.12375
#
# Poissons Ratio (x) = 0.06572 0.31546
# Poissons Ratio (y) = 0.04577 0.26233
# Poissons Ratio (z) = 0.46162 0.55124
#
# Static dielectric constant tensor:
#      x y z
#    x 1.673450 0.000000 -0.014180 
#    y 0.000000 1.638580 0.000000 
#    z -0.014180 0.000000 1.675790 
# 
# From -- ./inp_files/75962.got.cif
#   From: 2010.05.17/outbox.cif.g08.bks.cpg/sg12_38_cif.got.tgz:75962.got - 2010.06.03 13:09:07.
