data_PCOD9211407
_publ_section_title
;
Structure prediction by ZEFSAII (Michael W. Deem and Ramdas Pophale) SiO2 
 PCOD9211407
Probable space group: C 2/M
;
_chemical_formula_sum "Si O2"
_cell_formula_units_Z 40
_cell_length_a 18.563431
_cell_length_b 11.899360
_cell_length_c 7.020943
_cell_angle_alpha 90.000000
_cell_angle_beta 108.348814
_cell_angle_gamma 90.000000
_cell_volume 1472.026535
_symmetry_space_group_name_H-M "C 2/M"
_symmetry_group_IT_number 12
_symmetry_cell_setting 'monoclinic'
loop_
_space_group_symop_operation_xyz
x,y,z
-x,y,-z
-x,-y,-z
x,-y,z
1/2+x,1/2+y,z
1/2-x,1/2+y,-z
1/2-x,1/2-y,-z
1/2+x,1/2-y,z
loop_
_atom_site_type_symbol
_atom_site_label
_atom_site_fract_x
_atom_site_fract_y
_atom_site_fract_z
Si Si1 0.925805 0.846590 0.655709
Si Si2 0.904669 0.881556 0.200657
Si Si3 0.345298 0.871802 0.105039
Si Si4 0.735204 0.369701 0.365332
Si Si5 0.425244 0.880807 0.803460
O O1 0.907668 0.887883 0.432481
O O2 0.855702 0.872577 0.731648
O O3 0.927236 0.712544 0.648192
O O4 0.007681 0.883683 0.790528
O O5 0.879514 0.753661 0.150322
O O6 0.866324 0.000000 0.110722
O O7 0.275298 0.861465 0.192977
O O8 0.376833 0.000000 0.177229
O O9 0.351514 0.877580 0.879088
O O10 0.754363 0.500000 0.453793
O O11 0.750000 0.250000 0.500000
O O12 0.429946 0.000000 0.712596
O O13 0.500000 0.868262 0.000000
#
# Coordination Sequence:
#
# PCOD9211407 Si02
#       5
#     8   8   8   8   8
#     4  11  22  37  63  91 122 163 204 251 307 363
#     4  11  22  39  63  92 125 159 204 258 307 365
#     4  10  22  41  64  91 122 162 208 255 304 363
#     4  11  23  40  63  91 127 162 203 254 309 366
#     4  10  21  40  62  90 128 164 205 257 308 363
#
# _framework density 27.173423
#
# number of rings (size 3 to 8) (size 9 to 14) (size 15 to 20)
#    0.000    1.400    4.000    2.400    0.000    2.400 
#    0.000    6.000    0.000    0.000    0.000    0.000 
#    0.000    0.000    0.000    0.000    0.000    0.000 
#
# Total GULP energy -111436.194613 kJ/mol
# GULP energy per Si atom -5571.809731 kJ/mol
# Density = 2.711158 g / cm^3
# Si number density = 27.173423 Si / 1000 Ang^3
#
#
#
# Elastic Constant Matrix: (Units=GPa)
#
#
# Indices 1 2 3 4 5 6 
#
# 1 148.1819 50.2862 22.3205 0.0000 -30.3165 0.0000
# 2 50.2862 364.6473 69.2659 0.0000 -3.0550 0.0000
# 3 22.3205 69.2659 69.7712 0.0000 -19.8070 0.0000
# 4 0.0000 0.0000 0.0000 43.4436 0.0000 9.7199
# 5 -30.3165 -3.0550 -19.8070 0.0000 36.9361 0.0000
# 6 0.0000 0.0000 0.0000 9.7199 0.0000 -35.6691
#
#
#
# Elastic Compliance Matrix: (Units=1/GPa)
#
#
# Indices 1 2 3 4 5 6 
#
# 1 0.008557 -0.001218 0.000515 0.000000 0.007199 0.000000
# 2 -0.001218 0.003657 -0.004056 0.000000 -0.002872 0.000000
# 3 0.000515 -0.004056 0.021491 0.000000 0.011612 0.000000
# 4 0.000000 0.000000 0.000000 0.021696 0.000000 0.005912
# 5 0.007199 -0.002872 0.011612 0.000000 0.038972 0.000000
# 6 0.000000 0.000000 0.000000 0.005912 0.000000 -0.026424
#
#
# Mechanical properties :
#
#
# Convention : Reuss Voigt Hill
#
# Bulk Modulus (GPa) = 41.34431 96.26062 68.80246
# Shear Modulus (GPa) = 58.46128 38.32397 48.39262
#
# Velocity S-wave (km/s) = 4.64337 3.75953 4.22463
# Velocity P-wave (km/s) = 6.63293 7.37204 7.01223
#
# Compressibility (1/GPa) = 0.02418713
#
# Stress axis : x y z
#
# Youngs Moduli (GPa) = 116.86528 273.47366 46.53153
#
# Poissons Ratio (x) = 0.33296 -0.02396
# Poissons Ratio (y) = 0.14229 0.18873
# Poissons Ratio (z) = -0.06017 1.10920
#
# Static dielectric constant tensor:
#      x y z
#    x 2.184060 0.000000 0.082570 
#    y 0.000000 2.151410 0.000000 
#    z 0.082570 0.000000 2.116290 
# 
# From -- ./inp_files/83572.got.cif
#   From: 2010.05.17/outbox.cif.g08.bks.cpg/sg12_42_cif.got.tgz:83572.got - 2010.06.03 13:09:07.
