data_PCOD9211584
_publ_section_title
;
Structure prediction by ZEFSAII (Michael W. Deem and Ramdas Pophale) SiO2 
 PCOD9211584
Probable space group: C 2/M
;
_chemical_formula_sum "Si O2"
_cell_formula_units_Z 64
_cell_length_a 18.738142
_cell_length_b 8.805532
_cell_length_c 29.149402
_cell_angle_alpha 90.000000
_cell_angle_beta 43.119358
_cell_angle_gamma 90.000000
_cell_volume 3287.481168
_symmetry_space_group_name_H-M "C 2/M"
_symmetry_group_IT_number 12
_symmetry_cell_setting 'monoclinic'
loop_
_space_group_symop_operation_xyz
x,y,z
-x,y,-z
-x,-y,-z
x,-y,z
1/2+x,1/2+y,z
1/2-x,1/2+y,-z
1/2-x,1/2-y,-z
1/2+x,1/2-y,z
loop_
_atom_site_type_symbol
_atom_site_label
_atom_site_fract_x
_atom_site_fract_y
_atom_site_fract_z
Si Si1 0.348427 0.318009 0.818503
Si Si2 0.925799 0.318243 0.307648
Si Si3 0.233721 0.171903 0.959297
Si Si4 0.804471 0.320003 0.194515
Si Si5 0.509526 0.325832 0.944794
Si Si6 0.038012 0.177866 0.429858
Si Si7 0.237798 0.820878 0.687194
Si Si8 0.363838 0.317128 0.435330
O O1 0.359615 0.500000 0.815805
O O2 0.461896 0.242218 0.761945
O O3 0.285065 0.259367 0.892496
O O4 0.281944 0.281825 0.803727
O O5 0.926259 0.500000 0.310118
O O6 0.836188 0.264072 0.314519
O O7 0.902557 0.248606 0.368686
O O8 0.275290 0.000000 0.939198
O O9 0.250000 0.250000 0.000000
O O10 0.109060 0.165641 0.014622
O O11 0.799039 0.500000 0.205567
O O12 0.788969 0.231394 0.248851
O O13 0.915426 0.272412 0.121533
O O14 0.551802 0.500000 0.927953
O O15 0.500000 0.259383 0.000000
O O16 0.141840 0.275705 0.376202
O O17 0.000000 0.189657 0.500000
O O18 0.947076 0.220531 0.436533
O O19 0.064053 0.000000 0.408672
O O20 0.222401 0.000000 0.689007
O O21 0.357185 0.500000 0.435821
O O22 0.250000 0.250000 0.500000
#
# Coordination Sequence:
#
# PCOD9211584 Si02
#       8
#     8   8   8   8   8   8   8   8
#     4  11  24  43  65  92 126 165 212 265 320 384
#     4  12  26  44  66  92 128 171 216 265 321 381
#     4  11  24  41  63  90 125 166 209 264 322 381
#     4  11  24  41  65  93 126 166 210 259 317 382
#     4  10  21  40  64  90 122 162 210 261 314 375
#     4  10  22  42  68  98 134 172 211 258 312 370
#     4  12  26  43  66  95 129 167 213 266 317 377
#     4  11  23  41  68 101 137 175 215 261 312 372
#
# _framework density 19.467790999999998
#
# number of rings (size 3 to 8) (size 9 to 14) (size 15 to 20)
#    0.000    1.000    1.250    5.250    1.750    8.000 
#    0.000    0.000    0.000    0.000    0.000    0.000 
#    0.000    0.000    0.000    0.000    0.000    0.000 
#
# Total GULP energy -178955.643562 kJ/mol
# GULP energy per Si atom -5592.363861 kJ/mol
# Density = 1.942348 g / cm^3
# Si number density = 19.467791 Si / 1000 Ang^3
#
#
#
# Elastic Constant Matrix: (Units=GPa)
#
#
# Indices 1 2 3 4 5 6 
#
# 1 150.6350 67.7830 60.9168 0.0003 5.5219 0.0007
# 2 67.7830 108.2543 49.7599 0.0011 -1.9031 0.0020
# 3 60.9168 49.7599 92.0326 -0.0002 -11.7702 0.0001
# 4 0.0003 0.0011 -0.0002 40.0033 -0.0002 -3.9303
# 5 5.5219 -1.9031 -11.7702 -0.0002 33.3951 -0.0002
# 6 0.0007 0.0020 0.0001 -3.9303 -0.0002 28.9800
#
#
#
# Elastic Compliance Matrix: (Units=1/GPa)
#
#
# Indices 1 2 3 4 5 6 
#
# 1 0.010955 -0.004476 -0.005336 0.000000 -0.003947 0.000000
# 2 -0.004476 0.014217 -0.004739 0.000000 -0.000120 -0.000001
# 3 -0.005336 -0.004739 0.017842 0.000000 0.006901 0.000001
# 4 0.000000 0.000000 0.000000 0.025336 0.000000 0.003436
# 5 -0.003947 -0.000120 0.006901 0.000000 0.033023 0.000000
# 6 0.000000 -0.000001 0.000001 0.003436 0.000000 0.034973
#
#
# Mechanical properties :
#
#
# Convention : Reuss Voigt Hill
#
# Bulk Modulus (GPa) = 71.88160 78.64900 75.26530
# Shear Modulus (GPa) = 29.39705 31.97316 30.68511
#
# Velocity S-wave (km/s) = 3.89013 4.05700 3.97444
# Velocity P-wave (km/s) = 7.56181 7.90145 7.73350
#
# Compressibility (1/GPa) = 0.01391177
#
# Stress axis : x y z
#
# Youngs Moduli (GPa) = 91.27906 70.34055 56.04603
#
# Poissons Ratio (x) = 0.31487 0.29906
# Poissons Ratio (y) = 0.40860 0.26560
# Poissons Ratio (z) = 0.48707 0.33334
#
# Static dielectric constant tensor:
#      x y z
#    x 1.641670 0.000000 -0.008170 
#    y 0.000000 1.635820 0.000000 
#    z -0.008170 0.000000 1.640910 
# 
# From -- ./inp_files/378115.got.cif
#   From: 2010.05.17/outbox.cif.g08.bks.cpg/sg12_190_cif.got.tgz:378115.got - 2010.06.03 13:09:07.
