data_PCOD9211345
_publ_section_title
;
Structure prediction by ZEFSAII (Michael W. Deem and Ramdas Pophale) SiO2 
 PCOD9211345
Probable space group: C 2/M
;
_chemical_formula_sum "Si O2"
_cell_formula_units_Z 48
_cell_length_a 13.772122
_cell_length_b 13.934361
_cell_length_c 13.436260
_cell_angle_alpha 90.000000
_cell_angle_beta 122.236603
_cell_angle_gamma 90.000000
_cell_volume 2181.026743
_symmetry_space_group_name_H-M "C 2/M"
_symmetry_group_IT_number 12
_symmetry_cell_setting 'monoclinic'
loop_
_space_group_symop_operation_xyz
x,y,z
-x,y,-z
-x,-y,-z
x,-y,z
1/2+x,1/2+y,z
1/2-x,1/2+y,-z
1/2-x,1/2-y,-z
1/2+x,1/2-y,z
loop_
_atom_site_type_symbol
_atom_site_label
_atom_site_fract_x
_atom_site_fract_y
_atom_site_fract_z
Si Si1 0.360774 0.894352 0.927742
Si Si2 0.500738 0.299893 0.727213
Si Si3 0.350646 0.891307 0.154329
Si Si4 0.206850 0.793651 0.229030
Si Si5 0.457380 0.500000 0.302686
Si Si6 0.831767 0.207930 0.462699
Si Si7 0.334211 0.500000 0.447176
O O1 0.317022 0.804496 0.842579
O O2 0.325704 0.000000 0.869870
O O3 0.500000 0.891453 0.000000
O O4 0.323816 0.886721 0.022487
O O5 0.565239 0.199821 0.781295
O O6 0.399891 0.310799 0.754875
O O7 0.569670 0.400662 0.767514
O O8 0.451068 0.299998 0.586444
O O9 0.242219 0.872449 0.167300
O O10 0.396703 0.000000 0.197781
O O11 0.317052 0.773853 0.359316
O O12 0.405468 0.500000 0.384140
O O13 0.593520 0.500000 0.408784
O O14 0.750000 0.250000 0.500000
O O15 0.778006 0.103278 0.412592
#
# Coordination Sequence:
#
# PCOD9211345 Si02
#       7
#     8   8   8   8   4   8   4
#     4  10  21  41  67  92 121 166 218 268 318 375
#     4  10  21  40  61  91 132 170 209 259 315 377
#     4  11  24  42  66  96 130 167 213 264 320 383
#     4  11  22  38  65  91 129 166 211 263 323 378
#     4   9  18  32  60  79 115 163 206 254 297 360
#     4   9  20  36  56  93 126 164 209 256 308 379
#     4   9  16  32  54  80 114 159 207 253 296 351
#
# _framework density 22.007984
#
# number of rings (size 3 to 8) (size 9 to 14) (size 15 to 20)
#    0.000    2.000    1.667    1.500    2.333    2.000 
#    7.500    0.833    1.833    1.500    0.000    0.000 
#    0.000    0.000    0.000    0.000    0.000    0.000 
#
# Total GULP energy -133871.736788 kJ/mol
# GULP energy per Si atom -5577.989033 kJ/mol
# Density = 2.195789 g / cm^3
# Si number density = 22.007984 Si / 1000 Ang^3
#
#
#
# Elastic Constant Matrix: (Units=GPa)
#
#
# Indices 1 2 3 4 5 6 
#
# 1 84.6167 34.9143 24.0573 0.0000 -27.8571 0.0000
# 2 34.9143 165.0029 40.8675 0.0000 -13.3921 0.0000
# 3 24.0573 40.8675 89.3561 0.0000 -20.9873 0.0000
# 4 0.0000 0.0000 0.0000 15.7371 0.0000 8.9750
# 5 -27.8571 -13.3921 -20.9873 0.0000 34.9949 0.0000
# 6 0.0000 0.0000 0.0000 8.9750 0.0000 27.5846
#
#
#
# Elastic Compliance Matrix: (Units=1/GPa)
#
#
# Indices 1 2 3 4 5 6 
#
# 1 0.017041 -0.002467 -0.000577 0.000000 0.012275 0.000000
# 2 -0.002467 0.007214 -0.002849 0.000000 -0.000912 0.000000
# 3 -0.000577 -0.002849 0.014300 0.000000 0.007027 0.000000
# 4 0.000000 0.000000 0.000000 0.078022 0.000000 -0.025385
# 5 0.012275 -0.000912 0.007027 0.000000 0.042212 0.000000
# 6 0.000000 0.000000 0.000000 -0.025385 0.000000 0.044512
#
#
# Mechanical properties :
#
#
# Convention : Reuss Voigt Hill
#
# Bulk Modulus (GPa) = 37.35579 59.85044 48.60311
# Shear Modulus (GPa) = 22.32045 31.60575 26.96310
#
# Velocity S-wave (km/s) = 3.18810 3.79371 3.50401
# Velocity P-wave (km/s) = 5.52834 6.81495 6.20508
#
# Compressibility (1/GPa) = 0.02676961
#
# Stress axis : x y z
#
# Youngs Moduli (GPa) = 58.68194 138.61535 69.93003
#
# Poissons Ratio (x) = 0.34193 0.04032
# Poissons Ratio (y) = 0.14475 0.19926
# Poissons Ratio (z) = 0.03384 0.39498
#
# Static dielectric constant tensor:
#      x y z
#    x 1.877830 0.000000 0.062470 
#    y 0.000000 1.812900 0.000000 
#    z 0.062470 0.000000 1.805770 
# 
# From -- ./inp_files/154333.got.cif
#   From: 2010.05.17/outbox.cif.g08.bks.cpg/sg12_78_cif.got.tgz:154333.got - 2010.06.03 13:09:07.
