data_PCOD9211885
_publ_section_title
;
Structure prediction by ZEFSAII (Michael W. Deem and Ramdas Pophale) SiO2 
 PCOD9211885
Probable space group: C 2/M
;
_chemical_formula_sum "Si O2"
_cell_formula_units_Z 40
_cell_length_a 8.885856
_cell_length_b 18.129032
_cell_length_c 11.763591
_cell_angle_alpha 90.000000
_cell_angle_beta 111.695604
_cell_angle_gamma 90.000000
_cell_volume 1760.778580
_symmetry_space_group_name_H-M "C 2/M"
_symmetry_group_IT_number 12
_symmetry_cell_setting 'monoclinic'
loop_
_space_group_symop_operation_xyz
x,y,z
-x,y,-z
-x,-y,-z
x,-y,z
1/2+x,1/2+y,z
1/2-x,1/2+y,-z
1/2-x,1/2-y,-z
1/2+x,1/2-y,z
loop_
_atom_site_type_symbol
_atom_site_label
_atom_site_fract_x
_atom_site_fract_y
_atom_site_fract_z
Si Si1 0.827804 0.386563 0.423242
Si Si2 0.146171 0.913119 0.950537
Si Si3 0.002433 0.842976 0.310754
Si Si4 0.076044 0.588974 0.802551
Si Si5 0.688838 0.806480 0.350697
O O1 0.636179 0.404099 0.386454
O O2 0.837244 0.384314 0.289535
O O3 0.840847 0.323459 0.524236
O O4 0.000000 0.426149 0.500000
O O5 0.098029 0.870511 0.824725
O O6 0.159808 0.000000 0.927931
O O7 0.311954 0.890671 0.059638
O O8 0.000000 0.904815 0.000000
O O9 0.874308 0.815622 0.367771
O O10 0.109235 0.772077 0.304051
O O11 0.060475 0.500000 0.795158
O O12 0.906983 0.630970 0.747179
#
# Coordination Sequence:
#
# PCOD9211885 Si02
#       5
#     8   8   8   8   8
#     4  10  21  40  67  93 126 172 216 264 323 386
#     4  10  22  43  72  96 126 173 219 269 325 390
#     4  12  24  43  65  96 135 172 221 271 325 390
#     4  10  22  44  69  98 132 173 221 267 325 391
#     4  11  25  40  64  97 134 176 215 271 327 384
#
# _framework density 22.717223000000001
#
# number of rings (size 3 to 8) (size 9 to 14) (size 15 to 20)
#    0.000    1.400    2.000    3.600    0.000    7.600 
#    0.000    2.000    0.000    7.200    0.000    0.000 
#    0.000    0.000    0.000    0.000    0.000    0.000 
#
# Total GULP energy -111463.717079 kJ/mol
# GULP energy per Si atom -5573.185854 kJ/mol
# Density = 2.266552 g / cm^3
# Si number density = 22.717223 Si / 1000 Ang^3
#
#
#
# Elastic Constant Matrix: (Units=GPa)
#
#
# Indices 1 2 3 4 5 6 
#
# 1 167.5981 46.8882 47.6247 0.0000 23.9413 0.0000
# 2 46.8882 77.6947 52.7661 0.0000 6.4603 0.0000
# 3 47.6247 52.7661 162.9802 0.0000 32.1271 0.0000
# 4 0.0000 0.0000 0.0000 46.5014 0.0000 5.7188
# 5 23.9413 6.4603 32.1271 0.0000 37.1087 0.0000
# 6 0.0000 0.0000 0.0000 5.7188 0.0000 10.0167
#
#
#
# Elastic Compliance Matrix: (Units=1/GPa)
#
#
# Indices 1 2 3 4 5 6 
#
# 1 0.007793 -0.004322 -0.000042 0.000000 -0.004239 0.000000
# 2 -0.004322 0.019034 -0.005783 0.000000 0.004481 0.000000
# 3 -0.000042 -0.005783 0.009425 0.000000 -0.007126 0.000000
# 4 0.000000 0.000000 0.000000 0.023129 0.000000 -0.013205
# 5 -0.004239 0.004481 -0.007126 0.000000 0.035071 0.000000
# 6 0.000000 0.000000 0.000000 -0.013205 0.000000 0.107373
#
#
# Mechanical properties :
#
#
# Convention : Reuss Voigt Hill
#
# Bulk Modulus (GPa) = 62.66525 78.09232 70.37878
# Shear Modulus (GPa) = 21.98396 36.12498 29.05447
#
# Velocity S-wave (km/s) = 3.11420 3.99206 3.58014
# Velocity P-wave (km/s) = 6.36991 7.46319 6.93812
#
# Compressibility (1/GPa) = 0.01595781
#
# Stress axis : x y z
#
# Youngs Moduli (GPa) = 128.31422 52.53787 106.10117
#
# Poissons Ratio (x) = 0.22706 0.00451
# Poissons Ratio (y) = 0.55456 0.61356
# Poissons Ratio (z) = 0.00545 0.30382
#
# Static dielectric constant tensor:
#      x y z
#    x 1.881370 0.000000 0.043310 
#    y 0.000000 1.915080 0.000000 
#    z 0.043310 0.000000 1.826930 
# 
# From -- ./inp_files/120398.got.cif
#   From: 2010.05.17/outbox.cif.g08.bks.cpg/sg12_61_cif.got.tgz:120398.got - 2010.06.03 13:09:07.
