data_PCOD9211724
_publ_section_title
;
Structure prediction by ZEFSAII (Michael W. Deem and Ramdas Pophale) SiO2 
 PCOD9211724
Probable space group: C 2/M
;
_chemical_formula_sum "Si O2"
_cell_formula_units_Z 64
_cell_length_a 14.878634
_cell_length_b 25.192147
_cell_length_c 9.031094
_cell_angle_alpha 90.000000
_cell_angle_beta 70.638834
_cell_angle_gamma 90.000000
_cell_volume 3193.643074
_symmetry_space_group_name_H-M "C 2/M"
_symmetry_group_IT_number 12
_symmetry_cell_setting 'monoclinic'
loop_
_space_group_symop_operation_xyz
x,y,z
-x,y,-z
-x,-y,-z
x,-y,z
1/2+x,1/2+y,z
1/2-x,1/2+y,-z
1/2-x,1/2-y,-z
1/2+x,1/2-y,z
loop_
_atom_site_type_symbol
_atom_site_label
_atom_site_fract_x
_atom_site_fract_y
_atom_site_fract_z
Si Si1 0.572065 0.167118 0.851379
Si Si2 0.269525 0.363975 0.249088
Si Si3 0.066645 0.655264 0.341733
Si Si4 0.413619 0.440465 0.659980
Si Si5 0.595322 0.726799 0.356147
Si Si6 0.446531 0.559629 0.181078
Si Si7 0.602097 0.281175 0.993558
Si Si8 0.265278 0.358993 0.604965
O O1 0.503981 0.175068 0.747671
O O2 0.602009 0.221864 0.919541
O O3 0.664747 0.138310 0.742099
O O4 0.500000 0.136952 0.000000
O O5 0.163026 0.375063 0.245861
O O6 0.349351 0.409667 0.205599
O O7 0.314988 0.315841 0.127886
O O8 0.256737 0.356347 0.432919
O O9 0.104672 0.711040 0.385712
O O10 0.000000 0.627589 0.500000
O O11 0.500000 0.445475 0.500000
O O12 0.380460 0.500000 0.720769
O O13 0.471671 0.413239 0.762342
O O14 0.332051 0.406282 0.628484
O O15 0.500000 0.709014 0.500000
O O16 0.682145 0.694335 0.374014
O O17 0.600529 0.720208 0.173758
O O18 0.426725 0.500000 0.253247
O O19 0.500000 0.553590 0.000000
O O20 0.500000 0.304662 0.000000
#
# Coordination Sequence:
#
# PCOD9211724 Si02
#       8
#     8   8   8   8   8   8   8   8
#     4  11  24  42  58  80 122 162 205 249 294 340
#     4  12  25  37  63  90 119 158 207 245 296 357
#     4  11  23  41  58  80 118 165 203 246 291 342
#     4  10  21  40  65  92 125 155 188 239 305 373
#     4  11  24  39  60  86 124 160 199 246 298 358
#     4  10  23  42  63  93 127 154 186 242 309 367
#     4  11  23  40  57  88 123 160 198 247 299 355
#     4  12  25  37  60  93 117 158 206 248 294 359
#
# _framework density 20.039809999999999
#
# number of rings (size 3 to 8) (size 9 to 14) (size 15 to 20)
#    0.000    1.000    5.000    2.250    7.000    2.000 
#    0.000    0.000    0.000    1.500    0.000    0.000 
#    0.000    0.000    0.000    0.000    0.000    0.000 
#
# Total GULP energy -178412.386607 kJ/mol
# GULP energy per Si atom -5575.387081 kJ/mol
# Density = 1.999420 g / cm^3
# Si number density = 20.039810 Si / 1000 Ang^3
#
#
#
# Elastic Constant Matrix: (Units=GPa)
#
#
# Indices 1 2 3 4 5 6 
#
# 1 111.1877 41.2548 39.4810 0.0000 -30.6456 0.0000
# 2 41.2548 49.1824 19.4286 0.0000 -5.3374 0.0000
# 3 39.4810 19.4286 124.4224 0.0000 -23.1232 0.0000
# 4 0.0000 0.0000 0.0000 18.4925 0.0000 -2.5067
# 5 -30.6456 -5.3374 -23.1232 0.0000 40.0518 0.0000
# 6 0.0000 0.0000 0.0000 -2.5067 0.0000 22.9521
#
#
#
# Elastic Compliance Matrix: (Units=1/GPa)
#
#
# Indices 1 2 3 4 5 6 
#
# 1 0.017116 -0.012620 -0.001500 0.000000 0.010549 0.000000
# 2 -0.012620 0.031013 -0.002089 0.000000 -0.006729 0.000000
# 3 -0.001500 -0.002089 0.009605 0.000000 0.004119 0.000000
# 4 0.000000 0.000000 0.000000 0.054888 0.000000 0.005995
# 5 0.010549 -0.006729 0.004119 0.000000 0.034520 0.000000
# 6 0.000000 0.000000 0.000000 0.005995 0.000000 0.044224
#
#
# Mechanical properties :
#
#
# Convention : Reuss Voigt Hill
#
# Bulk Modulus (GPa) = 39.50028 53.90236 46.70132
# Shear Modulus (GPa) = 21.53094 28.60783 25.06939
#
# Velocity S-wave (km/s) = 3.28137 3.78239 3.54076
# Velocity P-wave (km/s) = 5.84040 6.78464 6.33015
#
# Compressibility (1/GPa) = 0.02531628
#
# Stress axis : x y z
#
# Youngs Moduli (GPa) = 58.42325 32.24430 104.11424
#
# Poissons Ratio (x) = 0.40693 0.15620
# Poissons Ratio (y) = 0.73731 0.21747
# Poissons Ratio (z) = 0.08765 0.06735
#
# Static dielectric constant tensor:
#      x y z
#    x 1.443410 0.000000 -0.304930 
#    y 0.000000 1.730320 0.000000 
#    z -0.304930 0.000000 1.454030 
# 
# From -- ./inp_files/66926.got.cif
#   From: 2010.05.17/outbox.cif.g08.bks.cpg/sg12_34_cif.got.tgz:66926.got - 2010.06.03 13:09:07.
