data_PCOD9211554
_publ_section_title
;
Structure prediction by ZEFSAII (Michael W. Deem and Ramdas Pophale) SiO2 
 PCOD9211554
Probable space group: C 2/M
;
_chemical_formula_sum "Si O2"
_cell_formula_units_Z 56
_cell_length_a 18.187429
_cell_length_b 8.828021
_cell_length_c 18.931199
_cell_angle_alpha 90.000000
_cell_angle_beta 103.861962
_cell_angle_gamma 90.000000
_cell_volume 2951.049158
_symmetry_space_group_name_H-M "C 2/M"
_symmetry_group_IT_number 12
_symmetry_cell_setting 'monoclinic'
loop_
_space_group_symop_operation_xyz
x,y,z
-x,y,-z
-x,-y,-z
x,-y,z
1/2+x,1/2+y,z
1/2-x,1/2+y,-z
1/2-x,1/2-y,-z
1/2+x,1/2-y,z
loop_
_atom_site_type_symbol
_atom_site_label
_atom_site_fract_x
_atom_site_fract_y
_atom_site_fract_z
Si Si1 0.972170 0.319282 0.572822
Si Si2 0.886197 0.317862 0.857038
Si Si3 0.950813 0.181326 0.139534
Si Si4 0.831879 0.318347 0.002156
Si Si5 0.091363 0.817952 0.709199
Si Si6 0.690974 0.680536 0.430864
Si Si7 0.236148 0.681992 0.291396
O O1 0.962308 0.500000 0.576370
O O2 0.892768 0.239310 0.570341
O O3 0.000000 0.284056 0.500000
O O4 0.034616 0.263280 0.642706
O O5 0.897675 0.500000 0.857914
O O6 0.857729 0.277470 0.928743
O O7 0.822450 0.280081 0.784489
O O8 0.964753 0.237603 0.857172
O O9 0.928313 0.221550 0.214630
O O10 0.946355 0.000000 0.131683
O O11 0.892800 0.256386 0.071629
O O12 0.828222 0.500000 0.005450
O O13 0.750000 0.250000 0.000000
O O14 0.178243 0.780023 0.711373
O O15 0.082582 0.000000 0.699632
O O16 0.693404 0.500000 0.435377
O O17 0.750000 0.750000 0.500000
O O18 0.713309 0.735912 0.357967
O O19 0.232623 0.500000 0.301680
#
# Coordination Sequence:
#
# PCOD9211554 Si02
#       7
#     8   8   8   8   8   8   8
#     4  11  24  41  62  90 121 154 197 246 294 349
#     4  10  22  40  61  87 120 158 198 242 295 353
#     4  11  23  39  60  89 122 156 199 246 292 348
#     4  11  23  40  62  88 119 156 199 245 296 354
#     4  10  22  40  62  89 121 158 198 242 294 351
#     4  12  25  41  62  89 121 156 197 243 293 351
#     4  10  21  40  64  88 119 157 196 242 296 350
#
# _framework density 18.976300999999999
#
# number of rings (size 3 to 8) (size 9 to 14) (size 15 to 20)
#    0.000    1.286    0.000    5.571    0.000   13.143 
#    0.000    1.429    0.000    0.000    0.000    0.000 
#    0.000    0.000    0.000    0.000    0.000    0.000 
#
# Total GULP energy -156672.129238 kJ/mol
# GULP energy per Si atom -5595.433187 kJ/mol
# Density = 1.893311 g / cm^3
# Si number density = 18.976301 Si / 1000 Ang^3
#
#
#
# Elastic Constant Matrix: (Units=GPa)
#
#
# Indices 1 2 3 4 5 6 
#
# 1 217.3593 95.5683 129.7373 0.0000 -0.8048 0.0000
# 2 95.5683 76.5910 96.7798 0.0000 -5.3532 0.0000
# 3 129.7373 96.7798 218.2463 0.0000 -1.5079 0.0000
# 4 0.0000 0.0000 0.0000 32.6178 0.0000 6.3345
# 5 -0.8048 -5.3532 -1.5079 0.0000 42.8018 0.0000
# 6 0.0000 0.0000 0.0000 6.3345 0.0000 34.2200
#
#
#
# Elastic Compliance Matrix: (Units=1/GPa)
#
#
# Indices 1 2 3 4 5 6 
#
# 1 0.010354 -0.011879 -0.000896 0.000000 -0.001323 0.000000
# 2 -0.011879 0.043784 -0.012321 0.000000 0.004819 0.000000
# 3 -0.000896 -0.012321 0.010570 0.000000 -0.001185 0.000000
# 4 0.000000 0.000000 0.000000 0.031801 0.000000 -0.005887
# 5 -0.001323 0.004819 -0.001185 0.000000 0.023900 0.000000
# 6 0.000000 0.000000 0.000000 -0.005887 0.000000 0.030312
#
#
# Mechanical properties :
#
#
# Convention : Reuss Voigt Hill
#
# Bulk Modulus (GPa) = 68.89151 128.48527 98.68839
# Shear Modulus (GPa) = 24.30109 34.60200 29.45155
#
# Velocity S-wave (km/s) = 3.58243 4.27480 3.94384
# Velocity P-wave (km/s) = 7.31400 9.60315 8.53566
#
# Compressibility (1/GPa) = 0.01451558
#
# Stress axis : x y z
#
# Youngs Moduli (GPa) = 96.58401 22.83938 94.60542
#
# Poissons Ratio (x) = 0.27131 0.08479
# Poissons Ratio (y) = 1.14732 1.16563
# Poissons Ratio (z) = 0.08657 0.28140
#
# Static dielectric constant tensor:
#      x y z
#    x 1.617190 0.000000 -0.007190 
#    y 0.000000 1.637520 0.000000 
#    z -0.007190 0.000000 1.623470 
# 
# From -- ./inp_files/275574.got.cif
#   From: 2010.05.17/outbox.cif.g08.bks.cpg/sg12_138_cif.got.tgz:275574.got - 2010.06.03 13:09:07.
