data_PCOD9211131
_publ_section_title
;
Structure prediction by ZEFSAII (Michael W. Deem and Ramdas Pophale) SiO2 
 PCOD9211131
Probable space group: C 2/M
;
_chemical_formula_sum "Si O2"
_cell_formula_units_Z 64
_cell_length_a 19.742966
_cell_length_b 8.681804
_cell_length_c 30.187403
_cell_angle_alpha 90.000000
_cell_angle_beta 141.949831
_cell_angle_gamma 90.000000
_cell_volume 3189.160644
_symmetry_space_group_name_H-M "C 2/M"
_symmetry_group_IT_number 12
_symmetry_cell_setting 'monoclinic'
loop_
_space_group_symop_operation_xyz
x,y,z
-x,y,-z
-x,-y,-z
x,-y,z
1/2+x,1/2+y,z
1/2-x,1/2+y,-z
1/2-x,1/2-y,-z
1/2+x,1/2-y,z
loop_
_atom_site_type_symbol
_atom_site_label
_atom_site_fract_x
_atom_site_fract_y
_atom_site_fract_z
Si Si1 0.965333 0.318350 0.384037
Si Si2 0.799416 0.816221 0.479705
Si Si3 0.188396 0.684335 0.103817
Si Si4 0.342053 0.184923 0.014578
Si Si5 0.143686 0.817300 0.323869
Si Si6 0.573847 0.682745 0.732425
Si Si7 0.921191 0.817112 0.870111
Si Si8 0.264434 0.182088 0.716057
O O1 0.980487 0.500000 0.397407
O O2 0.854019 0.261504 0.349794
O O3 0.073065 0.230246 0.456169
O O4 0.948878 0.277154 0.323725
O O5 0.750000 0.750000 0.500000
O O6 0.732374 0.740856 0.405140
O O7 0.786882 0.000000 0.472625
O O8 0.170187 0.500000 0.097638
O O9 0.182580 0.727266 0.049341
O O10 0.309362 0.718504 0.185452
O O11 0.101748 0.766497 0.091227
O O12 0.344169 0.000000 0.018802
O O13 0.250000 0.250000 0.000000
O O14 0.462466 0.251973 0.086312
O O15 0.024274 0.790653 0.283624
O O16 0.162199 0.727842 0.288024
O O17 0.156365 0.000000 0.322818
O O18 0.572976 0.500000 0.720326
O O19 0.824725 0.744281 0.790803
O O20 0.918808 0.000000 0.864802
O O21 0.250094 0.000000 0.712192
#
# Coordination Sequence:
#
# PCOD9211131 Si02
#       8
#     8   8   8   8   8   8   8   8
#     4  12  24  41  67  98 130 169 220 272 326 391
#     4  12  24  41  65  95 131 174 221 271 328 388
#     4  10  22  42  68  97 131 173 218 266 325 387
#     4  11  25  44  67  99 136 175 217 267 326 387
#     4  11  24  42  66  98 134 171 217 272 333 394
#     4  10  21  39  66  96 130 170 214 267 328 388
#     4  12  25  43  68  97 131 173 221 270 322 386
#     4  12  26  45  67  96 134 173 217 270 332 393
#
# _framework density 20.067976000000002
#
# number of rings (size 3 to 8) (size 9 to 14) (size 15 to 20)
#    0.000    0.750    2.500    5.625    1.750    3.500 
#    0.000    2.500    0.000    0.000    0.000    0.000 
#    0.000    0.000    0.000    0.000    0.000    0.000 
#
# Total GULP energy -179156.115167 kJ/mol
# GULP energy per Si atom -5598.628599 kJ/mol
# Density = 2.002230 g / cm^3
# Si number density = 20.067976 Si / 1000 Ang^3
#
#
#
# Elastic Constant Matrix: (Units=GPa)
#
#
# Indices 1 2 3 4 5 6 
#
# 1 88.5298 24.4926 9.6991 0.0000 8.5647 0.0000
# 2 24.4926 41.7395 1.5242 0.0000 5.3475 0.0000
# 3 9.6991 1.5242 57.6014 0.0000 13.7063 0.0000
# 4 0.0000 0.0000 0.0000 26.2639 0.0000 -1.2745
# 5 8.5647 5.3475 13.7063 0.0000 39.3016 0.0000
# 6 0.0000 0.0000 0.0000 -1.2745 0.0000 38.5015
#
#
#
# Elastic Compliance Matrix: (Units=1/GPa)
#
#
# Indices 1 2 3 4 5 6 
#
# 1 0.013795 -0.007861 -0.001804 0.000000 -0.001308 0.000000
# 2 -0.007861 0.028864 0.001185 0.000000 -0.002628 0.000000
# 3 -0.001804 0.001185 0.019169 0.000000 -0.006453 0.000000
# 4 0.000000 0.000000 0.000000 0.038136 0.000000 0.001262
# 5 -0.001308 -0.002628 -0.006453 0.000000 0.028337 0.000000
# 6 0.000000 0.000000 0.000000 0.001262 0.000000 0.026015
#
#
# Mechanical properties :
#
#
# Convention : Reuss Voigt Hill
#
# Bulk Modulus (GPa) = 22.28754 28.81139 25.54947
# Shear Modulus (GPa) = 26.84831 30.95707 28.90269
#
# Velocity S-wave (km/s) = 3.66166 3.93187 3.79917
# Velocity P-wave (km/s) = 5.38582 5.91615 5.65721
#
# Compressibility (1/GPa) = 0.04486811
#
# Stress axis : x y z
#
# Youngs Moduli (GPa) = 72.49204 34.64469 52.16876
#
# Poissons Ratio (x) = 0.27235 0.09409
# Poissons Ratio (y) = 0.56988 -0.06183
# Poissons Ratio (z) = 0.13075 -0.04106
#
# Static dielectric constant tensor:
#      x y z
#    x 1.700100 0.000000 -0.004420 
#    y 0.000000 1.669800 0.000000 
#    z -0.004420 0.000000 1.695650 
# 
# From -- ./inp_files/378311.got.cif
#   From: 2010.05.17/outbox.cif.g08.bks.cpg/sg12_190_cif.got.tgz:378311.got - 2010.06.03 13:09:07.
