data_PCOD9211625
_publ_section_title
;
Structure prediction by ZEFSAII (Michael W. Deem and Ramdas Pophale) SiO2 
 PCOD9211625
Probable space group: C 2/M
;
_chemical_formula_sum "Si O2"
_cell_formula_units_Z 44
_cell_length_a 11.170246
_cell_length_b 24.469465
_cell_length_c 8.001022
_cell_angle_alpha 90.000000
_cell_angle_beta 57.913460
_cell_angle_gamma 90.000000
_cell_volume 1852.859890
_symmetry_space_group_name_H-M "C 2/M"
_symmetry_group_IT_number 12
_symmetry_cell_setting 'monoclinic'
loop_
_space_group_symop_operation_xyz
x,y,z
-x,y,-z
-x,-y,-z
x,-y,z
1/2+x,1/2+y,z
1/2-x,1/2+y,-z
1/2-x,1/2-y,-z
1/2+x,1/2-y,z
loop_
_atom_site_type_symbol
_atom_site_label
_atom_site_fract_x
_atom_site_fract_y
_atom_site_fract_z
Si Si1 0.801403 0.165606 0.563730
Si Si2 0.500000 0.636172 0.000000
Si Si3 0.583569 0.711623 0.186287
Si Si4 0.610278 0.438000 0.655780
Si Si5 0.020467 0.665319 0.182152
Si Si6 0.869214 0.440566 0.723574
O O1 0.822818 0.190078 0.730842
O O2 0.843048 0.101429 0.528195
O O3 0.639958 0.168819 0.624357
O O4 0.920145 0.195049 0.360181
O O5 0.389073 0.680673 0.008456
O O6 0.494819 0.594590 0.847106
O O7 0.589553 0.776277 0.166667
O O8 0.578451 0.500000 0.635724
O O9 0.734809 0.436470 0.702180
O O10 0.103081 0.612616 0.187220
O O11 0.000000 0.659060 0.000000
O O12 0.862289 0.500000 0.817710
O O13 0.000000 0.442500 0.500000
#
# Coordination Sequence:
#
# PCOD9211625 Si02
#       6
#     8   4   8   8   8   8
#     4  10  23  40  63  87 125 163 202 254 301 361
#     4  10  21  40  64  92 125 158 202 260 302 360
#     4  10  23  42  60  92 124 162 204 253 303 362
#     4  10  21  41  66  91 120 162 207 253 305 361
#     4  12  25  39  62  94 124 165 202 248 310 364
#     4  10  22  41  64  89 121 161 208 251 297 362
#
# _framework density 23.747071999999999
#
# number of rings (size 3 to 8) (size 9 to 14) (size 15 to 20)
#    0.000    1.636    2.727    0.818    5.091    4.000 
#    0.000    8.182    0.000    0.000    0.000    0.000 
#    0.000    0.000    0.000    0.000    0.000    0.000 
#
# Total GULP energy -122834.858165 kJ/mol
# GULP energy per Si atom -5583.402644 kJ/mol
# Density = 2.369302 g / cm^3
# Si number density = 23.747072 Si / 1000 Ang^3
#
#
#
# Elastic Constant Matrix: (Units=GPa)
#
#
# Indices 1 2 3 4 5 6 
#
# 1 78.4668 54.6109 9.7607 0.0000 2.6090 0.0000
# 2 54.6109 267.7897 31.6408 0.0000 32.3215 0.0000
# 3 9.7607 31.6408 43.8372 0.0000 11.3678 0.0000
# 4 0.0000 0.0000 0.0000 39.3449 0.0000 11.3692
# 5 2.6090 32.3215 11.3678 0.0000 42.6797 0.0000
# 6 0.0000 0.0000 0.0000 11.3692 0.0000 40.6698
#
#
#
# Elastic Compliance Matrix: (Units=1/GPa)
#
#
# Indices 1 2 3 4 5 6 
#
# 1 0.015040 -0.003103 -0.001590 0.000000 0.001854 0.000000
# 2 -0.003103 0.004982 -0.002122 0.000000 -0.003018 0.000000
# 3 -0.001590 -0.002122 0.026055 0.000000 -0.005235 0.000000
# 4 0.000000 0.000000 0.000000 0.027650 0.000000 -0.007729
# 5 0.001854 -0.003018 -0.005235 0.000000 0.026997 0.000000
# 6 0.000000 0.000000 0.000000 -0.007729 0.000000 0.026749
#
#
# Mechanical properties :
#
#
# Convention : Reuss Voigt Hill
#
# Bulk Modulus (GPa) = 30.81981 64.67982 47.74982
# Shear Modulus (GPa) = 32.91220 44.14431 38.52825
#
# Velocity S-wave (km/s) = 3.72687 4.31622 4.03232
# Velocity P-wave (km/s) = 5.61480 7.22051 6.46768
#
# Compressibility (1/GPa) = 0.03244667
#
# Stress axis : x y z
#
# Youngs Moduli (GPa) = 66.48933 200.71737 38.38002
#
# Poissons Ratio (x) = 0.62284 0.06102
# Poissons Ratio (y) = 0.20632 0.08146
# Poissons Ratio (z) = 0.10571 0.42601
#
# Static dielectric constant tensor:
#      x y z
#    x 1.871370 0.000000 0.075390 
#    y 0.000000 1.900270 0.000000 
#    z 0.075390 0.000000 1.680750 
# 
# From -- ./inp_files/51222.got.cif
#   From: 2010.05.17/outbox.cif.g08.bks.cpg/sg12_26_cif.got.tgz:51222.got - 2010.06.03 13:09:07.
