data_PCOD9211829
_publ_section_title
;
Structure prediction by ZEFSAII (Michael W. Deem and Ramdas Pophale) SiO2 
 PCOD9211829
Probable space group: C 2/M
;
_chemical_formula_sum "Si O2"
_cell_formula_units_Z 56
_cell_length_a 19.156552
_cell_length_b 8.878629
_cell_length_c 25.836311
_cell_angle_alpha 90.000000
_cell_angle_beta 139.700826
_cell_angle_gamma 90.000000
_cell_volume 2842.166534
_symmetry_space_group_name_H-M "C 2/M"
_symmetry_group_IT_number 12
_symmetry_cell_setting 'monoclinic'
loop_
_space_group_symop_operation_xyz
x,y,z
-x,y,-z
-x,-y,-z
x,-y,z
1/2+x,1/2+y,z
1/2-x,1/2+y,-z
1/2-x,1/2-y,-z
1/2+x,1/2-y,z
loop_
_atom_site_type_symbol
_atom_site_label
_atom_site_fract_x
_atom_site_fract_y
_atom_site_fract_z
Si Si1 0.788826 0.178353 0.751793
Si Si2 0.962869 0.320511 0.920812
Si Si3 0.637797 0.821150 0.419232
Si Si4 0.920786 0.322642 0.734058
Si Si5 0.083006 0.822271 0.675757
Si Si6 0.853636 0.676112 0.182294
Si Si7 0.172460 0.822487 0.998468
O O1 0.856982 0.239425 0.839425
O O2 0.855818 0.228410 0.739236
O O3 0.670073 0.250765 0.686255
O O4 0.780473 0.000000 0.750221
O O5 0.947914 0.500000 0.909367
O O6 0.000000 0.281269 0.000000
O O7 0.061399 0.266261 0.940699
O O8 0.750000 0.750000 0.500000
O O9 0.619888 0.795286 0.347581
O O10 0.536052 0.749408 0.391579
O O11 0.638079 0.000000 0.427629
O O12 0.906912 0.500000 0.738414
O O13 0.049051 0.291765 0.802956
O O14 0.128764 0.780627 0.758636
O O15 0.076929 0.000000 0.665323
O O16 0.867997 0.500000 0.206496
O O17 0.739940 0.691797 0.090000
O O18 0.154255 0.000000 0.978410
O O19 0.250000 0.750000 0.000000
#
# Coordination Sequence:
#
# PCOD9211829 Si02
#       7
#     8   8   8   8   8   8   8
#     4  12  24  38  58  84 116 152 194 243 290 341
#     4  11  24  40  57  79 111 152 197 245 296 349
#     4  10  21  40  66  94 123 152 185 228 277 334
#     4   9  19  37  60  86 118 154 189 231 285 340
#     4  11  22  37  60  86 114 150 189 229 277 337
#     4   9  19  36  56  79 109 145 188 238 288 339
#     4  11  22  35  54  79 109 146 189 240 293 342
#
# _framework density 19.703278000000001
#
# number of rings (size 3 to 8) (size 9 to 14) (size 15 to 20)
#    0.000    1.571    0.000    6.429    0.000    8.571 
#    0.000    0.714    0.000    4.286    0.000    0.000 
#    0.000    0.000    0.000    0.000    0.000    0.000 
#
# Total GULP energy -156563.518628 kJ/mol
# GULP energy per Si atom -5591.554237 kJ/mol
# Density = 1.965843 g / cm^3
# Si number density = 19.703278 Si / 1000 Ang^3
#
#
#
# Elastic Constant Matrix: (Units=GPa)
#
#
# Indices 1 2 3 4 5 6 
#
# 1 96.0734 43.0888 24.9385 0.0000 28.2089 0.0000
# 2 43.0888 102.2879 41.0406 0.0000 17.3553 0.0000
# 3 24.9385 41.0406 79.7254 0.0000 30.6126 0.0000
# 4 0.0000 0.0000 0.0000 31.2683 0.0000 2.1239
# 5 28.2089 17.3553 30.6126 0.0000 29.6458 0.0000
# 6 0.0000 0.0000 0.0000 2.1239 0.0000 29.1599
#
#
#
# Elastic Compliance Matrix: (Units=1/GPa)
#
#
# Indices 1 2 3 4 5 6 
#
# 1 0.017013 -0.006003 0.004366 0.000000 -0.017182 0.000000
# 2 -0.006003 0.014461 -0.007471 0.000000 0.004961 0.000000
# 3 0.004366 -0.007471 0.024754 0.000000 -0.025342 0.000000
# 4 0.000000 0.000000 0.000000 0.032140 0.000000 -0.002341
# 5 -0.017182 0.004961 -0.025342 0.000000 0.073345 0.000000
# 6 0.000000 0.000000 0.000000 -0.002341 0.000000 0.034464
#
#
# Mechanical properties :
#
#
# Convention : Reuss Voigt Hill
#
# Bulk Modulus (GPa) = 26.30805 55.13582 40.72194
# Shear Modulus (GPa) = 22.02017 29.28271 25.65144
#
# Velocity S-wave (km/s) = 3.34666 3.85929 3.61208
# Velocity P-wave (km/s) = 5.32115 6.92117 6.17322
#
# Compressibility (1/GPa) = 0.03801117
#
# Stress axis : x y z
#
# Youngs Moduli (GPa) = 58.77930 69.15109 40.39739
#
# Poissons Ratio (x) = 0.41512 -0.17638
# Poissons Ratio (y) = 0.35286 0.30183
# Poissons Ratio (z) = -0.25664 0.51666
#
# Static dielectric constant tensor:
#      x y z
#    x 1.718590 0.000000 -0.004970 
#    y 0.000000 1.657910 0.000000 
#    z -0.004970 0.000000 1.689090 
# 
# From -- ./inp_files/363173.got.cif
#   From: 2010.05.17/outbox.cif.g08.bks.cpg/sg12_182_cif.got.tgz:363173.got - 2010.06.03 13:09:07.
