data_PCOD9211705
_publ_section_title
;
Structure prediction by ZEFSAII (Michael W. Deem and Ramdas Pophale) SiO2 
 PCOD9211705
Probable space group: C 2/M
;
_chemical_formula_sum "Si O2"
_cell_formula_units_Z 58
_cell_length_a 20.919111
_cell_length_b 7.733292
_cell_length_c 23.466424
_cell_angle_alpha 90.000000
_cell_angle_beta 135.195684
_cell_angle_gamma 90.000000
_cell_volume 2675.168934
_symmetry_space_group_name_H-M "C 2/M"
_symmetry_group_IT_number 12
_symmetry_cell_setting 'monoclinic'
loop_
_space_group_symop_operation_xyz
x,y,z
-x,y,-z
-x,-y,-z
x,-y,z
1/2+x,1/2+y,z
1/2-x,1/2+y,-z
1/2-x,1/2-y,-z
1/2+x,1/2-y,z
loop_
_atom_site_type_symbol
_atom_site_label
_atom_site_fract_x
_atom_site_fract_y
_atom_site_fract_z
Si Si1 0.136868 0.694144 0.581177
Si Si2 0.152786 0.798655 0.464436
Si Si3 0.012552 0.297697 0.848664
Si Si4 0.208705 0.702118 0.803434
Si Si5 0.808773 0.706606 0.981457
Si Si6 0.515404 0.210608 0.720817
Si Si7 0.000000 0.000000 0.500000
Si Si8 0.814682 0.206055 0.761690
O O1 0.113354 0.500000 0.587087
O O2 0.132667 0.699185 0.510042
O O3 0.240298 0.730208 0.665255
O O4 0.072971 0.845544 0.563242
O O5 0.250000 0.750000 0.500000
O O6 0.073950 0.767673 0.368924
O O7 0.152470 0.000000 0.480677
O O8 0.035473 0.500000 0.857013
O O9 0.911789 0.282488 0.808686
O O10 0.016202 0.225996 0.786733
O O11 0.089987 0.228133 0.939741
O O12 0.196059 0.500000 0.781261
O O13 0.262547 0.714974 0.896614
O O14 0.107557 0.772893 0.748736
O O15 0.268118 0.776192 0.789671
O O16 0.809091 0.500000 0.972770
O O17 0.750000 0.750000 0.000000
O O18 0.515368 0.000000 0.721282
O O19 0.829618 0.000000 0.777095
#
# Coordination Sequence:
#
# PCOD9211705 Si02
#       8
#     8   8   8   8   8   8   2   8
#     4  11  25  46  69  99 137 178 227 284 334 402
#     4  12  25  42  64  97 133 173 225 280 338 401
#     4  10  22  40  65  91 127 172 215 265 327 395
#     4  10  22  42  64  93 128 165 210 264 320 384
#     4  11  22  40  64  96 127 164 209 263 325 383
#     4  10  21  40  65  91 122 168 218 271 331 389
#     4  12  26  44  68 102 128 182 230 262 348 404
#     4  10  24  42  65  94 131 174 216 266 328 385
#
# _framework density 21.680872999999998
#
# number of rings (size 3 to 8) (size 9 to 14) (size 15 to 20)
#    0.000    1.379    2.069    2.690    2.897    5.517 
#    0.000    2.759    0.000    0.000    0.000    0.000 
#    0.000    0.000    0.000    0.000    0.000    0.000 
#
# Total GULP energy -161884.680846 kJ/mol
# GULP energy per Si atom -5582.230374 kJ/mol
# Density = 2.163153 g / cm^3
# Si number density = 21.680873 Si / 1000 Ang^3
#
#
#
# Elastic Constant Matrix: (Units=GPa)
#
#
# Indices 1 2 3 4 5 6 
#
# 1 84.0670 0.7946 29.0961 0.0000 12.3480 0.0000
# 2 0.7946 81.6921 4.5899 0.0000 8.6604 0.0000
# 3 29.0961 4.5899 118.5222 0.0000 21.6908 0.0000
# 4 0.0000 0.0000 0.0000 27.8822 0.0000 8.7590
# 5 12.3480 8.6604 21.6908 0.0000 39.5126 0.0000
# 6 0.0000 0.0000 0.0000 8.7590 0.0000 18.8338
#
#
#
# Elastic Compliance Matrix: (Units=1/GPa)
#
#
# Indices 1 2 3 4 5 6 
#
# 1 0.013246 0.000312 -0.002772 0.000000 -0.002686 0.000000
# 2 0.000312 0.012540 -0.000046 0.000000 -0.002821 0.000000
# 3 -0.002772 -0.000046 0.009960 0.000000 -0.004591 0.000000
# 4 0.000000 0.000000 0.000000 0.042002 0.000000 -0.019534
# 5 -0.002686 -0.002821 -0.004591 0.000000 0.029286 0.000000
# 6 0.000000 0.000000 0.000000 -0.019534 0.000000 0.062181
#
#
# Mechanical properties :
#
#
# Convention : Reuss Voigt Hill
#
# Bulk Modulus (GPa) = 32.53869 39.24918 35.89394
# Shear Modulus (GPa) = 27.10441 33.89908 30.50175
#
# Velocity S-wave (km/s) = 3.53959 3.95846 3.75487
# Velocity P-wave (km/s) = 5.63431 6.24780 5.94897
#
# Compressibility (1/GPa) = 0.03073264
#
# Stress axis : x y z
#
# Youngs Moduli (GPa) = 75.49228 79.74695 100.40333
#
# Poissons Ratio (x) = -0.02486 0.27836
# Poissons Ratio (y) = -0.02353 0.00461
# Poissons Ratio (z) = 0.20929 0.00366
#
# Static dielectric constant tensor:
#      x y z
#    x 2.424960 -0.000010 -0.356660 
#    y -0.000010 1.926780 0.000000 
#    z -0.356660 0.000000 1.920780 
# 
# From -- ./inp_files/346584.got.cif
#   From: 2010.05.17/outbox.cif.g08.bks.cpg/sg12_174_cif.got.tgz:346584.got - 2010.06.03 13:09:07.
