data_PCOD9211006
_publ_section_title
;
Structure prediction by ZEFSAII (Michael W. Deem and Ramdas Pophale) SiO2 
 PCOD9211006
Probable space group: C 2/M
;
_chemical_formula_sum "Si O2"
_cell_formula_units_Z 56
_cell_length_a 11.861757
_cell_length_b 30.174406
_cell_length_c 10.905844
_cell_angle_alpha 90.000000
_cell_angle_beta 37.360553
_cell_angle_gamma 90.000000
_cell_volume 2368.717055
_symmetry_space_group_name_H-M "C 2/M"
_symmetry_group_IT_number 12
_symmetry_cell_setting 'monoclinic'
loop_
_space_group_symop_operation_xyz
x,y,z
-x,y,-z
-x,-y,-z
x,-y,z
1/2+x,1/2+y,z
1/2-x,1/2+y,-z
1/2-x,1/2-y,-z
1/2+x,1/2-y,z
loop_
_atom_site_type_symbol
_atom_site_label
_atom_site_fract_x
_atom_site_fract_y
_atom_site_fract_z
Si Si1 0.719462 0.905993 0.318687
Si Si2 0.420170 0.447332 0.906856
Si Si3 0.737877 0.700257 0.056394
Si Si4 0.945316 0.451861 0.905538
Si Si5 0.119557 0.187928 0.770898
Si Si6 0.213074 0.217657 0.350367
Si Si7 0.551810 0.139696 0.808196
O O1 0.500000 0.917098 0.500000
O O2 0.813369 0.921139 0.108228
O O3 0.747201 0.853689 0.322604
O O4 0.869159 0.929596 0.281273
O O5 0.427808 0.500000 0.926392
O O6 0.275332 0.441960 0.919387
O O7 0.536192 0.682012 0.198979
O O8 0.795703 0.708160 0.145402
O O9 0.750000 0.750000 0.000000
O O10 0.886365 0.665186 0.881442
O O11 0.980355 0.500000 0.816156
O O12 0.058899 0.410309 0.755273
O O13 0.000000 0.455690 0.000000
O O14 0.216275 0.235280 0.663002
O O15 0.000000 0.192416 0.000000
O O16 0.277285 0.172785 0.361117
O O17 0.000000 0.221322 0.500000
O O18 0.500000 0.134226 0.000000
#
# Coordination Sequence:
#
# PCOD9211006 Si02
#       7
#     8   8   8   8   8   8   8
#     4  11  23  39  59  92 126 163 202 254 309 362
#     4  10  21  39  65  94 122 161 206 250 307 371
#     4  11  20  36  59  79 109 157 197 239 294 358
#     4   9  18  35  64  92 115 151 203 253 302 364
#     4  12  21  38  59  82 117 155 201 242 295 360
#     4  11  23  37  52  84 116 150 198 246 294 354
#     4   9  18  35  56  78 107 149 191 232 292 354
#
# _framework density 23.641490999999998
#
# number of rings (size 3 to 8) (size 9 to 14) (size 15 to 20)
#    0.000    1.571    4.286    2.571    0.000    1.714 
#    2.571    0.000    0.000    0.429    0.000    0.000 
#    0.000    0.000    0.000    0.000    0.000    0.000 
#
# Total GULP energy -156205.877710 kJ/mol
# GULP energy per Si atom -5578.781347 kJ/mol
# Density = 2.358768 g / cm^3
# Si number density = 23.641491 Si / 1000 Ang^3
#
#
#
# Elastic Constant Matrix: (Units=GPa)
#
#
# Indices 1 2 3 4 5 6 
#
# 1 98.4080 21.1859 49.4352 0.0000 -39.9174 0.0000
# 2 21.1859 173.8628 48.9174 0.0000 -17.8259 0.0000
# 3 49.4352 48.9174 131.6871 0.0000 -44.2845 0.0000
# 4 0.0000 0.0000 0.0000 26.0445 0.0000 -18.1265
# 5 -39.9174 -17.8259 -44.2845 0.0000 47.5585 0.0000
# 6 0.0000 0.0000 0.0000 -18.1265 0.0000 34.1947
#
#
#
# Elastic Compliance Matrix: (Units=1/GPa)
#
#
# Indices 1 2 3 4 5 6 
#
# 1 0.015818 -0.000187 -0.002078 0.000000 0.011271 0.000000
# 2 -0.000187 0.006428 -0.002271 0.000000 0.000137 0.000000
# 3 -0.002078 -0.002271 0.012149 0.000000 0.008717 0.000000
# 4 0.000000 0.000000 0.000000 0.060843 0.000000 0.032253
# 5 0.011271 0.000137 0.008717 0.000000 0.038655 0.000000
# 6 0.000000 0.000000 0.000000 0.032253 0.000000 0.046341
#
#
# Mechanical properties :
#
#
# Convention : Reuss Voigt Hill
#
# Bulk Modulus (GPa) = 39.49212 71.44830 55.47021
# Shear Modulus (GPa) = 25.28468 40.52086 32.90277
#
# Velocity S-wave (km/s) = 3.27388 4.14451 3.73465
# Velocity P-wave (km/s) = 5.57062 7.29313 6.48928
#
# Compressibility (1/GPa) = 0.02532151
#
# Stress axis : x y z
#
# Youngs Moduli (GPa) = 63.21905 155.58006 82.31124
#
# Poissons Ratio (x) = 0.02912 0.17106
# Poissons Ratio (y) = 0.01183 0.18695
# Poissons Ratio (z) = 0.13138 0.35336
#
# Static dielectric constant tensor:
#      x y z
#    x 1.992890 0.000000 -0.007320 
#    y 0.000000 1.971760 0.000000 
#    z -0.007320 0.000000 1.914670 
# 
# From -- ./inp_files/210020.got.cif
#   From: 2010.05.17/outbox.cif.g08.bks.cpg/sg12_106_cif.got.tgz:210020.got - 2010.06.03 13:09:07.
