data_PCOD9211735
_publ_section_title
;
Structure prediction by ZEFSAII (Michael W. Deem and Ramdas Pophale) SiO2 
 PCOD9211735
Probable space group: C 2/M
;
_chemical_formula_sum "Si O2"
_cell_formula_units_Z 58
_cell_length_a 21.767959
_cell_length_b 22.298510
_cell_length_c 9.190817
_cell_angle_alpha 90.000000
_cell_angle_beta 143.744369
_cell_angle_gamma 90.000000
_cell_volume 2638.279753
_symmetry_space_group_name_H-M "C 2/M"
_symmetry_group_IT_number 12
_symmetry_cell_setting 'monoclinic'
loop_
_space_group_symop_operation_xyz
x,y,z
-x,y,-z
-x,-y,-z
x,-y,z
1/2+x,1/2+y,z
1/2-x,1/2+y,-z
1/2-x,1/2-y,-z
1/2+x,1/2-y,z
loop_
_atom_site_type_symbol
_atom_site_label
_atom_site_fract_x
_atom_site_fract_y
_atom_site_fract_z
Si Si1 0.066959 0.830942 0.490994
Si Si2 0.045317 0.431597 0.249187
Si Si3 0.407176 0.138487 0.212547
Si Si4 0.301983 0.428962 0.098781
Si Si5 0.225342 0.723867 0.224277
Si Si6 0.500000 0.500000 0.000000
Si Si7 0.581923 0.603138 0.977696
Si Si8 0.264951 0.154915 0.453228
O O1 0.120128 0.893875 0.643401
O O2 0.162455 0.790074 0.629275
O O3 0.000000 0.809450 0.500000
O O4 0.989177 0.842032 0.209628
O O5 0.075247 0.500000 0.348906
O O6 0.141009 0.385426 0.424280
O O7 0.958110 0.404965 0.188679
O O8 0.000000 0.434012 0.000000
O O9 0.500000 0.151836 0.500000
O O10 0.310133 0.103012 0.098482
O O11 0.360692 0.198029 0.048775
O O12 0.295275 0.500000 0.113153
O O13 0.349485 0.416862 0.030110
O O14 0.230475 0.793110 0.275681
O O15 0.211961 0.686220 0.348891
O O16 0.509138 0.551192 0.891725
O O17 0.662473 0.614782 0.261925
#
# Coordination Sequence:
#
# PCOD9211735 Si02
#       8
#     8   8   8   8   8   2   8   8
#     4   9  21  41  65  94 136 172 231 283 344 412
#     4  11  24  44  68 104 140 181 236 289 348 414
#     4  11  23  43  71 105 139 183 236 288 350 422
#     4  10  21  40  65  92 139 184 224 280 350 416
#     4  10  23  46  67  99 131 185 234 278 358 403
#     4  12  24  36  62  92 136 164 224 270 338 414
#     4  11  23  39  59 101 127 175 221 282 341 402
#     4  11  24  44  70  94 140 178 230 291 341 417
#
# _framework density 21.984024000000002
#
# number of rings (size 3 to 8) (size 9 to 14) (size 15 to 20)
#    0.000    1.517    2.069    2.069    1.931    4.138 
#    0.000   15.172    0.000    0.000    0.000    0.000 
#    0.000    0.000    0.000    0.000    0.000    0.000 
#
# Total GULP energy -161915.259576 kJ/mol
# GULP energy per Si atom -5583.284813 kJ/mol
# Density = 2.193399 g / cm^3
# Si number density = 21.984024 Si / 1000 Ang^3
#
#
#
# Elastic Constant Matrix: (Units=GPa)
#
#
# Indices 1 2 3 4 5 6 
#
# 1 125.3651 38.8001 37.5467 0.0000 18.6829 0.0000
# 2 38.8001 90.0011 28.8987 0.0000 10.3930 0.0000
# 3 37.5467 28.8987 102.6317 0.0000 11.6525 0.0000
# 4 0.0000 0.0000 0.0000 25.8840 0.0000 7.7150
# 5 18.6829 10.3930 11.6525 0.0000 26.8935 0.0000
# 6 0.0000 0.0000 0.0000 7.7150 0.0000 22.3035
#
#
#
# Elastic Compliance Matrix: (Units=1/GPa)
#
#
# Indices 1 2 3 4 5 6 
#
# 1 0.010400 -0.003153 -0.002351 0.000000 -0.004988 0.000000
# 2 -0.003153 0.013474 -0.002417 0.000000 -0.001970 0.000000
# 3 -0.002351 -0.002417 0.011561 0.000000 -0.002442 0.000000
# 4 0.000000 0.000000 0.000000 0.043075 0.000000 -0.014900
# 5 -0.004988 -0.001970 -0.002442 0.000000 0.042468 0.000000
# 6 0.000000 0.000000 0.000000 -0.014900 0.000000 0.049990
#
#
# Mechanical properties :
#
#
# Convention : Reuss Voigt Hill
#
# Bulk Modulus (GPa) = 51.03493 58.72098 54.87795
# Shear Modulus (GPa) = 25.86118 29.19969 27.53043
#
# Velocity S-wave (km/s) = 3.43353 3.64843 3.54261
# Velocity P-wave (km/s) = 6.24370 6.67209 6.46145
#
# Compressibility (1/GPa) = 0.01959442
#
# Stress axis : x y z
#
# Youngs Moduli (GPa) = 96.15578 74.21933 86.49500
#
# Poissons Ratio (x) = 0.23399 0.20332
# Poissons Ratio (y) = 0.30315 0.20905
# Poissons Ratio (z) = 0.22603 0.17938
#
# Static dielectric constant tensor:
#      x y z
#    x 1.792140 0.000000 -0.010340 
#    y 0.000000 1.746080 0.000000 
#    z -0.010340 0.000000 1.810460 
# 
# From -- ./inp_files/90829.got.cif
#   From: 2010.05.17/outbox.cif.g08.bks.cpg/sg12_46_cif.got.tgz:90829.got - 2010.06.03 13:09:07.
