data_PCOD9211635
_publ_section_title
;
Structure prediction by ZEFSAII (Michael W. Deem and Ramdas Pophale) SiO2 
 PCOD9211635
Probable space group: C 2/M
;
_chemical_formula_sum "Si O2"
_cell_formula_units_Z 64
_cell_length_a 29.542059
_cell_length_b 15.107202
_cell_length_c 8.966003
_cell_angle_alpha 90.000000
_cell_angle_beta 126.250514
_cell_angle_gamma 90.000000
_cell_volume 3226.973218
_symmetry_space_group_name_H-M "C 2/M"
_symmetry_group_IT_number 12
_symmetry_cell_setting 'monoclinic'
loop_
_space_group_symop_operation_xyz
x,y,z
-x,y,-z
-x,-y,-z
x,-y,z
1/2+x,1/2+y,z
1/2-x,1/2+y,-z
1/2-x,1/2-y,-z
1/2+x,1/2-y,z
loop_
_atom_site_type_symbol
_atom_site_label
_atom_site_fract_x
_atom_site_fract_y
_atom_site_fract_z
Si Si1 0.558465 0.275676 0.684305
Si Si2 0.236047 0.394267 0.879239
Si Si3 0.613538 0.898971 0.293815
Si Si4 0.758024 0.654611 0.442835
Si Si5 0.940625 0.767776 0.959453
Si Si6 0.393306 0.897101 0.362742
Si Si7 0.154508 0.893649 0.724921
Si Si8 0.354823 0.599408 0.639673
O O1 0.500000 0.307114 0.500000
O O2 0.570372 0.176634 0.647452
O O3 0.608563 0.338731 0.725938
O O4 0.555362 0.274357 0.855801
O O5 0.239534 0.500000 0.851726
O O6 0.246826 0.344240 0.745541
O O7 0.172147 0.379210 0.804465
O O8 0.283553 0.372862 0.091648
O O9 0.680070 0.882021 0.401931
O O10 0.578639 0.829323 0.131021
O O11 0.602360 0.886512 0.449281
O O12 0.600398 0.000000 0.229647
O O13 0.750000 0.750000 0.500000
O O14 0.707079 0.599020 0.410897
O O15 0.893648 0.834331 0.806152
O O16 0.000000 0.788908 0.000000
O O17 0.406127 0.000000 0.352140
O O18 0.149501 0.871151 0.540761
O O19 0.146374 0.000000 0.725086
O O20 0.378086 0.500000 0.688753
#
# Coordination Sequence:
#
# PCOD9211635 Si02
#       8
#     8   8   8   8   8   8   8   8
#     4  12  26  42  64  89 119 161 205 260 306 365
#     4   9  19  38  61  91 126 164 203 246 302 364
#     4  10  21  40  64  92 128 167 206 255 306 362
#     4  11  20  34  62  96 130 165 202 251 302 366
#     4  12  26  44  65  90 122 160 211 259 309 372
#     4   9  20  40  65  91 124 163 203 250 304 359
#     4  10  23  41  64  92 125 162 204 253 306 364
#     4  11  23  42  65  92 127 164 204 255 308 368
#
# _framework density 19.832826000000001
#
# number of rings (size 3 to 8) (size 9 to 14) (size 15 to 20)
#    0.000    1.500    1.250    4.875    1.750    4.500 
#    0.000    1.250    0.000    0.000    0.000    0.000 
#    0.000    0.000    0.000    0.000    0.000    0.000 
#
# Total GULP energy -178963.700021 kJ/mol
# GULP energy per Si atom -5592.615626 kJ/mol
# Density = 1.978769 g / cm^3
# Si number density = 19.832826 Si / 1000 Ang^3
#
#
#
# Elastic Constant Matrix: (Units=GPa)
#
#
# Indices 1 2 3 4 5 6 
#
# 1 63.5583 4.2864 10.3547 0.0000 -10.0625 0.0000
# 2 4.2864 52.1787 25.7381 0.0000 -11.7108 0.0000
# 3 10.3547 25.7381 93.7946 0.0000 -5.7849 0.0000
# 4 0.0000 0.0000 0.0000 38.9028 0.0000 -51.1742
# 5 -10.0625 -11.7108 -5.7849 0.0000 19.8124 0.0000
# 6 0.0000 0.0000 0.0000 -51.1742 0.0000 68.5202
#
#
#
# Elastic Compliance Matrix: (Units=1/GPa)
#
#
# Indices 1 2 3 4 5 6 
#
# 1 0.017376 0.001508 -0.001765 0.000000 0.009201 0.000000
# 2 0.001508 0.025226 -0.006234 0.000000 0.013856 0.000000
# 3 -0.001765 -0.006234 0.012510 0.000000 -0.000928 0.000000
# 4 0.000000 0.000000 0.000000 1.463322 0.000000 1.092881
# 5 0.009201 0.013856 -0.000928 0.000000 0.063066 0.000000
# 6 0.000000 0.000000 0.000000 1.092881 0.000000 0.830812
#
#
# Mechanical properties :
#
#
# Convention : Reuss Voigt Hill
#
# Bulk Modulus (GPa) = 23.73564 32.25444 27.99504
# Shear Modulus (GPa) = 2.04974 36.72389 19.38682
#
# Velocity S-wave (km/s) = 1.01772 4.30777 3.12991
# Velocity P-wave (km/s) = 3.65716 6.40633 5.21612
#
# Compressibility (1/GPa) = 0.04213073
#
# Stress axis : x y z
#
# Youngs Moduli (GPa) = 57.55029 39.64157 79.93708
#
# Poissons Ratio (x) = -0.05978 0.14106
# Poissons Ratio (y) = -0.08679 0.49834
# Poissons Ratio (z) = 0.10155 0.24713
#
# Static dielectric constant tensor:
#      x y z
#    x 1.669570 0.000000 0.010750 
#    y 0.000000 1.727060 0.000000 
#    z 0.010750 0.000000 1.672050 
# 
# From -- ./inp_files/111992.got.cif
#   From: 2010.05.17/outbox.cif.g08.bks.cpg/sg12_56_cif.got.tgz:111992.got - 2010.06.03 13:09:07.
