data_PCOD9211748
_publ_section_title
;
Structure prediction by ZEFSAII (Michael W. Deem and Ramdas Pophale) SiO2 
 PCOD9211748
Probable space group: C 2/M
;
_chemical_formula_sum "Si O2"
_cell_formula_units_Z 56
_cell_length_a 8.469794
_cell_length_b 21.411657
_cell_length_c 14.849064
_cell_angle_alpha 90.000000
_cell_angle_beta 93.464315
_cell_angle_gamma 90.000000
_cell_volume 2687.991311
_symmetry_space_group_name_H-M "C 2/M"
_symmetry_group_IT_number 12
_symmetry_cell_setting 'monoclinic'
loop_
_space_group_symop_operation_xyz
x,y,z
-x,y,-z
-x,-y,-z
x,-y,z
1/2+x,1/2+y,z
1/2-x,1/2+y,-z
1/2-x,1/2-y,-z
1/2+x,1/2-y,z
loop_
_atom_site_type_symbol
_atom_site_label
_atom_site_fract_x
_atom_site_fract_y
_atom_site_fract_z
Si Si1 0.402354 0.381689 0.872992
Si Si2 0.897404 0.500000 0.849492
Si Si3 0.220368 0.661880 0.694444
Si Si4 0.129118 0.293344 0.274116
Si Si5 0.614510 0.758806 0.067379
Si Si6 0.174634 0.093436 0.745739
Si Si7 0.739058 0.000000 0.952501
Si Si8 0.583395 0.429625 0.412314
O O1 0.271220 0.369863 0.790700
O O2 0.433482 0.312699 0.912879
O O3 0.563845 0.399966 0.829153
O O4 0.338799 0.437247 0.933351
O O5 0.829536 0.557123 0.786639
O O6 0.082944 0.500000 0.881698
O O7 0.814564 0.500000 0.945299
O O8 0.325310 0.724766 0.690622
O O9 0.277768 0.614534 0.619769
O O10 0.038640 0.682765 0.695370
O O11 0.131050 0.288875 0.164803
O O12 0.267164 0.342354 0.296237
O O13 0.500000 0.798789 0.000000
O O14 0.750000 0.750000 0.000000
O O15 0.054037 0.066268 0.668114
O O16 0.500000 0.406133 0.500000
O O17 0.642953 0.500000 0.431163
#
# Coordination Sequence:
#
# PCOD9211748 Si02
#       8
#     8   4   8   8   8   8   4   8
#     4  10  22  37  57  84 119 170 211 268 314 375
#     4  11  25  39  56  88 122 174 214 271 311 379
#     4  10  21  40  65  93 129 170 210 260 333 384
#     4  11  22  41  62  93 132 171 214 267 322 389
#     4  11  22  35  55  83 119 164 218 263 307 359
#     4  11  22  42  65  90 124 166 214 257 332 384
#     4  11  25  39  55  84 127 164 227 263 309 363
#     4  10  22  44  73 100 127 163 210 264 327 401
#
# _framework density 20.833400999999999
#
# number of rings (size 3 to 8) (size 9 to 14) (size 15 to 20)
#    0.000    1.429    0.714    6.429    7.000    0.571 
#    1.286    3.571    0.000    1.714    0.000    0.000 
#    0.000    0.000    0.000    0.000    0.000    0.000 
#
# Total GULP energy -156167.907138 kJ/mol
# GULP energy per Si atom -5577.425255 kJ/mol
# Density = 2.078598 g / cm^3
# Si number density = 20.833401 Si / 1000 Ang^3
#
#
#
# Elastic Constant Matrix: (Units=GPa)
#
#
# Indices 1 2 3 4 5 6 
#
# 1 96.7093 14.5486 18.9321 0.0000 -15.9012 0.0000
# 2 14.5486 80.2379 14.3943 0.0000 -12.9065 0.0000
# 3 18.9321 14.3943 62.3219 0.0000 -25.0606 0.0000
# 4 0.0000 0.0000 0.0000 17.1871 0.0000 -12.6198
# 5 -15.9012 -12.9065 -25.0606 0.0000 24.1175 0.0000
# 6 0.0000 0.0000 0.0000 -12.6198 0.0000 20.3496
#
#
#
# Elastic Compliance Matrix: (Units=1/GPa)
#
#
# Indices 1 2 3 4 5 6 
#
# 1 0.011685 -0.000952 -0.000750 0.000000 0.006415 0.000000
# 2 -0.000952 0.013719 -0.000309 0.000000 0.006393 0.000000
# 3 -0.000750 -0.000309 0.027621 0.000000 0.028041 0.000000
# 4 0.000000 0.000000 0.000000 0.106827 0.000000 0.066248
# 5 0.006415 0.006393 0.028041 0.000000 0.078252 0.000000
# 6 0.000000 0.000000 0.000000 0.066248 0.000000 0.090225
#
#
# Mechanical properties :
#
#
# Convention : Reuss Voigt Hill
#
# Bulk Modulus (GPa) = 20.40678 37.22434 28.81556
# Shear Modulus (GPa) = 14.33958 25.09045 19.71502
#
# Velocity S-wave (km/s) = 2.62639 3.47412 3.07957
# Velocity P-wave (km/s) = 4.36047 5.83088 5.14844
#
# Compressibility (1/GPa) = 0.04900332
#
# Stress axis : x y z
#
# Youngs Moduli (GPa) = 85.57852 72.88976 36.20493
#
# Poissons Ratio (x) = 0.06941 0.02716
# Poissons Ratio (y) = 0.08149 0.01117
# Poissons Ratio (z) = 0.06419 0.02249
#
# Static dielectric constant tensor:
#      x y z
#    x 1.723390 0.000000 0.052170 
#    y 0.000000 1.758730 0.000000 
#    z 0.052170 0.000000 1.716090 
# 
# From -- ./inp_files/197565.got.cif
#   From: 2010.05.17/outbox.cif.g08.bks.cpg/sg12_99_cif.got.tgz:197565.got - 2010.06.03 13:09:07.
