data_PCOD9211638
_publ_section_title
;
Structure prediction by ZEFSAII (Michael W. Deem and Ramdas Pophale) SiO2 
 PCOD9211638
Probable space group: C 2/M
;
_chemical_formula_sum "Si O2"
_cell_formula_units_Z 64
_cell_length_a 11.535027
_cell_length_b 18.470420
_cell_length_c 26.183506
_cell_angle_alpha 90.000000
_cell_angle_beta 147.330908
_cell_angle_gamma 90.000000
_cell_volume 3011.237681
_symmetry_space_group_name_H-M "C 2/M"
_symmetry_group_IT_number 12
_symmetry_cell_setting 'monoclinic'
loop_
_space_group_symop_operation_xyz
x,y,z
-x,y,-z
-x,-y,-z
x,-y,z
1/2+x,1/2+y,z
1/2-x,1/2+y,-z
1/2-x,1/2-y,-z
1/2+x,1/2-y,z
loop_
_atom_site_type_symbol
_atom_site_label
_atom_site_fract_x
_atom_site_fract_y
_atom_site_fract_z
Si Si1 0.190483 0.168863 0.311949
Si Si2 0.228382 0.916663 0.811929
Si Si3 0.679446 0.833341 0.471422
Si Si4 0.052566 0.306356 0.916992
Si Si5 0.905197 0.916418 0.352535
Si Si6 0.338590 0.417761 0.987321
Si Si7 0.872662 0.331696 0.668766
Si Si8 0.658036 0.662170 0.178087
O O1 0.446678 0.154826 0.410889
O O2 0.146694 0.247126 0.321862
O O3 0.159692 0.164298 0.239447
O O4 0.006887 0.114001 0.262062
O O5 0.428404 0.866865 0.905007
O O6 0.222077 0.911876 0.747843
O O7 0.251239 0.000000 0.836052
O O8 0.750000 0.750000 0.500000
O O9 0.677353 0.846214 0.409430
O O10 0.860758 0.880812 0.565453
O O11 0.868701 0.247432 0.842755
O O12 0.250000 0.250000 0.000000
O O13 0.155940 0.357528 0.912163
O O14 0.782416 0.874055 0.351189
O O15 0.927635 0.000000 0.374596
O O16 0.260670 0.500000 0.965637
O O17 0.471899 0.388181 0.085722
O O18 0.500000 0.416670 0.000000
O O19 0.117233 0.359074 0.763673
#
# Coordination Sequence:
#
# PCOD9211638 Si02
#       8
#     8   8   8   8   8   8   8   8
#     4  11  23  40  66  93 129 172 216 265 326 385
#     4  11  24  42  65  95 131 176 218 264 326 396
#     4  11  23  39  63  97 129 173 218 271 324 385
#     4  10  21  40  64  93 123 161 209 265 319 382
#     4  11  25  41  63  95 132 172 220 273 327 383
#     4  10  23  40  62  92 127 164 205 261 324 388
#     4  11  22  39  64  93 128 165 220 271 319 382
#     4  10  23  39  64  95 123 163 213 269 319 385
#
# _framework density 21.253720000000001
#
# number of rings (size 3 to 8) (size 9 to 14) (size 15 to 20)
#    0.000    1.375    2.500    2.250    3.500    4.000 
#    0.000    5.625    0.000    3.750    0.000    0.000 
#    0.000    0.000    0.000    0.000    0.000    0.000 
#
# Total GULP energy -178360.723237 kJ/mol
# GULP energy per Si atom -5573.772601 kJ/mol
# Density = 2.120535 g / cm^3
# Si number density = 21.253720 Si / 1000 Ang^3
#
#
#
# Elastic Constant Matrix: (Units=GPa)
#
#
# Indices 1 2 3 4 5 6 
#
# 1 671.0258 112.1654 216.2813 -0.0013 52.5030 -0.0001
# 2 112.1654 152.3189 63.7227 -0.0001 26.3629 -0.0001
# 3 216.2813 63.7227 126.7093 -0.0004 30.0592 -0.0002
# 4 -0.0013 -0.0001 -0.0004 7.1390 0.0000 7.0370
# 5 52.5030 26.3629 30.0592 0.0000 39.0863 -0.0001
# 6 -0.0001 -0.0001 -0.0002 7.0370 -0.0001 30.2797
#
#
#
# Elastic Compliance Matrix: (Units=1/GPa)
#
#
# Indices 1 2 3 4 5 6 
#
# 1 0.003314 -0.000085 -0.005592 0.000000 -0.000094 0.000000
# 2 -0.000085 0.008600 -0.003463 0.000000 -0.003023 0.000000
# 3 -0.005592 -0.003463 0.020601 0.000000 -0.005996 0.000000
# 4 0.000000 0.000000 0.000000 0.181699 -0.000001 -0.042227
# 5 -0.000094 -0.003023 -0.005996 -0.000001 0.032361 0.000000
# 6 0.000000 0.000000 0.000000 -0.042227 0.000000 0.042839
#
#
# Mechanical properties :
#
#
# Convention : Reuss Voigt Hill
#
# Bulk Modulus (GPa) = 70.24680 192.71032 131.47856
# Shear Modulus (GPa) = 16.00316 52.49332 34.24824
#
# Velocity S-wave (km/s) = 2.74699 4.97514 4.01858
# Velocity P-wave (km/s) = 6.57149 11.12973 9.13935
#
# Compressibility (1/GPa) = 0.01423552
#
# Stress axis : x y z
#
# Youngs Moduli (GPa) = 301.73227 116.28537 48.54099
#
# Poissons Ratio (x) = 0.00986 0.27144
# Poissons Ratio (y) = 0.02559 0.16809
# Poissons Ratio (z) = 1.68731 0.40267
#
# Static dielectric constant tensor:
#      x y z
#    x 1.682300 0.000000 -0.020240 
#    y 0.000000 1.806420 0.000000 
#    z -0.020240 0.000000 1.826990 
# 
# From -- ./inp_files/374482.got.cif
#   From: 2010.05.17/outbox.cif.g08.bks.cpg/sg12_188_cif.got.tgz:374482.got - 2010.06.03 13:09:07.
