data_PCOD9211808
_publ_section_title
;
Structure prediction by ZEFSAII (Michael W. Deem and Ramdas Pophale) SiO2 
 PCOD9211808
Probable space group: C 2/M
;
_chemical_formula_sum "Si O2"
_cell_formula_units_Z 56
_cell_length_a 20.456701
_cell_length_b 8.695843
_cell_length_c 16.670429
_cell_angle_alpha 90.000000
_cell_angle_beta 91.936554
_cell_angle_gamma 90.000000
_cell_volume 2963.779911
_symmetry_space_group_name_H-M "C 2/M"
_symmetry_group_IT_number 12
_symmetry_cell_setting 'monoclinic'
loop_
_space_group_symop_operation_xyz
x,y,z
-x,y,-z
-x,-y,-z
x,-y,z
1/2+x,1/2+y,z
1/2-x,1/2+y,-z
1/2-x,1/2-y,-z
1/2+x,1/2-y,z
loop_
_atom_site_type_symbol
_atom_site_label
_atom_site_fract_x
_atom_site_fract_y
_atom_site_fract_z
Si Si1 0.321870 0.316557 0.521238
Si Si2 0.745295 0.182261 0.767923
Si Si3 0.008621 0.814297 0.750887
Si Si4 0.870343 0.682928 0.690912
Si Si5 0.950804 0.187301 0.067349
Si Si6 0.635656 0.683481 0.651975
Si Si7 0.301385 0.315523 0.065294
O O1 0.317039 0.500000 0.533519
O O2 0.250000 0.250000 0.500000
O O3 0.352049 0.240481 0.601136
O O4 0.364532 0.288395 0.442994
O O5 0.816482 0.244589 0.747861
O O6 0.695849 0.228162 0.694708
O O7 0.718331 0.259619 0.847278
O O8 0.747437 0.000000 0.777927
O O9 0.942022 0.738828 0.718605
O O10 0.026276 0.767343 0.842602
O O11 0.069165 0.775399 0.695131
O O12 0.001290 0.000000 0.749347
O O13 0.865609 0.500000 0.693912
O O14 0.875852 0.235496 0.050642
O O15 0.951184 0.000000 0.066266
O O16 0.000000 0.240537 0.000000
O O17 0.646781 0.500000 0.664390
O O18 0.299969 0.500000 0.062909
O O19 0.250000 0.250000 0.000000
#
# Coordination Sequence:
#
# PCOD9211808 Si02
#       7
#     8   8   8   8   8   8   8
#     4  11  22  38  63  94 126 164 211 261 316 375
#     4  12  24  40  65  92 123 167 216 262 314 376
#     4  10  21  41  65  90 125 168 211 254 311 380
#     4  12  26  42  61  91 130 166 209 266 319 372
#     4   9  19  37  63  92 124 164 206 249 303 372
#     4  10  21  40  66  92 124 165 207 260 317 377
#     4  11  23  41  64  95 131 166 210 261 314 371
#
# _framework density 18.894791000000001
#
# number of rings (size 3 to 8) (size 9 to 14) (size 15 to 20)
#    0.000    1.286    2.857    3.429    2.000    1.714 
#    0.000    2.857    0.000    2.143    0.000    0.000 
#    0.000    0.000    0.000    0.000    0.000    0.000 
#
# Total GULP energy -156552.689309 kJ/mol
# GULP energy per Si atom -5591.167475 kJ/mol
# Density = 1.885179 g / cm^3
# Si number density = 18.894791 Si / 1000 Ang^3
#
#
#
# Elastic Constant Matrix: (Units=GPa)
#
#
# Indices 1 2 3 4 5 6 
#
# 1 149.7922 45.6847 67.2836 0.0000 -2.0329 0.0000
# 2 45.6847 64.1779 29.4569 0.0000 -2.8714 0.0000
# 3 67.2836 29.4569 109.5975 0.0000 -9.9520 0.0000
# 4 0.0000 0.0000 0.0000 30.8321 0.0000 5.4588
# 5 -2.0329 -2.8714 -9.9520 0.0000 39.7603 0.0000
# 6 0.0000 0.0000 0.0000 5.4588 0.0000 31.6707
#
#
#
# Elastic Compliance Matrix: (Units=1/GPa)
#
#
# Indices 1 2 3 4 5 6 
#
# 1 0.010582 -0.005196 -0.005203 0.000000 -0.001137 0.000000
# 2 -0.005196 0.020326 -0.002215 0.000000 0.000648 0.000000
# 3 -0.005203 -0.002215 0.013175 0.000000 0.002872 0.000000
# 4 0.000000 0.000000 0.000000 0.033455 0.000000 -0.005766
# 5 -0.001137 0.000648 0.002872 0.000000 0.025858 0.000000
# 6 0.000000 0.000000 0.000000 -0.005766 0.000000 0.032569
#
#
# Mechanical properties :
#
#
# Convention : Reuss Voigt Hill
#
# Bulk Modulus (GPa) = 53.03455 67.60199 60.31827
# Shear Modulus (GPa) = 29.85496 32.52878 31.19187
#
# Velocity S-wave (km/s) = 3.97931 4.15369 4.06743
# Velocity P-wave (km/s) = 7.01730 7.67202 7.35195
#
# Compressibility (1/GPa) = 0.01885563
#
# Stress axis : x y z
#
# Youngs Moduli (GPa) = 94.49704 49.19924 75.90285
#
# Poissons Ratio (x) = 0.25562 0.39496
# Poissons Ratio (y) = 0.49096 0.16809
# Poissons Ratio (z) = 0.49171 0.10895
#
# Static dielectric constant tensor:
#      x y z
#    x 1.626500 0.000000 -0.013110 
#    y 0.000000 1.641980 0.000000 
#    z -0.013110 0.000000 1.650990 
# 
# From -- ./inp_files/231056.got.cif
#   From: 2010.05.17/outbox.cif.g08.bks.cpg/sg12_116_cif.got.tgz:231056.got - 2010.06.03 13:09:07.
