data_PCOD9211202
_publ_section_title
;
Structure prediction by ZEFSAII (Michael W. Deem and Ramdas Pophale) SiO2 
 PCOD9211202
Probable space group: C 2/M
;
_chemical_formula_sum "Si O2"
_cell_formula_units_Z 44
_cell_length_a 12.370968
_cell_length_b 28.416376
_cell_length_c 7.773795
_cell_angle_alpha 90.000000
_cell_angle_beta 50.817761
_cell_angle_gamma 90.000000
_cell_volume 2118.291949
_symmetry_space_group_name_H-M "C 2/M"
_symmetry_group_IT_number 12
_symmetry_cell_setting 'monoclinic'
loop_
_space_group_symop_operation_xyz
x,y,z
-x,y,-z
-x,-y,-z
x,-y,z
1/2+x,1/2+y,z
1/2-x,1/2+y,-z
1/2-x,1/2-y,-z
1/2+x,1/2-y,z
loop_
_atom_site_type_symbol
_atom_site_label
_atom_site_fract_x
_atom_site_fract_y
_atom_site_fract_z
Si Si1 0.846539 0.875541 0.982755
Si Si2 0.559455 0.863920 0.111787
Si Si3 0.046028 0.794084 0.639308
Si Si4 0.061521 0.945563 0.630933
Si Si5 0.257722 0.134662 0.530869
Si Si6 0.500000 0.226836 0.000000
O O1 0.698193 0.885420 0.045496
O O2 0.810907 0.861287 0.212562
O O3 0.945338 0.920601 0.865991
O O4 0.929414 0.833087 0.807786
O O5 0.423930 0.861897 0.369060
O O6 0.500000 0.888430 0.000000
O O7 0.593395 0.810758 0.012513
O O8 0.189080 0.823751 0.487831
O O9 0.000000 0.773813 0.500000
O O10 0.058946 0.758825 0.787281
O O11 0.000000 0.941489 0.500000
O O12 0.200096 0.914180 0.511747
O O13 0.083806 0.000000 0.649181
#
# Coordination Sequence:
#
# PCOD9211202 Si02
#       6
#     8   8   8   8   8   4
#     4  11  21  39  63  88 126 162 199 253 314 360
#     4  10  23  40  56  85 120 168 202 252 305 366
#     4  11  21  40  62  85 120 166 213 262 307 356
#     4  10  21  39  68  97 119 155 202 245 298 374
#     4  11  21  39  63  88 126 162 199 253 314 360
#     4  10  24  42  58  88 120 164 220 264 298 364
#
# _framework density 20.771450999999999
#
# number of rings (size 3 to 8) (size 9 to 14) (size 15 to 20)
#    0.545    0.909    1.818    6.545    0.000    4.364 
#    0.000    0.909    0.000    5.455    0.000    0.000 
#    0.000    0.000    0.000    0.000    0.000    0.000 
#
# Total GULP energy -122775.062644 kJ/mol
# GULP energy per Si atom -5580.684666 kJ/mol
# Density = 2.072417 g / cm^3
# Si number density = 20.771451 Si / 1000 Ang^3
#
#
#
# Elastic Constant Matrix: (Units=GPa)
#
#
# Indices 1 2 3 4 5 6 
#
# 1 98.5532 34.6147 26.2402 0.0000 -14.1358 0.0000
# 2 34.6147 87.1942 37.0485 0.0000 0.0390 0.0000
# 3 26.2402 37.0485 116.1523 0.0000 -7.9995 0.0000
# 4 0.0000 0.0000 0.0000 -4.6925 0.0000 -1.0568
# 5 -14.1358 0.0390 -7.9995 0.0000 40.2365 0.0000
# 6 0.0000 0.0000 0.0000 -1.0568 0.0000 11.8495
#
#
#
# Elastic Compliance Matrix: (Units=1/GPa)
#
#
# Indices 1 2 3 4 5 6 
#
# 1 0.012648 -0.004549 -0.001115 0.000000 0.004226 0.000000
# 2 -0.004549 0.014933 -0.003900 0.000000 -0.002388 0.000000
# 3 -0.001115 -0.003900 0.010218 0.000000 0.001644 0.000000
# 4 0.000000 0.000000 0.000000 -0.208911 0.000000 -0.018632
# 5 0.004226 -0.002388 0.001644 0.000000 0.026667 0.000000
# 6 0.000000 0.000000 0.000000 -0.018632 0.000000 0.082730
#
#
# Mechanical properties :
#
#
# Convention : Reuss Voigt Hill
#
# Bulk Modulus (GPa) = 53.55982 55.30071 54.43027
# Shear Modulus (GPa) = -137.49618 23.07847 -57.20886
#
# Velocity S-wave (km/s) = -8.14484 3.33688 -5.25375
# Velocity P-wave (km/s) = 7.91265 6.44419 3.24672
#
# Compressibility (1/GPa) = 0.01867071
#
# Stress axis : x y z
#
# Youngs Moduli (GPa) = 79.06639 66.96774 97.86254
#
# Poissons Ratio (x) = 0.30463 0.10914
# Poissons Ratio (y) = 0.35967 0.38164
# Poissons Ratio (z) = 0.08818 0.26116
#
# Static dielectric constant tensor:
#      x y z
#    x 1.770320 0.000000 0.028310 
#    y 0.000000 1.729110 0.000000 
#    z 0.028310 0.000000 1.805930 
# 
# From -- ./inp_files/66714.got.cif
#   From: 2010.05.17/outbox.cif.g08.bks.cpg/sg12_34_cif.got.tgz:66714.got - 2010.06.03 13:09:07.
