data_PCOD9211935
_publ_section_title
;
Structure prediction by ZEFSAII (Michael W. Deem and Ramdas Pophale) SiO2 
 PCOD9211935
Probable space group: C 2/M
;
_chemical_formula_sum "Si O2"
_cell_formula_units_Z 56
_cell_length_a 11.531794
_cell_length_b 27.047372
_cell_length_c 9.166992
_cell_angle_alpha 90.000000
_cell_angle_beta 126.148433
_cell_angle_gamma 90.000000
_cell_volume 2308.802492
_symmetry_space_group_name_H-M "C 2/M"
_symmetry_group_IT_number 12
_symmetry_cell_setting 'monoclinic'
loop_
_space_group_symop_operation_xyz
x,y,z
-x,y,-z
-x,-y,-z
x,-y,z
1/2+x,1/2+y,z
1/2-x,1/2+y,-z
1/2-x,1/2-y,-z
1/2+x,1/2-y,z
loop_
_atom_site_type_symbol
_atom_site_label
_atom_site_fract_x
_atom_site_fract_y
_atom_site_fract_z
Si Si1 0.864734 0.867581 0.288763
Si Si2 0.012739 0.798636 0.842192
Si Si3 0.450237 0.809635 0.221197
Si Si4 0.706979 0.166287 0.631510
Si Si5 0.066861 0.405460 0.188414
Si Si6 0.478792 0.444600 0.151910
Si Si7 0.692414 0.054322 0.567124
O O1 0.718897 0.878905 0.265779
O O2 0.000000 0.867520 0.500000
O O3 0.874453 0.819420 0.192441
O O4 0.885190 0.910537 0.183848
O O5 0.028369 0.739954 0.851344
O O6 0.858494 0.819810 0.673860
O O7 0.000000 0.816011 0.000000
O O8 0.314831 0.807700 0.228979
O O9 0.585696 0.814970 0.431508
O O10 0.456680 0.860660 0.138914
O O11 0.679038 0.107501 0.636857
O O12 0.097712 0.438536 0.352305
O O13 0.000000 0.432608 0.000000
O O14 0.419675 0.500000 0.099751
O O15 0.637519 0.446335 0.339532
O O16 0.500000 0.427872 0.000000
O O17 0.663360 0.000000 0.613596
#
# Coordination Sequence:
#
# PCOD9211935 Si02
#       7
#     8   8   8   8   8   8   8
#     4  12  24  42  68 102 137 180 228 287 344 412
#     4  12  26  40  67 102 134 176 231 285 342 409
#     4  10  24  43  65  91 136 183 225 279 342 413
#     4  10  22  43  67  96 133 180 227 280 340 411
#     4  11  25  43  64  98 143 184 230 281 348 412
#     4  10  21  40  68 102 136 174 228 295 353 404
#     4  10  21  43  70 100 137 181 234 285 347 413
#
# _framework density 24.254998000000001
#
# number of rings (size 3 to 8) (size 9 to 14) (size 15 to 20)
#    0.000    1.286    2.857    2.143    6.000    1.714 
#    0.000    5.714    0.000    0.000    0.000    0.000 
#    0.000    0.000    0.000    0.000    0.000    0.000 
#
# Total GULP energy -156515.550396 kJ/mol
# GULP energy per Si atom -5589.841086 kJ/mol
# Density = 2.419979 g / cm^3
# Si number density = 24.254998 Si / 1000 Ang^3
#
#
#
# Elastic Constant Matrix: (Units=GPa)
#
#
# Indices 1 2 3 4 5 6 
#
# 1 75.3269 7.3050 -17.1717 0.0000 -1.9144 0.0000
# 2 7.3050 132.5085 7.6423 0.0000 -20.4167 0.0000
# 3 -17.1717 7.6423 76.2593 0.0000 -6.6256 0.0000
# 4 0.0000 0.0000 0.0000 7.5389 0.0000 -2.6101
# 5 -1.9144 -20.4167 -6.6256 0.0000 36.2159 0.0000
# 6 0.0000 0.0000 0.0000 -2.6101 0.0000 7.9635
#
#
#
# Elastic Compliance Matrix: (Units=1/GPa)
#
#
# Indices 1 2 3 4 5 6 
#
# 1 0.014142 -0.000836 0.003345 0.000000 0.000888 0.000000
# 2 -0.000836 0.008328 -0.000629 0.000000 0.004536 0.000000
# 3 0.003345 -0.000629 0.014139 0.000000 0.002409 0.000000
# 4 0.000000 0.000000 0.000000 0.149624 0.000000 0.049041
# 5 0.000888 0.004536 0.002409 0.000000 0.030657 0.000000
# 6 0.000000 0.000000 0.000000 0.049041 0.000000 0.141646
#
#
# Mechanical properties :
#
#
# Convention : Reuss Voigt Hill
#
# Bulk Modulus (GPa) = 24.77074 31.07176 27.92125
# Shear Modulus (GPa) = 13.57846 29.43161 21.50503
#
# Velocity S-wave (km/s) = 2.36862 3.48720 2.98085
# Velocity P-wave (km/s) = 4.20895 5.39003 4.83568
#
# Compressibility (1/GPa) = 0.04037021
#
# Stress axis : x y z
#
# Youngs Moduli (GPa) = 70.71290 120.07893 70.72768
#
# Poissons Ratio (x) = 0.10034 -0.23660
# Poissons Ratio (y) = 0.05909 0.04446
# Poissons Ratio (z) = -0.23656 0.07549
#
# Static dielectric constant tensor:
#      x y z
#    x 1.926310 0.000000 0.024500 
#    y 0.000000 1.897440 0.000000 
#    z 0.024500 0.000000 1.968820 
# 
# From -- ./inp_files/54802.got.cif
#   From: 2010.05.17/outbox.cif.g08.bks.cpg/sg12_28_cif.got.tgz:54802.got - 2010.06.03 13:09:07.
