data_PCOD9211310
_publ_section_title
;
Structure prediction by ZEFSAII (Michael W. Deem and Ramdas Pophale) SiO2 
 PCOD9211310
Probable space group: C 2/M
;
_chemical_formula_sum "Si O2"
_cell_formula_units_Z 64
_cell_length_a 11.953878
_cell_length_b 14.152424
_cell_length_c 17.743326
_cell_angle_alpha 90.000000
_cell_angle_beta 90.318663
_cell_angle_gamma 90.000000
_cell_volume 3001.704702
_symmetry_space_group_name_H-M "C 2/M"
_symmetry_group_IT_number 12
_symmetry_cell_setting 'monoclinic'
loop_
_space_group_symop_operation_xyz
x,y,z
-x,y,-z
-x,-y,-z
x,-y,z
1/2+x,1/2+y,z
1/2-x,1/2+y,-z
1/2-x,1/2-y,-z
1/2+x,1/2-y,z
loop_
_atom_site_type_symbol
_atom_site_label
_atom_site_fract_x
_atom_site_fract_y
_atom_site_fract_z
Si Si1 0.590839 0.705730 0.268630
Si Si2 0.643891 0.612125 0.705879
Si Si3 0.259256 0.112136 0.386034
Si Si4 0.479000 0.890433 0.650070
Si Si5 0.235916 0.758902 0.835224
Si Si6 0.422143 0.894802 0.115686
Si Si7 0.670735 0.894308 0.053983
Si Si8 0.235395 0.386348 0.445339
O O1 0.483607 0.640113 0.279183
O O2 0.684958 0.668788 0.326826
O O3 0.552971 0.811815 0.289318
O O4 0.650658 0.705154 0.187842
O O5 0.660105 0.500000 0.710221
O O6 0.714612 0.664578 0.770094
O O7 0.685214 0.644770 0.623153
O O8 0.391685 0.120063 0.371047
O O9 0.237447 0.147760 0.470940
O O10 0.231899 0.000000 0.380484
O O11 0.392966 0.871533 0.580883
O O12 0.459979 0.000000 0.673675
O O13 0.133909 0.686242 0.836043
O O14 0.249723 0.814210 0.913272
O O15 0.553016 0.885186 0.098277
O O16 0.402865 0.000000 0.147348
O O17 0.360747 0.889106 0.033922
O O18 0.715162 0.000000 0.068700
O O19 0.248191 0.500000 0.450051
#
# Coordination Sequence:
#
# PCOD9211310 Si02
#       8
#     8   8   8   8   8   8   8   8
#     4  12  25  39  56  89 120 160 201 242 295 354
#     4  11  24  42  59  83 122 159 199 248 298 351
#     4  10  22  41  63  84 111 152 203 255 309 358
#     4  10  21  40  61  84 113 146 194 254 308 357
#     4  12  22  38  60  89 120 162 197 232 287 354
#     4   9  20  39  63  92 123 151 188 242 288 334
#     4   9  19  38  65  93 118 150 194 240 287 338
#     4   9  19  40  64  83 109 151 200 257 308 351
#
# _framework density 21.321217000000001
#
# number of rings (size 3 to 8) (size 9 to 14) (size 15 to 20)
#    0.000    1.750    1.250    3.750    0.000    4.000 
#    2.250    5.000    0.000    0.000    0.000    7.875 
#    0.000    0.000    0.000    0.000    0.000    0.000 
#
# Total GULP energy -178939.485417 kJ/mol
# GULP energy per Si atom -5591.858919 kJ/mol
# Density = 2.127269 g / cm^3
# Si number density = 21.321217 Si / 1000 Ang^3
#
#
#
# Elastic Constant Matrix: (Units=GPa)
#
#
# Indices 1 2 3 4 5 6 
#
# 1 63.9917 21.4167 3.5707 0.0000 -0.3538 0.0000
# 2 21.4167 105.9031 17.3472 0.0000 -5.8654 0.0000
# 3 3.5707 17.3472 44.6193 0.0000 2.1936 0.0000
# 4 0.0000 0.0000 0.0000 22.2919 0.0000 -0.7363
# 5 -0.3538 -5.8654 2.1936 0.0000 26.5322 0.0000
# 6 0.0000 0.0000 0.0000 -0.7363 0.0000 32.3424
#
#
#
# Elastic Compliance Matrix: (Units=1/GPa)
#
#
# Indices 1 2 3 4 5 6 
#
# 1 0.016769 -0.003423 0.000015 0.000000 -0.000534 0.000000
# 2 -0.003423 0.010960 -0.004121 0.000000 0.002718 0.000000
# 3 0.000015 -0.004121 0.024156 0.000000 -0.002908 0.000000
# 4 0.000000 0.000000 0.000000 0.044893 0.000000 0.001022
# 5 -0.000534 0.002718 -0.002908 0.000000 0.038524 0.000000
# 6 0.000000 0.000000 0.000000 0.001022 0.000000 0.030942
#
#
# Mechanical properties :
#
#
# Convention : Reuss Voigt Hill
#
# Bulk Modulus (GPa) = 27.15388 33.24262 30.19825
# Shear Modulus (GPa) = 25.82932 27.71192 26.77062
#
# Velocity S-wave (km/s) = 3.48435 3.60909 3.54727
# Velocity P-wave (km/s) = 5.38060 5.74392 5.56522
#
# Compressibility (1/GPa) = 0.03682715
#
# Stress axis : x y z
#
# Youngs Moduli (GPa) = 59.63418 91.23731 41.39810
#
# Poissons Ratio (x) = 0.31233 -0.00063
# Poissons Ratio (y) = 0.20414 0.17060
# Poissons Ratio (z) = -0.00091 0.37598
#
# Static dielectric constant tensor:
#      x y z
#    x 1.737610 0.000000 -0.001590 
#    y 0.000000 1.779390 0.000000 
#    z -0.001590 0.000000 1.776370 
# 
# From -- ./inp_files/263352.got.cif
#   From: 2010.05.17/outbox.cif.g08.bks.cpg/sg12_132_cif.got.tgz:263352.got - 2010.06.03 13:09:07.
