data_PCOD9211932
_publ_section_title
;
Structure prediction by ZEFSAII (Michael W. Deem and Ramdas Pophale) SiO2 
 PCOD9211932
Probable space group: C 2/M
;
_chemical_formula_sum "Si O2"
_cell_formula_units_Z 40
_cell_length_a 12.254016
_cell_length_b 32.722258
_cell_length_c 5.199347
_cell_angle_alpha 90.000000
_cell_angle_beta 77.596480
_cell_angle_gamma 90.000000
_cell_volume 2036.167514
_symmetry_space_group_name_H-M "C 2/M"
_symmetry_group_IT_number 12
_symmetry_cell_setting 'monoclinic'
loop_
_space_group_symop_operation_xyz
x,y,z
-x,y,-z
-x,-y,-z
x,-y,z
1/2+x,1/2+y,z
1/2-x,1/2+y,-z
1/2-x,1/2-y,-z
1/2+x,1/2-y,z
loop_
_atom_site_type_symbol
_atom_site_label
_atom_site_fract_x
_atom_site_fract_y
_atom_site_fract_z
Si Si1 0.738958 0.381569 0.711743
Si Si2 0.627150 0.144762 0.856021
Si Si3 0.425806 0.452020 0.293947
Si Si4 0.176984 0.259651 0.788377
Si Si5 0.058157 0.816232 0.661926
O O1 0.826887 0.371390 0.440493
O O2 0.685174 0.425755 0.691014
O O3 0.631937 0.351117 0.742871
O O4 0.796078 0.373301 0.955435
O O5 0.636514 0.194040 0.829158
O O6 0.500000 0.134744 0.000000
O O7 0.500000 0.437386 0.500000
O O8 0.401473 0.500000 0.347102
O O9 0.500000 0.447884 0.000000
O O10 0.082339 0.226291 0.778016
O O11 0.426198 0.319370 0.660091
O O12 0.250000 0.250000 0.000000
O O13 0.250000 0.750000 0.500000
#
# Coordination Sequence:
#
# PCOD9211932 Si02
#       5
#     8   8   8   8   8
#     4  12  23  41  63  90 126 155 207 256 301 372
#     4  12  25  42  62  84 120 171 215 258 303 352
#     4  10  21  40  68 101 132 160 190 238 316 392
#     4  12  22  41  58  80 118 160 208 259 306 353
#     4  12  23  36  59  86 116 153 194 250 312 360
#
# _framework density 19.644749000000001
#
# number of rings (size 3 to 8) (size 9 to 14) (size 15 to 20)
#    0.000    0.400    4.000    6.000    0.000    1.600 
#    0.000    0.000    0.000    3.600    0.000    0.000 
#    0.000    0.000    0.000    0.000    0.000    0.000 
#
# Total GULP energy -111452.375778 kJ/mol
# GULP energy per Si atom -5572.618789 kJ/mol
# Density = 1.960004 g / cm^3
# Si number density = 19.644749 Si / 1000 Ang^3
#
#
#
# Elastic Constant Matrix: (Units=GPa)
#
#
# Indices 1 2 3 4 5 6 
#
# 1 66.0236 30.3294 24.8513 0.0000 17.3021 0.0000
# 2 30.3294 74.1128 10.1756 0.0000 -5.2788 0.0000
# 3 24.8513 10.1756 115.7902 0.0000 4.4184 0.0000
# 4 0.0000 0.0000 0.0000 10.3244 0.0000 -4.3161
# 5 17.3021 -5.2788 4.4184 0.0000 33.8395 0.0000
# 6 0.0000 0.0000 0.0000 -4.3161 0.0000 -9.5273
#
#
#
# Elastic Compliance Matrix: (Units=1/GPa)
#
#
# Indices 1 2 3 4 5 6 
#
# 1 0.025293 -0.010815 -0.003940 0.000000 -0.014105 0.000000
# 2 -0.010815 0.018462 0.000380 0.000000 0.008360 0.000000
# 3 -0.003940 0.000380 0.009416 0.000000 0.000844 0.000000
# 4 0.000000 0.000000 0.000000 0.081435 0.000000 -0.036892
# 5 -0.014105 0.008360 0.000844 0.000000 0.037957 0.000000
# 6 0.000000 0.000000 0.000000 -0.036892 0.000000 -0.088248
#
#
# Mechanical properties :
#
#
# Convention : Reuss Voigt Hill
#
# Bulk Modulus (GPa) = 40.94689 42.95990 41.95340
# Shear Modulus (GPa) = 41.25198 19.63200 30.44199
#
# Velocity S-wave (km/s) = 4.58744 3.16468 3.94080
# Velocity P-wave (km/s) = 6.99631 5.93881 6.48914
#
# Compressibility (1/GPa) = 0.02442188
#
# Stress axis : x y z
#
# Youngs Moduli (GPa) = 39.53601 54.16539 106.19847
#
# Poissons Ratio (x) = 0.58578 0.41842
# Poissons Ratio (y) = 0.42757 -0.04032
# Poissons Ratio (z) = 0.15577 -0.02056
#
# Static dielectric constant tensor:
#      x y z
#    x 1.525610 0.000000 0.089890 
#    y 0.000000 1.687530 0.000000 
#    z 0.089890 0.000000 1.580270 
# 
# From -- ./inp_files/8131.got.cif
#   From: 2010.05.17/outbox.cif.g08.bks.cpg/sg12_5_cif.got.tgz:8131.got - 2010.06.03 13:09:07.
