data_PCOD9211333
_publ_section_title
;
Structure prediction by ZEFSAII (Michael W. Deem and Ramdas Pophale) SiO2 
 PCOD9211333
Probable space group: C 2/M
;
_chemical_formula_sum "Si O2"
_cell_formula_units_Z 64
_cell_length_a 31.502218
_cell_length_b 17.370522
_cell_length_c 9.567244
_cell_angle_alpha 90.000000
_cell_angle_beta 138.982220
_cell_angle_gamma 90.000000
_cell_volume 3435.886079
_symmetry_space_group_name_H-M "C 2/M"
_symmetry_group_IT_number 12
_symmetry_cell_setting 'monoclinic'
loop_
_space_group_symop_operation_xyz
x,y,z
-x,y,-z
-x,-y,-z
x,-y,z
1/2+x,1/2+y,z
1/2-x,1/2+y,-z
1/2-x,1/2-y,-z
1/2+x,1/2-y,z
loop_
_atom_site_type_symbol
_atom_site_label
_atom_site_fract_x
_atom_site_fract_y
_atom_site_fract_z
Si Si1 0.177610 0.652978 0.800445
Si Si2 0.827781 0.092188 0.474008
Si Si3 0.067182 0.591675 0.326274
Si Si4 0.672412 0.664960 0.831633
Si Si5 0.177521 0.590066 0.107396
Si Si6 0.067651 0.338784 0.019484
Si Si7 0.936649 0.091795 0.251263
Si Si8 0.938781 0.156560 0.945355
O O1 0.128160 0.621961 0.563757
O O2 0.165921 0.743223 0.800829
O O3 0.253015 0.646068 0.946362
O O4 0.168128 0.606494 0.920205
O O5 0.841268 0.127389 0.354151
O O6 0.752735 0.108960 0.323421
O O7 0.875596 0.127477 0.706604
O O8 0.835483 0.000000 0.486663
O O9 0.061307 0.500000 0.321997
O O10 0.000647 0.631599 0.211781
O O11 0.075122 0.616862 0.185036
O O12 0.624028 0.632470 0.826348
O O13 0.166848 0.500000 0.111312
O O14 0.127352 0.640232 0.069778
O O15 0.063861 0.248378 0.040238
O O16 0.000000 0.111238 0.500000
O O17 0.927803 0.000000 0.233877
O O18 0.944546 0.118342 0.111503
O O19 0.000000 0.137452 0.000000
#
# Coordination Sequence:
#
# PCOD9211333 Si02
#       8
#     8   8   8   8   8   8   8   8
#     4  10  22  38  63  94 120 163 206 247 303 362
#     4  10  22  39  64  90 121 162 200 247 304 361
#     4  11  22  38  60  89 122 161 206 251 302 364
#     4  10  21  41  63  89 128 161 200 253 304 360
#     4  10  21  40  61  89 125 159 200 249 302 359
#     4  11  23  40  60  87 120 164 200 251 309 357
#     4  11  25  40  61  91 123 162 204 252 306 359
#     4  12  24  41  63  90 120 160 206 254 301 366
#
# _framework density 18.626926999999998
#
# number of rings (size 3 to 8) (size 9 to 14) (size 15 to 20)
#    0.000    1.375    1.250    4.875    1.750    5.500 
#    0.000    1.250    0.000    0.000    0.000    0.000 
#    0.000    0.000    0.000    0.000    0.000    0.000 
#
# Total GULP energy -178904.707248 kJ/mol
# GULP energy per Si atom -5590.772102 kJ/mol
# Density = 1.858453 g / cm^3
# Si number density = 18.626927 Si / 1000 Ang^3
#
#
#
# Elastic Constant Matrix: (Units=GPa)
#
#
# Indices 1 2 3 4 5 6 
#
# 1 128.2535 27.7930 47.2561 0.0000 6.1117 0.0000
# 2 27.7930 56.0277 43.8462 0.0000 7.1065 0.0000
# 3 47.2561 43.8462 150.7517 0.0000 -0.9867 0.0000
# 4 0.0000 0.0000 0.0000 31.6365 0.0000 1.4426
# 5 6.1117 7.1065 -0.9867 0.0000 12.8948 0.0000
# 6 0.0000 0.0000 0.0000 1.4426 0.0000 24.8912
#
#
#
# Elastic Compliance Matrix: (Units=1/GPa)
#
#
# Indices 1 2 3 4 5 6 
#
# 1 0.009303 -0.002470 -0.002219 0.000000 -0.003218 0.000000
# 2 -0.002470 0.026275 -0.006958 0.000000 -0.013842 0.000000
# 3 -0.002219 -0.006958 0.009389 0.000000 0.005605 0.000000
# 4 0.000000 0.000000 0.000000 0.031693 0.000000 -0.001837
# 5 -0.003218 -0.013842 0.005605 0.000000 0.087133 0.000000
# 6 0.000000 0.000000 0.000000 -0.001837 0.000000 0.040281
#
#
# Mechanical properties :
#
#
# Convention : Reuss Voigt Hill
#
# Bulk Modulus (GPa) = 46.14117 63.64704 54.89411
# Shear Modulus (GPa) = 21.31342 28.29369 24.80355
#
# Velocity S-wave (km/s) = 3.38631 3.90162 3.65306
# Velocity P-wave (km/s) = 6.33360 7.38515 6.87949
#
# Compressibility (1/GPa) = 0.02167262
#
# Stress axis : x y z
#
# Youngs Moduli (GPa) = 107.48881 38.05915 106.50235
#
# Poissons Ratio (x) = 0.09402 0.23631
# Poissons Ratio (y) = 0.26554 0.74107
# Poissons Ratio (z) = 0.23850 0.26483
#
# Static dielectric constant tensor:
#      x y z
#    x 1.617900 0.000000 0.014550 
#    y 0.000000 1.621660 0.000000 
#    z 0.014550 0.000000 1.627070 
# 
# From -- ./inp_files/112908.got.cif
#   From: 2010.05.17/outbox.cif.g08.bks.cpg/sg12_57_cif.got.tgz:112908.got - 2010.06.03 13:09:07.
