data_PCOD9211303
_publ_section_title
;
Structure prediction by ZEFSAII (Michael W. Deem and Ramdas Pophale) SiO2 
 PCOD9211303
Probable space group: C 2/M
;
_chemical_formula_sum "Si O2"
_cell_formula_units_Z 48
_cell_length_a 11.929441
_cell_length_b 24.942517
_cell_length_c 9.012690
_cell_angle_alpha 90.000000
_cell_angle_beta 117.039274
_cell_angle_gamma 90.000000
_cell_volume 2388.602474
_symmetry_space_group_name_H-M "C 2/M"
_symmetry_group_IT_number 12
_symmetry_cell_setting 'monoclinic'
loop_
_space_group_symop_operation_xyz
x,y,z
-x,y,-z
-x,-y,-z
x,-y,z
1/2+x,1/2+y,z
1/2-x,1/2+y,-z
1/2-x,1/2-y,-z
1/2+x,1/2-y,z
loop_
_atom_site_type_symbol
_atom_site_label
_atom_site_fract_x
_atom_site_fract_y
_atom_site_fract_z
Si Si1 0.637368 0.363323 0.878091
Si Si2 0.252958 0.936910 0.718740
Si Si3 0.135947 0.871697 0.396333
Si Si4 0.044596 0.652049 0.196158
Si Si5 0.790753 0.215453 0.343273
Si Si6 0.303195 0.837245 0.255154
O O1 0.709252 0.414821 0.852801
O O2 0.490140 0.375540 0.774682
O O3 0.671134 0.316180 0.782592
O O4 0.692960 0.344720 0.067054
O O5 0.152300 0.915075 0.536725
O O6 0.378689 0.903629 0.756519
O O7 0.266775 0.000000 0.722733
O O8 0.134522 0.814119 0.479939
O O9 0.258415 0.873676 0.365085
O O10 0.145956 0.698911 0.287453
O O11 0.931806 0.651693 0.245187
O O12 0.000000 0.660230 0.000000
O O13 0.808803 0.277389 0.324125
#
# Coordination Sequence:
#
# PCOD9211303 Si02
#       6
#     8   8   8   8   8   8
#     4  10  21  40  61  92 121 156 214 252 294 370
#     4  10  22  44  68  85 116 166 207 260 314 364
#     4  10  23  40  58  94 126 157 210 252 302 374
#     4  10  21  40  60  94 122 155 217 248 298 377
#     4  10  22  37  59  87 125 174 201 235 297 368
#     4  12  22  38  62  90 133 166 194 263 306 348
#
# _framework density 20.095434000000001
#
# number of rings (size 3 to 8) (size 9 to 14) (size 15 to 20)
#    0.000    2.000    3.333    3.500    2.333    4.333 
#    6.000    2.500    0.000    2.000    0.000    0.000 
#    0.000    0.000    0.000    0.000    0.000    0.000 
#
# Total GULP energy -134015.663034 kJ/mol
# GULP energy per Si atom -5583.985960 kJ/mol
# Density = 2.004970 g / cm^3
# Si number density = 20.095434 Si / 1000 Ang^3
#
#
#
# Elastic Constant Matrix: (Units=GPa)
#
#
# Indices 1 2 3 4 5 6 
#
# 1 106.0419 33.7751 21.8078 0.0000 -2.8376 0.0000
# 2 33.7751 112.5559 14.1633 0.0000 3.1958 0.0000
# 3 21.8078 14.1633 53.0701 0.0000 1.8431 0.0000
# 4 0.0000 0.0000 0.0000 5.2974 0.0000 1.8436
# 5 -2.8376 3.1958 1.8431 0.0000 38.8527 0.0000
# 6 0.0000 0.0000 0.0000 1.8436 0.0000 2.5248
#
#
#
# Elastic Compliance Matrix: (Units=1/GPa)
#
#
# Indices 1 2 3 4 5 6 
#
# 1 0.011183 -0.002905 -0.003863 0.000000 0.001239 0.000000
# 2 -0.002905 0.009964 -0.001432 0.000000 -0.000964 0.000000
# 3 -0.003863 -0.001432 0.020853 0.000000 -0.001154 0.000000
# 4 0.000000 0.000000 0.000000 0.253088 0.000000 -0.184800
# 5 0.001239 -0.000964 -0.001154 0.000000 0.025963 0.000000
# 6 0.000000 0.000000 0.000000 -0.184800 0.000000 0.531002
#
#
# Mechanical properties :
#
#
# Convention : Reuss Voigt Hill
#
# Bulk Modulus (GPa) = 39.06323 45.68447 42.37385
# Shear Modulus (GPa) = 5.70135 22.79643 14.24889
#
# Velocity S-wave (km/s) = 1.68621 3.37175 2.66571
# Velocity P-wave (km/s) = 4.82412 6.15966 5.53234
#
# Compressibility (1/GPa) = 0.02559952
#
# Stress axis : x y z
#
# Youngs Moduli (GPa) = 89.42095 100.36450 47.95543
#
# Poissons Ratio (x) = 0.29154 0.18526
# Poissons Ratio (y) = 0.25975 0.06867
# Poissons Ratio (z) = 0.34545 0.14372
#
# Static dielectric constant tensor:
#      x y z
#    x 1.761440 0.000000 0.018020 
#    y 0.000000 1.667610 0.000000 
#    z 0.018020 0.000000 1.743390 
# 
# From -- ./inp_files/52782.got.cif
#   From: 2010.05.17/outbox.cif.g08.bks.cpg/sg12_27_cif.got.tgz:52782.got - 2010.06.03 13:09:07.
