data_PCOD9211262
_publ_section_title
;
Structure prediction by ZEFSAII (Michael W. Deem and Ramdas Pophale) SiO2 
 PCOD9211262
Probable space group: C 2/M
;
_chemical_formula_sum "Si O2"
_cell_formula_units_Z 48
_cell_length_a 14.947383
_cell_length_b 28.655786
_cell_length_c 5.542894
_cell_angle_alpha 90.000000
_cell_angle_beta 115.434727
_cell_angle_gamma 90.000000
_cell_volume 2144.065027
_symmetry_space_group_name_H-M "C 2/M"
_symmetry_group_IT_number 12
_symmetry_cell_setting 'monoclinic'
loop_
_space_group_symop_operation_xyz
x,y,z
-x,y,-z
-x,-y,-z
x,-y,z
1/2+x,1/2+y,z
1/2-x,1/2+y,-z
1/2-x,1/2-y,-z
1/2+x,1/2-y,z
loop_
_atom_site_type_symbol
_atom_site_label
_atom_site_fract_x
_atom_site_fract_y
_atom_site_fract_z
Si Si1 0.561265 0.639104 0.821453
Si Si2 0.248189 0.191312 0.606901
Si Si3 0.748659 0.399121 0.872540
Si Si4 0.609220 0.855773 0.584879
Si Si5 0.888562 0.762861 0.916229
Si Si6 0.604227 0.050496 0.261174
O O1 0.500000 0.635163 0.500000
O O2 0.650840 0.601062 0.922667
O O3 0.500000 0.633505 0.000000
O O4 0.605355 0.692258 0.899882
O O5 0.217053 0.139556 0.641745
O O6 0.325482 0.181360 0.480430
O O7 0.155073 0.217010 0.385408
O O8 0.310274 0.221546 0.872270
O O9 0.801393 0.442416 0.807012
O O10 0.836970 0.373290 0.114613
O O11 0.500000 0.837177 0.500000
O O12 0.601677 0.903747 0.422363
O O13 0.000000 0.745622 0.000000
O O14 0.612729 0.000000 0.396848
O O15 0.500000 0.050429 0.000000
#
# Coordination Sequence:
#
# PCOD9211262 Si02
#       6
#     8   8   8   8   8   8
#     4  11  24  44  68  94 125 171 227 277 322 374
#     4  10  23  40  56  88 126 170 217 265 322 382
#     4  11  22  40  64  87 125 165 210 260 326 387
#     4  11  22  37  60  91 126 169 208 258 325 390
#     4  10  21  40  59  85 125 168 219 271 315 370
#     4  10  22  39  62  94 130 164 204 255 319 400
#
# _framework density 22.38738
#
# number of rings (size 3 to 8) (size 9 to 14) (size 15 to 20)
#    0.000    1.500    3.333    2.000    4.667    1.667 
#    6.000    0.000    0.000    1.000    0.000    0.000 
#    0.000    0.000    0.000    0.000    0.000    0.000 
#
# Total GULP energy -133978.338753 kJ/mol
# GULP energy per Si atom -5582.430781 kJ/mol
# Density = 2.233642 g / cm^3
# Si number density = 22.387380 Si / 1000 Ang^3
#
#
#
# Elastic Constant Matrix: (Units=GPa)
#
#
# Indices 1 2 3 4 5 6 
#
# 1 115.4062 7.1842 24.0921 0.0000 13.6057 0.0000
# 2 7.1842 70.8022 10.9232 0.0000 1.5137 0.0000
# 3 24.0921 10.9232 72.9839 0.0000 17.7334 0.0000
# 4 0.0000 0.0000 0.0000 7.0022 0.0000 -22.8924
# 5 13.6057 1.5137 17.7334 0.0000 35.7529 0.0000
# 6 0.0000 0.0000 0.0000 -22.8924 0.0000 -24.0800
#
#
#
# Elastic Compliance Matrix: (Units=1/GPa)
#
#
# Indices 1 2 3 4 5 6 
#
# 1 0.009494 -0.000530 -0.002481 0.000000 -0.002360 0.000000
# 2 -0.000530 0.014496 -0.002154 0.000000 0.000656 0.000000
# 3 -0.002481 -0.002154 0.016591 0.000000 -0.007194 0.000000
# 4 0.000000 0.000000 0.000000 0.034764 0.000000 -0.033049
# 5 -0.002360 0.000656 -0.007194 0.000000 0.032408 0.000000
# 6 0.000000 0.000000 0.000000 -0.033049 0.000000 -0.010109
#
#
# Mechanical properties :
#
#
# Convention : Reuss Voigt Hill
#
# Bulk Modulus (GPa) = 33.05760 38.17679 35.61720
# Shear Modulus (GPa) = 42.35186 18.20120 30.27653
#
# Velocity S-wave (km/s) = 4.35417 2.85443 3.68148
# Velocity P-wave (km/s) = 6.33061 5.28711 5.83225
#
# Compressibility (1/GPa) = 0.03025023
#
# Stress axis : x y z
#
# Youngs Moduli (GPa) = 105.32679 68.98485 60.27360
#
# Poissons Ratio (x) = 0.03657 0.14956
# Poissons Ratio (y) = 0.05583 0.12983
# Poissons Ratio (z) = 0.26135 0.14860
#
# Static dielectric constant tensor:
#      x y z
#    x 1.979390 0.000000 -0.032810 
#    y 0.000000 1.853390 0.000000 
#    z -0.032810 0.000000 1.879530 
# 
# From -- ./inp_files/13224.got.cif
#   From: 2010.05.17/outbox.cif.g08.bks.cpg/sg12_7_cif.got.tgz:13224.got - 2010.06.03 13:09:07.
