data_PCOD9211507
_publ_section_title
;
Structure prediction by ZEFSAII (Michael W. Deem and Ramdas Pophale) SiO2 
 PCOD9211507
Probable space group: C 2/M
;
_chemical_formula_sum "Si O2"
_cell_formula_units_Z 48
_cell_length_a 19.065048
_cell_length_b 8.895112
_cell_length_c 15.042562
_cell_angle_alpha 90.000000
_cell_angle_beta 98.450685
_cell_angle_gamma 90.000000
_cell_volume 2523.306997
_symmetry_space_group_name_H-M "C 2/M"
_symmetry_group_IT_number 12
_symmetry_cell_setting 'monoclinic'
loop_
_space_group_symop_operation_xyz
x,y,z
-x,y,-z
-x,-y,-z
x,-y,z
1/2+x,1/2+y,z
1/2-x,1/2+y,-z
1/2-x,1/2-y,-z
1/2+x,1/2-y,z
loop_
_atom_site_type_symbol
_atom_site_label
_atom_site_fract_x
_atom_site_fract_y
_atom_site_fract_z
Si Si1 0.054326 0.177609 0.591404
Si Si2 0.676370 0.318639 0.251307
Si Si3 0.189149 0.822725 0.047436
Si Si4 0.781521 0.818986 0.415283
Si Si5 0.476117 0.820815 0.741306
Si Si6 0.941011 0.669436 0.064681
O O1 0.134940 0.218017 0.580323
O O2 0.000000 0.197652 0.500000
O O3 0.023092 0.271681 0.666758
O O4 0.054289 0.000000 0.614943
O O5 0.679474 0.500000 0.257169
O O6 0.685868 0.270913 0.149777
O O7 0.736437 0.247096 0.324941
O O8 0.599320 0.262754 0.269668
O O9 0.199218 0.000000 0.052038
O O10 0.250000 0.750000 0.000000
O O11 0.117582 0.780079 0.983208
O O12 0.750000 0.750000 0.500000
O O13 0.774949 0.000000 0.416662
O O14 0.520781 0.783101 0.837934
O O15 0.463481 0.000000 0.738893
O O16 0.910942 0.500000 0.071937
O O17 0.000000 0.660077 0.000000
#
# Coordination Sequence:
#
# PCOD9211507 Si02
#       6
#     8   8   8   8   8   8
#     4  10  23  43  65  92 126 161 200 252 310 370
#     4  11  24  42  63  90 126 167 210 258 311 370
#     4  11  25  41  62  90 125 169 213 260 311 367
#     4  11  24  42  67  96 127 165 205 252 311 372
#     4  11  23  39  65  95 124 162 207 258 312 368
#     4  10  21  40  63  90 126 164 205 256 311 368
#
# _framework density 19.022656000000001
#
# number of rings (size 3 to 8) (size 9 to 14) (size 15 to 20)
#    0.000    1.333    1.667    3.000    2.333    6.667 
#    0.000    0.000    0.000    0.000    0.000    0.000 
#    0.000    0.000    0.000    0.000    0.000    0.000 
#
# Total GULP energy -134136.685685 kJ/mol
# GULP energy per Si atom -5589.028570 kJ/mol
# Density = 1.897936 g / cm^3
# Si number density = 19.022656 Si / 1000 Ang^3
#
#
#
# Elastic Constant Matrix: (Units=GPa)
#
#
# Indices 1 2 3 4 5 6 
#
# 1 155.5918 61.8505 75.1539 0.0000 -2.8644 0.0000
# 2 61.8505 58.6976 51.2943 0.0000 2.5225 0.0000
# 3 75.1539 51.2943 95.3388 0.0000 7.0552 0.0000
# 4 0.0000 0.0000 0.0000 41.8792 0.0000 7.2671
# 5 -2.8644 2.5225 7.0552 0.0000 32.8758 0.0000
# 6 0.0000 0.0000 0.0000 7.2671 0.0000 46.3724
#
#
#
# Elastic Compliance Matrix: (Units=1/GPa)
#
#
# Indices 1 2 3 4 5 6 
#
# 1 0.012525 -0.008505 -0.005514 0.000000 0.002927 0.000000
# 2 -0.008505 0.037982 -0.013677 0.000000 -0.000720 0.000000
# 3 -0.005514 -0.013677 0.022509 0.000000 -0.004262 0.000000
# 4 0.000000 0.000000 0.000000 0.024546 0.000000 -0.003847
# 5 0.002927 -0.000720 -0.004262 0.000000 0.031642 0.000000
# 6 0.000000 0.000000 0.000000 -0.003847 0.000000 0.022167
#
#
# Mechanical properties :
#
#
# Convention : Reuss Voigt Hill
#
# Bulk Modulus (GPa) = 56.74222 76.24728 66.49475
# Shear Modulus (GPa) = 23.51397 32.31410 27.91403
#
# Velocity S-wave (km/s) = 3.51964 4.12602 3.83483
# Velocity P-wave (km/s) = 6.81254 7.92894 7.39185
#
# Compressibility (1/GPa) = 0.01762356
#
# Stress axis : x y z
#
# Youngs Moduli (GPa) = 79.83747 26.32849 44.42577
#
# Poissons Ratio (x) = 0.22393 0.24497
# Poissons Ratio (y) = 0.67905 0.60761
# Poissons Ratio (z) = 0.44023 0.36009
#
# Static dielectric constant tensor:
#      x y z
#    x 1.586720 0.000000 0.007510 
#    y 0.000000 1.657130 0.000000 
#    z 0.007510 0.000000 1.636770 
# 
# From -- ./inp_files/221647.got.cif
#   From: 2010.05.17/outbox.cif.g08.bks.cpg/sg12_111_cif.got.tgz:221647.got - 2010.06.03 13:09:07.
