data_PCOD9211255
_publ_section_title
;
Structure prediction by ZEFSAII (Michael W. Deem and Ramdas Pophale) SiO2 
 PCOD9211255
Probable space group: C 2/M
;
_chemical_formula_sum "Si O2"
_cell_formula_units_Z 50
_cell_length_a 12.121558
_cell_length_b 23.076242
_cell_length_c 7.299121
_cell_angle_alpha 90.000000
_cell_angle_beta 89.757762
_cell_angle_gamma 90.000000
_cell_volume 2041.691921
_symmetry_space_group_name_H-M "C 2/M"
_symmetry_group_IT_number 12
_symmetry_cell_setting 'monoclinic'
loop_
_space_group_symop_operation_xyz
x,y,z
-x,y,-z
-x,-y,-z
x,-y,z
1/2+x,1/2+y,z
1/2-x,1/2+y,-z
1/2-x,1/2-y,-z
1/2+x,1/2-y,z
loop_
_atom_site_type_symbol
_atom_site_label
_atom_site_fract_x
_atom_site_fract_y
_atom_site_fract_z
Si Si1 0.578294 0.063041 0.174553
Si Si2 0.329657 0.563046 0.023581
Si Si3 0.500000 0.500000 0.500000
Si Si4 0.922354 0.218968 0.714506
Si Si5 0.641293 0.313105 0.889722
Si Si6 0.835407 0.098926 0.602552
Si Si7 0.843517 0.663142 0.622209
O O1 0.565131 0.120668 0.293110
O O2 0.559718 0.000000 0.264963
O O3 0.500000 0.066072 0.000000
O O4 0.705886 0.063735 0.105824
O O5 0.379481 0.500000 0.064476
O O6 0.321359 0.572077 0.805266
O O7 0.393788 0.618872 0.096330
O O8 0.402944 0.550998 0.491235
O O9 0.902286 0.158638 0.615263
O O10 0.890207 0.273023 0.588739
O O11 0.046213 0.222065 0.789663
O O12 0.850629 0.210975 0.903795
O O13 0.751983 0.319255 0.775136
O O14 0.720288 0.122619 0.521663
#
# Coordination Sequence:
#
# PCOD9211255 Si02
#       7
#     8   8   2   8   8   8   8
#     4   9  20  38  64  93 119 160 215 267 319 383
#     4   9  18  39  63  89 130 162 203 268 329 387
#     4  12  24  40  68  90 134 172 214 258 320 392
#     4  10  21  40  58  88 126 166 216 263 316 395
#     4   9  20  37  61  91 119 165 217 264 322 381
#     4  11  23  39  59  92 127 173 207 258 325 382
#     4  11  22  38  65  88 130 167 213 268 323 388
#
# _framework density 24.489493
#
# number of rings (size 3 to 8) (size 9 to 14) (size 15 to 20)
#    0.000    2.080    0.800    1.920    3.360    0.000 
#    7.200    2.400    0.000    2.880    0.000    0.000 
#    0.000    0.000    0.000    0.000    0.000    0.000 
#
# Total GULP energy -139460.427838 kJ/mol
# GULP energy per Si atom -5578.417114 kJ/mol
# Density = 2.443375 g / cm^3
# Si number density = 24.489493 Si / 1000 Ang^3
#
#
#
# Elastic Constant Matrix: (Units=GPa)
#
#
# Indices 1 2 3 4 5 6 
#
# 1 47.1148 20.7738 2.4087 0.0000 1.3210 0.0000
# 2 20.7738 195.3524 31.7970 0.0000 12.6858 0.0000
# 3 2.4087 31.7970 58.6851 0.0000 -5.4440 0.0000
# 4 0.0000 0.0000 0.0000 24.1850 0.0000 12.9904
# 5 1.3210 12.6858 -5.4440 0.0000 33.3558 0.0000
# 6 0.0000 0.0000 0.0000 12.9904 0.0000 26.3438
#
#
#
# Elastic Compliance Matrix: (Units=1/GPa)
#
#
# Indices 1 2 3 4 5 6 
#
# 1 0.022278 -0.002445 0.000421 0.000000 0.000116 0.000000
# 2 -0.002445 0.006127 -0.003479 0.000000 -0.002801 0.000000
# 3 0.000421 -0.003479 0.019322 0.000000 0.004460 0.000000
# 4 0.000000 0.000000 0.000000 0.056245 0.000000 -0.027735
# 5 0.000116 -0.002801 0.004460 0.000000 0.031768 0.000000
# 6 0.000000 0.000000 0.000000 -0.027735 0.000000 0.051636
#
#
# Mechanical properties :
#
#
# Convention : Reuss Voigt Hill
#
# Bulk Modulus (GPa) = 27.23278 45.67904 36.45591
# Shear Modulus (GPa) = 23.73903 33.18845 28.46374
#
# Velocity S-wave (km/s) = 3.11683 3.68531 3.41293
# Velocity P-wave (km/s) = 4.90888 6.06644 5.51810
#
# Compressibility (1/GPa) = 0.03672045
#
# Stress axis : x y z
#
# Youngs Moduli (GPa) = 44.88714 163.20624 51.75513
#
# Poissons Ratio (x) = 0.39907 -0.02180
# Poissons Ratio (y) = 0.10976 0.18008
# Poissons Ratio (z) = -0.01891 0.56786
#
# Static dielectric constant tensor:
#      x y z
#    x 1.967490 0.000000 -0.036390 
#    y 0.000000 1.952440 0.000000 
#    z -0.036390 0.000000 2.018420 
# 
# From -- ./inp_files/63542.got.cif
#   From: 2010.05.17/outbox.cif.g08.bks.cpg/sg12_32_cif.got.tgz:63542.got - 2010.06.03 13:09:07.
