data_PCOD9211273
_publ_section_title
;
Structure prediction by ZEFSAII (Michael W. Deem and Ramdas Pophale) SiO2 
 PCOD9211273
Probable space group: C 2/M
;
_chemical_formula_sum "Si O2"
_cell_formula_units_Z 56
_cell_length_a 17.148456
_cell_length_b 31.464381
_cell_length_c 5.308417
_cell_angle_alpha 90.000000
_cell_angle_beta 64.990800
_cell_angle_gamma 90.000000
_cell_volume 2595.687668
_symmetry_space_group_name_H-M "C 2/M"
_symmetry_group_IT_number 12
_symmetry_cell_setting 'monoclinic'
loop_
_space_group_symop_operation_xyz
x,y,z
-x,y,-z
-x,-y,-z
x,-y,z
1/2+x,1/2+y,z
1/2-x,1/2+y,-z
1/2-x,1/2-y,-z
1/2+x,1/2-y,z
loop_
_atom_site_type_symbol
_atom_site_label
_atom_site_fract_x
_atom_site_fract_y
_atom_site_fract_z
Si Si1 0.337057 0.118151 0.160585
Si Si2 0.396272 0.787402 0.148379
Si Si3 0.420555 0.954161 0.799106
Si Si4 0.154770 0.860160 0.242817
Si Si5 0.395126 0.736657 0.646468
Si Si6 0.096616 0.906255 0.837870
Si Si7 0.266439 0.046730 0.627236
O O1 0.415594 0.090749 0.943691
O O2 0.364460 0.164417 0.211451
O O3 0.255091 0.126768 0.092167
O O4 0.301714 0.085788 0.417252
O O5 0.368827 0.761297 0.430659
O O6 0.500000 0.788385 0.000000
O O7 0.369407 0.763569 0.928416
O O8 0.500000 0.953345 0.500000
O O9 0.329161 0.955197 0.780118
O O10 0.426804 0.000000 0.928204
O O11 0.143813 0.810262 0.301532
O O12 0.114848 0.885710 0.537373
O O13 0.110291 0.871609 0.039930
O O14 0.500000 0.732687 0.500000
O O15 0.167190 0.942086 0.803030
O O16 0.000000 0.922158 0.000000
O O17 0.272222 0.000000 0.496610
#
# Coordination Sequence:
#
# PCOD9211273 Si02
#       7
#     8   8   8   8   8   8   8
#     4  11  24  39  62  91 130 164 216 266 325 374
#     4  10  24  38  61  90 126 166 213 263 319 378
#     4  10  22  40  65  92 124 171 217 264 322 385
#     4  11  23  40  67  94 131 169 215 267 313 379
#     4  10  21  40  59  89 124 166 212 263 316 375
#     4  11  22  40  66  99 129 171 217 260 317 378
#     4  10  23  42  63  92 131 166 211 266 322 382
#
# _framework density 21.574245999999999
#
# number of rings (size 3 to 8) (size 9 to 14) (size 15 to 20)
#    0.000    1.571    1.429    2.571    4.000    3.143 
#    0.000    2.143    0.000    2.571    0.000    0.000 
#    0.000    0.000    0.000    0.000    0.000    0.000 
#
# Total GULP energy -156409.121607 kJ/mol
# GULP energy per Si atom -5586.040057 kJ/mol
# Density = 2.152514 g / cm^3
# Si number density = 21.574246 Si / 1000 Ang^3
#
#
#
# Elastic Constant Matrix: (Units=GPa)
#
#
# Indices 1 2 3 4 5 6 
#
# 1 75.9586 35.1217 35.3585 0.0000 -6.8453 0.0000
# 2 35.1217 138.9719 48.2739 0.0000 -10.0536 0.0000
# 3 35.3585 48.2739 89.4347 0.0000 -1.8277 0.0000
# 4 0.0000 0.0000 0.0000 44.0034 0.0000 -29.3643
# 5 -6.8453 -10.0536 -1.8277 0.0000 27.3840 0.0000
# 6 0.0000 0.0000 0.0000 -29.3643 0.0000 102.0594
#
#
#
# Elastic Compliance Matrix: (Units=1/GPa)
#
#
# Indices 1 2 3 4 5 6 
#
# 1 0.017000 -0.002166 -0.005489 0.000000 0.003088 0.000000
# 2 -0.002166 0.009375 -0.004150 0.000000 0.002623 0.000000
# 3 -0.005489 -0.004150 0.015553 0.000000 -0.001857 0.000000
# 4 0.000000 0.000000 0.000000 0.028126 0.000000 0.008092
# 5 0.003088 0.002623 -0.001857 0.000000 0.038129 0.000000
# 6 0.000000 0.000000 0.000000 0.008092 0.000000 0.012126
#
#
# Mechanical properties :
#
#
# Convention : Reuss Voigt Hill
#
# Bulk Modulus (GPa) = 54.59123 60.20814 57.39968
# Shear Modulus (GPa) = 33.32790 47.06342 40.19566
#
# Velocity S-wave (km/s) = 3.93466 4.67568 4.32108
# Velocity P-wave (km/s) = 6.78239 7.55760 7.18047
#
# Compressibility (1/GPa) = 0.01831796
#
# Stress axis : x y z
#
# Youngs Moduli (GPa) = 58.82371 106.67223 64.29494
#
# Poissons Ratio (x) = 0.23109 0.35289
# Poissons Ratio (y) = 0.12744 0.26682
# Poissons Ratio (z) = 0.32286 0.44268
#
# Static dielectric constant tensor:
#      x y z
#    x 1.825850 0.000000 0.009330 
#    y 0.000000 1.751980 0.000000 
#    z 0.009330 0.000000 1.824520 
# 
# From -- ./inp_files/18234.got.cif
#   From: 2010.05.17/outbox.cif.g08.bks.cpg/sg12_10_cif.got.tgz:18234.got - 2010.06.03 13:09:07.
