data_PCOD9211499
_publ_section_title
;
Structure prediction by ZEFSAII (Michael W. Deem and Ramdas Pophale) SiO2 
 PCOD9211499
Probable space group: C 2/M
;
_chemical_formula_sum "Si O2"
_cell_formula_units_Z 56
_cell_length_a 20.808070
_cell_length_b 8.862868
_cell_length_c 33.076442
_cell_angle_alpha 90.000000
_cell_angle_beta 29.168880
_cell_angle_gamma 90.000000
_cell_volume 2973.017320
_symmetry_space_group_name_H-M "C 2/M"
_symmetry_group_IT_number 12
_symmetry_cell_setting 'monoclinic'
loop_
_space_group_symop_operation_xyz
x,y,z
-x,y,-z
-x,-y,-z
x,-y,z
1/2+x,1/2+y,z
1/2-x,1/2+y,-z
1/2-x,1/2-y,-z
1/2+x,1/2-y,z
loop_
_atom_site_type_symbol
_atom_site_label
_atom_site_fract_x
_atom_site_fract_y
_atom_site_fract_z
Si Si1 0.359964 0.318342 0.058143
Si Si2 0.357351 0.180582 0.971204
Si Si3 0.581812 0.181003 0.495245
Si Si4 0.880953 0.819456 0.307042
Si Si5 0.909237 0.180620 0.659785
Si Si6 0.874176 0.681420 0.221861
Si Si7 0.594438 0.819329 0.250050
O O1 0.360772 0.500000 0.052804
O O2 0.240117 0.279020 0.153722
O O3 0.500000 0.271987 0.000000
O O4 0.339408 0.244424 0.025890
O O5 0.503041 0.219414 0.874432
O O6 0.344556 0.000000 0.978492
O O7 0.250000 0.250000 0.000000
O O8 0.500000 0.223890 0.500000
O O9 0.734592 0.217008 0.403872
O O10 0.518317 0.261335 0.568517
O O11 0.569253 0.000000 0.507077
O O12 0.891394 0.759022 0.255703
O O13 0.989465 0.744552 0.275923
O O14 0.896230 0.000000 0.298815
O O15 0.765413 0.225263 0.721188
O O16 0.927725 0.250852 0.693667
O O17 0.913374 0.000000 0.660204
O O18 0.873635 0.500000 0.227856
O O19 0.584551 0.000000 0.257173
#
# Coordination Sequence:
#
# PCOD9211499 Si02
#       7
#     8   8   8   8   8   8   8
#     4  10  22  41  63  87 117 157 202 247 297 353
#     4  11  23  38  58  86 120 157 197 245 297 350
#     4  10  21  40  63  90 121 154 196 244 295 350
#     4  11  23  39  63  90 120 158 199 244 295 354
#     4  11  23  39  63  91 119 154 199 245 292 353
#     4  10  22  39  59  87 121 155 195 245 299 351
#     4  11  24  41  61  87 123 160 196 245 301 352
#
# _framework density 18.836082999999999
#
# number of rings (size 3 to 8) (size 9 to 14) (size 15 to 20)
#    0.000    1.429    1.429    3.429    0.000    8.571 
#    0.000    0.000    0.000    0.000    0.000    0.000 
#    0.000    0.000    0.000    0.000    0.000    0.000 
#
# Total GULP energy -156595.675910 kJ/mol
# GULP energy per Si atom -5592.702711 kJ/mol
# Density = 1.879321 g / cm^3
# Si number density = 18.836083 Si / 1000 Ang^3
#
#
#
# Elastic Constant Matrix: (Units=GPa)
#
#
# Indices 1 2 3 4 5 6 
#
# 1 79.4281 15.8094 0.5985 -0.0014 11.6776 -0.0047
# 2 15.8094 23.7319 24.3232 -0.0007 5.4705 -0.0017
# 3 0.5985 24.3232 74.1625 -0.0020 13.1481 -0.0009
# 4 -0.0014 -0.0007 -0.0020 33.1565 -0.0003 4.8812
# 5 11.6776 5.4705 13.1481 -0.0003 38.1076 0.0000
# 6 -0.0047 -0.0017 -0.0009 4.8812 0.0000 36.2054
#
#
#
# Elastic Compliance Matrix: (Units=1/GPa)
#
#
# Indices 1 2 3 4 5 6 
#
# 1 0.016419 -0.015919 0.005938 0.000000 -0.004795 0.000001
# 2 -0.015919 0.079059 -0.026260 -0.000001 0.002589 0.000001
# 3 0.005938 -0.026260 0.023117 0.000001 -0.006026 0.000000
# 4 0.000000 -0.000001 0.000001 0.030771 0.000000 -0.004149
# 5 -0.004795 0.002589 -0.006026 0.000000 0.029418 -0.000001
# 6 0.000001 0.000001 0.000000 -0.004149 -0.000001 0.028179
#
#
# Mechanical properties :
#
#
# Convention : Reuss Voigt Hill
#
# Bulk Modulus (GPa) = 21.68511 28.75387 25.21949
# Shear Modulus (GPa) = 16.95983 30.60000 23.77991
#
# Velocity S-wave (km/s) = 3.00391 4.03493 3.55697
# Velocity P-wave (km/s) = 4.85477 6.08326 5.50340
#
# Compressibility (1/GPa) = 0.04611460
#
# Stress axis : x y z
#
# Youngs Moduli (GPa) = 60.90611 12.64879 43.25874
#
# Poissons Ratio (x) = 0.20135 -0.25689
# Poissons Ratio (y) = 0.96955 1.13596
# Poissons Ratio (z) = -0.36169 0.33215
#
# Static dielectric constant tensor:
#      x y z
#    x 1.607740 0.000000 -0.020270 
#    y 0.000000 1.630580 0.000000 
#    z -0.020270 0.000000 1.630550 
# 
# From -- ./inp_files/380657.got.cif
#   From: 2010.05.17/outbox.cif.g08.bks.cpg/sg12_191_cif.got.tgz:380657.got - 2010.06.03 13:09:07.
