data_PCOD9211480
_publ_section_title
;
Structure prediction by ZEFSAII (Michael W. Deem and Ramdas Pophale) SiO2 
 PCOD9211480
Probable space group: C 2/M
;
_chemical_formula_sum "Si O2"
_cell_formula_units_Z 48
_cell_length_a 12.729256
_cell_length_b 10.201726
_cell_length_c 20.512085
_cell_angle_alpha 90.000000
_cell_angle_beta 48.823131
_cell_angle_gamma 90.000000
_cell_volume 2004.921176
_symmetry_space_group_name_H-M "C 2/M"
_symmetry_group_IT_number 12
_symmetry_cell_setting 'monoclinic'
loop_
_space_group_symop_operation_xyz
x,y,z
-x,y,-z
-x,-y,-z
x,-y,z
1/2+x,1/2+y,z
1/2-x,1/2+y,-z
1/2-x,1/2-y,-z
1/2+x,1/2-y,z
loop_
_atom_site_type_symbol
_atom_site_label
_atom_site_fract_x
_atom_site_fract_y
_atom_site_fract_z
Si Si1 0.762865 0.500000 0.606460
Si Si2 0.885865 0.770007 0.400966
Si Si3 0.033766 0.645137 0.822974
Si Si4 0.232895 0.356305 0.160875
Si Si5 0.378758 0.343586 0.970281
Si Si6 0.828700 0.144541 0.705831
Si Si7 0.485802 0.000000 0.395059
O O1 0.663499 0.372846 0.634391
O O2 0.861950 0.500000 0.630598
O O3 0.875353 0.500000 0.500757
O O4 0.750000 0.750000 0.500000
O O5 0.019527 0.829953 0.385599
O O6 0.948867 0.625176 0.366177
O O7 0.031081 0.500000 0.857848
O O8 0.184099 0.652560 0.725897
O O9 0.906773 0.642470 0.825598
O O10 0.004739 0.767606 0.882827
O O11 0.251093 0.500000 0.184151
O O12 0.204557 0.242727 0.222693
O O13 0.355283 0.340491 0.057653
O O14 0.371038 0.500000 0.955528
O O15 0.250000 0.250000 0.000000
O O16 0.837887 0.000000 0.730268
#
# Coordination Sequence:
#
# PCOD9211480 Si02
#       7
#     4   8   8   8   8   8   4
#     4   9  18  40  63  89 127 156 204 260 313 381
#     4  10  21  40  63  88 122 161 207 262 317 379
#     4   9  20  38  57  81 117 154 191 240 292 353
#     4   9  20  37  56  81 115 153 190 237 291 351
#     4   9  17  33  57  83 114 153 196 238 289 350
#     4  11  23  38  57  85 117 149 195 247 302 360
#     4   9  20  36  65  93 117 164 204 256 321 375
#
# _framework density 23.941092000000001
#
# number of rings (size 3 to 8) (size 9 to 14) (size 15 to 20)
#    0.000    2.500    0.833    1.500    1.167    6.000 
#    0.000    4.167    0.000    5.000    0.000    0.000 
#    0.000    0.000    0.000    0.000    0.000    0.000 
#
# Total GULP energy -133689.302476 kJ/mol
# GULP energy per Si atom -5570.387603 kJ/mol
# Density = 2.388660 g / cm^3
# Si number density = 23.941092 Si / 1000 Ang^3
#
#
#
# Elastic Constant Matrix: (Units=GPa)
#
#
# Indices 1 2 3 4 5 6 
#
# 1 95.5425 51.0790 45.5702 0.0000 -31.7011 0.0000
# 2 51.0790 210.1579 31.6147 0.0000 4.1007 0.0000
# 3 45.5702 31.6147 119.9868 0.0000 -40.5278 0.0000
# 4 0.0000 0.0000 0.0000 30.7251 0.0000 -1.4192
# 5 -31.7011 4.1007 -40.5278 0.0000 56.7925 0.0000
# 6 0.0000 0.0000 0.0000 -1.4192 0.0000 28.5931
#
#
#
# Elastic Compliance Matrix: (Units=1/GPa)
#
#
# Indices 1 2 3 4 5 6 
#
# 1 0.016148 -0.003666 -0.002679 0.000000 0.007367 0.000000
# 2 -0.003666 0.005914 -0.001320 0.000000 -0.003415 0.000000
# 3 -0.002679 -0.001320 0.012157 0.000000 0.007275 0.000000
# 4 0.000000 0.000000 0.000000 0.032621 0.000000 0.001619
# 5 0.007367 -0.003415 0.007275 0.000000 0.027158 0.000000
# 6 0.000000 0.000000 0.000000 0.001619 0.000000 0.035054
#
#
# Mechanical properties :
#
#
# Convention : Reuss Voigt Hill
#
# Bulk Modulus (GPa) = 52.93483 75.80164 64.36823
# Shear Modulus (GPa) = 33.18329 43.05036 38.11682
#
# Velocity S-wave (km/s) = 3.72699 4.24509 3.99445
# Velocity P-wave (km/s) = 6.37802 7.46714 6.94397
#
# Compressibility (1/GPa) = 0.01889115
#
# Stress axis : x y z
#
# Youngs Moduli (GPa) = 61.92594 169.07893 82.25929
#
# Poissons Ratio (x) = 0.61978 0.22037
# Poissons Ratio (y) = 0.22700 0.10855
# Poissons Ratio (z) = 0.16589 0.22312
#
# Static dielectric constant tensor:
#      x y z
#    x 1.981150 0.000000 -0.102630 
#    y 0.000000 2.016000 0.000000 
#    z -0.102630 0.000000 1.961100 
# 
# From -- ./inp_files/360288.got.cif
#   From: 2010.05.17/outbox.cif.g08.bks.cpg/sg12_181_cif.got.tgz:360288.got - 2010.06.03 13:09:07.
