data_PCOD9211863
_publ_section_title
;
Structure prediction by ZEFSAII (Michael W. Deem and Ramdas Pophale) SiO2 
 PCOD9211863
Probable space group: C 2/M
;
_chemical_formula_sum "Si O2"
_cell_formula_units_Z 40
_cell_length_a 11.700643
_cell_length_b 14.208338
_cell_length_c 20.121195
_cell_angle_alpha 90.000000
_cell_angle_beta 150.071345
_cell_angle_gamma 90.000000
_cell_volume 1668.932476
_symmetry_space_group_name_H-M "C 2/M"
_symmetry_group_IT_number 12
_symmetry_cell_setting 'monoclinic'
loop_
_space_group_symop_operation_xyz
x,y,z
-x,y,-z
-x,-y,-z
x,-y,z
1/2+x,1/2+y,z
1/2-x,1/2+y,-z
1/2-x,1/2-y,-z
1/2+x,1/2-y,z
loop_
_atom_site_type_symbol
_atom_site_label
_atom_site_fract_x
_atom_site_fract_y
_atom_site_fract_z
Si Si1 0.834945 0.336318 0.108312
Si Si2 0.629027 0.102008 0.136271
Si Si3 0.607711 0.891108 0.442131
Si Si4 0.241769 0.745903 0.388948
Si Si5 0.810593 0.812442 0.821117
O O1 0.756759 0.366579 0.143796
O O2 0.951395 0.397121 0.108974
O O3 0.045798 0.268144 0.235522
O O4 0.914585 0.193143 0.044545
O O5 0.760477 0.201768 0.208260
O O6 0.750413 0.000000 0.199745
O O7 0.500000 0.107628 0.000000
O O8 0.737254 0.849810 0.570579
O O9 0.686910 0.828043 0.420056
O O10 0.337065 0.864842 0.308708
O O11 0.641964 0.000000 0.449160
O O12 0.500000 0.719466 0.500000
#
# Coordination Sequence:
#
# PCOD9211863 Si02
#       5
#     8   8   8   8   8
#     4  10  21  40  66  97 139 183 222 277 344 411
#     4  11  23  39  63  98 138 179 225 279 342 410
#     4  10  23  44  70 102 134 176 233 281 338 409
#     4  10  22  43  67  96 138 184 223 275 341 406
#     4  10  21  41  70  98 141 181 222 287 348 405
#
# _framework density 23.967417999999999
#
# number of rings (size 3 to 8) (size 9 to 14) (size 15 to 20)
#    0.000    1.800    2.000    1.800    0.000    4.800 
#    0.000   21.000    0.000    0.000    0.000    0.000 
#    0.000    0.000    0.000    0.000    0.000    0.000 
#
# Total GULP energy -111492.699272 kJ/mol
# GULP energy per Si atom -5574.634964 kJ/mol
# Density = 2.391287 g / cm^3
# Si number density = 23.967418 Si / 1000 Ang^3
#
#
#
# Elastic Constant Matrix: (Units=GPa)
#
#
# Indices 1 2 3 4 5 6 
#
# 1 108.4892 20.0310 29.7910 0.0001 -2.3241 0.0000
# 2 20.0310 152.4269 24.2204 -0.0001 -17.8772 0.0000
# 3 29.7910 24.2204 149.7414 -0.0009 -6.2888 -0.0002
# 4 0.0001 -0.0001 -0.0009 10.8376 0.0000 13.2559
# 5 -2.3241 -17.8772 -6.2888 0.0000 45.9727 0.0000
# 6 0.0000 0.0000 -0.0002 13.2559 0.0000 4.7212
#
#
#
# Elastic Compliance Matrix: (Units=1/GPa)
#
#
# Indices 1 2 3 4 5 6 
#
# 1 0.009902 -0.001031 -0.001809 0.000000 -0.000148 0.000000
# 2 -0.001031 0.007135 -0.000839 0.000000 0.002608 0.000000
# 3 -0.001809 -0.000839 0.007198 0.000000 0.000567 0.000001
# 4 0.000000 0.000000 0.000000 -0.037905 0.000000 0.106428
# 5 -0.000148 0.002608 0.000567 0.000000 0.022836 0.000000
# 6 0.000000 0.000000 0.000001 0.106428 0.000000 -0.087012
#
#
# Mechanical properties :
#
#
# Convention : Reuss Voigt Hill
#
# Bulk Modulus (GPa) = 59.25991 62.08245 60.67118
# Shear Modulus (GPa) = -77.08716 34.74730 -21.16993
#
# Velocity S-wave (km/s) = -5.67742 3.81172 -2.97523
# Velocity P-wave (km/s) = 4.26599 6.73286 3.68325
#
# Compressibility (1/GPa) = 0.01687481
#
# Stress axis : x y z
#
# Youngs Moduli (GPa) = 100.99423 140.14931 138.93265
#
# Poissons Ratio (x) = 0.14450 0.25138
# Poissons Ratio (y) = 0.10413 0.11663
# Poissons Ratio (z) = 0.18273 0.11765
#
# Static dielectric constant tensor:
#      x y z
#    x 2.070560 0.000000 0.017120 
#    y 0.000000 1.883490 0.000000 
#    z 0.017120 0.000000 1.951200 
# 
# From -- ./inp_files/305216.got.cif
#   From: 2010.05.17/outbox.cif.g08.bks.cpg/sg12_153_cif.got.tgz:305216.got - 2010.06.03 13:09:07.
