data_PCOD9211191
_publ_section_title
;
Structure prediction by ZEFSAII (Michael W. Deem and Ramdas Pophale) SiO2 
 PCOD9211191
Probable space group: C 2/M
;
_chemical_formula_sum "Si O2"
_cell_formula_units_Z 34
_cell_length_a 23.781256
_cell_length_b 11.458980
_cell_length_c 5.084032
_cell_angle_alpha 90.000000
_cell_angle_beta 108.296507
_cell_angle_gamma 90.000000
_cell_volume 1315.402497
_symmetry_space_group_name_H-M "C 2/M"
_symmetry_group_IT_number 12
_symmetry_cell_setting 'monoclinic'
loop_
_space_group_symop_operation_xyz
x,y,z
-x,y,-z
-x,-y,-z
x,-y,z
1/2+x,1/2+y,z
1/2-x,1/2+y,-z
1/2-x,1/2-y,-z
1/2+x,1/2-y,z
loop_
_atom_site_type_symbol
_atom_site_label
_atom_site_fract_x
_atom_site_fract_y
_atom_site_fract_z
Si Si1 0.265212 0.500000 0.341828
Si Si2 0.096374 0.186839 0.616397
Si Si3 0.338036 0.128216 0.575401
Si Si4 0.657919 0.500000 0.048396
Si Si5 0.500000 0.500000 0.500000
Si Si6 0.548193 0.130201 0.886595
O O1 0.223447 0.609078 0.360399
O O2 0.286785 0.500000 0.074167
O O3 0.321493 0.500000 0.621852
O O4 0.152398 0.248127 0.555311
O O5 0.120142 0.112583 0.902916
O O6 0.062699 0.302932 0.647525
O O7 0.045385 0.100464 0.440442
O O8 0.342930 0.000000 0.432774
O O9 0.390954 0.127060 0.862037
O O10 0.527937 0.000000 0.804335
O O11 0.500000 0.190101 0.000000
#
# Coordination Sequence:
#
# PCOD9211191 Si02
#       6
#     4   8   8   4   2   8
#     4  10  26  48  67 107 139 184 243 302 327 420
#     4  11  23  43  69  95 142 187 224 291 349 429
#     4   9  22  40  69  98 135 178 232 293 345 410
#     4  11  28  45  69 104 144 189 243 277 359 406
#     4  10  24  44  60 104 132 178 236 274 354 432
#     4  10  21  39  68 104 134 176 234 289 356 417
#
# _framework density 25.8476
#
# number of rings (size 3 to 8) (size 9 to 14) (size 15 to 20)
#    0.706    1.176    0.000    2.118    6.588    1.882 
#    0.000    7.059    0.000    0.000    0.000    0.000 
#    0.000    0.000    0.000    0.000    0.000    0.000 
#
# Total GULP energy -94638.138668 kJ/mol
# GULP energy per Si atom -5566.949333 kJ/mol
# Density = 2.578877 g / cm^3
# Si number density = 25.847600 Si / 1000 Ang^3
#
#
#
# Elastic Constant Matrix: (Units=GPa)
#
#
# Indices 1 2 3 4 5 6 
#
# 1 107.8984 26.0607 -9.8040 0.0000 -1.0452 0.0000
# 2 26.0607 158.6866 7.3482 0.0000 -18.4796 0.0000
# 3 -9.8040 7.3482 48.3979 0.0000 13.0512 0.0000
# 4 0.0000 0.0000 0.0000 13.5536 0.0000 -14.8915
# 5 -1.0452 -18.4796 13.0512 0.0000 37.9545 0.0000
# 6 0.0000 0.0000 0.0000 -14.8915 0.0000 22.1435
#
#
#
# Elastic Compliance Matrix: (Units=1/GPa)
#
#
# Indices 1 2 3 4 5 6 
#
# 1 0.009975 -0.001955 0.002756 0.000000 -0.001625 0.000000
# 2 -0.001955 0.007260 -0.002686 0.000000 0.004405 0.000000
# 3 0.002756 -0.002686 0.024205 0.000000 -0.009555 0.000000
# 4 0.000000 0.000000 0.000000 0.282561 0.000000 0.190022
# 5 -0.001625 0.004405 -0.009555 0.000000 0.031733 0.000000
# 6 0.000000 0.000000 0.000000 0.190022 0.000000 0.172949
#
#
# Mechanical properties :
#
#
# Convention : Reuss Voigt Hill
#
# Bulk Modulus (GPa) = 26.54728 40.24364 33.39546
# Shear Modulus (GPa) = 9.17415 34.15550 21.66483
#
# Velocity S-wave (km/s) = 1.88601 3.63908 2.89827
# Velocity P-wave (km/s) = 3.87759 5.76720 4.91407
#
# Compressibility (1/GPa) = 0.03766864
#
# Stress axis : x y z
#
# Youngs Moduli (GPa) = 100.25269 137.73903 41.31426
#
# Poissons Ratio (x) = 0.26927 -0.11384
# Poissons Ratio (y) = 0.19599 0.11097
# Poissons Ratio (z) = -0.27625 0.36998
#
# Static dielectric constant tensor:
#      x y z
#    x 2.084110 0.000000 -0.023550 
#    y 0.000000 2.037490 0.000000 
#    z -0.023550 0.000000 2.077930 
# 
# From -- ./inp_files/23707.got.cif
#   From: 2010.05.17/outbox.cif.g08.bks.cpg/sg12_12_cif.got.tgz:23707.got - 2010.06.03 13:09:07.
