data_PCOD9211691
_publ_section_title
;
Structure prediction by ZEFSAII (Michael W. Deem and Ramdas Pophale) SiO2 
 PCOD9211691
Probable space group: C 2/M
;
_chemical_formula_sum "Si O2"
_cell_formula_units_Z 56
_cell_length_a 27.971534
_cell_length_b 9.103867
_cell_length_c 17.644035
_cell_angle_alpha 90.000000
_cell_angle_beta 140.388895
_cell_angle_gamma 90.000000
_cell_volume 2864.641195
_symmetry_space_group_name_H-M "C 2/M"
_symmetry_group_IT_number 12
_symmetry_cell_setting 'monoclinic'
loop_
_space_group_symop_operation_xyz
x,y,z
-x,y,-z
-x,-y,-z
x,-y,z
1/2+x,1/2+y,z
1/2-x,1/2+y,-z
1/2-x,1/2-y,-z
1/2+x,1/2-y,z
loop_
_atom_site_type_symbol
_atom_site_label
_atom_site_fract_x
_atom_site_fract_y
_atom_site_fract_z
Si Si1 0.053845 0.668417 0.661154
Si Si2 0.660662 0.671098 0.681716
Si Si3 0.822886 0.668716 0.057444
Si Si4 0.414186 0.329108 0.563375
Si Si5 0.331120 0.322072 0.616408
Si Si6 0.183069 0.824658 0.098628
Si Si7 0.584738 0.321852 0.125036
O O1 0.043432 0.500000 0.625051
O O2 0.087341 0.763944 0.633469
O O3 0.117064 0.671557 0.802900
O O4 0.980786 0.732473 0.611818
O O5 0.668658 0.500000 0.711703
O O6 0.650687 0.681957 0.579155
O O7 0.732795 0.762877 0.794062
O O8 0.805098 0.500000 0.016881
O O9 0.750000 0.750000 0.000000
O O10 0.851847 0.752054 0.018566
O O11 0.438330 0.500000 0.594958
O O12 0.383817 0.288075 0.608580
O O13 0.321477 0.500000 0.607970
O O14 0.250000 0.250000 0.500000
O O15 0.374401 0.274625 0.746619
O O16 0.138046 0.785000 0.119325
O O17 0.184385 0.000000 0.092728
O O18 0.580447 0.500000 0.124982
O O19 0.500000 0.271142 0.000000
#
# Coordination Sequence:
#
# PCOD9211691 Si02
#       7
#     8   8   8   8   8   8   8
#     4  11  24  39  58  86 119 154 197 244 295 356
#     4  11  22  38  59  85 121 159 196 240 293 359
#     4  11  23  39  59  86 120 157 197 240 294 355
#     4  10  23  39  60  89 118 156 198 241 301 358
#     4  10  21  40  65  90 121 159 204 254 303 363
#     4  11  22  36  61  90 117 155 202 245 293 351
#     4   9  20  38  61  91 121 156 202 252 304 359
#
# _framework density 19.548696
#
# number of rings (size 3 to 8) (size 9 to 14) (size 15 to 20)
#    0.000    1.571    1.429    3.000    2.000    5.143 
#    0.000    0.714    0.000    2.143    0.000    0.000 
#    0.000    0.000    0.000    0.000    0.000    0.000 
#
# Total GULP energy -156386.297241 kJ/mol
# GULP energy per Si atom -5585.224901 kJ/mol
# Density = 1.950420 g / cm^3
# Si number density = 19.548696 Si / 1000 Ang^3
#
#
#
# Elastic Constant Matrix: (Units=GPa)
#
#
# Indices 1 2 3 4 5 6 
#
# 1 130.3548 48.2477 61.9712 0.0000 -22.8158 0.0000
# 2 48.2477 69.6561 32.1202 0.0000 -8.6804 0.0000
# 3 61.9712 32.1202 119.7055 0.0000 -13.3889 0.0000
# 4 0.0000 0.0000 0.0000 28.9773 0.0000 2.0235
# 5 -22.8158 -8.6804 -13.3889 0.0000 40.6819 0.0000
# 6 0.0000 0.0000 0.0000 2.0235 0.0000 23.7050
#
#
#
# Elastic Compliance Matrix: (Units=1/GPa)
#
#
# Indices 1 2 3 4 5 6 
#
# 1 0.012926 -0.006328 -0.004500 0.000000 0.004418 0.000000
# 2 -0.006328 0.019660 -0.002001 0.000000 -0.000012 0.000000
# 3 -0.004500 -0.002001 0.011306 0.000000 0.000771 0.000000
# 4 0.000000 0.000000 0.000000 0.034717 0.000000 -0.002964
# 5 0.004418 -0.000012 0.000771 0.000000 0.027310 0.000000
# 6 0.000000 0.000000 0.000000 -0.002964 0.000000 0.042438
#
#
# Mechanical properties :
#
#
# Convention : Reuss Voigt Hill
#
# Bulk Modulus (GPa) = 54.83650 67.15495 60.99572
# Shear Modulus (GPa) = 27.76352 30.49799 29.13076
#
# Velocity S-wave (km/s) = 3.77267 3.95410 3.86445
# Velocity P-wave (km/s) = 6.86218 7.43463 7.15414
#
# Compressibility (1/GPa) = 0.01823603
#
# Stress axis : x y z
#
# Youngs Moduli (GPa) = 77.36426 50.86396 88.44570
#
# Poissons Ratio (x) = 0.32185 0.39797
# Poissons Ratio (y) = 0.48954 0.17697
# Poissons Ratio (z) = 0.34811 0.10178
#
# Static dielectric constant tensor:
#      x y z
#    x 1.656890 0.000000 -0.017790 
#    y 0.000000 1.669050 0.000000 
#    z -0.017790 0.000000 1.711750 
# 
# From -- ./inp_files/292586.got.cif
#   From: 2010.05.17/outbox.cif.g08.bks.cpg/sg12_147_cif.got.tgz:292586.got - 2010.06.03 13:09:07.
