data_PCOD9211864
_publ_section_title
;
Structure prediction by ZEFSAII (Michael W. Deem and Ramdas Pophale) SiO2 
 PCOD9211864
Probable space group: C 2/M
;
_chemical_formula_sum "Si O2"
_cell_formula_units_Z 58
_cell_length_a 17.047040
_cell_length_b 20.294775
_cell_length_c 12.312150
_cell_angle_alpha 90.000000
_cell_angle_beta 145.762904
_cell_angle_gamma 90.000000
_cell_volume 2396.521455
_symmetry_space_group_name_H-M "C 2/M"
_symmetry_group_IT_number 12
_symmetry_cell_setting 'monoclinic'
loop_
_space_group_symop_operation_xyz
x,y,z
-x,y,-z
-x,-y,-z
x,-y,z
1/2+x,1/2+y,z
1/2-x,1/2+y,-z
1/2-x,1/2-y,-z
1/2+x,1/2-y,z
loop_
_atom_site_type_symbol
_atom_site_label
_atom_site_fract_x
_atom_site_fract_y
_atom_site_fract_z
Si Si1 0.100159 0.931424 0.511478
Si Si2 0.000000 0.500000 0.000000
Si Si3 0.537250 0.744736 0.158105
Si Si4 0.574979 0.854089 0.474299
Si Si5 0.831860 0.074677 0.076163
Si Si6 0.409482 0.881326 0.065470
Si Si7 0.353240 0.290592 0.500031
Si Si8 0.836918 0.923168 0.838617
O O1 0.162087 0.859531 0.579170
O O2 0.000000 0.935591 0.500000
O O3 0.994184 0.932218 0.289393
O O4 0.188780 0.000000 0.610047
O O5 0.044127 0.440287 0.960816
O O6 0.436867 0.808082 0.051361
O O7 0.546688 0.702348 0.278999
O O8 0.693198 0.773269 0.338809
O O9 0.500000 0.712805 0.000000
O O10 0.500000 0.875770 0.500000
O O11 0.495772 0.880629 0.277803
O O12 0.583686 0.774508 0.483722
O O13 0.732900 0.880684 0.647397
O O14 0.774201 0.000000 0.011657
O O15 0.749525 0.111553 0.076195
O O16 0.812960 0.101442 0.934266
O O17 0.793231 0.000000 0.781885
O O18 0.000000 0.923044 0.000000
#
# Coordination Sequence:
#
# PCOD9211864 Si02
#       8
#     8   2   8   8   8   8   8   8
#     4  10  23  43  68  96 131 185 231 293 371 433
#     4  12  24  40  66 104 146 180 242 298 340 438
#     4  10  23  44  66  97 136 191 230 291 370 421
#     4  11  23  43  72 107 143 193 242 306 377 432
#     4  10  21  40  66  97 141 181 233 302 364 424
#     4  11  23  41  65 105 139 187 245 296 356 429
#     4  10  24  44  66  99 144 176 245 301 355 449
#     4  10  23  42  69 106 147 190 239 299 370 444
#
# _framework density 24.201743
#
# number of rings (size 3 to 8) (size 9 to 14) (size 15 to 20)
#    0.000    1.655    2.759    0.414    2.897    5.241 
#    3.724    1.379    0.000    0.414    0.000    0.000 
#    0.000    0.000    0.000    0.000    0.000    0.000 
#
# Total GULP energy -161804.855951 kJ/mol
# GULP energy per Si atom -5579.477791 kJ/mol
# Density = 2.414666 g / cm^3
# Si number density = 24.201743 Si / 1000 Ang^3
#
#
#
# Elastic Constant Matrix: (Units=GPa)
#
#
# Indices 1 2 3 4 5 6 
#
# 1 76.6405 34.6347 4.7898 0.0000 -12.0068 0.0000
# 2 34.6347 151.8913 23.2262 0.0000 -9.6675 0.0000
# 3 4.7898 23.2262 96.1460 0.0000 -9.3710 0.0000
# 4 0.0000 0.0000 0.0000 33.8952 0.0000 14.8763
# 5 -12.0068 -9.6675 -9.3710 0.0000 30.6000 0.0000
# 6 0.0000 0.0000 0.0000 14.8763 0.0000 23.6857
#
#
#
# Elastic Compliance Matrix: (Units=1/GPa)
#
#
# Indices 1 2 3 4 5 6 
#
# 1 0.015283 -0.003238 0.000521 0.000000 0.005133 0.000000
# 2 -0.003238 0.007610 -0.001615 0.000000 0.000639 0.000000
# 3 0.000521 -0.001615 0.011065 0.000000 0.003083 0.000000
# 4 0.000000 0.000000 0.000000 0.040730 0.000000 -0.025581
# 5 0.005133 0.000639 0.003083 0.000000 0.035840 0.000000
# 6 0.000000 0.000000 0.000000 -0.025581 0.000000 0.058286
#
#
# Mechanical properties :
#
#
# Convention : Reuss Voigt Hill
#
# Bulk Modulus (GPa) = 39.53337 49.99771 44.76554
# Shear Modulus (GPa) = 26.89495 35.10467 30.99981
#
# Velocity S-wave (km/s) = 3.33721 3.81268 3.58284
# Velocity P-wave (km/s) = 5.58745 6.33132 5.97098
#
# Compressibility (1/GPa) = 0.02529509
#
# Stress axis : x y z
#
# Youngs Moduli (GPa) = 65.43328 131.41418 90.37149
#
# Poissons Ratio (x) = 0.42549 -0.04709
# Poissons Ratio (y) = 0.21186 0.14592
# Poissons Ratio (z) = -0.03410 0.21219
#
# Static dielectric constant tensor:
#      x y z
#    x 1.957730 0.000000 0.015880 
#    y 0.000000 1.939140 0.000000 
#    z 0.015880 0.000000 2.083260 
# 
# From -- ./inp_files/159801.got.cif
#   From: 2010.05.17/outbox.cif.g08.bks.cpg/sg12_80_cif.got.tgz:159801.got - 2010.06.03 13:09:07.
