data_PCOD9211632
_publ_section_title
;
Structure prediction by ZEFSAII (Michael W. Deem and Ramdas Pophale) SiO2 
 PCOD9211632
Probable space group: C 2/M
;
_chemical_formula_sum "Si O2"
_cell_formula_units_Z 40
_cell_length_a 10.017517
_cell_length_b 26.935827
_cell_length_c 7.004197
_cell_angle_alpha 90.000000
_cell_angle_beta 85.369838
_cell_angle_gamma 90.000000
_cell_volume 1883.775422
_symmetry_space_group_name_H-M "C 2/M"
_symmetry_group_IT_number 12
_symmetry_cell_setting 'monoclinic'
loop_
_space_group_symop_operation_xyz
x,y,z
-x,y,-z
-x,-y,-z
x,-y,z
1/2+x,1/2+y,z
1/2-x,1/2+y,-z
1/2-x,1/2-y,-z
1/2+x,1/2-y,z
loop_
_atom_site_type_symbol
_atom_site_label
_atom_site_fract_x
_atom_site_fract_y
_atom_site_fract_z
Si Si1 0.775720 0.873800 0.822283
Si Si2 0.741670 0.890731 0.278881
Si Si3 0.996735 0.946910 0.230403
Si Si4 0.662893 0.701225 0.470083
Si Si5 0.530429 0.057425 0.768325
O O1 0.791788 0.818717 0.743002
O O2 0.657079 0.906206 0.744367
O O3 0.909284 0.901280 0.735450
O O4 0.760646 0.876944 0.051900
O O5 0.847620 0.934374 0.308291
O O6 0.784194 0.842692 0.395095
O O7 0.595361 0.914869 0.312995
O O8 0.046669 0.000000 0.293980
O O9 0.000000 0.949303 0.000000
O O10 0.500000 0.707476 0.500000
O O11 0.750000 0.750000 0.500000
O O12 0.551048 0.000000 0.704927
O O13 0.500000 0.054636 0.000000
#
# Coordination Sequence:
#
# PCOD9211632 Si02
#       5
#     8   8   8   8   8
#     4  10  21  40  64  92 127 161 200 249 301 366
#     4  10  21  40  64  92 127 161 200 249 301 366
#     4   9  16  31  59  90 123 161 192 232 292 356
#     4  12  28  46  65  88 116 156 211 270 321 364
#     4   9  18  35  63  98 133 169 202 236 292 364
#
# _framework density 21.233953
#
# number of rings (size 3 to 8) (size 9 to 14) (size 15 to 20)
#    0.000    2.000    2.000    1.200    2.800    5.600 
#    0.000    6.000    0.000    0.000    0.000    0.000 
#    0.000    0.000    0.000    0.000    0.000    0.000 
#
# Total GULP energy -111670.780926 kJ/mol
# GULP energy per Si atom -5583.539046 kJ/mol
# Density = 2.118562 g / cm^3
# Si number density = 21.233953 Si / 1000 Ang^3
#
#
#
# Elastic Constant Matrix: (Units=GPa)
#
#
# Indices 1 2 3 4 5 6 
#
# 1 133.6671 43.1230 1.9122 0.0000 -8.8668 0.0000
# 2 43.1230 133.7261 9.2247 0.0000 -1.4702 0.0000
# 3 1.9122 9.2247 72.6677 0.0000 6.5844 0.0000
# 4 0.0000 0.0000 0.0000 10.7965 0.0000 -2.1071
# 5 -8.8668 -1.4702 6.5844 0.0000 22.9693 0.0000
# 6 0.0000 0.0000 0.0000 -2.1071 0.0000 15.5556
#
#
#
# Elastic Compliance Matrix: (Units=1/GPa)
#
#
# Indices 1 2 3 4 5 6 
#
# 1 0.008572 -0.002717 -0.000169 0.000000 0.003183 0.000000
# 2 -0.002717 0.008419 -0.000976 0.000000 -0.000230 0.000000
# 3 -0.000169 -0.000976 0.014272 0.000000 -0.004219 0.000000
# 4 0.000000 0.000000 0.000000 0.095138 0.000000 0.012887
# 5 0.003183 -0.000230 -0.004219 0.000000 0.045960 0.000000
# 6 0.000000 0.000000 0.000000 0.012887 0.000000 0.066031
#
#
# Mechanical properties :
#
#
# Convention : Reuss Voigt Hill
#
# Bulk Modulus (GPa) = 42.48650 49.84228 46.16439
# Shear Modulus (GPa) = 19.68793 28.91768 24.30281
#
# Velocity S-wave (km/s) = 3.04828 3.69434 3.38675
# Velocity P-wave (km/s) = 5.69575 6.45921 6.08946
#
# Compressibility (1/GPa) = 0.02353689
#
# Stress axis : x y z
#
# Youngs Moduli (GPa) = 116.66512 118.77773 70.06754
#
# Poissons Ratio (x) = 0.32277 0.01184
# Poissons Ratio (y) = 0.31703 0.06841
# Poissons Ratio (z) = 0.01972 0.11597
#
# Static dielectric constant tensor:
#      x y z
#    x 1.769570 0.000000 0.021420 
#    y 0.000000 1.716940 0.000000 
#    z 0.021420 0.000000 1.860600 
# 
# From -- ./inp_files/40303.got.cif
#   From: 2010.05.17/outbox.cif.g08.bks.cpg/sg12_21_cif.got.tgz:40303.got - 2010.06.03 13:09:07.
