data_PCOD9211256
_publ_section_title
;
Structure prediction by ZEFSAII (Michael W. Deem and Ramdas Pophale) SiO2 
 PCOD9211256
Probable space group: C 2/M
;
_chemical_formula_sum "Si O2"
_cell_formula_units_Z 56
_cell_length_a 8.138481
_cell_length_b 23.766404
_cell_length_c 15.855854
_cell_angle_alpha 90.000000
_cell_angle_beta 116.529801
_cell_angle_gamma 90.000000
_cell_volume 2743.942170
_symmetry_space_group_name_H-M "C 2/M"
_symmetry_group_IT_number 12
_symmetry_cell_setting 'monoclinic'
loop_
_space_group_symop_operation_xyz
x,y,z
-x,y,-z
-x,-y,-z
x,-y,z
1/2+x,1/2+y,z
1/2-x,1/2+y,-z
1/2-x,1/2-y,-z
1/2+x,1/2-y,z
loop_
_atom_site_type_symbol
_atom_site_label
_atom_site_fract_x
_atom_site_fract_y
_atom_site_fract_z
Si Si1 0.371209 0.267518 0.889471
Si Si2 0.864318 0.177195 0.597625
Si Si3 0.204600 0.434574 0.871521
Si Si4 0.988474 0.670711 0.813249
Si Si5 0.044532 0.128304 0.205463
Si Si6 0.787841 0.433752 0.938521
Si Si7 0.263089 0.805846 0.606649
O O1 0.180780 0.296676 0.871692
O O2 0.351984 0.207299 0.839562
O O3 0.455081 0.311338 0.841206
O O4 0.500000 0.262146 0.000000
O O5 0.747972 0.163665 0.486512
O O6 0.787543 0.238804 0.603376
O O7 0.876106 0.138364 0.682736
O O8 0.072444 0.183517 0.611364
O O9 0.162459 0.500000 0.851296
O O10 0.026906 0.394600 0.835081
O O11 0.326985 0.411208 0.823453
O O12 0.293775 0.428066 0.984967
O O13 0.929023 0.675820 0.703168
O O14 0.844145 0.100345 0.153285
O O15 0.789914 0.500000 0.916991
O O16 0.000000 0.415776 0.000000
#
# Coordination Sequence:
#
# PCOD9211256 Si02
#       7
#     8   8   8   8   8   8   8
#     4  11  23  36  51  91 129 162 200 238 318 369
#     4  10  22  37  62  89 123 161 207 254 321 377
#     4  10  23  41  60  86 122 171 214 248 300 364
#     4  11  22  37  61  84 123 165 200 254 303 371
#     4  11  21  37  61  88 121 164 205 257 311 378
#     4  10  22  39  60  89 121 164 217 259 300 361
#     4  10  21  40  58  89 125 161 204 260 310 384
#
# _framework density 20.408595999999999
#
# number of rings (size 3 to 8) (size 9 to 14) (size 15 to 20)
#    0.000    1.571    1.429    3.857    4.000    1.714 
#    0.000    0.000    0.000    2.571    0.000    5.000 
#    0.000    0.000    0.000    0.000    0.000    0.000 
#
# Total GULP energy -156403.743002 kJ/mol
# GULP energy per Si atom -5585.847964 kJ/mol
# Density = 2.036214 g / cm^3
# Si number density = 20.408596 Si / 1000 Ang^3
#
#
#
# Elastic Constant Matrix: (Units=GPa)
#
#
# Indices 1 2 3 4 5 6 
#
# 1 64.4198 21.1046 15.8048 0.0000 -16.3849 0.0000
# 2 21.1046 97.9831 36.0119 0.0000 -9.9300 0.0000
# 3 15.8048 36.0119 158.0004 0.0000 -19.0065 0.0000
# 4 0.0000 0.0000 0.0000 20.4552 0.0000 -7.2862
# 5 -16.3849 -9.9300 -19.0065 0.0000 19.1503 0.0000
# 6 0.0000 0.0000 0.0000 -7.2862 0.0000 119.8110
#
#
#
# Elastic Compliance Matrix: (Units=1/GPa)
#
#
# Indices 1 2 3 4 5 6 
#
# 1 0.020590 -0.002973 0.000627 0.000000 0.016697 0.000000
# 2 -0.002973 0.011804 -0.002229 0.000000 0.001365 0.000000
# 3 0.000627 -0.002229 0.007608 0.000000 0.006932 0.000000
# 4 0.000000 0.000000 0.000000 0.049970 0.000000 0.003039
# 5 0.016697 0.001365 0.006932 0.000000 0.074092 0.000000
# 6 0.000000 0.000000 0.000000 0.003039 0.000000 0.008531
#
#
# Mechanical properties :
#
#
# Convention : Reuss Voigt Hill
#
# Bulk Modulus (GPa) = 32.41306 51.80511 42.10908
# Shear Modulus (GPa) = 26.03761 48.38210 37.20986
#
# Velocity S-wave (km/s) = 3.57573 4.87424 4.27458
# Velocity P-wave (km/s) = 5.74146 7.55756 6.71122
#
# Compressibility (1/GPa) = 0.03085176
#
# Stress axis : x y z
#
# Youngs Moduli (GPa) = 48.56640 84.71951 131.43658
#
# Poissons Ratio (x) = 0.25188 -0.08235
# Poissons Ratio (y) = 0.14439 0.29294
# Poissons Ratio (z) = -0.03043 0.18882
#
# Static dielectric constant tensor:
#      x y z
#    x 1.848980 0.000000 -0.022220 
#    y 0.000000 1.709240 0.000000 
#    z -0.022220 0.000000 1.746790 
# 
# From -- ./inp_files/258998.got.cif
#   From: 2010.05.17/outbox.cif.g08.bks.cpg/sg12_130_cif.got.tgz:258998.got - 2010.06.03 13:09:07.
