data_PCOD9211647
_publ_section_title
;
Structure prediction by ZEFSAII (Michael W. Deem and Ramdas Pophale) SiO2 
 PCOD9211647
Probable space group: C 2/M
;
_chemical_formula_sum "Si O2"
_cell_formula_units_Z 64
_cell_length_a 20.508263
_cell_length_b 24.572314
_cell_length_c 16.712826
_cell_angle_alpha 90.000000
_cell_angle_beta 20.952121
_cell_angle_gamma 90.000000
_cell_volume 3011.669951
_symmetry_space_group_name_H-M "C 2/M"
_symmetry_group_IT_number 12
_symmetry_cell_setting 'monoclinic'
loop_
_space_group_symop_operation_xyz
x,y,z
-x,y,-z
-x,-y,-z
x,-y,z
1/2+x,1/2+y,z
1/2-x,1/2+y,-z
1/2-x,1/2-y,-z
1/2+x,1/2-y,z
loop_
_atom_site_type_symbol
_atom_site_label
_atom_site_fract_x
_atom_site_fract_y
_atom_site_fract_z
Si Si1 0.375212 0.276296 0.946396
Si Si2 0.112372 0.153272 0.793914
Si Si3 0.031760 0.712935 0.551731
Si Si4 0.963466 0.060210 0.686806
Si Si5 0.193525 0.941023 0.580057
Si Si6 0.594725 0.676980 0.542213
Si Si7 0.989473 0.677689 0.920212
Si Si8 0.080693 0.439661 0.046043
O O1 0.476084 0.308248 0.901480
O O2 0.472926 0.297932 0.754034
O O3 0.395384 0.214618 0.959112
O O4 0.163387 0.291461 0.181989
O O5 0.297440 0.184730 0.603213
O O6 0.168869 0.104805 0.672323
O O7 0.000000 0.135164 0.000000
O O8 0.083840 0.776585 0.488041
O O9 0.000000 0.690434 0.500000
O O10 0.031937 0.061810 0.699734
O O11 0.041887 0.118084 0.567935
O O12 0.027279 0.000000 0.582394
O O13 0.748787 0.061797 0.915548
O O14 0.385692 0.937495 0.313386
O O15 0.186978 0.000000 0.626690
O O16 0.797218 0.673687 0.346071
O O17 0.908466 0.616419 0.015978
O O18 0.000000 0.699648 0.000000
O O19 0.091191 0.500000 0.993804
#
# Coordination Sequence:
#
# PCOD9211647 Si02
#       8
#     8   8   8   8   8   8   8   8
#     4  12  24  43  62  96 127 169 222 268 321 387
#     4  12  24  42  65  92 135 172 214 265 329 391
#     4  12  26  42  64  94 136 172 209 264 332 390
#     4  10  21  40  64  94 125 159 215 274 319 371
#     4  10  22  41  68  95 126 167 216 273 322 378
#     4  12  24  40  68  95 124 173 217 270 319 390
#     4  12  24  41  65  93 136 173 211 274 334 388
#     4  10  22  41  66  94 126 170 219 270 323 384
#
# _framework density 21.250668999999998
#
# number of rings (size 3 to 8) (size 9 to 14) (size 15 to 20)
#    0.000    0.750    5.000    2.625    3.500    0.500 
#    0.000    0.000    0.000    2.250    0.000    0.000 
#    0.000    0.000    0.000    0.000    0.000    0.000 
#
# Total GULP energy -178648.764420 kJ/mol
# GULP energy per Si atom -5582.773888 kJ/mol
# Density = 2.120230 g / cm^3
# Si number density = 21.250669 Si / 1000 Ang^3
#
#
#
# Elastic Constant Matrix: (Units=GPa)
#
#
# Indices 1 2 3 4 5 6 
#
# 1 62.9352 24.0632 28.5753 -0.0095 -16.2878 0.0246
# 2 24.0632 128.4323 20.3530 0.0471 -9.1397 0.0107
# 3 28.5753 20.3530 96.5219 0.1705 -13.1498 0.0051
# 4 -0.0095 0.0471 0.1705 25.6989 -0.0478 -17.3060
# 5 -16.2878 -9.1397 -13.1498 -0.0478 24.9742 -0.0012
# 6 0.0246 0.0107 0.0051 -17.3060 -0.0012 21.6159
#
#
#
# Elastic Compliance Matrix: (Units=1/GPa)
#
#
# Indices 1 2 3 4 5 6 
#
# 1 0.021693 -0.002594 -0.004392 0.000103 0.010886 0.000061
# 2 -0.002594 0.008481 -0.000892 -0.000021 0.000942 -0.000017
# 3 -0.004392 -0.000892 0.012296 -0.000160 0.003283 -0.000125
# 4 0.000103 -0.000021 -0.000160 0.084437 0.000140 0.067602
# 5 0.010886 0.000942 0.003283 0.000140 0.049215 0.000101
# 6 0.000061 -0.000017 -0.000125 0.067602 0.000101 0.100385
#
#
# Mechanical properties :
#
#
# Convention : Reuss Voigt Hill
#
# Bulk Modulus (GPa) = 37.43402 48.20803 42.82103
# Shear Modulus (GPa) = 16.60208 28.78434 22.69321
#
# Velocity S-wave (km/s) = 2.79812 3.68437 3.27139
# Velocity P-wave (km/s) = 5.30028 6.39015 5.87056
#
# Compressibility (1/GPa) = 0.02671367
#
# Stress axis : x y z
#
# Youngs Moduli (GPa) = 46.09855 117.91656 81.32503
#
# Poissons Ratio (x) = 0.30583 0.35721
# Poissons Ratio (y) = 0.11956 0.07254
# Poissons Ratio (z) = 0.20248 0.10518
#
# Static dielectric constant tensor:
#      x y z
#    x 1.753500 -0.000040 0.018590 
#    y -0.000040 1.825730 0.000030 
#    z 0.018590 0.000030 1.786990 
# 
# From -- ./inp_files/286403.got.cif
#   From: 2010.05.17/outbox.cif.g08.bks.cpg/sg12_144_cif.got.tgz:286403.got - 2010.06.03 13:09:07.
