data_PCOD9211991
_publ_section_title
;
Structure prediction by ZEFSAII (Michael W. Deem and Ramdas Pophale) SiO2 
 PCOD9211991
Probable space group: C 2/M
;
_chemical_formula_sum "Si O2"
_cell_formula_units_Z 44
_cell_length_a 5.374618
_cell_length_b 29.120398
_cell_length_c 16.225929
_cell_angle_alpha 90.000000
_cell_angle_beta 129.801915
_cell_angle_gamma 90.000000
_cell_volume 1951.029811
_symmetry_space_group_name_H-M "C 2/M"
_symmetry_group_IT_number 12
_symmetry_cell_setting 'monoclinic'
loop_
_space_group_symop_operation_xyz
x,y,z
-x,y,-z
-x,-y,-z
x,-y,z
1/2+x,1/2+y,z
1/2-x,1/2+y,-z
1/2-x,1/2-y,-z
1/2+x,1/2-y,z
loop_
_atom_site_type_symbol
_atom_site_label
_atom_site_fract_x
_atom_site_fract_y
_atom_site_fract_z
Si Si1 0.746963 0.317309 0.123836
Si Si2 0.249583 0.622172 0.125715
Si Si3 0.153205 0.273724 0.335175
Si Si4 0.000000 0.415812 0.500000
Si Si5 0.323704 0.878284 0.617338
Si Si6 0.149135 0.947744 0.709582
O O1 0.546229 0.350150 0.145337
O O2 0.040240 0.344264 0.140815
O O3 0.894755 0.275368 0.205804
O O4 0.500000 0.303264 0.000000
O O5 0.355704 0.579174 0.204378
O O6 0.000000 0.608434 0.000000
O O7 0.468224 0.246785 0.373742
O O8 0.225708 0.327352 0.362203
O O9 0.058060 0.381042 0.589554
O O10 0.695059 0.447727 0.411956
O O11 0.372147 0.916284 0.697072
O O12 0.000000 0.892592 0.500000
O O13 0.260190 0.000000 0.742311
#
# Coordination Sequence:
#
# PCOD9211991 Si02
#       6
#     8   8   8   4   8   8
#     4  10  21  41  66  93 131 175 220 272 327 385
#     4  10  21  40  69  97 134 180 218 266 330 395
#     4  12  26  40  66  97 130 171 221 269 330 396
#     4  10  23  42  68  92 132 174 224 270 341 384
#     4  10  24  43  65  90 130 171 217 275 329 390
#     4  11  23  40  67  99 134 172 222 275 331 397
#
# _framework density 22.552194
#
# number of rings (size 3 to 8) (size 9 to 14) (size 15 to 20)
#    0.000    1.455    1.818    2.455    5.091    5.818 
#    0.000    0.000    0.000    3.273    0.000    0.000 
#    0.000    0.000    0.000    0.000    0.000    0.000 
#
# Total GULP energy -122690.232103 kJ/mol
# GULP energy per Si atom -5576.828732 kJ/mol
# Density = 2.250086 g / cm^3
# Si number density = 22.552194 Si / 1000 Ang^3
#
#
#
# Elastic Constant Matrix: (Units=GPa)
#
#
# Indices 1 2 3 4 5 6 
#
# 1 116.0121 36.1337 28.6363 0.0000 -12.7083 0.0000
# 2 36.1337 60.7901 19.4638 0.0000 -11.3556 0.0000
# 3 28.6363 19.4638 89.4241 0.0000 -1.2267 0.0000
# 4 0.0000 0.0000 0.0000 11.7739 0.0000 15.4235
# 5 -12.7083 -11.3556 -1.2267 0.0000 24.3510 0.0000
# 6 0.0000 0.0000 0.0000 15.4235 0.0000 4.8673
#
#
#
# Elastic Compliance Matrix: (Units=1/GPa)
#
#
# Indices 1 2 3 4 5 6 
#
# 1 0.011217 -0.005290 -0.002396 0.000000 0.003266 0.000000
# 2 -0.005290 0.021912 -0.002975 0.000000 0.007308 0.000000
# 3 -0.002396 -0.002975 0.012570 0.000000 -0.002004 0.000000
# 4 0.000000 0.000000 0.000000 -0.026954 0.000000 0.085413
# 5 0.003266 0.007308 -0.002004 0.000000 0.046077 0.000000
# 6 0.000000 0.000000 0.000000 0.085413 0.000000 -0.065202
#
#
# Mechanical properties :
#
#
# Convention : Reuss Voigt Hill
#
# Bulk Modulus (GPa) = 41.02216 48.29932 44.66074
# Shear Modulus (GPa) = 172.01860 20.33127 96.17494
#
# Velocity S-wave (km/s) = 8.74307 3.00579 6.53744
# Velocity P-wave (km/s) = 10.96135 5.78874 8.76529
#
# Compressibility (1/GPa) = 0.02437707
#
# Stress axis : x y z
#
# Youngs Moduli (GPa) = 89.15388 45.63706 79.55522
#
# Poissons Ratio (x) = 0.24142 0.19059
# Poissons Ratio (y) = 0.47162 0.23668
# Poissons Ratio (z) = 0.21358 0.13577
#
# Static dielectric constant tensor:
#      x y z
#    x 3.913870 0.000000 -0.167360 
#    y 0.000000 1.791500 0.000000 
#    z -0.167360 0.000000 1.925130 
# 
# From -- ./inp_files/253689.got.cif
#   From: 2010.05.17/outbox.cif.g08.bks.cpg/sg12_127_cif.got.tgz:253689.got - 2010.06.03 13:09:07.
