data_PCOD9211051
_publ_section_title
;
Structure prediction by ZEFSAII (Michael W. Deem and Ramdas Pophale) SiO2 
 PCOD9211051
Probable space group: C 2/M
;
_chemical_formula_sum "Si O2"
_cell_formula_units_Z 64
_cell_length_a 19.873609
_cell_length_b 18.027017
_cell_length_c 12.127263
_cell_angle_alpha 90.000000
_cell_angle_beta 44.968100
_cell_angle_gamma 90.000000
_cell_volume 3070.481430
_symmetry_space_group_name_H-M "C 2/M"
_symmetry_group_IT_number 12
_symmetry_cell_setting 'monoclinic'
loop_
_space_group_symop_operation_xyz
x,y,z
-x,y,-z
-x,-y,-z
x,-y,z
1/2+x,1/2+y,z
1/2-x,1/2+y,-z
1/2-x,1/2-y,-z
1/2+x,1/2-y,z
loop_
_atom_site_type_symbol
_atom_site_label
_atom_site_fract_x
_atom_site_fract_y
_atom_site_fract_z
Si Si1 0.305657 0.165005 0.560258
Si Si2 0.164845 0.828874 0.540416
Si Si3 0.796803 0.911143 0.710352
Si Si4 0.139137 0.914319 0.126821
Si Si5 0.479710 0.688168 0.898977
Si Si6 0.188994 0.414600 0.231145
Si Si7 0.916771 0.644464 0.008050
Si Si8 0.492238 0.087379 0.691285
O O1 0.244281 0.136878 0.528526
O O2 0.299844 0.253351 0.558034
O O3 0.270754 0.135482 0.718060
O O4 0.412725 0.135303 0.425515
O O5 0.145543 0.885144 0.463951
O O6 0.079522 0.804045 0.718964
O O7 0.850359 0.886779 0.760271
O O8 0.788205 0.000000 0.724779
O O9 0.689542 0.877547 0.831355
O O10 0.077900 0.866398 0.113579
O O11 0.106400 0.000000 0.165483
O O12 0.244630 0.912702 0.952476
O O13 0.427672 0.767457 0.971960
O O14 0.500000 0.660547 0.000000
O O15 0.186105 0.500000 0.273065
O O16 0.084095 0.392034 0.314087
O O17 0.942555 0.601965 0.866019
O O18 0.000000 0.626904 0.000000
O O19 0.513316 0.000000 0.655439
#
# Coordination Sequence:
#
# PCOD9211051 Si02
#       8
#     8   8   8   8   8   8   8   8
#     4  11  23  40  61  92 133 174 210 266 324 390
#     4  11  26  43  63  94 132 175 221 265 322 388
#     4  11  25  45  68  97 133 174 223 274 331 394
#     4  10  23  44  68  94 128 174 224 275 325 382
#     4  11  25  45  68  98 131 175 224 275 326 389
#     4  10  21  39  65  96 130 166 210 268 332 395
#     4  11  23  39  65  99 133 171 215 269 332 397
#     4  11  21  39  64  96 134 166 212 269 330 402
#
# _framework density 20.843637000000001
#
# number of rings (size 3 to 8) (size 9 to 14) (size 15 to 20)
#    0.000    1.250    2.500    2.625    7.000    6.750 
#    2.250    1.250    0.000    0.000    0.000    0.000 
#    0.000    0.000    0.000    0.000    0.000    0.000 
#
# Total GULP energy -178864.898694 kJ/mol
# GULP energy per Si atom -5589.528084 kJ/mol
# Density = 2.079620 g / cm^3
# Si number density = 20.843637 Si / 1000 Ang^3
#
#
#
# Elastic Constant Matrix: (Units=GPa)
#
#
# Indices 1 2 3 4 5 6 
#
# 1 118.9715 54.4469 11.7170 0.0000 36.4232 0.0000
# 2 54.4469 46.6002 14.9821 0.0000 15.7597 0.0000
# 3 11.7170 14.9821 62.1737 0.0000 31.1061 0.0000
# 4 0.0000 0.0000 0.0000 30.5383 0.0000 1.8439
# 5 36.4232 15.7597 31.1061 0.0000 34.9148 0.0000
# 6 0.0000 0.0000 0.0000 1.8439 0.0000 28.9293
#
#
#
# Elastic Compliance Matrix: (Units=1/GPa)
#
#
# Indices 1 2 3 4 5 6 
#
# 1 0.032472 -0.031741 0.020403 0.000000 -0.037725 0.000000
# 2 -0.031741 0.056368 -0.020637 0.000000 0.026054 0.000000
# 3 0.020403 -0.020637 0.041858 0.000000 -0.049261 0.000000
# 4 0.000000 0.000000 0.000000 0.032872 0.000000 -0.002095
# 5 -0.037725 0.026054 -0.049261 0.000000 0.100123 0.000000
# 6 0.000000 0.000000 0.000000 -0.002095 0.000000 0.034701
#
#
# Mechanical properties :
#
#
# Convention : Reuss Voigt Hill
#
# Bulk Modulus (GPa) = 14.98152 43.33750 29.15951
# Shear Modulus (GPa) = 13.00083 28.64978 20.82530
#
# Velocity S-wave (km/s) = 2.50017 3.71146 3.16432
# Velocity P-wave (km/s) = 3.94178 6.26126 5.23169
#
# Compressibility (1/GPa) = 0.06674889
#
# Stress axis : x y z
#
# Youngs Moduli (GPa) = 30.79623 17.74055 23.89056
#
# Poissons Ratio (x) = 0.56310 -0.48745
# Poissons Ratio (y) = 0.97750 0.49302
# Poissons Ratio (z) = -0.62834 0.36610
#
# Static dielectric constant tensor:
#      x y z
#    x 1.748240 0.000000 -0.014390 
#    y 0.000000 1.718000 0.000000 
#    z -0.014390 0.000000 1.790700 
# 
# From -- ./inp_files/168749.got.cif
#   From: 2010.05.17/outbox.cif.g08.bks.cpg/sg12_85_cif.got.tgz:168749.got - 2010.06.03 13:09:07.
