data_PCOD9211417
_publ_section_title
;
Structure prediction by ZEFSAII (Michael W. Deem and Ramdas Pophale) SiO2 
 PCOD9211417
Probable space group: C 2/M
;
_chemical_formula_sum "Si O2"
_cell_formula_units_Z 64
_cell_length_a 11.332551
_cell_length_b 18.607399
_cell_length_c 27.492503
_cell_angle_alpha 90.000000
_cell_angle_beta 148.048141
_cell_angle_gamma 90.000000
_cell_volume 3067.982154
_symmetry_space_group_name_H-M "C 2/M"
_symmetry_group_IT_number 12
_symmetry_cell_setting 'monoclinic'
loop_
_space_group_symop_operation_xyz
x,y,z
-x,y,-z
-x,-y,-z
x,-y,z
1/2+x,1/2+y,z
1/2-x,1/2+y,-z
1/2-x,1/2-y,-z
1/2+x,1/2-y,z
loop_
_atom_site_type_symbol
_atom_site_label
_atom_site_fract_x
_atom_site_fract_y
_atom_site_fract_z
Si Si1 0.651986 0.661339 0.685548
Si Si2 0.880000 0.196326 0.759126
Si Si3 0.503277 0.332458 0.057351
Si Si4 0.450324 0.917713 0.225952
Si Si5 0.456116 0.080217 0.339446
Si Si6 0.849925 0.170376 0.487954
Si Si7 0.679324 0.824243 0.028745
Si Si8 0.251884 0.819855 0.399895
O O1 0.759265 0.735516 0.741531
O O2 0.515714 0.682792 0.589708
O O3 0.456591 0.634913 0.652496
O O4 0.853445 0.609433 0.740737
O O5 0.774523 0.121717 0.739274
O O6 0.820010 0.196904 0.680777
O O7 0.129444 0.199655 0.866123
O O8 0.747622 0.360744 0.156995
O O9 0.314115 0.358202 0.030050
O O10 0.500000 0.357468 0.000000
O O11 0.450911 0.246794 0.036679
O O12 0.534963 0.919610 0.311081
O O13 0.379594 0.000000 0.189399
O O14 0.640057 0.125564 0.432052
O O15 0.436995 0.000000 0.350841
O O16 0.763218 0.243327 0.432625
O O17 0.000000 0.131401 0.500000
O O18 0.500000 0.865541 0.000000
O O19 0.500000 0.849604 0.500000
#
# Coordination Sequence:
#
# PCOD9211417 Si02
#       8
#     8   8   8   8   8   8   8   8
#     4  12  22  36  63  92 127 164 217 269 314 370
#     4  12  22  38  65  91 127 166 212 263 315 378
#     4  10  21  40  62  91 129 161 206 261 330 381
#     4  11  24  42  63  93 127 167 210 256 322 388
#     4  11  23  39  60  86 123 168 211 254 313 380
#     4  11  19  35  56  89 125 159 206 262 316 363
#     4  10  22  37  62  96 129 158 211 268 323 382
#     4  11  22  37  59  95 128 169 207 265 325 368
#
# _framework density 20.860617999999999
#
# number of rings (size 3 to 8) (size 9 to 14) (size 15 to 20)
#    0.000    1.000    6.250    2.625    0.000    5.000 
#    0.000    0.625    0.000    3.000    0.000    0.000 
#    0.000    0.000    0.000    0.000    0.000    0.000 
#
# Total GULP energy -178275.513543 kJ/mol
# GULP energy per Si atom -5571.109798 kJ/mol
# Density = 2.081314 g / cm^3
# Si number density = 20.860618 Si / 1000 Ang^3
#
#
#
# Elastic Constant Matrix: (Units=GPa)
#
#
# Indices 1 2 3 4 5 6 
#
# 1 124.7601 16.7755 36.2556 0.0002 21.7142 0.0000
# 2 16.7755 53.9680 26.0434 -0.0002 21.5021 0.0000
# 3 36.2556 26.0434 108.2231 0.0001 20.4330 0.0000
# 4 0.0002 -0.0002 0.0001 8.1369 0.0000 4.8944
# 5 21.7142 21.5021 20.4330 0.0000 42.2668 0.0000
# 6 0.0000 0.0000 0.0000 4.8944 0.0000 12.7264
#
#
#
# Elastic Compliance Matrix: (Units=1/GPa)
#
#
# Indices 1 2 3 4 5 6 
#
# 1 0.009364 -0.000377 -0.002393 0.000000 -0.003462 0.000000
# 2 -0.000377 0.024683 -0.003829 0.000001 -0.010512 0.000000
# 3 -0.002393 -0.003829 0.011404 0.000000 -0.002336 0.000000
# 4 0.000000 0.000001 0.000000 0.159883 0.000000 -0.061489
# 5 -0.003462 -0.010512 -0.002336 0.000000 0.031915 0.000000
# 6 0.000000 0.000000 0.000000 -0.061489 0.000000 0.102225
#
#
# Mechanical properties :
#
#
# Convention : Reuss Voigt Hill
#
# Bulk Modulus (GPa) = 31.00339 49.45557 40.22948
# Shear Modulus (GPa) = 13.75816 26.48448 20.12132
#
# Velocity S-wave (km/s) = 2.57091 3.56700 3.10911
# Velocity P-wave (km/s) = 4.86901 6.38152 5.67587
#
# Compressibility (1/GPa) = 0.03225454
#
# Stress axis : x y z
#
# Youngs Moduli (GPa) = 106.79248 40.51447 87.68711
#
# Poissons Ratio (x) = 0.01526 0.20981
# Poissons Ratio (y) = 0.04021 0.33574
# Poissons Ratio (z) = 0.25552 0.15512
#
# Static dielectric constant tensor:
#      x y z
#    x 1.881940 0.000000 0.004500 
#    y 0.000000 1.727170 0.000000 
#    z 0.004500 0.000000 1.800310 
# 
# From -- ./inp_files/374478.got.cif
#   From: 2010.05.17/outbox.cif.g08.bks.cpg/sg12_188_cif.got.tgz:374478.got - 2010.06.03 13:09:07.
