data_PCOD9211226
_publ_section_title
;
Structure prediction by ZEFSAII (Michael W. Deem and Ramdas Pophale) SiO2 
 PCOD9211226
Probable space group: C 2/M
;
_chemical_formula_sum "Si O2"
_cell_formula_units_Z 64
_cell_length_a 9.713528
_cell_length_b 28.125627
_cell_length_c 17.778581
_cell_angle_alpha 90.000000
_cell_angle_beta 142.303687
_cell_angle_gamma 90.000000
_cell_volume 2969.995612
_symmetry_space_group_name_H-M "C 2/M"
_symmetry_group_IT_number 12
_symmetry_cell_setting 'monoclinic'
loop_
_space_group_symop_operation_xyz
x,y,z
-x,y,-z
-x,-y,-z
x,-y,z
1/2+x,1/2+y,z
1/2-x,1/2+y,-z
1/2-x,1/2-y,-z
1/2+x,1/2-y,z
loop_
_atom_site_type_symbol
_atom_site_label
_atom_site_fract_x
_atom_site_fract_y
_atom_site_fract_z
Si Si1 0.110479 0.428000 0.467568
Si Si2 0.134740 0.684763 0.483425
Si Si3 0.974634 0.726455 0.130374
Si Si4 0.266207 0.947511 0.189157
Si Si5 0.369607 0.554024 0.290200
Si Si6 0.310165 0.554703 0.086846
Si Si7 0.041588 0.614015 0.857322
Si Si8 0.036365 0.759308 0.709896
O O1 0.101429 0.370886 0.459473
O O2 0.369747 0.442644 0.575404
O O3 0.000000 0.442274 0.500000
O O4 0.965422 0.446947 0.336033
O O5 0.394860 0.697942 0.611393
O O6 0.000000 0.700300 0.500000
O O7 0.040130 0.713819 0.372004
O O8 0.944331 0.670413 0.132132
O O9 0.030802 0.751632 0.233443
O O10 0.196952 0.733221 0.176649
O O11 0.750000 0.750000 0.000000
O O12 0.310965 0.907800 0.146435
O O13 0.039797 0.940008 0.138863
O O14 0.255486 0.000000 0.148303
O O15 0.288998 0.500000 0.270620
O O16 0.358323 0.562530 0.195343
O O17 0.209242 0.592534 0.259992
O O18 0.231680 0.500000 0.044651
O O19 0.135110 0.590639 0.974470
#
# Coordination Sequence:
#
# PCOD9211226 Si02
#       8
#     8   8   8   8   8   8   8   8
#     4  11  22  38  64  99 129 172 219 265 315 389
#     4  10  21  39  70  94 125 168 217 274 325 378
#     4  12  28  45  66  93 133 172 214 274 337 392
#     4  11  23  41  66  96 133 173 213 268 323 382
#     4  11  23  41  66  96 133 173 213 268 323 382
#     4  10  22  41  66  93 125 172 222 264 311 386
#     4  12  26  43  64  97 129 170 216 270 327 394
#     4  11  23  46  66  96 125 167 218 274 328 399
#
# _framework density 21.548853999999999
#
# number of rings (size 3 to 8) (size 9 to 14) (size 15 to 20)
#    0.000    1.000    2.500    4.125    0.000    9.000 
#    0.000    3.750    0.000    0.000    0.000    0.000 
#    0.000    0.000    0.000    0.000    0.000    0.000 
#
# Total GULP energy -179140.940125 kJ/mol
# GULP energy per Si atom -5598.154379 kJ/mol
# Density = 2.149981 g / cm^3
# Si number density = 21.548854 Si / 1000 Ang^3
#
#
#
# Elastic Constant Matrix: (Units=GPa)
#
#
# Indices 1 2 3 4 5 6 
#
# 1 56.2189 15.1551 -2.7786 0.0000 16.2028 0.0000
# 2 15.1551 94.6961 18.9269 0.0000 8.7473 0.0000
# 3 -2.7786 18.9269 107.7638 0.0000 16.9370 0.0001
# 4 0.0000 0.0000 0.0000 2.5424 0.0000 11.1554
# 5 16.2028 8.7473 16.9370 0.0000 44.5132 0.0000
# 6 0.0000 0.0000 0.0001 11.1554 0.0000 19.8646
#
#
#
# Elastic Compliance Matrix: (Units=1/GPa)
#
#
# Indices 1 2 3 4 5 6 
#
# 1 0.021024 -0.003098 0.002333 0.000000 -0.007932 0.000000
# 2 -0.003098 0.011497 -0.002044 0.000000 -0.000354 0.000000
# 3 0.002333 -0.002044 0.010390 0.000000 -0.004401 0.000000
# 4 0.000000 0.000000 0.000000 -0.268659 0.000000 0.150872
# 5 -0.007932 -0.000354 -0.004401 0.000000 0.027096 0.000000
# 6 0.000000 0.000000 0.000000 0.150872 0.000000 -0.034385
#
#
# Mechanical properties :
#
#
# Convention : Reuss Voigt Hill
#
# Bulk Modulus (GPa) = 26.81430 35.69838 31.25634
# Shear Modulus (GPa) = -23.25727 28.54240 2.64256
#
# Velocity S-wave (km/s) = -3.28881 3.64338 1.10859
# Velocity P-wave (km/s) = 1.39684 5.85672 4.02181
#
# Compressibility (1/GPa) = 0.03729354
#
# Stress axis : x y z
#
# Youngs Moduli (GPa) = 47.56453 86.97858 96.24349
#
# Poissons Ratio (x) = 0.26948 -0.22452
# Poissons Ratio (y) = 0.14737 0.19668
# Poissons Ratio (z) = -0.11096 0.17774
#
# Static dielectric constant tensor:
#      x y z
#    x 1.767850 0.000000 0.014950 
#    y 0.000000 1.746930 0.000000 
#    z 0.014950 0.000000 1.765520 
# 
# From -- ./inp_files/260383.got.cif
#   From: 2010.05.17/outbox.cif.g08.bks.cpg/sg12_131_cif.got.tgz:260383.got - 2010.06.03 13:09:07.
