data_PCOD9211631
_publ_section_title
;
Structure prediction by ZEFSAII (Michael W. Deem and Ramdas Pophale) SiO2 
 PCOD9211631
Probable space group: C 2/M
;
_chemical_formula_sum "Si O2"
_cell_formula_units_Z 56
_cell_length_a 11.863454
_cell_length_b 28.178481
_cell_length_c 11.793069
_cell_angle_alpha 90.000000
_cell_angle_beta 141.577837
_cell_angle_gamma 90.000000
_cell_volume 2449.979078
_symmetry_space_group_name_H-M "C 2/M"
_symmetry_group_IT_number 12
_symmetry_cell_setting 'monoclinic'
loop_
_space_group_symop_operation_xyz
x,y,z
-x,y,-z
-x,-y,-z
x,-y,z
1/2+x,1/2+y,z
1/2-x,1/2+y,-z
1/2-x,1/2-y,-z
1/2+x,1/2-y,z
loop_
_atom_site_type_symbol
_atom_site_label
_atom_site_fract_x
_atom_site_fract_y
_atom_site_fract_z
Si Si1 0.228714 0.897949 0.906521
Si Si2 0.303738 0.738717 0.649849
Si Si3 0.704341 0.331407 0.672104
Si Si4 0.887900 0.500000 0.714909
Si Si5 0.395752 0.324854 0.034985
Si Si6 0.096359 0.603296 0.334212
Si Si7 0.975232 0.692952 0.366258
Si Si8 0.733633 0.500000 0.840805
O O1 0.226940 0.860272 0.803854
O O2 0.119472 0.876832 0.924713
O O3 0.154945 0.948726 0.809290
O O4 0.435732 0.898681 0.113534
O O5 0.319447 0.783903 0.746237
O O6 0.476066 0.705085 0.782841
O O7 0.148930 0.704604 0.613447
O O8 0.370612 0.772029 0.578553
O O9 0.500000 0.313139 0.500000
O O10 0.743512 0.367687 0.600623
O O11 0.862762 0.547642 0.621152
O O12 0.761761 0.500000 0.727404
O O13 0.083181 0.500000 0.935410
O O14 0.500000 0.325997 0.000000
O O15 0.196480 0.303549 0.858483
O O16 0.031801 0.637237 0.385658
#
# Coordination Sequence:
#
# PCOD9211631 Si02
#       8
#     8   8   8   4   8   8   8   4
#     4  10  22  41  65  98 124 165 215 265 325 393
#     4  12  25  45  64  92 132 173 220 273 326 384
#     4  12  24  38  60  91 131 166 208 265 322 387
#     4   9  16  34  65  96 124 157 207 259 333 395
#     4  11  25  44  67  90 129 176 223 270 321 387
#     4  10  21  40  64  92 126 166 207 268 323 391
#     4  11  23  44  64  89 129 176 218 271 324 375
#     4   9  16  34  69  94 128 159 201 267 333 389
#
# _framework density 22.857340000000001
#
# number of rings (size 3 to 8) (size 9 to 14) (size 15 to 20)
#    0.000    1.286    4.286    1.714    0.000    1.714 
#    0.000    2.143    0.000    0.000    0.000    0.000 
#    0.000    0.000    0.000    0.000    0.000    0.000 
#
# Total GULP energy -156216.097024 kJ/mol
# GULP energy per Si atom -5579.146322 kJ/mol
# Density = 2.280532 g / cm^3
# Si number density = 22.857340 Si / 1000 Ang^3
#
#
#
# Elastic Constant Matrix: (Units=GPa)
#
#
# Indices 1 2 3 4 5 6 
#
# 1 69.0950 45.9716 29.9196 0.0000 -2.3290 0.0000
# 2 45.9716 163.4682 49.9627 0.0000 1.9449 0.0000
# 3 29.9196 49.9627 77.5771 0.0000 6.8233 0.0000
# 4 0.0000 0.0000 0.0000 25.5551 0.0000 -6.7141
# 5 -2.3290 1.9449 6.8233 0.0000 35.7065 0.0000
# 6 0.0000 0.0000 0.0000 -6.7141 0.0000 27.1314
#
#
#
# Elastic Compliance Matrix: (Units=1/GPa)
#
#
# Indices 1 2 3 4 5 6 
#
# 1 0.019396 -0.003899 -0.005187 0.000000 0.002469 0.000000
# 2 -0.003899 0.008410 -0.003916 0.000000 0.000036 0.000000
# 3 -0.005187 -0.003916 0.017722 0.000000 -0.003512 0.000000
# 4 0.000000 0.000000 0.000000 0.041852 0.000000 0.010357
# 5 0.002469 0.000036 -0.003512 0.000000 0.028836 0.000000
# 6 0.000000 0.000000 0.000000 0.010357 0.000000 0.039421
#
#
# Mechanical properties :
#
#
# Convention : Reuss Voigt Hill
#
# Bulk Modulus (GPa) = 51.21655 62.42757 56.82206
# Shear Modulus (GPa) = 26.57473 29.96436 28.26954
#
# Velocity S-wave (km/s) = 3.41344 3.62460 3.52061
# Velocity P-wave (km/s) = 6.16370 6.69986 6.43736
#
# Compressibility (1/GPa) = 0.01952494
#
# Stress axis : x y z
#
# Youngs Moduli (GPa) = 51.55704 118.90146 56.42776
#
# Poissons Ratio (x) = 0.46357 0.29268
# Poissons Ratio (y) = 0.20101 0.22098
# Poissons Ratio (z) = 0.26741 0.46563
#
# Static dielectric constant tensor:
#      x y z
#    x 1.941940 0.000000 0.026240 
#    y 0.000000 1.847070 0.000000 
#    z 0.026240 0.000000 1.901770 
# 
# From -- ./inp_files/209730.got.cif
#   From: 2010.05.17/outbox.cif.g08.bks.cpg/sg12_105_cif.got.tgz:209730.got - 2010.06.03 13:09:07.
