data_PCOD9211895
_publ_section_title
;
Structure prediction by ZEFSAII (Michael W. Deem and Ramdas Pophale) SiO2 
 PCOD9211895
Probable space group: C 2/M
;
_chemical_formula_sum "Si O2"
_cell_formula_units_Z 64
_cell_length_a 9.367955
_cell_length_b 27.366752
_cell_length_c 15.702681
_cell_angle_alpha 90.000000
_cell_angle_beta 50.455792
_cell_angle_gamma 90.000000
_cell_volume 3104.355657
_symmetry_space_group_name_H-M "C 2/M"
_symmetry_group_IT_number 12
_symmetry_cell_setting 'monoclinic'
loop_
_space_group_symop_operation_xyz
x,y,z
-x,y,-z
-x,-y,-z
x,-y,z
1/2+x,1/2+y,z
1/2-x,1/2+y,-z
1/2-x,1/2-y,-z
1/2+x,1/2-y,z
loop_
_atom_site_type_symbol
_atom_site_label
_atom_site_fract_x
_atom_site_fract_y
_atom_site_fract_z
Si Si1 0.204023 0.943656 0.437397
Si Si2 0.721346 0.104191 0.426874
Si Si3 0.715130 0.211781 0.438125
Si Si4 0.851058 0.396992 0.981635
Si Si5 0.811319 0.219322 0.202907
Si Si6 0.587166 0.056624 0.211031
Si Si7 0.074789 0.110475 0.830164
Si Si8 0.619881 0.788092 0.100481
O O1 0.229560 0.938788 0.528321
O O2 0.394654 0.922697 0.324342
O O3 0.000000 0.921414 0.500000
O O4 0.196288 0.000000 0.411043
O O5 0.500000 0.103108 0.500000
O O6 0.771241 0.157409 0.446658
O O7 0.832147 0.102635 0.297249
O O8 0.500000 0.210804 0.500000
O O9 0.750000 0.250000 0.500000
O O10 0.785592 0.220125 0.314959
O O11 0.920176 0.436127 0.886713
O O12 0.851246 0.343585 0.937349
O O13 0.636881 0.406842 0.087383
O O14 0.000000 0.395660 0.000000
O O15 0.920372 0.168211 0.148341
O O16 0.653490 0.216979 0.190049
O O17 0.920095 0.269298 0.146843
O O18 0.776288 0.083542 0.166552
O O19 0.600525 0.000000 0.231628
O O20 0.750000 0.750000 0.000000
#
# Coordination Sequence:
#
# PCOD9211895 Si02
#       8
#     8   8   8   8   8   8   8   8
#     4  10  23  43  69 102 134 167 214 278 342 401
#     4  10  21  40  67  95 129 168 221 274 333 395
#     4  10  22  39  59  90 129 169 215 268 330 399
#     4  12  27  43  65  99 140 179 231 286 348 410
#     4  11  23  39  63  94 130 174 224 282 335 397
#     4  11  25  46  72 100 135 181 227 277 345 415
#     4  11  23  43  67  97 135 179 227 282 334 410
#     4  12  23  40  65  93 129 174 229 282 340 395
#
# _framework density 20.616194
#
# number of rings (size 3 to 8) (size 9 to 14) (size 15 to 20)
#    0.000    1.125    3.750    2.250    1.750    3.500 
#    0.000    0.000    0.000    0.000    0.000    0.000 
#    0.000    0.000    0.000    0.000    0.000    0.000 
#
# Total GULP energy -178340.106846 kJ/mol
# GULP energy per Si atom -5573.128339 kJ/mol
# Density = 2.056927 g / cm^3
# Si number density = 20.616194 Si / 1000 Ang^3
#
#
#
# Elastic Constant Matrix: (Units=GPa)
#
#
# Indices 1 2 3 4 5 6 
#
# 1 128.8990 17.7548 46.4467 0.0000 -1.8633 0.0000
# 2 17.7548 30.9017 17.8594 0.0000 -3.8328 0.0000
# 3 46.4467 17.8594 74.3938 0.0000 -5.7325 0.0000
# 4 0.0000 0.0000 0.0000 20.3377 0.0000 10.7468
# 5 -1.8633 -3.8328 -5.7325 0.0000 35.2021 0.0000
# 6 0.0000 0.0000 0.0000 10.7468 0.0000 22.4423
#
#
#
# Elastic Compliance Matrix: (Units=1/GPa)
#
#
# Indices 1 2 3 4 5 6 
#
# 1 0.010193 -0.002593 -0.005794 0.000000 -0.000686 0.000000
# 2 -0.002593 0.038480 -0.007399 0.000000 0.002847 0.000000
# 3 -0.005794 -0.007399 0.018989 0.000000 0.001980 0.000000
# 4 0.000000 0.000000 0.000000 0.065827 0.000000 -0.031522
# 5 -0.000686 0.002847 0.001980 0.000000 0.029003 0.000000
# 6 0.000000 0.000000 0.000000 -0.031522 0.000000 0.059654
#
#
# Mechanical properties :
#
#
# Convention : Reuss Voigt Hill
#
# Bulk Modulus (GPa) = 27.70982 44.25735 35.98359
# Shear Modulus (GPa) = 18.81478 25.73866 22.27672
#
# Velocity S-wave (km/s) = 3.02424 3.53720 3.29073
# Velocity P-wave (km/s) = 5.06603 6.18031 5.65071
#
# Compressibility (1/GPa) = 0.03608829
#
# Stress axis : x y z
#
# Youngs Moduli (GPa) = 98.10505 25.98749 52.66331
#
# Poissons Ratio (x) = 0.06738 0.30515
# Poissons Ratio (y) = 0.25437 0.38968
# Poissons Ratio (z) = 0.56846 0.19229
#
# Static dielectric constant tensor:
#      x y z
#    x 1.734280 0.000000 -0.030530 
#    y 0.000000 1.787940 0.000000 
#    z -0.030530 0.000000 1.750460 
# 
# From -- ./inp_files/201257.got.cif
#   From: 2010.05.17/outbox.cif.g08.bks.cpg/sg12_101_cif.got.tgz:201257.got - 2010.06.03 13:09:07.
