data_PCOD9211418
_publ_section_title
;
Structure prediction by ZEFSAII (Michael W. Deem and Ramdas Pophale) SiO2 
 PCOD9211418
Probable space group: C 2/M
;
_chemical_formula_sum "Si O2"
_cell_formula_units_Z 52
_cell_length_a 12.179651
_cell_length_b 20.149856
_cell_length_c 17.143294
_cell_angle_alpha 90.000000
_cell_angle_beta 141.290059
_cell_angle_gamma 90.000000
_cell_volume 2631.138448
_symmetry_space_group_name_H-M "C 2/M"
_symmetry_group_IT_number 12
_symmetry_cell_setting 'monoclinic'
loop_
_space_group_symop_operation_xyz
x,y,z
-x,y,-z
-x,-y,-z
x,-y,z
1/2+x,1/2+y,z
1/2-x,1/2+y,-z
1/2-x,1/2-y,-z
1/2+x,1/2-y,z
loop_
_atom_site_type_symbol
_atom_site_label
_atom_site_fract_x
_atom_site_fract_y
_atom_site_fract_z
Si Si1 0.244075 0.423832 0.495297
Si Si2 0.910762 0.839717 0.283004
Si Si3 0.432737 0.722620 0.134667
Si Si4 0.723660 0.806337 0.751058
Si Si5 0.016013 0.639403 0.771482
Si Si6 0.500000 0.117991 0.500000
Si Si7 0.427254 0.921225 0.875639
O O1 0.303402 0.500000 0.518309
O O2 0.402802 0.372118 0.594030
O O3 0.131977 0.398987 0.359086
O O4 0.116721 0.420172 0.500536
O O5 0.900096 0.831729 0.183161
O O6 0.867208 0.765613 0.288616
O O7 0.761063 0.886622 0.235088
O O8 0.568967 0.699659 0.145271
O O9 0.530542 0.785225 0.230013
O O10 0.250000 0.750000 0.000000
O O11 0.675016 0.850085 0.799529
O O12 0.635217 0.838767 0.626156
O O13 0.045660 0.602181 0.869067
O O14 0.411210 0.000000 0.866031
O O15 0.500000 0.899782 0.000000
#
# Coordination Sequence:
#
# PCOD9211418 Si02
#       7
#     8   8   8   8   8   4   8
#     4  11  23  40  62  91 127 170 213 259 313 381
#     4  11  23  36  63  94 126 164 211 263 317 378
#     4  11  22  40  65  94 130 167 208 264 324 382
#     4  10  22  37  65  95 127 161 204 265 326 374
#     4  10  23  39  61  92 125 162 206 259 316 376
#     4  10  21  40  62  92 127 166 204 260 320 378
#     4  11  23  41  62  86 125 171 213 258 308 376
#
# _framework density 19.763309
#
# number of rings (size 3 to 8) (size 9 to 14) (size 15 to 20)
#    0.000    1.385    3.077    2.077    2.154    4.308 
#    0.000    1.538    0.000    0.000    0.000    5.385 
#    0.000    0.000    0.000    0.000    0.000    0.000 
#
# Total GULP energy -145139.590881 kJ/mol
# GULP energy per Si atom -5582.291957 kJ/mol
# Density = 1.971833 g / cm^3
# Si number density = 19.763309 Si / 1000 Ang^3
#
#
#
# Elastic Constant Matrix: (Units=GPa)
#
#
# Indices 1 2 3 4 5 6 
#
# 1 109.0251 42.2880 58.6236 -0.0001 -15.4560 0.0000
# 2 42.2880 62.7103 31.4917 0.0006 2.6103 0.0002
# 3 58.6236 31.4917 85.5490 0.0008 -3.9847 0.0003
# 4 -0.0001 0.0006 0.0008 17.8439 0.0002 -2.2018
# 5 -15.4560 2.6103 -3.9847 0.0002 32.5500 0.0001
# 6 0.0000 0.0002 0.0003 -2.2018 0.0001 19.0225
#
#
#
# Elastic Compliance Matrix: (Units=1/GPa)
#
#
# Indices 1 2 3 4 5 6 
#
# 1 0.018514 -0.008163 -0.009295 0.000001 0.008308 0.000000
# 2 -0.008163 0.023360 -0.003292 -0.000001 -0.006152 0.000000
# 3 -0.009295 -0.003292 0.019187 -0.000001 -0.001801 0.000000
# 4 0.000001 -0.000001 -0.000001 0.056853 0.000000 0.006581
# 5 0.008308 -0.006152 -0.001801 0.000000 0.034940 0.000000
# 6 0.000000 0.000000 0.000000 0.006581 0.000000 0.053331
#
#
# Mechanical properties :
#
#
# Convention : Reuss Voigt Hill
#
# Bulk Modulus (GPa) = 51.12235 58.01010 54.56623
# Shear Modulus (GPa) = 19.66904 22.20869 20.93886
#
# Velocity S-wave (km/s) = 3.15815 3.35585 3.25850
# Velocity P-wave (km/s) = 6.26275 6.66572 6.46737
#
# Compressibility (1/GPa) = 0.01956092
#
# Stress axis : x y z
#
# Youngs Moduli (GPa) = 54.01218 42.80794 52.11874
#
# Poissons Ratio (x) = 0.34943 0.48446
# Poissons Ratio (y) = 0.44089 0.17158
# Poissons Ratio (z) = 0.50206 0.14093
#
# Static dielectric constant tensor:
#      x y z
#    x 1.724790 0.000000 -0.014710 
#    y 0.000000 1.681220 0.000000 
#    z -0.014710 0.000000 1.684400 
# 
# From -- ./inp_files/265134.got.cif
#   From: 2010.05.17/outbox.cif.g08.bks.cpg/sg12_133_cif.got.tgz:265134.got - 2010.06.03 13:09:07.
