data_PCOD9211750
_publ_section_title
;
Structure prediction by ZEFSAII (Michael W. Deem and Ramdas Pophale) SiO2 
 PCOD9211750
Probable space group: C 2/M
;
_chemical_formula_sum "Si O2"
_cell_formula_units_Z 64
_cell_length_a 8.773131
_cell_length_b 28.762570
_cell_length_c 18.251446
_cell_angle_alpha 90.000000
_cell_angle_beta 44.084638
_cell_angle_gamma 90.000000
_cell_volume 3204.160131
_symmetry_space_group_name_H-M "C 2/M"
_symmetry_group_IT_number 12
_symmetry_cell_setting 'monoclinic'
loop_
_space_group_symop_operation_xyz
x,y,z
-x,y,-z
-x,-y,-z
x,-y,z
1/2+x,1/2+y,z
1/2-x,1/2+y,-z
1/2-x,1/2-y,-z
1/2+x,1/2-y,z
loop_
_atom_site_type_symbol
_atom_site_label
_atom_site_fract_x
_atom_site_fract_y
_atom_site_fract_z
Si Si1 0.393952 0.413148 0.613900
Si Si2 0.589560 0.555202 0.820934
Si Si3 0.332994 0.302910 0.623723
Si Si4 0.093349 0.788685 0.089259
Si Si5 0.561207 0.946236 0.173390
Si Si6 0.745578 0.056177 0.394984
Si Si7 0.885254 0.248953 0.758823
Si Si8 0.818562 0.616212 0.002234
O O1 0.500000 0.427179 0.500000
O O2 0.336463 0.358527 0.629885
O O3 0.572511 0.422187 0.615140
O O4 0.172615 0.440973 0.706879
O O5 0.554912 0.500000 0.831369
O O6 0.744470 0.564966 0.836771
O O7 0.707768 0.568794 0.705007
O O8 0.359672 0.580559 0.905070
O O9 0.500000 0.290453 0.500000
O O10 0.395195 0.279712 0.679879
O O11 0.091524 0.283410 0.690356
O O12 0.109039 0.784462 0.172171
O O13 0.842322 0.777118 0.157806
O O14 0.250000 0.750000 0.000000
O O15 0.183739 0.837569 0.030126
O O16 0.572544 0.909633 0.103828
O O17 0.589481 0.000000 0.139052
O O18 0.500000 0.070623 0.500000
O O19 0.759176 0.000000 0.397431
O O20 0.000000 0.627866 0.000000
#
# Coordination Sequence:
#
# PCOD9211750 Si02
#       8
#     8   8   8   8   8   8   8   8
#     4  11  24  40  66 100 133 169 219 274 334 398
#     4  10  23  42  63  91 127 170 220 268 325 392
#     4  10  23  43  68  99 133 171 219 273 331 408
#     4  11  25  42  66  98 130 172 221 275 329 397
#     4  11  25  43  66  93 131 174 220 272 334 402
#     4  10  21  40  65  93 130 172 217 271 329 391
#     4  10  23  43  69  93 133 175 217 269 341 394
#     4  12  26  40  65  95 131 170 218 271 332 394
#
# _framework density 19.974032999999999
#
# number of rings (size 3 to 8) (size 9 to 14) (size 15 to 20)
#    0.000    1.375    0.000    4.125    8.750    6.000 
#    0.000    0.625    0.000    0.000    0.000    0.000 
#    0.000    0.000    0.000    0.000    0.000    0.000 
#
# Total GULP energy -179000.273584 kJ/mol
# GULP energy per Si atom -5593.758549 kJ/mol
# Density = 1.992857 g / cm^3
# Si number density = 19.974033 Si / 1000 Ang^3
#
#
#
# Elastic Constant Matrix: (Units=GPa)
#
#
# Indices 1 2 3 4 5 6 
#
# 1 42.0657 10.6232 0.3451 0.0000 -11.8263 0.0001
# 2 10.6232 34.8309 24.5061 0.0000 6.3570 0.0000
# 3 0.3451 24.5061 102.6619 0.0000 -6.4493 0.0001
# 4 0.0000 0.0000 0.0000 31.5087 0.0000 -5.1601
# 5 -11.8263 6.3570 -6.4493 0.0000 36.6231 -0.0001
# 6 0.0001 0.0000 0.0001 -5.1601 -0.0001 23.1994
#
#
#
# Elastic Compliance Matrix: (Units=1/GPa)
#
#
# Indices 1 2 3 4 5 6 
#
# 1 0.031341 -0.015078 0.004342 0.000000 0.013502 0.000000
# 2 -0.015078 0.043939 -0.011348 0.000000 -0.014494 0.000000
# 3 0.004342 -0.011348 0.012788 0.000000 0.005624 0.000000
# 4 0.000000 0.000000 0.000000 0.032937 0.000000 0.007326
# 5 0.013502 -0.014494 0.005624 0.000000 0.035172 0.000000
# 6 0.000000 0.000000 0.000000 0.007326 0.000000 0.044734
#
#
# Mechanical properties :
#
#
# Convention : Reuss Voigt Hill
#
# Bulk Modulus (GPa) = 22.77953 27.83416 25.30685
# Shear Modulus (GPa) = 19.25213 27.87182 23.56198
#
# Velocity S-wave (km/s) = 3.10797 3.73956 3.43830
# Velocity P-wave (km/s) = 4.93038 5.71062 5.33478
#
# Compressibility (1/GPa) = 0.04389907
#
# Stress axis : x y z
#
# Youngs Moduli (GPa) = 31.90752 22.75907 78.19627
#
# Poissons Ratio (x) = 0.34316 -0.33953
# Poissons Ratio (y) = 0.48110 0.88739
# Poissons Ratio (z) = -0.13855 0.25828
#
# Static dielectric constant tensor:
#      x y z
#    x 1.685530 0.000000 0.018730 
#    y 0.000000 1.696350 0.000000 
#    z 0.018730 0.000000 1.697380 
# 
# From -- ./inp_files/260341.got.cif
#   From: 2010.05.17/outbox.cif.g08.bks.cpg/sg12_131_cif.got.tgz:260341.got - 2010.06.03 13:09:07.
