data_PCOD9211701
_publ_section_title
;
Structure prediction by ZEFSAII (Michael W. Deem and Ramdas Pophale) SiO2 
 PCOD9211701
Probable space group: C 2/M
;
_chemical_formula_sum "Si O2"
_cell_formula_units_Z 56
_cell_length_a 19.753689
_cell_length_b 11.376939
_cell_length_c 14.606840
_cell_angle_alpha 90.000000
_cell_angle_beta 68.812537
_cell_angle_gamma 90.000000
_cell_volume 3060.789990
_symmetry_space_group_name_H-M "C 2/M"
_symmetry_group_IT_number 12
_symmetry_cell_setting 'monoclinic'
loop_
_space_group_symop_operation_xyz
x,y,z
-x,y,-z
-x,-y,-z
x,-y,z
1/2+x,1/2+y,z
1/2-x,1/2+y,-z
1/2-x,1/2-y,-z
1/2+x,1/2-y,z
loop_
_atom_site_type_symbol
_atom_site_label
_atom_site_fract_x
_atom_site_fract_y
_atom_site_fract_z
Si Si1 0.877888 0.000000 0.058749
Si Si2 0.842508 0.140760 0.669690
Si Si3 0.586973 0.862005 0.473374
Si Si4 0.490649 0.500000 0.152504
Si Si5 0.933499 0.787621 0.798156
Si Si6 0.324754 0.860518 0.208637
Si Si7 0.825829 0.241552 0.015428
Si Si8 0.565106 0.138850 0.692078
O O1 0.832386 0.886320 0.057416
O O2 0.913480 0.000000 0.141099
O O3 0.946343 0.000000 0.955868
O O4 0.877972 0.248446 0.594353
O O5 0.878110 0.156595 0.752754
O O6 0.756873 0.167224 0.719041
O O7 0.852278 0.000000 0.638063
O O8 0.500000 0.858295 0.500000
O O9 0.599761 0.842343 0.575497
O O10 0.609131 0.000000 0.439752
O O11 0.508384 0.386232 0.202278
O O12 0.983317 0.686758 0.732385
O O13 0.889251 0.746697 0.909089
O O14 0.334098 0.825166 0.098486
O O15 0.385486 0.812329 0.248944
O O16 0.330162 0.000000 0.210089
O O17 0.750000 0.250000 0.000000
O O18 0.560067 0.000000 0.706943
#
# Coordination Sequence:
#
# PCOD9211701 Si02
#       8
#     4   8   8   4   8   8   8   8
#     4   9  20  34  52  78 112 152 200 236 297 336
#     4  11  22  39  63  93 121 160 205 255 307 362
#     4  10  21  40  65  91 122 159 200 252 311 368
#     4   9  18  34  54  77 110 153 190 248 288 345
#     4  11  20  35  61  86 119 156 203 246 296 357
#     4  10  23  41  61  86 124 162 198 245 306 360
#     4  11  22  36  58  87 121 159 200 245 291 359
#     4  10  22  41  62  87 120 159 198 247 309 368
#
# _framework density 18.295931
#
# number of rings (size 3 to 8) (size 9 to 14) (size 15 to 20)
#    0.000    1.714    3.571    0.857    1.000    3.143 
#    2.571    1.429    0.000    0.000    0.000    0.000 
#    0.000    0.000    0.000    0.000    0.000    0.000 
#
# Total GULP energy -155964.188860 kJ/mol
# GULP energy per Si atom -5570.149602 kJ/mol
# Density = 1.825429 g / cm^3
# Si number density = 18.295931 Si / 1000 Ang^3
#
#
#
# Elastic Constant Matrix: (Units=GPa)
#
#
# Indices 1 2 3 4 5 6 
#
# 1 90.9143 24.8109 10.7003 0.0000 8.7583 0.0000
# 2 24.8109 73.3683 44.6877 0.0000 -13.9020 0.0000
# 3 10.7003 44.6877 63.2424 0.0000 -2.5993 0.0000
# 4 0.0000 0.0000 0.0000 25.2024 0.0000 4.1026
# 5 8.7583 -13.9020 -2.5993 0.0000 23.4559 0.0000
# 6 0.0000 0.0000 0.0000 4.1026 0.0000 28.5723
#
#
#
# Elastic Compliance Matrix: (Units=1/GPa)
#
#
# Indices 1 2 3 4 5 6 
#
# 1 0.013915 -0.008611 0.003322 0.000000 -0.009931 0.000000
# 2 -0.008611 0.033452 -0.021331 0.000000 0.020678 0.000000
# 3 0.003322 -0.021331 0.029888 0.000000 -0.010571 0.000000
# 4 0.000000 0.000000 0.000000 0.040628 0.000000 -0.005834
# 5 -0.009931 0.020678 -0.010571 0.000000 0.057426 0.000000
# 6 0.000000 0.000000 0.000000 -0.005834 0.000000 0.035837
#
#
# Mechanical properties :
#
#
# Convention : Reuss Voigt Hill
#
# Bulk Modulus (GPa) = 41.63877 43.10254 42.37066
# Shear Modulus (GPa) = 18.35593 25.26785 21.81189
#
# Velocity S-wave (km/s) = 3.17089 3.72030 3.45653
# Velocity P-wave (km/s) = 6.01781 6.48566 6.25611
#
# Compressibility (1/GPa) = 0.02401608
#
# Stress axis : x y z
#
# Youngs Moduli (GPa) = 71.86473 29.89325 33.45781
#
# Poissons Ratio (x) = 0.25740 -0.11114
# Poissons Ratio (y) = 0.61881 0.71369
# Poissons Ratio (z) = -0.23873 0.63765
#
# Static dielectric constant tensor:
#      x y z
#    x 1.630120 0.000000 0.028600 
#    y 0.000000 1.680590 0.000000 
#    z 0.028600 0.000000 1.650440 
# 
# From -- ./inp_files/223773.got.cif
#   From: 2010.05.17/outbox.cif.g08.bks.cpg/sg12_112_cif.got.tgz:223773.got - 2010.06.03 13:09:07.
