data_PCOD9211824
_publ_section_title
;
Structure prediction by ZEFSAII (Michael W. Deem and Ramdas Pophale) SiO2 
 PCOD9211824
Probable space group: C 2/M
;
_chemical_formula_sum "Si O2"
_cell_formula_units_Z 34
_cell_length_a 29.516540
_cell_length_b 7.685438
_cell_length_c 8.180335
_cell_angle_alpha 90.000000
_cell_angle_beta 51.915156
_cell_angle_gamma 90.000000
_cell_volume 1460.609384
_symmetry_space_group_name_H-M "C 2/M"
_symmetry_group_IT_number 12
_symmetry_cell_setting 'monoclinic'
loop_
_space_group_symop_operation_xyz
x,y,z
-x,y,-z
-x,-y,-z
x,-y,z
1/2+x,1/2+y,z
1/2-x,1/2+y,-z
1/2-x,1/2-y,-z
1/2+x,1/2-y,z
loop_
_atom_site_type_symbol
_atom_site_label
_atom_site_fract_x
_atom_site_fract_y
_atom_site_fract_z
Si Si1 0.316466 0.208589 0.824759
Si Si2 0.500000 0.000000 0.500000
Si Si3 0.123829 0.709517 0.638977
Si Si4 0.111333 0.287513 0.022929
Si Si5 0.520849 0.308638 0.673320
O O1 0.338901 0.272926 0.598335
O O2 0.322193 0.000000 0.811131
O O3 0.250000 0.250000 0.000000
O O4 0.353222 0.272229 0.898824
O O5 0.535736 0.152724 0.517863
O O6 0.122787 0.500000 0.637790
O O7 0.141931 0.755604 0.782766
O O8 0.059397 0.776267 0.746417
O O9 0.102168 0.500000 0.054790
O O10 0.047268 0.211947 0.152472
O O11 0.534444 0.500000 0.580167
#
# Coordination Sequence:
#
# PCOD9211824 Si02
#       5
#     8   2   8   8   8
#     4  10  23  41  62  88 125 169 226 277 330 394
#     4  12  22  40  58  90 144 178 206 268 326 380
#     4  10  21  40  66  93 130 177 218 268 335 397
#     4  10  21  40  66  93 130 177 218 268 335 397
#     4  12  24  38  66 102 134 177 222 267 327 399
#
# _framework density 23.277956
#
# number of rings (size 3 to 8) (size 9 to 14) (size 15 to 20)
#    0.000    1.412    2.353    2.471    3.294    6.588 
#    0.000    0.000    0.000    0.000    0.000    0.000 
#    0.000    0.000    0.000    0.000    0.000    0.000 
#
# Total GULP energy -94835.399707 kJ/mol
# GULP energy per Si atom -5578.552924 kJ/mol
# Density = 2.322497 g / cm^3
# Si number density = 23.277956 Si / 1000 Ang^3
#
#
#
# Elastic Constant Matrix: (Units=GPa)
#
#
# Indices 1 2 3 4 5 6 
#
# 1 107.3358 12.9375 91.1824 0.0000 6.4105 0.0000
# 2 12.9375 111.5247 23.5538 0.0000 20.0876 0.0000
# 3 91.1824 23.5538 166.2391 0.0000 10.8008 0.0000
# 4 0.0000 0.0000 0.0000 2.2884 0.0000 -24.7941
# 5 6.4105 20.0876 10.8008 0.0000 42.1383 0.0000
# 6 0.0000 0.0000 0.0000 -24.7941 0.0000 3.7797
#
#
#
# Elastic Compliance Matrix: (Units=1/GPa)
#
#
# Indices 1 2 3 4 5 6 
#
# 1 0.017447 0.000035 -0.009560 0.000000 -0.000220 0.000000
# 2 0.000035 0.010012 -0.001146 0.000000 -0.004484 0.000000
# 3 -0.009560 -0.001146 0.011483 0.000000 -0.000942 0.000000
# 4 0.000000 0.000000 0.000000 -0.006236 0.000000 -0.040908
# 5 -0.000220 -0.004484 -0.000942 0.000000 0.026144 0.000000
# 6 0.000000 0.000000 0.000000 -0.040908 0.000000 -0.003776
#
#
# Mechanical properties :
#
#
# Convention : Reuss Voigt Hill
#
# Bulk Modulus (GPa) = 56.82243 71.16078 63.99161
# Shear Modulus (GPa) = 60.76442 26.80302 43.78372
#
# Velocity S-wave (km/s) = 5.11473 3.39696 4.34165
# Velocity P-wave (km/s) = 7.70351 6.78396 7.25831
#
# Compressibility (1/GPa) = 0.01759868
#
# Stress axis : x y z
#
# Youngs Moduli (GPa) = 57.31598 99.87599 87.08537
#
# Poissons Ratio (x) = -0.00348 0.83257
# Poissons Ratio (y) = -0.00200 0.09983
# Poissons Ratio (z) = 0.54796 0.11450
#
# Static dielectric constant tensor:
#      x y z
#    x 1.883370 0.000000 0.066000 
#    y 0.000000 1.942720 0.000000 
#    z 0.066000 0.000000 2.047740 
# 
# From -- ./inp_files/107733.got.cif
#   From: 2010.05.17/outbox.cif.g08.bks.cpg/sg12_54_cif.got.tgz:107733.got - 2010.06.03 13:09:07.
