data_PCOD9211544
_publ_section_title
;
Structure prediction by ZEFSAII (Michael W. Deem and Ramdas Pophale) SiO2 
 PCOD9211544
Probable space group: C 2/M
;
_chemical_formula_sum "Si O2"
_cell_formula_units_Z 58
_cell_length_a 17.646387
_cell_length_b 27.230340
_cell_length_c 14.049226
_cell_angle_alpha 90.000000
_cell_angle_beta 152.058681
_cell_angle_gamma 90.000000
_cell_volume 3163.246106
_symmetry_space_group_name_H-M "C 2/M"
_symmetry_group_IT_number 12
_symmetry_cell_setting 'monoclinic'
loop_
_space_group_symop_operation_xyz
x,y,z
-x,y,-z
-x,-y,-z
x,-y,z
1/2+x,1/2+y,z
1/2-x,1/2+y,-z
1/2-x,1/2-y,-z
1/2+x,1/2-y,z
loop_
_atom_site_type_symbol
_atom_site_label
_atom_site_fract_x
_atom_site_fract_y
_atom_site_fract_z
Si Si1 0.432870 0.275115 0.031378
Si Si2 0.386067 0.208914 0.637671
Si Si3 0.000000 0.000000 0.500000
Si Si4 0.851193 0.578025 0.203997
Si Si5 0.776371 0.443887 0.339368
Si Si6 0.091571 0.314737 0.694750
Si Si7 0.868575 0.869287 0.673109
Si Si8 0.949983 0.051671 0.247839
O O1 0.481405 0.225402 0.139472
O O2 0.516587 0.323894 0.169460
O O3 0.500000 0.272561 0.000000
O O4 0.242713 0.283279 0.829405
O O5 0.250000 0.250000 0.500000
O O6 0.467474 0.212882 0.624853
O O7 0.297373 0.156699 0.545546
O O8 0.034548 0.042169 0.622327
O O9 0.778327 0.567525 0.228506
O O10 0.852565 0.636430 0.189651
O O11 0.036857 0.560164 0.416417
O O12 0.733700 0.556130 0.994083
O O13 0.721720 0.500000 0.291959
O O14 0.673726 0.403917 0.283741
O O15 0.000000 0.333454 0.500000
O O16 0.951589 0.902956 0.685783
O O17 0.016671 0.000000 0.279413
#
# Coordination Sequence:
#
# PCOD9211544 Si02
#       8
#     8   8   2   8   8   8   8   8
#     4  11  23  39  63  91 126 164 208 260 319 374
#     4  10  22  40  59  86 123 165 208 262 309 375
#     4   8  24  44  64  78 116 162 224 264 298 346
#     4  11  19  35  58  91 130 165 205 245 307 382
#     4  11  21  33  55  98 138 163 193 253 314 385
#     4  12  20  38  64  90 127 169 207 252 320 380
#     4  11  21  37  62  90 127 161 208 253 320 374
#     4  10  21  40  64  86 118 170 213 259 305 365
#
# _framework density 18.335595000000001
#
# number of rings (size 3 to 8) (size 9 to 14) (size 15 to 20)
#    0.414    0.828    4.138    4.966    0.000    0.000 
#    0.000    2.759    6.069    0.828    0.000    0.000 
#    0.000    0.000    0.000    0.000    0.000    0.000 
#
# Total GULP energy -161468.278837 kJ/mol
# GULP energy per Si atom -5567.871684 kJ/mol
# Density = 1.829386 g / cm^3
# Si number density = 18.335595 Si / 1000 Ang^3
#
#
#
# Elastic Constant Matrix: (Units=GPa)
#
#
# Indices 1 2 3 4 5 6 
#
# 1 99.6405 27.0325 38.6250 0.0000 -10.0275 0.0000
# 2 27.0325 60.6804 11.6230 0.0000 -3.2448 0.0000
# 3 38.6250 11.6230 67.5505 0.0000 -7.6056 0.0000
# 4 0.0000 0.0000 0.0000 9.7573 0.0000 -22.4390
# 5 -10.0275 -3.2448 -7.6056 0.0000 29.3000 0.0000
# 6 0.0000 0.0000 0.0000 -22.4390 0.0000 -8.9926
#
#
#
# Elastic Compliance Matrix: (Units=1/GPa)
#
#
# Indices 1 2 3 4 5 6 
#
# 1 0.014370 -0.004909 -0.007087 0.000000 0.002535 0.000000
# 2 -0.004909 0.018757 -0.000387 0.000000 0.000297 0.000000
# 3 -0.007087 -0.000387 0.019206 0.000000 0.002517 0.000000
# 4 0.000000 0.000000 0.000000 0.015209 0.000000 -0.037952
# 5 0.002535 0.000297 0.002517 0.000000 0.035683 0.000000
# 6 0.000000 0.000000 0.000000 -0.037952 0.000000 -0.016503
#
#
# Mechanical properties :
#
#
# Convention : Reuss Voigt Hill
#
# Bulk Modulus (GPa) = 36.27473 42.49248 39.38361
# Shear Modulus (GPa) = 41.43297 16.05234 28.74265
#
# Velocity S-wave (km/s) = 4.75879 2.96205 3.96357
# Velocity P-wave (km/s) = 7.07259 5.90961 6.51709
#
# Compressibility (1/GPa) = 0.02756740
#
# Stress axis : x y z
#
# Youngs Moduli (GPa) = 69.58934 53.31453 52.06738
#
# Poissons Ratio (x) = 0.26171 0.36898
# Poissons Ratio (y) = 0.34160 0.02016
# Poissons Ratio (z) = 0.49316 0.02064
#
# Static dielectric constant tensor:
#      x y z
#    x 1.628490 0.000000 0.031080 
#    y 0.000000 1.664850 0.000000 
#    z 0.031080 0.000000 1.698280 
# 
# From -- ./inp_files/228009.got.cif
#   From: 2010.05.17/outbox.cif.g08.bks.cpg/sg12_115_cif.got.tgz:228009.got - 2010.06.03 13:09:07.
