data_PCOD9211924
_publ_section_title
;
Structure prediction by ZEFSAII (Michael W. Deem and Ramdas Pophale) SiO2 
 PCOD9211924
Probable space group: C 2/M
;
_chemical_formula_sum "Si O2"
_cell_formula_units_Z 56
_cell_length_a 11.532116
_cell_length_b 32.226189
_cell_length_c 6.970611
_cell_angle_alpha 90.000000
_cell_angle_beta 86.928735
_cell_angle_gamma 90.000000
_cell_volume 2586.810167
_symmetry_space_group_name_H-M "C 2/M"
_symmetry_group_IT_number 12
_symmetry_cell_setting 'monoclinic'
loop_
_space_group_symop_operation_xyz
x,y,z
-x,y,-z
-x,-y,-z
x,-y,z
1/2+x,1/2+y,z
1/2-x,1/2+y,-z
1/2-x,1/2-y,-z
1/2+x,1/2-y,z
loop_
_atom_site_type_symbol
_atom_site_label
_atom_site_fract_x
_atom_site_fract_y
_atom_site_fract_z
Si Si1 0.758156 0.409459 0.588343
Si Si2 0.665826 0.452209 0.226250
Si Si3 0.516487 0.382625 0.729229
Si Si4 0.618882 0.950801 0.082624
Si Si5 0.079432 0.204086 0.306318
Si Si6 0.540632 0.205794 0.201325
Si Si7 0.821830 0.321915 0.468449
O O1 0.707015 0.442169 0.440217
O O2 0.652785 0.391640 0.729780
O O3 0.850091 0.312613 0.690007
O O4 0.808407 0.371380 0.461302
O O5 0.626959 0.500000 0.215502
O O6 0.564013 0.419640 0.189375
O O7 0.774530 0.446077 0.075070
O O8 0.500000 0.382193 0.500000
O O9 0.467387 0.337692 0.790369
O O10 0.605874 0.000000 0.120202
O O11 0.500000 0.935153 0.000000
O O12 0.648824 0.928747 0.278240
O O13 0.070062 0.245464 0.183517
O O14 0.206286 0.196744 0.385208
O O15 0.000000 0.211498 0.500000
O O16 0.428902 0.196671 0.342662
O O17 0.500000 0.188925 0.000000
#
# Coordination Sequence:
#
# PCOD9211924 Si02
#       7
#     8   8   8   8   8   8   8
#     4  11  22  40  67  94 126 175 212 268 331 380
#     4  10  21  40  67  99 133 168 212 267 320 387
#     4   9  19  38  65  97 125 165 215 261 330 389
#     4  10  24  43  63  93 134 177 220 264 314 386
#     4  11  19  44  69  90 134 173 215 275 335 393
#     4  11  27  43  65  98 126 176 225 273 330 392
#     4  11  23  43  69  92 135 173 217 280 328 384
#
# _framework density 21.648284
#
# number of rings (size 3 to 8) (size 9 to 14) (size 15 to 20)
#    0.000    1.571    5.714    0.857    0.000    8.857 
#    2.571    3.571    0.000    0.000    0.000    0.000 
#    0.000    0.000    0.000    0.000    0.000    0.000 
#
# Total GULP energy -156397.985297 kJ/mol
# GULP energy per Si atom -5585.642332 kJ/mol
# Density = 2.159901 g / cm^3
# Si number density = 21.648284 Si / 1000 Ang^3
#
#
#
# Elastic Constant Matrix: (Units=GPa)
#
#
# Indices 1 2 3 4 5 6 
#
# 1 85.7615 15.2869 25.6975 0.0000 15.5768 0.0000
# 2 15.2869 78.9697 1.4729 0.0000 -11.7358 0.0000
# 3 25.6975 1.4729 54.5978 0.0000 19.5457 0.0000
# 4 0.0000 0.0000 0.0000 -5.5818 0.0000 -7.1293
# 5 15.5768 -11.7358 19.5457 0.0000 28.8813 0.0000
# 6 0.0000 0.0000 0.0000 -7.1293 0.0000 27.0458
#
#
#
# Elastic Compliance Matrix: (Units=1/GPa)
#
#
# Indices 1 2 3 4 5 6 
#
# 1 0.014875 -0.003750 -0.004596 0.000000 -0.006436 0.000000
# 2 -0.003750 0.014823 -0.002000 0.000000 0.009399 0.000000
# 3 -0.004596 -0.002000 0.026311 0.000000 -0.016140 0.000000
# 4 0.000000 0.000000 0.000000 -0.134029 0.000000 -0.035330
# 5 -0.006436 0.009399 -0.016140 0.000000 0.052838 0.000000
# 6 0.000000 0.000000 0.000000 -0.035330 0.000000 0.027661
#
#
# Mechanical properties :
#
#
# Convention : Reuss Voigt Hill
#
# Bulk Modulus (GPa) = 28.31466 33.80483 31.05974
# Shear Modulus (GPa) = 143.08919 21.86052 82.47486
#
# Velocity S-wave (km/s) = 8.13884 3.18119 6.17902
# Velocity P-wave (km/s) = 10.07119 5.39839 8.07996
#
# Compressibility (1/GPa) = 0.03531740
#
# Stress axis : x y z
#
# Youngs Moduli (GPa) = 67.22783 67.46189 38.00718
#
# Poissons Ratio (x) = 0.25300 0.17467
# Poissons Ratio (y) = 0.25212 0.07600
# Poissons Ratio (z) = 0.30897 0.13490
#
# Static dielectric constant tensor:
#      x y z
#    x 1.795550 0.000000 0.014550 
#    y 0.000000 1.787730 0.000000 
#    z 0.014550 0.000000 1.808990 
# 
# From -- ./inp_files/54139.got.cif
#   From: 2010.05.17/outbox.cif.g08.bks.cpg/sg12_28_cif.got.tgz:54139.got - 2010.06.03 13:09:07.
