data_PCOD9211281
_publ_section_title
;
Structure prediction by ZEFSAII (Michael W. Deem and Ramdas Pophale) SiO2 
 PCOD9211281
Probable space group: C 2/M
;
_chemical_formula_sum "Si O2"
_cell_formula_units_Z 42
_cell_length_a 14.510995
_cell_length_b 7.541705
_cell_length_c 24.114144
_cell_angle_alpha 90.000000
_cell_angle_beta 47.593018
_cell_angle_gamma 90.000000
_cell_volume 1948.563162
_symmetry_space_group_name_H-M "C 2/M"
_symmetry_group_IT_number 12
_symmetry_cell_setting 'monoclinic'
loop_
_space_group_symop_operation_xyz
x,y,z
-x,y,-z
-x,-y,-z
x,-y,z
1/2+x,1/2+y,z
1/2-x,1/2+y,-z
1/2-x,1/2-y,-z
1/2+x,1/2-y,z
loop_
_atom_site_type_symbol
_atom_site_label
_atom_site_fract_x
_atom_site_fract_y
_atom_site_fract_z
Si Si1 0.107329 0.288430 0.996322
Si Si2 0.625517 0.788421 0.585470
Si Si3 0.611121 0.793937 0.390567
Si Si4 0.613354 0.213416 0.120136
Si Si5 0.000000 0.000000 0.500000
Si Si6 0.121457 0.714816 0.713736
O O1 0.089823 0.500000 0.007300
O O2 0.246843 0.257512 0.917560
O O3 0.100698 0.218774 0.062055
O O4 0.000000 0.216899 0.000000
O O5 0.750000 0.750000 0.500000
O O6 0.501166 0.726850 0.603331
O O7 0.626229 0.720148 0.648060
O O8 0.613601 0.000000 0.593281
O O9 0.602656 0.657342 0.444771
O O10 0.749553 0.774737 0.310266
O O11 0.590983 0.000000 0.412953
O O12 0.501891 0.276907 0.204456
O O13 0.605281 0.000000 0.121835
O O14 0.119477 0.500000 0.714348
#
# Coordination Sequence:
#
# PCOD9211281 Si02
#       6
#     8   8   8   8   2   8
#     4   9  18  34  56  85 120 156 196 240 289 350
#     4  10  23  38  57  83 112 148 198 251 302 360
#     4  11  24  40  60  88 116 153 202 251 307 366
#     4   9  19  35  57  84 117 156 196 238 293 356
#     4  12  22  40  64  82 116 154 194 256 306 362
#     4  10  21  40  60  83 120 160 197 253 310 356
#
# _framework density 21.554345000000001
#
# number of rings (size 3 to 8) (size 9 to 14) (size 15 to 20)
#    0.000    2.095    0.952    1.429    4.000    4.952 
#    0.000    0.000    0.000    0.000    0.000    0.000 
#    0.000    0.000    0.000    0.000    0.000    0.000 
#
# Total GULP energy -117033.167271 kJ/mol
# GULP energy per Si atom -5573.007965 kJ/mol
# Density = 2.150529 g / cm^3
# Si number density = 21.554345 Si / 1000 Ang^3
#
#
#
# Elastic Constant Matrix: (Units=GPa)
#
#
# Indices 1 2 3 4 5 6 
#
# 1 153.1571 2.2751 91.8696 0.0000 -37.4751 0.0003
# 2 2.2751 90.1848 1.3063 0.0000 2.4647 0.0005
# 3 91.8696 1.3063 179.8325 0.0000 -33.0694 0.0000
# 4 0.0000 0.0000 0.0000 24.3926 0.0000 -10.1687
# 5 -37.4751 2.4647 -33.0694 0.0000 26.9057 0.0000
# 6 0.0003 0.0005 0.0000 -10.1687 0.0000 1.0152
#
#
#
# Elastic Compliance Matrix: (Units=1/GPa)
#
#
# Indices 1 2 3 4 5 6 
#
# 1 0.011671 -0.000556 -0.003824 0.000000 0.011607 0.000001
# 2 -0.000556 0.011159 -0.000165 0.000001 -0.001999 0.000002
# 3 -0.003824 -0.000165 0.008448 0.000000 0.005073 0.000000
# 4 0.000000 0.000001 0.000000 -0.012909 0.000000 -0.129307
# 5 0.011607 -0.001999 0.005073 0.000000 0.059751 0.000000
# 6 0.000001 0.000002 0.000000 -0.129307 0.000000 -0.310181
#
#
# Mechanical properties :
#
#
# Convention : Reuss Voigt Hill
#
# Bulk Modulus (GPa) = 45.06643 68.23069 56.64856
# Shear Modulus (GPa) = -23.19396 32.31092 4.55848
#
# Velocity S-wave (km/s) = -3.28391 3.87595 1.45584
# Velocity P-wave (km/s) = 2.56416 7.19406 5.40044
#
# Compressibility (1/GPa) = 0.02218947
#
# Stress axis : x y z
#
# Youngs Moduli (GPa) = 85.67985 89.61051 118.36791
#
# Poissons Ratio (x) = 0.04985 0.45263
# Poissons Ratio (y) = 0.04766 0.01948
# Poissons Ratio (z) = 0.32764 0.01474
#
# Static dielectric constant tensor:
#      x y z
#    x 1.875210 0.000000 0.011950 
#    y 0.000000 1.802850 0.000000 
#    z 0.011950 0.000000 1.800270 
# 
# From -- ./inp_files/359550.got.cif
#   From: 2010.05.17/outbox.cif.g08.bks.cpg/sg12_180_cif.got.tgz:359550.got - 2010.06.03 13:09:07.
