data_PCOD9211537
_publ_section_title
;
Structure prediction by ZEFSAII (Michael W. Deem and Ramdas Pophale) SiO2 
 PCOD9211537
Probable space group: C 2/M
;
_chemical_formula_sum "Si O2"
_cell_formula_units_Z 38
_cell_length_a 10.977084
_cell_length_b 9.966551
_cell_length_c 15.394330
_cell_angle_alpha 90.000000
_cell_angle_beta 80.312384
_cell_angle_gamma 90.000000
_cell_volume 1660.179294
_symmetry_space_group_name_H-M "C 2/M"
_symmetry_group_IT_number 12
_symmetry_cell_setting 'monoclinic'
loop_
_space_group_symop_operation_xyz
x,y,z
-x,y,-z
-x,-y,-z
x,-y,z
1/2+x,1/2+y,z
1/2-x,1/2+y,-z
1/2-x,1/2-y,-z
1/2+x,1/2-y,z
loop_
_atom_site_type_symbol
_atom_site_label
_atom_site_fract_x
_atom_site_fract_y
_atom_site_fract_z
Si Si1 0.411054 0.000000 0.231709
Si Si2 0.832883 0.500000 0.694569
Si Si3 0.342596 0.500000 0.119138
Si Si4 0.324135 0.194300 0.093688
Si Si5 0.142052 0.000000 0.346744
Si Si6 0.500000 0.000000 0.000000
Si Si7 0.392627 0.500000 0.843878
Si Si8 0.634620 0.229035 0.447490
O O1 0.400971 0.871182 0.167707
O O2 0.288977 0.000000 0.305725
O O3 0.535213 0.000000 0.271536
O O4 0.729237 0.500000 0.780381
O O5 0.824355 0.627232 0.632544
O O6 0.318166 0.352164 0.084641
O O7 0.488312 0.500000 0.113893
O O8 0.191283 0.129202 0.127052
O O9 0.393266 0.117208 0.009035
O O10 0.110283 0.870508 0.405201
O O11 0.076120 0.000000 0.261698
O O12 0.500000 0.182472 0.500000
O O13 0.750000 0.250000 0.500000
#
# Coordination Sequence:
#
# PCOD9211537 Si02
#       8
#     4   4   4   8   4   2   4   8
#     4   9  20  41  65  91 128 169 221 278 342 384
#     4  12  25  40  65  92 126 172 223 279 336 393
#     4  12  25  36  72 102 125 168 240 268 318 393
#     4   9  21  42  67 101 132 177 212 272 328 394
#     4  10  21  40  64  82 120 169 208 282 340 383
#     4   8  18  46  72  90 154 180 198 264 348 382
#     4   9  22  42  62  94 135 162 225 277 327 380
#     4  12  26  41  60  88 126 168 222 279 347 421
#
# _framework density 22.889095000000001
#
# number of rings (size 3 to 8) (size 9 to 14) (size 15 to 20)
#    0.000    2.105    0.000    5.053    8.842    0.421 
#    0.000    4.211    0.000    0.000    0.000    0.000 
#    0.000    0.000    0.000    0.000    0.000    0.000 
#
# Total GULP energy -105970.732945 kJ/mol
# GULP energy per Si atom -5577.406997 kJ/mol
# Density = 2.283700 g / cm^3
# Si number density = 22.889095 Si / 1000 Ang^3
#
#
#
# Elastic Constant Matrix: (Units=GPa)
#
#
# Indices 1 2 3 4 5 6 
#
# 1 124.3452 25.6047 29.8033 0.0000 23.5641 0.0000
# 2 25.6047 214.6887 37.0161 0.0000 5.3696 0.0000
# 3 29.8033 37.0161 64.6494 0.0000 7.0520 0.0000
# 4 0.0000 0.0000 0.0000 -26.7252 0.0000 18.5498
# 5 23.5641 5.3696 7.0520 0.0000 33.4118 0.0000
# 6 0.0000 0.0000 0.0000 18.5498 0.0000 8.7492
#
#
#
# Elastic Compliance Matrix: (Units=1/GPa)
#
#
# Indices 1 2 3 4 5 6 
#
# 1 0.010240 -0.000408 -0.003794 0.000000 -0.006356 0.000000
# 2 -0.000408 0.005186 -0.002786 0.000000 0.000042 0.000000
# 3 -0.003794 -0.002786 0.018906 0.000000 -0.000867 0.000000
# 4 0.000000 0.000000 0.000000 -0.015139 0.000000 0.032098
# 5 -0.006356 0.000042 -0.000867 0.000000 0.034588 0.000000
# 6 0.000000 0.000000 0.000000 0.032098 0.000000 0.046244
#
#
# Mechanical properties :
#
#
# Convention : Reuss Voigt Hill
#
# Bulk Modulus (GPa) = 49.12261 65.39240 57.25750
# Shear Modulus (GPa) = 41.39560 23.83776 32.61668
#
# Velocity S-wave (km/s) = 4.25729 3.23065 3.77900
# Velocity P-wave (km/s) = 6.75824 6.52283 6.64158
#
# Compressibility (1/GPa) = 0.02035723
#
# Stress axis : x y z
#
# Youngs Moduli (GPa) = 97.65769 192.83314 52.89190
#
# Poissons Ratio (x) = 0.07872 0.20065
# Poissons Ratio (y) = 0.03986 0.14734
# Poissons Ratio (z) = 0.37047 0.53717
#
# Static dielectric constant tensor:
#      x y z
#    x 1.874970 0.000000 0.011990 
#    y 0.000000 1.798670 0.000000 
#    z 0.011990 0.000000 1.939670 
# 
# From -- ./inp_files/260939.got.cif
#   From: 2010.05.17/outbox.cif.g08.bks.cpg/sg12_131_cif.got.tgz:260939.got - 2010.06.03 13:09:07.
