data_PCOD9211922
_publ_section_title
;
Structure prediction by ZEFSAII (Michael W. Deem and Ramdas Pophale) SiO2 
 PCOD9211922
Probable space group: C 2/M
;
_chemical_formula_sum "Si O2"
_cell_formula_units_Z 42
_cell_length_a 5.160217
_cell_length_b 21.584185
_cell_length_c 14.673937
_cell_angle_alpha 90.000000
_cell_angle_beta 98.722874
_cell_angle_gamma 90.000000
_cell_volume 1615.465514
_symmetry_space_group_name_H-M "C 2/M"
_symmetry_group_IT_number 12
_symmetry_cell_setting 'monoclinic'
loop_
_space_group_symop_operation_xyz
x,y,z
-x,y,-z
-x,-y,-z
x,-y,z
1/2+x,1/2+y,z
1/2-x,1/2+y,-z
1/2-x,1/2-y,-z
1/2+x,1/2-y,z
loop_
_atom_site_type_symbol
_atom_site_label
_atom_site_fract_x
_atom_site_fract_y
_atom_site_fract_z
Si Si1 0.304355 0.400351 0.600228
Si Si2 0.188228 0.207030 0.130593
Si Si3 0.161969 0.570809 0.286681
Si Si4 0.146444 0.718063 0.651068
Si Si5 0.863865 0.426845 0.090591
Si Si6 0.500000 0.000000 0.500000
O O1 0.589878 0.396576 0.657920
O O2 0.221934 0.330942 0.579362
O O3 0.102035 0.424211 0.668151
O O4 0.227798 0.446126 0.516509
O O5 0.421998 0.252541 0.107354
O O6 0.252557 0.198809 0.242142
O O7 0.189380 0.136236 0.091729
O O8 0.246418 0.500000 0.294741
O O9 0.084550 0.584846 0.179499
O O10 0.338538 0.774465 0.641228
O O11 0.764013 0.500000 0.099950
O O12 0.000000 0.426675 0.000000
#
# Coordination Sequence:
#
# PCOD9211922 Si02
#       6
#     8   8   8   8   8   2
#     4  12  24  43  70 101 138 172 220 284 340 417
#     4  10  22  40  69  99 136 184 240 290 345 412
#     4  11  22  42  67  98 137 184 221 274 350 407
#     4  10  21  40  67  98 130 181 232 270 337 417
#     4  10  23  43  69 104 145 190 243 295 350 413
#     4  12  28  46  72 114 134 170 224 284 356 406
#
# _framework density 25.998697
#
# number of rings (size 3 to 8) (size 9 to 14) (size 15 to 20)
#    0.000    1.333    3.810    1.143    5.333    2.286 
#    0.000    4.762    0.000   11.429    0.000    0.000 
#    0.000    0.000    0.000    0.000    0.000    0.000 
#
# Total GULP energy -117104.617366 kJ/mol
# GULP energy per Si atom -5576.410351 kJ/mol
# Density = 2.593952 g / cm^3
# Si number density = 25.998697 Si / 1000 Ang^3
#
#
#
# Elastic Constant Matrix: (Units=GPa)
#
#
# Indices 1 2 3 4 5 6 
#
# 1 136.2082 65.4184 44.6903 0.0000 12.3335 0.0000
# 2 65.4184 143.8215 35.7032 0.0000 21.1761 0.0000
# 3 44.6903 35.7032 112.1577 0.0000 4.7544 0.0000
# 4 0.0000 0.0000 0.0000 4.6585 0.0000 0.3426
# 5 12.3335 21.1761 4.7544 0.0000 27.1649 0.0000
# 6 0.0000 0.0000 0.0000 0.3426 0.0000 9.9178
#
#
#
# Elastic Compliance Matrix: (Units=1/GPa)
#
#
# Indices 1 2 3 4 5 6 
#
# 1 0.010175 -0.003754 -0.002808 0.000000 -0.001202 0.000000
# 2 -0.003754 0.009851 -0.001397 0.000000 -0.005730 0.000000
# 3 -0.002808 -0.001397 0.010457 0.000000 0.000534 0.000000
# 4 0.000000 0.000000 0.000000 0.215210 0.000000 -0.007435
# 5 -0.001202 -0.005730 0.000534 0.000000 0.041731 0.000000
# 6 0.000000 0.000000 0.000000 -0.007435 0.000000 0.101086
#
#
# Mechanical properties :
#
#
# Convention : Reuss Voigt Hill
#
# Bulk Modulus (GPa) = 68.66170 75.97901 72.32035
# Shear Modulus (GPa) = 12.21645 24.77327 18.49486
#
# Velocity S-wave (km/s) = 2.17004 3.09020 2.67006
# Velocity P-wave (km/s) = 5.72239 6.48229 6.11416
#
# Compressibility (1/GPa) = 0.01456416
#
# Stress axis : x y z
#
# Youngs Moduli (GPa) = 98.28062 101.51035 95.62831
#
# Poissons Ratio (x) = 0.38108 0.26856
# Poissons Ratio (y) = 0.36895 0.13361
# Poissons Ratio (z) = 0.27600 0.14183
#
# Static dielectric constant tensor:
#      x y z
#    x 2.083800 0.000000 0.027480 
#    y 0.000000 2.224370 0.000000 
#    z 0.027480 0.000000 2.210890 
# 
# From -- ./inp_files/252950.got.cif
#   From: 2010.05.17/outbox.cif.g08.bks.cpg/sg12_127_cif.got.tgz:252950.got - 2010.06.03 13:09:07.
