data_PCOD9211349
_publ_section_title
;
Structure prediction by ZEFSAII (Michael W. Deem and Ramdas Pophale) SiO2 
 PCOD9211349
Probable space group: C 2/M
;
_chemical_formula_sum "Si O2"
_cell_formula_units_Z 40
_cell_length_a 19.546007
_cell_length_b 16.741502
_cell_length_c 9.050261
_cell_angle_alpha 90.000000
_cell_angle_beta 39.785721
_cell_angle_gamma 90.000000
_cell_volume 1895.125795
_symmetry_space_group_name_H-M "C 2/M"
_symmetry_group_IT_number 12
_symmetry_cell_setting 'monoclinic'
loop_
_space_group_symop_operation_xyz
x,y,z
-x,y,-z
-x,-y,-z
x,-y,z
1/2+x,1/2+y,z
1/2-x,1/2+y,-z
1/2-x,1/2-y,-z
1/2+x,1/2-y,z
loop_
_atom_site_type_symbol
_atom_site_label
_atom_site_fract_x
_atom_site_fract_y
_atom_site_fract_z
Si Si1 0.830009 0.724280 0.054420
Si Si2 0.500000 0.267947 0.000000
Si Si3 0.436085 0.000000 0.418995
Si Si4 0.191600 0.500000 0.988521
Si Si5 0.192125 0.364820 0.193095
Si Si6 0.302497 0.331898 0.477022
Si Si7 0.297410 0.000000 0.381164
O O1 0.782233 0.813718 0.125672
O O2 0.733722 0.675470 0.292775
O O3 0.860879 0.696453 0.838151
O O4 0.928043 0.717147 0.005676
O O5 0.575420 0.320904 0.770604
O O6 0.562647 0.000000 0.232616
O O7 0.382749 0.919610 0.578691
O O8 0.405188 0.000000 0.297994
O O9 0.240214 0.426807 0.996875
O O10 0.196533 0.500000 0.805613
O O11 0.250000 0.250000 0.500000
O O12 0.260564 0.416183 0.485576
#
# Coordination Sequence:
#
# PCOD9211349 Si02
#       7
#     8   4   4   4   8   8   4
#     4  10  21  40  66  92 131 172 212 270 323 385
#     4  10  22  39  66  99 122 172 230 259 316 395
#     4  11  23  37  64  98 126 167 222 264 330 403
#     4  11  23  39  63  95 128 172 215 265 340 392
#     4  10  21  40  61  92 135 168 201 268 336 380
#     4  10  22  41  63  96 130 168 214 269 324 376
#     4  12  23  43  65  91 139 173 212 286 314 389
#
# _framework density 21.106777999999998
#
# number of rings (size 3 to 8) (size 9 to 14) (size 15 to 20)
#    0.000    1.600    2.000    3.900    0.000    6.800 
#    0.000    5.000    0.000    1.200    0.000    0.000 
#    0.000    0.000    0.000    0.000    0.000    0.000 
#
# Total GULP energy -111353.380081 kJ/mol
# GULP energy per Si atom -5567.669004 kJ/mol
# Density = 2.105874 g / cm^3
# Si number density = 21.106778 Si / 1000 Ang^3
#
#
#
# Elastic Constant Matrix: (Units=GPa)
#
#
# Indices 1 2 3 4 5 6 
#
# 1 69.2306 7.8395 26.6013 0.0000 13.8398 0.0000
# 2 7.8395 119.8938 29.7775 0.0000 -1.4333 0.0000
# 3 26.6013 29.7775 81.9199 0.0000 0.8294 0.0000
# 4 0.0000 0.0000 0.0000 12.1847 0.0000 16.1285
# 5 13.8398 -1.4333 0.8294 0.0000 28.4330 0.0000
# 6 0.0000 0.0000 0.0000 16.1285 0.0000 32.1011
#
#
#
# Elastic Compliance Matrix: (Units=1/GPa)
#
#
# Indices 1 2 3 4 5 6 
#
# 1 0.018483 0.000170 -0.005974 0.000000 -0.008814 0.000000
# 2 0.000170 0.009179 -0.003397 0.000000 0.000479 0.000000
# 3 -0.005974 -0.003397 0.015358 0.000000 0.002289 0.000000
# 4 0.000000 0.000000 0.000000 0.245018 0.000000 -0.123104
# 5 -0.008814 0.000479 0.002289 0.000000 0.039418 0.000000
# 6 0.000000 0.000000 0.000000 -0.123104 0.000000 0.093002
#
#
# Mechanical properties :
#
#
# Convention : Reuss Voigt Hill
#
# Bulk Modulus (GPa) = 40.62013 44.38676 42.50344
# Shear Modulus (GPa) = 11.18403 28.33218 19.75811
#
# Velocity S-wave (km/s) = 2.30441 3.66775 3.06290
# Velocity P-wave (km/s) = 5.13490 6.24594 5.71747
#
# Compressibility (1/GPa) = 0.02461834
#
# Stress axis : x y z
#
# Youngs Moduli (GPa) = 54.10450 108.94541 65.11055
#
# Poissons Ratio (x) = -0.01851 0.38899
# Poissons Ratio (y) = -0.00919 0.22115
# Poissons Ratio (z) = 0.32324 0.37004
#
# Static dielectric constant tensor:
#      x y z
#    x 1.796680 0.000000 0.042640 
#    y 0.000000 1.862700 0.000000 
#    z 0.042640 0.000000 1.815740 
# 
# From -- ./inp_files/87692.got.cif
#   From: 2010.05.17/outbox.cif.g08.bks.cpg/sg12_44_cif.got.tgz:87692.got - 2010.06.03 13:09:07.
