data_PCOD9211101
_publ_section_title
;
Structure prediction by ZEFSAII (Michael W. Deem and Ramdas Pophale) SiO2 
 PCOD9211101
Probable space group: C 2/M
;
_chemical_formula_sum "Si O2"
_cell_formula_units_Z 40
_cell_length_a 11.195146
_cell_length_b 18.904407
_cell_length_c 16.640010
_cell_angle_alpha 90.000000
_cell_angle_beta 30.851704
_cell_angle_gamma 90.000000
_cell_volume 1805.965638
_symmetry_space_group_name_H-M "C 2/M"
_symmetry_group_IT_number 12
_symmetry_cell_setting 'monoclinic'
loop_
_space_group_symop_operation_xyz
x,y,z
-x,y,-z
-x,-y,-z
x,-y,z
1/2+x,1/2+y,z
1/2-x,1/2+y,-z
1/2-x,1/2-y,-z
1/2+x,1/2-y,z
loop_
_atom_site_type_symbol
_atom_site_label
_atom_site_fract_x
_atom_site_fract_y
_atom_site_fract_z
Si Si1 0.050670 0.300176 0.207964
Si Si2 0.014504 0.676570 0.580562
Si Si3 0.503463 0.341926 0.132451
Si Si4 0.982784 0.083512 0.299743
Si Si5 0.262634 0.420082 0.687739
O O1 0.986123 0.279895 0.336526
O O2 0.004371 0.233075 0.178833
O O3 0.897288 0.364675 0.264942
O O4 0.313803 0.327508 0.043195
O O5 0.762524 0.638201 0.733632
O O6 0.000000 0.711852 0.500000
O O7 0.236938 0.624880 0.451147
O O8 0.584373 0.397078 0.153778
O O9 0.162502 0.103620 0.266231
O O10 0.940226 0.000000 0.332182
O O11 0.500000 0.423549 0.500000
O O12 0.164858 0.500000 0.747712
#
# Coordination Sequence:
#
# PCOD9211101 Si02
#       5
#     8   8   8   8   8
#     4  11  23  42  63  90 132 163 210 257 308 376
#     4  10  22  40  63  89 119 163 208 254 308 363
#     4  10  25  40  61  94 127 171 202 254 317 372
#     4  10  22  42  64  93 127 162 211 260 311 369
#     4  10  21  39  66  94 122 163 211 263 309 361
#
# _framework density 22.148817999999999
#
# number of rings (size 3 to 8) (size 9 to 14) (size 15 to 20)
#    0.000    1.800    2.000    0.600    2.800   10.800 
#    0.000    2.000    0.000    7.200    0.000    0.000 
#    0.000    0.000    0.000    0.000    0.000    0.000 
#
# Total GULP energy -111663.117170 kJ/mol
# GULP energy per Si atom -5583.155859 kJ/mol
# Density = 2.209841 g / cm^3
# Si number density = 22.148818 Si / 1000 Ang^3
#
#
#
# Elastic Constant Matrix: (Units=GPa)
#
#
# Indices 1 2 3 4 5 6 
#
# 1 105.3204 36.6459 33.6681 -0.0315 14.5378 0.0724
# 2 36.6459 64.4412 16.9946 -0.0209 -4.9747 -0.1095
# 3 33.6681 16.9946 105.3422 -0.1079 14.4430 -0.0927
# 4 -0.0315 -0.0209 -0.1079 41.1171 0.0098 -41.0786
# 5 14.5378 -4.9747 14.4430 0.0098 39.7885 0.0307
# 6 0.0724 -0.1095 -0.0927 -41.0786 0.0307 93.0352
#
#
#
# Elastic Compliance Matrix: (Units=1/GPa)
#
#
# Indices 1 2 3 4 5 6 
#
# 1 0.013560 -0.007452 -0.002446 -0.000034 -0.004998 -0.000035
# 2 -0.007452 0.020682 -0.001771 0.000045 0.005951 0.000046
# 3 -0.002446 -0.001771 0.011017 0.000069 -0.003327 0.000043
# 4 -0.000034 0.000045 0.000069 0.043518 -0.000033 0.019215
# 5 -0.004998 0.005951 -0.003327 -0.000033 0.028911 -0.000016
# 6 -0.000035 0.000046 0.000043 0.019215 -0.000016 0.019233
#
#
# Mechanical properties :
#
#
# Convention : Reuss Voigt Hill
#
# Bulk Modulus (GPa) = 45.61946 49.96901 47.79424
# Shear Modulus (GPa) = 29.83925 47.30784 38.57355
#
# Velocity S-wave (km/s) = 3.67443 4.62660 4.17773
# Velocity P-wave (km/s) = 6.21638 7.15193 6.70051
#
# Compressibility (1/GPa) = 0.02192047
#
# Stress axis : x y z
#
# Youngs Moduli (GPa) = 73.74860 48.35095 90.77175
#
# Poissons Ratio (x) = 0.36030 0.22206
# Poissons Ratio (y) = 0.54955 0.16074
# Poissons Ratio (z) = 0.18042 0.08562
#
# Static dielectric constant tensor:
#      x y z
#    x 1.891960 0.000000 0.020140 
#    y 0.000000 1.779550 0.000040 
#    z 0.020140 0.000040 1.850480 
# 
# From -- ./inp_files/135136.got.cif
#   From: 2010.05.17/outbox.cif.g08.bks.cpg/sg12_68_cif.got.tgz:135136.got - 2010.06.03 13:09:07.
