data_PCOD9211557
_publ_section_title
;
Structure prediction by ZEFSAII (Michael W. Deem and Ramdas Pophale) SiO2 
 PCOD9211557
Probable space group: C 2/M
;
_chemical_formula_sum "Si O2"
_cell_formula_units_Z 56
_cell_length_a 19.410951
_cell_length_b 8.877767
_cell_length_c 22.233911
_cell_angle_alpha 90.000000
_cell_angle_beta 55.696604
_cell_angle_gamma 90.000000
_cell_volume 3165.050062
_symmetry_space_group_name_H-M "C 2/M"
_symmetry_group_IT_number 12
_symmetry_cell_setting 'monoclinic'
loop_
_space_group_symop_operation_xyz
x,y,z
-x,y,-z
-x,-y,-z
x,-y,z
1/2+x,1/2+y,z
1/2-x,1/2+y,-z
1/2-x,1/2-y,-z
1/2+x,1/2-y,z
loop_
_atom_site_type_symbol
_atom_site_label
_atom_site_fract_x
_atom_site_fract_y
_atom_site_fract_z
Si Si1 0.446623 0.821679 0.688924
Si Si2 0.381973 0.181635 0.443708
Si Si3 0.196396 0.319527 0.079772
Si Si4 0.237173 0.181312 0.599252
Si Si5 0.837864 0.820688 0.237218
Si Si6 0.224594 0.821343 0.196095
Si Si7 0.992574 0.676908 0.806419
O O1 0.521647 0.771993 0.608481
O O2 0.360578 0.732587 0.729261
O O3 0.481874 0.804416 0.739666
O O4 0.429197 0.000000 0.688513
O O5 0.328621 0.222521 0.528995
O O6 0.329809 0.247803 0.413492
O O7 0.381622 0.000000 0.438369
O O8 0.204557 0.500000 0.077207
O O9 0.223354 0.253420 0.130875
O O10 0.097744 0.285188 0.121725
O O11 0.250000 0.250000 0.000000
O O12 0.215869 0.225593 0.677467
O O13 0.229579 0.000000 0.599362
O O14 0.801312 0.737414 0.197604
O O15 0.932419 0.775002 0.205348
O O16 0.830417 0.000000 0.233221
O O17 0.225425 0.000000 0.189881
O O18 0.010150 0.500000 0.808494
#
# Coordination Sequence:
#
# PCOD9211557 Si02
#       7
#     8   8   8   8   8   8   8
#     4   9  17  32  53  76 104 140 183 229 274 323
#     4   9  16  29  49  73 103 139 180 227 277 322
#     4  10  21  40  64  89 115 141 172 213 259 315
#     4   9  18  29  46  75 106 139 180 227 274 320
#     4  11  21  34  52  78 112 145 182 226 270 320
#     4  11  23  37  56  79 108 145 182 222 270 320
#     4   9  18  33  55  82 109 141 177 215 261 315
#
# _framework density 17.693242999999999
#
# number of rings (size 3 to 8) (size 9 to 14) (size 15 to 20)
#    0.000    2.286    1.429    3.000    0.000    4.000 
#    0.000    1.429    0.000    8.571    0.000    0.000 
#    0.000    0.000    0.000    0.000    0.000    0.000 
#
# Total GULP energy -156215.880275 kJ/mol
# GULP energy per Si atom -5579.138581 kJ/mol
# Density = 1.765297 g / cm^3
# Si number density = 17.693243 Si / 1000 Ang^3
#
#
#
# Elastic Constant Matrix: (Units=GPa)
#
#
# Indices 1 2 3 4 5 6 
#
# 1 61.2339 37.9802 32.8685 0.0001 -0.3242 0.0004
# 2 37.9802 55.8180 39.8492 0.0001 -4.4576 0.0006
# 3 32.8685 39.8492 108.3393 0.0000 -15.1974 0.0000
# 4 0.0001 0.0001 0.0000 23.6177 0.0000 -5.1445
# 5 -0.3242 -4.4576 -15.1974 0.0000 18.5256 0.0000
# 6 0.0004 0.0006 0.0000 -5.1445 0.0000 29.5534
#
#
#
# Elastic Compliance Matrix: (Units=1/GPa)
#
#
# Indices 1 2 3 4 5 6 
#
# 1 0.029243 -0.018219 -0.003067 0.000000 -0.006388 0.000000
# 2 -0.018219 0.035692 -0.007278 0.000000 0.002299 -0.000001
# 3 -0.003067 -0.007278 0.014221 0.000000 0.009861 0.000000
# 4 0.000000 0.000000 0.000000 0.044010 0.000000 0.007661
# 5 -0.006388 0.002299 0.009861 0.000000 0.062510 0.000000
# 6 0.000000 -0.000001 0.000000 0.007661 0.000000 0.035171
#
#
# Mechanical properties :
#
#
# Convention : Reuss Voigt Hill
#
# Bulk Modulus (GPa) = 45.39633 49.64301 47.51967
# Shear Modulus (GPa) = 17.52435 21.98557 19.75496
#
# Velocity S-wave (km/s) = 3.15056 3.52887 3.34507
# Velocity P-wave (km/s) = 6.24082 6.68748 6.46801
#
# Compressibility (1/GPa) = 0.02202821
#
# Stress axis : x y z
#
# Youngs Moduli (GPa) = 34.19581 28.01781 70.31802
#
# Poissons Ratio (x) = 0.51045 0.21566
# Poissons Ratio (y) = 0.62300 0.51180
# Poissons Ratio (z) = 0.10487 0.20392
#
# Static dielectric constant tensor:
#      x y z
#    x 1.579330 0.000000 -0.020230 
#    y 0.000000 1.598280 0.000000 
#    z -0.020230 0.000000 1.616250 
# 
# From -- ./inp_files/275137.got.cif
#   From: 2010.05.17/outbox.cif.g08.bks.cpg/sg12_138_cif.got.tgz:275137.got - 2010.06.03 13:09:07.
