data_PCOD9211206
_publ_section_title
;
Structure prediction by ZEFSAII (Michael W. Deem and Ramdas Pophale) SiO2 
 PCOD9211206
Probable space group: C 2/M
;
_chemical_formula_sum "Si O2"
_cell_formula_units_Z 56
_cell_length_a 21.468547
_cell_length_b 18.243388
_cell_length_c 21.393150
_cell_angle_alpha 90.000000
_cell_angle_beta 19.539021
_cell_angle_gamma 90.000000
_cell_volume 2802.286130
_symmetry_space_group_name_H-M "C 2/M"
_symmetry_group_IT_number 12
_symmetry_cell_setting 'monoclinic'
loop_
_space_group_symop_operation_xyz
x,y,z
-x,y,-z
-x,-y,-z
x,-y,z
1/2+x,1/2+y,z
1/2-x,1/2+y,-z
1/2-x,1/2-y,-z
1/2+x,1/2-y,z
loop_
_atom_site_type_symbol
_atom_site_label
_atom_site_fract_x
_atom_site_fract_y
_atom_site_fract_z
Si Si1 0.467489 0.187404 0.650429
Si Si2 0.232243 0.083751 0.112702
Si Si3 0.388136 0.662686 0.213450
Si Si4 0.778672 0.169437 0.002823
Si Si5 0.787416 0.419423 0.728097
Si Si6 0.045673 0.671952 0.885434
Si Si7 0.457654 0.647537 0.466040
O O1 0.680547 0.163866 0.439032
O O2 0.317254 0.145940 0.748757
O O3 0.473191 0.272626 0.624393
O O4 0.400644 0.166428 0.782515
O O5 0.200176 0.111513 0.072814
O O6 0.057201 0.091821 0.325153
O O7 0.297367 0.000000 0.051987
O O8 0.381337 0.140195 0.999645
O O9 0.542860 0.658605 0.120818
O O10 0.360118 0.602017 0.186004
O O11 0.427850 0.740750 0.143252
O O12 0.750000 0.250000 0.000000
O O13 0.747894 0.500000 0.791959
O O14 0.000000 0.422897 0.500000
O O15 0.235906 0.641780 0.676098
O O16 0.000000 0.650921 0.000000
O O17 0.500000 0.641272 0.500000
#
# Coordination Sequence:
#
# PCOD9211206 Si02
#       7
#     8   8   8   8   8   8   8
#     4  10  21  39  68  98 129 168 218 261 320 389
#     4  12  28  46  62  94 134 171 218 274 329 389
#     4  10  22  37  68  98 128 170 217 263 321 387
#     4  12  24  42  65  89 127 175 219 264 311 383
#     4   9  19  37  62 100 139 166 204 267 327 385
#     4  11  22  40  69  97 125 165 215 271 331 389
#     4  11  21  40  69  97 127 165 214 268 330 389
#
# _framework density 19.983682999999999
#
# number of rings (size 3 to 8) (size 9 to 14) (size 15 to 20)
#    0.000    1.286    4.286    2.143    2.000    4.000 
#    0.000    0.714    0.000    0.000    0.000    0.000 
#    0.000    0.000    0.000    0.000    0.000    0.000 
#
# Total GULP energy -156217.073548 kJ/mol
# GULP energy per Si atom -5579.181198 kJ/mol
# Density = 1.993820 g / cm^3
# Si number density = 19.983683 Si / 1000 Ang^3
#
#
#
# Elastic Constant Matrix: (Units=GPa)
#
#
# Indices 1 2 3 4 5 6 
#
# 1 91.6205 1.4065 58.8307 0.0092 1.1722 0.0029
# 2 1.4065 40.7964 39.0386 0.0348 1.1696 -0.0295
# 3 58.8307 39.0386 114.2343 0.0394 5.6505 -0.0306
# 4 0.0092 0.0348 0.0394 18.6646 -0.0231 1.2625
# 5 1.1722 1.1696 5.6505 -0.0231 39.3868 0.0007
# 6 0.0029 -0.0295 -0.0306 1.2625 0.0007 -19.7770
#
#
#
# Elastic Compliance Matrix: (Units=1/GPa)
#
#
# Indices 1 2 3 4 5 6 
#
# 1 0.020636 0.014087 -0.015501 -0.000003 0.001191 0.000006
# 2 0.014087 0.046059 -0.023071 -0.000040 0.001523 -0.000034
# 3 -0.015501 -0.023071 0.024740 -0.000004 -0.002403 -0.000006
# 4 -0.000003 -0.000040 -0.000004 0.053347 0.000033 0.003406
# 5 0.001191 0.001523 -0.002403 0.000033 0.025653 0.000005
# 6 0.000006 -0.000034 -0.000006 0.003406 0.000005 -0.050346
#
#
# Mechanical properties :
#
#
# Convention : Reuss Voigt Hill
#
# Bulk Modulus (GPa) = 23.54752 49.46698 36.50725
# Shear Modulus (GPa) = 27.29047 17.47990 22.38519
#
# Velocity S-wave (km/s) = 3.69946 2.96076 3.35053
# Velocity P-wave (km/s) = 5.48243 6.04115 5.76856
#
# Compressibility (1/GPa) = 0.04246731
#
# Stress axis : x y z
#
# Youngs Moduli (GPa) = 48.45797 21.71113 40.42036
#
# Poissons Ratio (x) = -0.30585 0.62655
# Poissons Ratio (y) = -0.68265 0.93253
# Poissons Ratio (z) = 0.75114 0.50089
#
# Static dielectric constant tensor:
#      x y z
#    x 1.863060 -0.000030 0.168260 
#    y -0.000030 1.688860 0.000000 
#    z 0.168260 0.000000 1.957870 
# 
# From -- ./inp_files/322643.got.cif
#   From: 2010.05.17/outbox.cif.g08.bks.cpg/sg12_162_cif.got.tgz:322643.got - 2010.06.03 13:09:07.
