data_PCOD9211298
_publ_section_title
;
Structure prediction by ZEFSAII (Michael W. Deem and Ramdas Pophale) SiO2 
 PCOD9211298
Probable space group: C 2/M
;
_chemical_formula_sum "Si O2"
_cell_formula_units_Z 56
_cell_length_a 11.548742
_cell_length_b 25.829263
_cell_length_c 9.290750
_cell_angle_alpha 90.000000
_cell_angle_beta 110.606003
_cell_angle_gamma 90.000000
_cell_volume 2594.082798
_symmetry_space_group_name_H-M "C 2/M"
_symmetry_group_IT_number 12
_symmetry_cell_setting 'monoclinic'
loop_
_space_group_symop_operation_xyz
x,y,z
-x,y,-z
-x,-y,-z
x,-y,z
1/2+x,1/2+y,z
1/2-x,1/2+y,-z
1/2-x,1/2-y,-z
1/2+x,1/2-y,z
loop_
_atom_site_type_symbol
_atom_site_label
_atom_site_fract_x
_atom_site_fract_y
_atom_site_fract_z
Si Si1 0.201719 0.439309 0.694825
Si Si2 0.991553 0.059454 0.835650
Si Si3 0.360804 0.892848 0.618348
Si Si4 0.796055 0.761077 0.181126
Si Si5 0.611816 0.631709 0.655063
Si Si6 0.946042 0.558383 0.118020
Si Si7 0.545008 0.211883 0.188408
O O1 0.160536 0.500000 0.665144
O O2 0.347170 0.440118 0.735419
O O3 0.140879 0.401645 0.552414
O O4 0.167849 0.420090 0.840793
O O5 0.063886 0.091428 0.750485
O O6 0.036576 0.000000 0.860404
O O7 0.000000 0.081567 0.000000
O O8 0.220325 0.893944 0.609979
O O9 0.441225 0.938819 0.721439
O O10 0.416692 0.840827 0.712767
O O11 0.831681 0.819724 0.235665
O O12 0.671974 0.753148 0.227279
O O13 0.930446 0.733111 0.234089
O O14 0.750000 0.750000 0.000000
O O15 0.500000 0.647302 0.500000
O O16 0.910167 0.500000 0.061410
O O17 0.000000 0.584820 0.000000
O O18 0.500000 0.205273 0.000000
#
# Coordination Sequence:
#
# PCOD9211298 Si02
#       7
#     8   8   8   8   8   8   8
#     4  10  21  40  60  88 128 166 213 264 317 382
#     4  10  23  41  63  93 129 170 219 268 317 386
#     4  11  21  37  62  90 127 166 208 260 327 383
#     4   9  20  41  68  91 125 169 215 267 326 388
#     4  11  23  42  65  97 132 167 213 269 328 391
#     4  10  22  38  59  87 122 168 217 264 315 377
#     4   9  19  39  63  93 126 166 217 269 322 391
#
# _framework density 21.587592000000001
#
# number of rings (size 3 to 8) (size 9 to 14) (size 15 to 20)
#    0.000    2.000    1.429    1.286    2.000    4.286 
#    2.571    4.286    0.000    0.000    0.000    0.000 
#    0.000    0.000    0.000    0.000    0.000    0.000 
#
# Total GULP energy -156043.689583 kJ/mol
# GULP energy per Si atom -5572.988914 kJ/mol
# Density = 2.153846 g / cm^3
# Si number density = 21.587592 Si / 1000 Ang^3
#
#
#
# Elastic Constant Matrix: (Units=GPa)
#
#
# Indices 1 2 3 4 5 6 
#
# 1 148.8618 42.4004 17.7583 0.0000 -9.7032 0.0000
# 2 42.4004 42.4836 23.2852 0.0000 -10.5756 0.0000
# 3 17.7583 23.2852 59.2454 0.0000 -22.1967 0.0000
# 4 0.0000 0.0000 0.0000 27.4963 0.0000 0.7255
# 5 -9.7032 -10.5756 -22.1967 0.0000 33.6900 0.0000
# 6 0.0000 0.0000 0.0000 0.7255 0.0000 22.2058
#
#
#
# Elastic Compliance Matrix: (Units=1/GPa)
#
#
# Indices 1 2 3 4 5 6 
#
# 1 0.009447 -0.010017 0.001257 0.000000 0.000405 0.000000
# 2 -0.010017 0.040744 -0.012348 0.000000 0.001769 0.000000
# 3 0.001257 -0.012348 0.026606 0.000000 0.014015 0.000000
# 4 0.000000 0.000000 0.000000 0.036400 0.000000 -0.001189
# 5 0.000405 0.001769 0.014015 0.000000 0.039588 0.000000
# 6 0.000000 0.000000 0.000000 -0.001189 0.000000 0.045072
#
#
# Mechanical properties :
#
#
# Convention : Reuss Voigt Hill
#
# Bulk Modulus (GPa) = 28.91758 46.38652 37.65205
# Shear Modulus (GPa) = 19.87265 27.82156 23.84710
#
# Velocity S-wave (km/s) = 3.03736 3.59385 3.32726
# Velocity P-wave (km/s) = 5.07201 6.22537 5.67805
#
# Compressibility (1/GPa) = 0.03458104
#
# Stress axis : x y z
#
# Youngs Moduli (GPa) = 105.85170 24.54337 37.58481
#
# Poissons Ratio (x) = 0.24585 -0.04724
# Poissons Ratio (y) = 1.06029 0.46411
# Poissons Ratio (z) = -0.13303 0.30307
#
# Static dielectric constant tensor:
#      x y z
#    x 1.838620 0.000000 0.004040 
#    y 0.000000 1.783560 0.000000 
#    z 0.004040 0.000000 1.794590 
# 
# From -- ./inp_files/53263.got.cif
#   From: 2010.05.17/outbox.cif.g08.bks.cpg/sg12_27_cif.got.tgz:53263.got - 2010.06.03 13:09:07.
