data_PCOD9211294
_publ_section_title
;
Structure prediction by ZEFSAII (Michael W. Deem and Ramdas Pophale) SiO2 
 PCOD9211294
Probable space group: C 2/M
;
_chemical_formula_sum "Si O2"
_cell_formula_units_Z 64
_cell_length_a 30.969916
_cell_length_b 8.436479
_cell_length_c 13.862258
_cell_angle_alpha 90.000000
_cell_angle_beta 59.394661
_cell_angle_gamma 90.000000
_cell_volume 3117.340971
_symmetry_space_group_name_H-M "C 2/M"
_symmetry_group_IT_number 12
_symmetry_cell_setting 'monoclinic'
loop_
_space_group_symop_operation_xyz
x,y,z
-x,y,-z
-x,-y,-z
x,-y,z
1/2+x,1/2+y,z
1/2-x,1/2+y,-z
1/2-x,1/2-y,-z
1/2+x,1/2-y,z
loop_
_atom_site_type_symbol
_atom_site_label
_atom_site_fract_x
_atom_site_fract_y
_atom_site_fract_z
Si Si1 0.906466 0.811374 0.406495
Si Si2 0.441887 0.811139 0.567763
Si Si3 0.365760 0.308096 0.798044
Si Si4 0.706529 0.308214 0.478554
Si Si5 0.330898 0.308889 0.049179
Si Si6 0.015613 0.316097 0.833046
Si Si7 0.275745 0.309442 0.760543
Si Si8 0.428185 0.312985 0.047269
O O1 0.913093 0.770793 0.511585
O O2 0.851034 0.758392 0.434144
O O3 0.951884 0.734290 0.295682
O O4 0.909290 0.000000 0.390402
O O5 0.500000 0.763332 0.500000
O O6 0.416364 0.762019 0.696841
O O7 0.438873 0.000000 0.558335
O O8 0.369110 0.500000 0.792994
O O9 0.351061 0.257064 0.921954
O O10 0.321287 0.256348 0.776506
O O11 0.706742 0.500000 0.479704
O O12 0.750000 0.250000 0.500000
O O13 0.718275 0.253422 0.356124
O O14 0.328025 0.500000 0.050721
O O15 0.276861 0.242411 0.135455
O O16 0.372475 0.265347 0.081008
O O17 0.002350 0.500000 0.842327
O O18 0.050641 0.282900 0.886468
O O19 0.965550 0.217564 0.914680
O O20 0.277688 0.500000 0.756298
O O21 0.429595 0.500000 0.069358
#
# Coordination Sequence:
#
# PCOD9211294 Si02
#       8
#     8   8   8   8   8   8   8   8
#     4  11  23  43  67  91 123 165 207 251 306 370
#     4  11  25  42  62  95 129 159 203 256 308 365
#     4  10  21  42  64  87 120 160 204 247 299 366
#     4  10  23  41  62  91 123 161 206 253 305 367
#     4  10  23  38  61  92 118 153 204 250 298 360
#     4  11  23  39  61  89 122 159 201 251 307 359
#     4  10  21  40  62  87 121 157 199 250 305 361
#     4  10  21  40  60  88 122 159 205 249 297 366
#
# _framework density 20.530318000000001
#
# number of rings (size 3 to 8) (size 9 to 14) (size 15 to 20)
#    0.000    1.625    1.250    3.375    3.500    4.500 
#    0.000    0.000    0.000    0.000    0.000    0.000 
#    0.000    0.000    0.000    0.000    0.000    0.000 
#
# Total GULP energy -178893.184445 kJ/mol
# GULP energy per Si atom -5590.412014 kJ/mol
# Density = 2.048359 g / cm^3
# Si number density = 20.530318 Si / 1000 Ang^3
#
#
#
# Elastic Constant Matrix: (Units=GPa)
#
#
# Indices 1 2 3 4 5 6 
#
# 1 51.0756 0.6392 -17.2449 0.0000 -17.5638 0.0000
# 2 0.6392 14.0062 -7.9594 0.0000 -2.0652 0.0000
# 3 -17.2449 -7.9594 67.7318 0.0000 -14.4358 0.0000
# 4 0.0000 0.0000 0.0000 34.7817 0.0000 -0.5606
# 5 -17.5638 -2.0652 -14.4358 0.0000 34.3116 0.0000
# 6 0.0000 0.0000 0.0000 -0.5606 0.0000 2.5051
#
#
#
# Elastic Compliance Matrix: (Units=1/GPa)
#
#
# Indices 1 2 3 4 5 6 
#
# 1 0.032249 0.010083 0.014328 0.000000 0.023143 0.000000
# 2 0.010083 0.082405 0.015827 0.000000 0.016780 0.000000
# 3 0.014328 0.015827 0.024209 0.000000 0.018472 0.000000
# 4 0.000000 0.000000 0.000000 0.028855 0.000000 0.006457
# 5 0.023143 0.016780 0.018472 0.000000 0.049773 0.000000
# 6 0.000000 0.000000 0.000000 0.006457 0.000000 0.400625
#
#
# Mechanical properties :
#
#
# Convention : Reuss Voigt Hill
#
# Bulk Modulus (GPa) = 4.55915 9.29815 6.92865
# Shear Modulus (GPa) = 8.18662 24.81160 16.49911
#
# Velocity S-wave (km/s) = 1.99906 3.48017 2.83794
# Velocity P-wave (km/s) = 2.74842 4.54836 3.75775
#
# Compressibility (1/GPa) = 0.21933899
#
# Stress axis : x y z
#
# Youngs Moduli (GPa) = 31.00912 12.13518 41.30675
#
# Poissons Ratio (x) = -0.12236 -0.59184
# Poissons Ratio (y) = -0.31266 -0.65377
# Poissons Ratio (z) = -0.44430 -0.19207
#
# Static dielectric constant tensor:
#      x y z
#    x 1.718900 0.000000 0.007040 
#    y 0.000000 1.701880 0.000000 
#    z 0.007040 0.000000 1.722440 
# 
# From -- ./inp_files/249650.got.cif
#   From: 2010.05.17/outbox.cif.g08.bks.cpg/sg12_125_cif.got.tgz:249650.got - 2010.06.03 13:09:07.
