data_PCOD9211165
_publ_section_title
;
Structure prediction by ZEFSAII (Michael W. Deem and Ramdas Pophale) SiO2 
 PCOD9211165
Probable space group: C 2/M
;
_chemical_formula_sum "Si O2"
_cell_formula_units_Z 50
_cell_length_a 16.311972
_cell_length_b 10.198770
_cell_length_c 15.337708
_cell_angle_alpha 90.000000
_cell_angle_beta 70.297670
_cell_angle_gamma 90.000000
_cell_volume 2402.233082
_symmetry_space_group_name_H-M "C 2/M"
_symmetry_group_IT_number 12
_symmetry_cell_setting 'monoclinic'
loop_
_space_group_symop_operation_xyz
x,y,z
-x,y,-z
-x,-y,-z
x,-y,z
1/2+x,1/2+y,z
1/2-x,1/2+y,-z
1/2-x,1/2-y,-z
1/2+x,1/2-y,z
loop_
_atom_site_type_symbol
_atom_site_label
_atom_site_fract_x
_atom_site_fract_y
_atom_site_fract_z
Si Si1 0.788954 0.158564 0.118958
Si Si2 0.034365 0.249117 0.609296
Si Si3 0.564289 0.346040 0.059908
Si Si4 0.305352 0.146344 0.535009
Si Si5 0.661332 0.346890 0.715286
Si Si6 0.000000 0.000000 0.500000
Si Si7 0.914220 0.654300 0.796264
O O1 0.837872 0.208614 0.187999
O O2 0.687812 0.190329 0.162789
O O3 0.794580 0.000000 0.121010
O O4 0.842014 0.194880 0.013970
O O5 0.093527 0.326362 0.517375
O O6 0.101795 0.221727 0.665014
O O7 0.955550 0.320289 0.686399
O O8 0.007488 0.115072 0.572844
O O9 0.565525 0.500000 0.086437
O O10 0.543050 0.250410 0.147154
O O11 0.500000 0.337200 0.000000
O O12 0.250000 0.250000 0.500000
O O13 0.261907 0.156293 0.645474
O O14 0.285058 0.000000 0.510041
O O15 0.635211 0.500000 0.726646
O O16 0.924194 0.500000 0.813915
#
# Coordination Sequence:
#
# PCOD9211165 Si02
#       7
#     8   8   8   8   8   2   8
#     4   9  19  36  59  90 123 161 208 253 311 378
#     4  11  23  40  60  87 129 165 213 268 326 389
#     4  10  21  39  67  95 124 168 216 256 308 381
#     4   9  19  35  60  88 119 162 212 262 315 379
#     4   9  17  36  61  85 118 162 206 258 314 371
#     4  12  28  40  62  96 130 168 222 288 326 380
#     4  11  24  40  62  92 130 165 204 266 329 385
#
# _framework density 20.813967000000002
#
# number of rings (size 3 to 8) (size 9 to 14) (size 15 to 20)
#    0.000    2.080    0.800    1.920    4.480    1.600 
#    0.000    0.800    0.000    2.880    0.000    0.000 
#    0.000    0.000    0.000    0.000    0.000    0.000 
#
# Total GULP energy -139175.099937 kJ/mol
# GULP energy per Si atom -5567.003997 kJ/mol
# Density = 2.076659 g / cm^3
# Si number density = 20.813967 Si / 1000 Ang^3
#
#
#
# Elastic Constant Matrix: (Units=GPa)
#
#
# Indices 1 2 3 4 5 6 
#
# 1 69.9708 20.6289 32.5842 0.0000 -11.0202 0.0000
# 2 20.6289 91.4007 31.1371 0.0000 2.4907 0.0000
# 3 32.5842 31.1371 113.9157 0.0000 -15.6045 0.0000
# 4 0.0000 0.0000 0.0000 11.1764 0.0000 11.6947
# 5 -11.0202 2.4907 -15.6045 0.0000 41.9675 0.0000
# 6 0.0000 0.0000 0.0000 11.6947 0.0000 12.8017
#
#
#
# Elastic Compliance Matrix: (Units=1/GPa)
#
#
# Indices 1 2 3 4 5 6 
#
# 1 0.017374 -0.002728 -0.003769 0.000000 0.003323 0.000000
# 2 -0.002728 0.012662 -0.003036 0.000000 -0.002597 0.000000
# 3 -0.003769 -0.003036 0.011143 0.000000 0.003334 0.000000
# 4 0.000000 0.000000 0.000000 2.028252 0.000000 -1.852863
# 5 0.003323 -0.002597 0.003334 0.000000 0.026094 0.000000
# 6 0.000000 0.000000 0.000000 -1.852863 0.000000 1.770755
#
#
# Mechanical properties :
#
#
# Convention : Reuss Voigt Hill
#
# Bulk Modulus (GPa) = 45.22270 49.33197 47.27734
# Shear Modulus (GPa) = 1.28445 25.91825 13.60135
#
# Velocity S-wave (km/s) = 0.78642 3.53261 2.55908
# Velocity P-wave (km/s) = 4.75383 6.35547 5.61208
#
# Compressibility (1/GPa) = 0.02211279
#
# Stress axis : x y z
#
# Youngs Moduli (GPa) = 57.55601 78.97864 89.74192
#
# Poissons Ratio (x) = 0.21545 0.33823
# Poissons Ratio (y) = 0.15701 0.27248
# Poissons Ratio (z) = 0.21692 0.23980
#
# Static dielectric constant tensor:
#      x y z
#    x 1.817540 0.000000 -0.048590 
#    y 0.000000 1.656820 0.000000 
#    z -0.048590 0.000000 1.794630 
# 
# From -- ./inp_files/223078.got.cif
#   From: 2010.05.17/outbox.cif.g08.bks.cpg/sg12_112_cif.got.tgz:223078.got - 2010.06.03 13:09:07.
