data_PCOD9211121
_publ_section_title
;
Structure prediction by ZEFSAII (Michael W. Deem and Ramdas Pophale) SiO2 
 PCOD9211121
Probable space group: C 2/M
;
_chemical_formula_sum "Si O2"
_cell_formula_units_Z 56
_cell_length_a 16.427587
_cell_length_b 21.659492
_cell_length_c 9.733460
_cell_angle_alpha 90.000000
_cell_angle_beta 128.807291
_cell_angle_gamma 90.000000
_cell_volume 2698.799892
_symmetry_space_group_name_H-M "C 2/M"
_symmetry_group_IT_number 12
_symmetry_cell_setting 'monoclinic'
loop_
_space_group_symop_operation_xyz
x,y,z
-x,y,-z
-x,-y,-z
x,-y,z
1/2+x,1/2+y,z
1/2-x,1/2+y,-z
1/2-x,1/2-y,-z
1/2+x,1/2-y,z
loop_
_atom_site_type_symbol
_atom_site_label
_atom_site_fract_x
_atom_site_fract_y
_atom_site_fract_z
Si Si1 0.283413 0.618940 0.097377
Si Si2 0.407283 0.244475 0.995239
Si Si3 0.510043 0.570790 0.345490
Si Si4 0.765617 0.074748 0.534191
Si Si5 0.722200 0.840910 0.748171
Si Si6 0.093122 0.765419 0.685043
Si Si7 0.619545 0.897521 0.129599
O O1 0.399511 0.597053 0.178122
O O2 0.314156 0.684732 0.199310
O O3 0.212336 0.579199 0.125523
O O4 0.216672 0.626532 0.889767
O O5 0.314345 0.291307 0.865942
O O6 0.390688 0.174155 0.927744
O O7 0.500000 0.269224 0.000000
O O8 0.431344 0.246826 0.183565
O O9 0.500000 0.571801 0.500000
O O10 0.511390 0.500000 0.302537
O O11 0.621650 0.595740 0.410637
O O12 0.745276 0.111311 0.653121
O O13 0.672048 0.093314 0.332580
O O14 0.765825 0.000000 0.549695
O O15 0.624198 0.795205 0.631745
O O16 0.000000 0.795356 0.500000
O O17 0.500000 0.922169 0.000000
#
# Coordination Sequence:
#
# PCOD9211121 Si02
#       7
#     8   8   8   8   8   8   8
#     4  11  21  41  65  97 133 173 214 265 332 400
#     4  10  22  39  60  98 130 164 215 264 328 401
#     4  10  21  39  66  95 126 167 219 278 325 378
#     4  11  27  45  64  97 131 171 232 277 319 386
#     4  11  24  40  62  93 138 173 210 269 336 390
#     4  11  23  38  63  96 136 170 214 267 329 402
#     4  11  23  41  67  94 133 170 220 273 320 393
#
# _framework density 20.749963000000001
#
# number of rings (size 3 to 8) (size 9 to 14) (size 15 to 20)
#    0.000    1.286    4.286    1.286    8.000    1.429 
#    0.000    1.429    0.000    1.286    0.000    0.000 
#    0.000    0.000    0.000    0.000    0.000    0.000 
#
# Total GULP energy -156105.858856 kJ/mol
# GULP energy per Si atom -5575.209245 kJ/mol
# Density = 2.070274 g / cm^3
# Si number density = 20.749963 Si / 1000 Ang^3
#
#
#
# Elastic Constant Matrix: (Units=GPa)
#
#
# Indices 1 2 3 4 5 6 
#
# 1 115.0731 24.0586 50.8273 0.0000 2.9374 0.0000
# 2 24.0586 65.2548 35.5623 0.0000 -8.4878 0.0000
# 3 50.8273 35.5623 101.0780 0.0000 0.0818 0.0000
# 4 0.0000 0.0000 0.0000 -3.0037 0.0000 6.0499
# 5 2.9374 -8.4878 0.0818 0.0000 27.9592 0.0000
# 6 0.0000 0.0000 0.0000 6.0499 0.0000 31.0683
#
#
#
# Elastic Compliance Matrix: (Units=1/GPa)
#
#
# Indices 1 2 3 4 5 6 
#
# 1 0.011335 -0.001595 -0.005137 0.000000 -0.001660 0.000000
# 2 -0.001595 0.020165 -0.006298 0.000000 0.006308 0.000000
# 3 -0.005137 -0.006298 0.014693 0.000000 -0.001415 0.000000
# 4 0.000000 0.000000 0.000000 -0.239129 0.000000 0.046565
# 5 -0.001660 0.006308 -0.001415 0.000000 0.037860 0.000000
# 6 0.000000 0.000000 0.000000 0.046565 0.000000 0.023119
#
#
# Mechanical properties :
#
#
# Convention : Reuss Voigt Hill
#
# Bulk Modulus (GPa) = 49.66879 55.81136 52.74007
# Shear Modulus (GPa) = -50.41107 22.60194 -13.90456
#
# Velocity S-wave (km/s) = -4.93430 3.30396 -2.59144
# Velocity P-wave (km/s) = 2.91106 6.44285 4.06424
#
# Compressibility (1/GPa) = 0.02013337
#
# Stress axis : x y z
#
# Youngs Moduli (GPa) = 88.22106 49.59030 68.05746
#
# Poissons Ratio (x) = 0.07912 0.34963
# Poissons Ratio (y) = 0.14075 0.42860
# Poissons Ratio (z) = 0.45322 0.31230
#
# Static dielectric constant tensor:
#      x y z
#    x 1.878780 0.000000 0.060540 
#    y 0.000000 1.773540 0.000000 
#    z 0.060540 0.000000 1.745720 
# 
# From -- ./inp_files/65945.got.cif
#   From: 2010.05.17/outbox.cif.g08.bks.cpg/sg12_33_cif.got.tgz:65945.got - 2010.06.03 13:09:07.
