data_PCOD9211162
_publ_section_title
;
Structure prediction by ZEFSAII (Michael W. Deem and Ramdas Pophale) SiO2 
 PCOD9211162
Probable space group: C 2/M
;
_chemical_formula_sum "Si O2"
_cell_formula_units_Z 48
_cell_length_a 28.313686
_cell_length_b 18.395632
_cell_length_c 9.894475
_cell_angle_alpha 90.000000
_cell_angle_beta 27.520969
_cell_angle_gamma 90.000000
_cell_volume 2381.303053
_symmetry_space_group_name_H-M "C 2/M"
_symmetry_group_IT_number 12
_symmetry_cell_setting 'monoclinic'
loop_
_space_group_symop_operation_xyz
x,y,z
-x,y,-z
-x,-y,-z
x,-y,z
1/2+x,1/2+y,z
1/2-x,1/2+y,-z
1/2-x,1/2-y,-z
1/2+x,1/2-y,z
loop_
_atom_site_type_symbol
_atom_site_label
_atom_site_fract_x
_atom_site_fract_y
_atom_site_fract_z
Si Si1 0.090330 0.718427 0.516942
Si Si2 0.078673 0.858336 0.689468
Si Si3 0.396179 0.421427 0.677844
Si Si4 0.286859 0.813958 0.307422
Si Si5 0.667784 0.725873 0.051249
Si Si6 0.968314 0.583976 0.924067
O O1 0.038671 0.777845 0.746377
O O2 0.094026 0.740850 0.351780
O O3 0.049074 0.638178 0.646984
O O4 0.210255 0.734168 0.243291
O O5 0.087935 0.898404 0.519915
O O6 0.188611 0.850493 0.483984
O O7 0.000000 0.889336 0.000000
O O8 0.500000 0.426761 0.500000
O O9 0.344515 0.500000 0.809993
O O10 0.340514 0.359613 0.903950
O O11 0.250000 0.750000 0.500000
O O12 0.354588 0.769023 0.027569
O O13 0.358894 0.875754 0.187467
O O14 0.966481 0.500000 0.879926
O O15 0.000000 0.582897 0.000000
#
# Coordination Sequence:
#
# PCOD9211162 Si02
#       6
#     8   8   8   8   8   8
#     4   9  18  38  60  89 120 154 207 253 305 371
#     4  10  21  39  67  94 122 163 212 264 314 374
#     4  10  23  40  59  89 126 163 204 259 321 373
#     4  11  23  39  65  96 123 164 217 265 312 378
#     4   9  20  36  62  90 116 160 211 255 303 376
#     4  11  24  41  60  90 131 168 206 259 326 387
#
# _framework density 20.157031
#
# number of rings (size 3 to 8) (size 9 to 14) (size 15 to 20)
#    0.000    2.000    0.000    4.500    7.000    1.667 
#    0.000    2.500    0.000    0.000    0.000    0.000 
#    0.000    0.000    0.000    0.000    0.000    0.000 
#
# Total GULP energy -133654.327022 kJ/mol
# GULP energy per Si atom -5568.930293 kJ/mol
# Density = 2.011115 g / cm^3
# Si number density = 20.157031 Si / 1000 Ang^3
#
#
#
# Elastic Constant Matrix: (Units=GPa)
#
#
# Indices 1 2 3 4 5 6 
#
# 1 118.9387 34.7401 21.9960 0.0000 -7.4909 0.0000
# 2 34.7401 132.8958 20.5467 0.0000 7.7048 0.0000
# 3 21.9960 20.5467 50.4071 0.0000 0.6483 0.0000
# 4 0.0000 0.0000 0.0000 44.7254 0.0000 25.8539
# 5 -7.4909 7.7048 0.6483 0.0000 26.2277 0.0000
# 6 0.0000 0.0000 0.0000 25.8539 0.0000 49.4441
#
#
#
# Elastic Compliance Matrix: (Units=1/GPa)
#
#
# Indices 1 2 3 4 5 6 
#
# 1 0.009936 -0.002271 -0.003456 0.000000 0.003591 0.000000
# 2 -0.002271 0.008688 -0.002510 0.000000 -0.003139 0.000000
# 3 -0.003456 -0.002510 0.022380 0.000000 -0.000803 0.000000
# 4 0.000000 0.000000 0.000000 0.032044 0.000000 -0.016756
# 5 0.003591 -0.003139 -0.000803 0.000000 0.040095 0.000000
# 6 0.000000 0.000000 0.000000 -0.016756 0.000000 0.028986
#
#
# Mechanical properties :
#
#
# Convention : Reuss Voigt Hill
#
# Bulk Modulus (GPa) = 40.76679 50.75637 45.76158
# Shear Modulus (GPa) = 29.97910 39.07669 34.52789
#
# Velocity S-wave (km/s) = 3.86071 4.40775 4.14326
# Velocity P-wave (km/s) = 6.33577 7.15118 6.75579
#
# Compressibility (1/GPa) = 0.02452977
#
# Stress axis : x y z
#
# Youngs Moduli (GPa) = 100.63988 115.09483 44.68239
#
# Poissons Ratio (x) = 0.26141 0.15444
# Poissons Ratio (y) = 0.22858 0.11216
# Poissons Ratio (z) = 0.34784 0.28890
#
# Static dielectric constant tensor:
#      x y z
#    x -4.658250 0.000000 6.812730 
#    y 0.000000 1.774150 0.000000 
#    z 6.812730 0.000000 -5.412070 
# 
# From -- ./inp_files/112744.got.cif
#   From: 2010.05.17/outbox.cif.g08.bks.cpg/sg12_57_cif.got.tgz:112744.got - 2010.06.03 13:09:07.
