data_PCOD9211992
_publ_section_title
;
Structure prediction by ZEFSAII (Michael W. Deem and Ramdas Pophale) SiO2 
 PCOD9211992
Probable space group: C 2/M
;
_chemical_formula_sum "Si O2"
_cell_formula_units_Z 56
_cell_length_a 23.829096
_cell_length_b 18.222635
_cell_length_c 8.471911
_cell_angle_alpha 90.000000
_cell_angle_beta 44.628550
_cell_angle_gamma 90.000000
_cell_volume 2584.349555
_symmetry_space_group_name_H-M "C 2/M"
_symmetry_group_IT_number 12
_symmetry_cell_setting 'monoclinic'
loop_
_space_group_symop_operation_xyz
x,y,z
-x,y,-z
-x,-y,-z
x,-y,z
1/2+x,1/2+y,z
1/2-x,1/2+y,-z
1/2-x,1/2-y,-z
1/2+x,1/2-y,z
loop_
_atom_site_type_symbol
_atom_site_label
_atom_site_fract_x
_atom_site_fract_y
_atom_site_fract_z
Si Si1 0.615890 0.846645 0.145016
Si Si2 0.246014 0.915607 0.318379
Si Si3 0.055957 0.687194 0.602257
Si Si4 0.456874 0.418979 0.918345
Si Si5 0.904753 0.145821 0.540220
Si Si6 0.663306 0.320383 0.994297
Si Si7 0.705031 0.818644 0.502310
O O1 0.533564 0.843885 0.209506
O O2 0.593064 0.853406 0.374337
O O3 0.651790 0.765294 0.048489
O O4 0.682626 0.901572 0.948672
O O5 0.169320 0.866506 0.428168
O O6 0.279269 0.887424 0.417545
O O7 0.221476 0.000000 0.369279
O O8 0.056288 0.773429 0.552299
O O9 0.111966 0.686726 0.643927
O O10 0.419908 0.500000 0.979942
O O11 0.525072 0.408660 0.649442
O O12 0.393507 0.354333 0.025713
O O13 0.500000 0.413141 0.000000
O O14 0.865107 0.138761 0.791082
O O15 0.751746 0.328905 0.752510
O O16 0.750000 0.750000 0.500000
#
# Coordination Sequence:
#
# PCOD9211992 Si02
#       7
#     8   8   8   8   8   8   8
#     4  10  21  42  66  96 125 164 216 271 316 381
#     4  12  26  43  63  94 134 171 210 265 333 387
#     4  10  21  40  69  98 122 160 222 270 313 377
#     4  11  24  38  57  92 135 173 208 255 323 394
#     4  11  21  40  66  95 129 165 212 269 316 384
#     4  11  22  38  65  93 126 168 219 262 316 382
#     4  12  23  40  63  96 126 169 216 267 319 381
#
# _framework density 21.668893000000001
#
# number of rings (size 3 to 8) (size 9 to 14) (size 15 to 20)
#    0.000    1.000    4.286    2.571    0.000    6.286 
#    0.000    5.000    0.000    0.000    0.000    0.000 
#    0.000    0.000    0.000    0.000    0.000    0.000 
#
# Total GULP energy -156487.081665 kJ/mol
# GULP energy per Si atom -5588.824345 kJ/mol
# Density = 2.161957 g / cm^3
# Si number density = 21.668893 Si / 1000 Ang^3
#
#
#
# Elastic Constant Matrix: (Units=GPa)
#
#
# Indices 1 2 3 4 5 6 
#
# 1 96.6410 -2.6360 -7.3506 0.0000 -12.1093 0.0000
# 2 -2.6360 24.7391 -1.4843 0.0000 4.1112 0.0000
# 3 -7.3506 -1.4843 56.5656 0.0000 -2.6315 0.0000
# 4 0.0000 0.0000 0.0000 16.3318 0.0000 8.1158
# 5 -12.1093 4.1112 -2.6315 0.0000 32.4218 0.0000
# 6 0.0000 0.0000 0.0000 8.1158 0.0000 4.1134
#
#
#
# Elastic Compliance Matrix: (Units=1/GPa)
#
#
# Indices 1 2 3 4 5 6 
#
# 1 0.011011 0.000578 0.001640 0.000000 0.004172 0.000000
# 2 0.000578 0.041362 0.000930 0.000000 -0.004953 0.000000
# 3 0.001640 0.000930 0.018007 0.000000 0.001956 0.000000
# 4 0.000000 0.000000 0.000000 3.131924 0.000000 -6.179288
# 5 0.004172 -0.004953 0.001956 0.000000 0.033189 0.000000
# 6 0.000000 0.000000 0.000000 -6.179288 0.000000 12.434843
#
#
# Mechanical properties :
#
#
# Convention : Reuss Voigt Hill
#
# Bulk Modulus (GPa) = 13.04167 17.22267 15.13217
# Shear Modulus (GPa) = 0.31868 23.20117 11.75993
#
# Velocity S-wave (km/s) = 0.38391 3.27573 2.33214
# Velocity P-wave (km/s) = 2.49564 4.71938 3.77497
#
# Compressibility (1/GPa) = 0.07667728
#
# Stress axis : x y z
#
# Youngs Moduli (GPa) = 90.81919 24.17655 55.53355
#
# Poissons Ratio (x) = -0.01398 -0.09108
# Poissons Ratio (y) = -0.05252 -0.05165
# Poissons Ratio (z) = -0.14895 -0.02249
#
# Static dielectric constant tensor:
#      x y z
#    x 1.831430 0.000000 0.012520 
#    y 0.000000 1.748180 0.000000 
#    z 0.012520 0.000000 1.820770 
# 
# From -- ./inp_files/105980.got.cif
#   From: 2010.05.17/outbox.cif.g08.bks.cpg/sg12_53_cif.got.tgz:105980.got - 2010.06.03 13:09:07.
