data_PCOD9211437
_publ_section_title
;
Structure prediction by ZEFSAII (Michael W. Deem and Ramdas Pophale) SiO2 
 PCOD9211437
Probable space group: C 2/M
;
_chemical_formula_sum "Si O2"
_cell_formula_units_Z 40
_cell_length_a 19.510333
_cell_length_b 8.931209
_cell_length_c 27.062358
_cell_angle_alpha 90.000000
_cell_angle_beta 151.357169
_cell_angle_gamma 90.000000
_cell_volume 2260.432471
_symmetry_space_group_name_H-M "C 2/M"
_symmetry_group_IT_number 12
_symmetry_cell_setting 'monoclinic'
loop_
_space_group_symop_operation_xyz
x,y,z
-x,y,-z
-x,-y,-z
x,-y,z
1/2+x,1/2+y,z
1/2-x,1/2+y,-z
1/2-x,1/2-y,-z
1/2+x,1/2-y,z
loop_
_atom_site_type_symbol
_atom_site_label
_atom_site_fract_x
_atom_site_fract_y
_atom_site_fract_z
Si Si1 0.688818 0.821804 0.259422
Si Si2 0.601910 0.678594 0.889445
Si Si3 0.905833 0.678066 0.325655
Si Si4 0.006494 0.822711 0.289364
Si Si5 0.193107 0.678958 0.567451
O O1 0.532214 0.750538 0.166918
O O2 0.770670 0.761618 0.263289
O O3 0.778716 0.765296 0.363989
O O4 0.679746 0.000000 0.253623
O O5 0.602035 0.500000 0.896990
O O6 0.572733 0.705858 0.812730
O O7 0.750000 0.750000 0.000000
O O8 0.884115 0.500000 0.313947
O O9 0.942895 0.730214 0.294055
O O10 0.044358 0.714111 0.447172
O O11 0.173270 0.787695 0.384114
O O12 0.996251 0.000000 0.293895
O O13 0.198082 0.500000 0.581211
#
# Coordination Sequence:
#
# PCOD9211437 Si02
#       5
#     8   8   8   8   8
#     4  11  22  35  54  80 109 143 183 223 264 315
#     4  10  21  40  63  83 105 135 174 221 271 323
#     4  11  21  33  52  79 113 148 180 220 267 314
#     4   9  19  35  54  79 110 141 176 219 265 317
#     4   9  19  35  53  76 110 149 184 220 264 313
#
# _framework density 17.695727999999999
#
# number of rings (size 3 to 8) (size 9 to 14) (size 15 to 20)
#    0.000    2.000    0.000    5.400    0.000    8.000 
#    0.000    1.000    0.000    6.000    0.000    0.000 
#    0.000    0.000    0.000    0.000    0.000    0.000 
#
# Total GULP energy -111731.909922 kJ/mol
# GULP energy per Si atom -5586.595496 kJ/mol
# Density = 1.765545 g / cm^3
# Si number density = 17.695728 Si / 1000 Ang^3
#
#
#
# Elastic Constant Matrix: (Units=GPa)
#
#
# Indices 1 2 3 4 5 6 
#
# 1 106.4014 61.1776 44.7130 0.0000 24.6803 0.0000
# 2 61.1776 82.4297 58.5916 0.0000 14.8704 0.0000
# 3 44.7130 58.5916 103.2983 -0.0004 21.8448 -0.0001
# 4 0.0000 0.0000 -0.0004 28.4049 0.0000 -1.4417
# 5 24.6803 14.8704 21.8448 0.0000 9.9893 0.0000
# 6 0.0000 0.0000 -0.0001 -1.4417 0.0000 35.3555
#
#
#
# Elastic Compliance Matrix: (Units=1/GPa)
#
#
# Indices 1 2 3 4 5 6 
#
# 1 0.037541 -0.022489 0.016819 0.000000 -0.096054 0.000000
# 2 -0.022489 0.034284 -0.019847 0.000000 0.047931 0.000000
# 3 0.016819 -0.019847 0.030133 0.000000 -0.077903 0.000000
# 4 0.000000 0.000000 0.000000 0.035278 -0.000001 0.001439
# 5 -0.096054 0.047931 -0.077903 -0.000001 0.436434 0.000000
# 6 0.000000 0.000000 0.000000 0.001439 0.000000 0.028343
#
#
# Mechanical properties :
#
#
# Convention : Reuss Voigt Hill
#
# Bulk Modulus (GPa) = 19.63777 69.01045 44.32411
# Shear Modulus (GPa) = 7.46245 23.25976 15.36110
#
# Velocity S-wave (km/s) = 2.05578 3.62944 2.94950
# Velocity P-wave (km/s) = 4.09348 7.52641 6.05819
#
# Compressibility (1/GPa) = 0.05092228
#
# Stress axis : x y z
#
# Youngs Moduli (GPa) = 26.63730 29.16848 33.18665
#
# Poissons Ratio (x) = 0.65598 -0.55817
# Poissons Ratio (y) = 0.59905 0.65867
# Poissons Ratio (z) = -0.44802 0.57892
#
# Static dielectric constant tensor:
#      x y z
#    x 1.589740 0.000000 0.006050 
#    y 0.000000 1.586330 0.000000 
#    z 0.006050 0.000000 1.582530 
# 
# From -- ./inp_files/151644.got.cif
#   From: 2010.05.17/outbox.cif.g08.bks.cpg/sg12_76_cif.got.tgz:151644.got - 2010.06.03 13:09:07.
