data_PCOD9211387
_publ_section_title
;
Structure prediction by ZEFSAII (Michael W. Deem and Ramdas Pophale) SiO2 
 PCOD9211387
Probable space group: C 2/M
;
_chemical_formula_sum "Si O2"
_cell_formula_units_Z 42
_cell_length_a 8.905051
_cell_length_b 11.019986
_cell_length_c 20.941318
_cell_angle_alpha 90.000000
_cell_angle_beta 79.533273
_cell_angle_gamma 90.000000
_cell_volume 2020.850825
_symmetry_space_group_name_H-M "C 2/M"
_symmetry_group_IT_number 12
_symmetry_cell_setting 'monoclinic'
loop_
_space_group_symop_operation_xyz
x,y,z
-x,y,-z
-x,-y,-z
x,-y,z
1/2+x,1/2+y,z
1/2-x,1/2+y,-z
1/2-x,1/2-y,-z
1/2+x,1/2-y,z
loop_
_atom_site_type_symbol
_atom_site_label
_atom_site_fract_x
_atom_site_fract_y
_atom_site_fract_z
Si Si1 0.184538 0.274381 0.934827
Si Si2 0.229302 0.361543 0.550685
Si Si3 0.989606 0.142140 0.855951
Si Si4 0.500000 0.000000 0.000000
Si Si5 0.190395 0.860692 0.721640
Si Si6 0.536621 0.726773 0.363290
O O1 0.084063 0.167272 0.913312
O O2 0.328107 0.294099 0.877504
O O3 0.081712 0.393499 0.949947
O O4 0.250000 0.250000 0.000000
O O5 0.231491 0.500000 0.525231
O O6 0.250000 0.250000 0.500000
O O7 0.366542 0.344871 0.591068
O O8 0.066851 0.332024 0.596674
O O9 0.091113 0.186303 0.788875
O O10 0.963044 0.000000 0.849232
O O11 0.339205 0.783641 0.694023
O O12 0.081959 0.852690 0.667828
O O13 0.232092 0.000000 0.731439
#
# Coordination Sequence:
#
# PCOD9211387 Si02
#       6
#     8   8   8   2   8   8
#     4  12  24  40  60  87 119 156 198 246 304 359
#     4  11  24  40  63  95 126 164 205 251 301 359
#     4  11  24  39  63  89 119 152 202 248 298 360
#     4  12  24  40  60  84 120 160 194 242 310 358
#     4  10  21  40  62  88 117 159 198 248 299 354
#     4  10  22  40  63  87 126 159 203 245 301 357
#
# _framework density 20.783325000000001
#
# number of rings (size 3 to 8) (size 9 to 14) (size 15 to 20)
#    0.000    1.143    2.857    2.857    1.333    6.857 
#    0.000    0.000    2.095    0.000    0.000    0.000 
#    0.000    0.000    0.000    0.000    0.000    0.000 
#
# Total GULP energy -117038.442096 kJ/mol
# GULP energy per Si atom -5573.259147 kJ/mol
# Density = 2.073602 g / cm^3
# Si number density = 20.783325 Si / 1000 Ang^3
#
#
#
# Elastic Constant Matrix: (Units=GPa)
#
#
# Indices 1 2 3 4 5 6 
#
# 1 71.0368 3.9305 8.1041 0.0000 -14.2229 0.0000
# 2 3.9305 71.0806 14.2038 0.0000 -7.9827 0.0000
# 3 8.1041 14.2038 72.6639 0.0000 -13.3002 0.0000
# 4 0.0000 0.0000 0.0000 24.5359 0.0000 -5.6459
# 5 -14.2229 -7.9827 -13.3002 0.0000 36.1727 0.0000
# 6 0.0000 0.0000 0.0000 -5.6459 0.0000 6.6438
#
#
#
# Elastic Compliance Matrix: (Units=1/GPa)
#
#
# Indices 1 2 3 4 5 6 
#
# 1 0.015309 -0.000071 -0.000637 0.000000 0.005769 0.000000
# 2 -0.000071 0.014827 -0.002462 0.000000 0.002339 0.000000
# 3 -0.000637 -0.002462 0.015191 0.000000 0.004792 0.000000
# 4 0.000000 0.000000 0.000000 0.050664 0.000000 0.043054
# 5 0.005769 0.002339 0.004792 0.000000 0.032192 0.000000
# 6 0.000000 0.000000 0.000000 0.043054 0.000000 0.187103
#
#
# Mechanical properties :
#
#
# Convention : Reuss Voigt Hill
#
# Bulk Modulus (GPa) = 25.65046 29.69535 27.67291
# Shear Modulus (GPa) = 14.94220 26.04000 20.49110
#
# Velocity S-wave (km/s) = 2.68424 3.54351 3.14337
# Velocity P-wave (km/s) = 4.68780 5.57324 5.14959
#
# Compressibility (1/GPa) = 0.03898565
#
# Stress axis : x y z
#
# Youngs Moduli (GPa) = 65.32101 67.44382 65.82654
#
# Poissons Ratio (x) = 0.00480 0.04196
# Poissons Ratio (y) = 0.00465 0.16208
# Poissons Ratio (z) = 0.04164 0.16607
#
# Static dielectric constant tensor:
#      x y z
#    x 1.705760 0.000000 -0.020290 
#    y 0.000000 1.706950 0.000000 
#    z -0.020290 0.000000 1.768040 
# 
# From -- ./inp_files/299208.got.cif
#   From: 2010.05.17/outbox.cif.g08.bks.cpg/sg12_150_cif.got.tgz:299208.got - 2010.06.03 13:09:07.
