data_PCOD9211527
_publ_section_title
;
Structure prediction by ZEFSAII (Michael W. Deem and Ramdas Pophale) SiO2 
 PCOD9211527
Probable space group: C 2/M
;
_chemical_formula_sum "Si O2"
_cell_formula_units_Z 40
_cell_length_a 7.404879
_cell_length_b 27.170920
_cell_length_c 11.110956
_cell_angle_alpha 90.000000
_cell_angle_beta 49.502992
_cell_angle_gamma 90.000000
_cell_volume 1699.959684
_symmetry_space_group_name_H-M "C 2/M"
_symmetry_group_IT_number 12
_symmetry_cell_setting 'monoclinic'
loop_
_space_group_symop_operation_xyz
x,y,z
-x,y,-z
-x,-y,-z
x,-y,z
1/2+x,1/2+y,z
1/2-x,1/2+y,-z
1/2-x,1/2-y,-z
1/2+x,1/2-y,z
loop_
_atom_site_type_symbol
_atom_site_label
_atom_site_fract_x
_atom_site_fract_y
_atom_site_fract_z
Si Si1 0.522980 0.909226 0.867176
Si Si2 0.345750 0.942441 0.685800
Si Si3 0.155335 0.285706 0.313966
Si Si4 0.739022 0.319412 0.319425
Si Si5 0.464724 0.358626 0.880211
O O1 0.477438 0.934572 0.757990
O O2 0.744278 0.872405 0.752102
O O3 0.500000 0.941090 0.000000
O O4 0.309072 0.871770 0.991126
O O5 0.500000 0.928019 0.500000
O O6 0.111389 0.909181 0.797893
O O7 0.288828 0.000000 0.697256
O O8 0.237124 0.230880 0.242477
O O9 0.379553 0.318552 0.256400
O O10 0.000000 0.278659 0.500000
O O11 0.974021 0.312473 0.301346
O O12 0.500000 0.321308 0.500000
O O13 0.500000 0.338282 0.000000
#
# Coordination Sequence:
#
# PCOD9211527 Si02
#       5
#     8   8   8   8   8
#     4  11  26  40  62 102 137 172 207 273 340 384
#     4  10  22  45  75  98 122 170 224 266 321 397
#     4  11  22  38  61  91 125 180 226 273 316 383
#     4  11  24  39  59  90 132 181 226 268 319 383
#     4  10  21  40  63  94 130 167 218 263 328 391
#
# _framework density 23.529972000000001
#
# number of rings (size 3 to 8) (size 9 to 14) (size 15 to 20)
#    0.000    1.400    4.000    3.000    5.600    5.600 
#    0.000    0.000    0.000    3.000    0.000    0.000 
#    0.000    0.000    0.000    0.000    0.000    0.000 
#
# Total GULP energy -111448.771892 kJ/mol
# GULP energy per Si atom -5572.438595 kJ/mol
# Density = 2.347642 g / cm^3
# Si number density = 23.529972 Si / 1000 Ang^3
#
#
#
# Elastic Constant Matrix: (Units=GPa)
#
#
# Indices 1 2 3 4 5 6 
#
# 1 56.2098 5.3204 26.8421 0.0000 5.2372 0.0000
# 2 5.3204 94.8331 37.7369 0.0000 -11.7351 0.0000
# 3 26.8421 37.7369 126.5521 0.0000 1.5503 0.0000
# 4 0.0000 0.0000 0.0000 -92.5728 0.0000 -11.0519
# 5 5.2372 -11.7351 1.5503 0.0000 55.1383 0.0000
# 6 0.0000 0.0000 0.0000 -11.0519 0.0000 9.9015
#
#
#
# Elastic Compliance Matrix: (Units=1/GPa)
#
#
# Indices 1 2 3 4 5 6 
#
# 1 0.019981 0.000395 -0.004335 0.000000 -0.001692 0.000000
# 2 0.000395 0.012372 -0.003806 0.000000 0.002703 0.000000
# 3 -0.004335 -0.003806 0.009965 0.000000 -0.000678 0.000000
# 4 0.000000 0.000000 0.000000 -0.009532 0.000000 -0.010640
# 5 -0.001692 0.002703 -0.000678 0.000000 0.018891 0.000000
# 6 0.000000 0.000000 0.000000 -0.010640 0.000000 0.089119
#
#
# Mechanical properties :
#
#
# Convention : Reuss Voigt Hill
#
# Bulk Modulus (GPa) = 37.27928 46.37710 41.82819
# Shear Modulus (GPa) = 30.26093 8.33977 19.30035
#
# Velocity S-wave (km/s) = 3.59006 1.88468 2.86710
# Velocity P-wave (km/s) = 5.74999 4.94860 5.36428
#
# Compressibility (1/GPa) = 0.02682455
#
# Stress axis : x y z
#
# Youngs Moduli (GPa) = 50.04786 80.83003 100.35565
#
# Poissons Ratio (x) = -0.03190 0.43504
# Poissons Ratio (y) = -0.01975 0.38195
# Poissons Ratio (z) = 0.21696 0.30763
#
# Static dielectric constant tensor:
#      x y z
#    x 3.287520 0.000000 -0.286830 
#    y 0.000000 1.845720 0.000000 
#    z -0.286830 0.000000 2.066370 
# 
# From -- ./inp_files/125012.got.cif
#   From: 2010.05.17/outbox.cif.g08.bks.cpg/sg12_63_cif.got.tgz:125012.got - 2010.06.03 13:09:07.
