data_PCOD9211117
_publ_section_title
;
Structure prediction by ZEFSAII (Michael W. Deem and Ramdas Pophale) SiO2 
 PCOD9211117
Probable space group: C 2/M
;
_chemical_formula_sum "Si O2"
_cell_formula_units_Z 64
_cell_length_a 19.235374
_cell_length_b 13.830456
_cell_length_c 15.266648
_cell_angle_alpha 90.000000
_cell_angle_beta 47.894063
_cell_angle_gamma 90.000000
_cell_volume 3013.213641
_symmetry_space_group_name_H-M "C 2/M"
_symmetry_group_IT_number 12
_symmetry_cell_setting 'monoclinic'
loop_
_space_group_symop_operation_xyz
x,y,z
-x,y,-z
-x,-y,-z
x,-y,z
1/2+x,1/2+y,z
1/2-x,1/2+y,-z
1/2-x,1/2-y,-z
1/2+x,1/2-y,z
loop_
_atom_site_type_symbol
_atom_site_label
_atom_site_fract_x
_atom_site_fract_y
_atom_site_fract_z
Si Si1 0.957036 0.610879 0.440922
Si Si2 0.816372 0.889773 0.023324
Si Si3 0.892278 0.386737 0.843381
Si Si4 0.224007 0.112391 0.243695
Si Si5 0.066719 0.111047 0.253454
Si Si6 0.725641 0.888498 0.599898
Si Si7 0.117677 0.234680 0.608393
Si Si8 0.089160 0.288789 0.987046
O O1 0.920447 0.500000 0.470735
O O2 0.035879 0.617630 0.298091
O O3 0.000000 0.627338 0.500000
O O4 0.885106 0.694321 0.474092
O O5 0.710304 0.851908 0.101363
O O6 0.880906 0.822702 0.028232
O O7 0.811465 0.000000 0.059587
O O8 0.863278 0.889862 0.887896
O O9 0.881746 0.500000 0.876177
O O10 0.923274 0.330914 0.904323
O O11 0.127716 0.149994 0.283221
O O12 0.227016 0.115847 0.345371
O O13 0.318065 0.160382 0.129170
O O14 0.227087 0.000000 0.213430
O O15 0.978696 0.177241 0.306498
O O16 0.035840 0.000000 0.296568
O O17 0.801316 0.845177 0.468694
O O18 0.641080 0.811694 0.664809
O O19 0.698199 0.000000 0.606834
O O20 0.000000 0.303626 0.000000
#
# Coordination Sequence:
#
# PCOD9211117 Si02
#       8
#     8   8   8   8   8   8   8   8
#     4  10  23  39  61  95 129 163 212 269 316 370
#     4  10  22  41  62  89 126 169 213 261 312 370
#     4  10  21  40  65  93 126 166 210 263 321 376
#     4  10  23  41  62  93 131 161 205 269 323 376
#     4  10  21  39  66  95 124 162 215 271 318 371
#     4  10  24  44  63  92 132 169 208 262 324 388
#     4  11  23  39  67  93 122 172 215 260 321 384
#     4  12  25  37  62  95 129 170 214 256 317 388
#
# _framework density 21.239782000000002
#
# number of rings (size 3 to 8) (size 9 to 14) (size 15 to 20)
#    0.000    1.625    1.250    2.250    7.000    1.250 
#    0.000    1.875    0.000    0.750    0.000    0.000 
#    0.000    0.000    0.000    0.000    0.000    0.000 
#
# Total GULP energy -178825.994685 kJ/mol
# GULP energy per Si atom -5588.312334 kJ/mol
# Density = 2.119144 g / cm^3
# Si number density = 21.239782 Si / 1000 Ang^3
#
#
#
# Elastic Constant Matrix: (Units=GPa)
#
#
# Indices 1 2 3 4 5 6 
#
# 1 106.1754 41.1912 29.9757 0.0000 -25.7453 0.0000
# 2 41.1912 109.2147 22.9805 0.0000 -10.6489 0.0000
# 3 29.9757 22.9805 45.9841 0.0000 -5.4247 0.0000
# 4 0.0000 0.0000 0.0000 18.2528 0.0000 0.6579
# 5 -25.7453 -10.6489 -5.4247 0.0000 25.1548 0.0000
# 6 0.0000 0.0000 0.0000 0.6579 0.0000 38.4793
#
#
#
# Elastic Compliance Matrix: (Units=1/GPa)
#
#
# Indices 1 2 3 4 5 6 
#
# 1 0.015946 -0.003187 -0.007219 0.000000 0.013414 0.000000
# 2 -0.003187 0.011146 -0.003407 0.000000 0.000722 0.000000
# 3 -0.007219 -0.003407 0.027821 0.000000 -0.002831 0.000000
# 4 0.000000 0.000000 0.000000 0.054820 0.000000 -0.000937
# 5 0.013414 0.000722 -0.002831 0.000000 0.053178 0.000000
# 6 0.000000 0.000000 0.000000 -0.000937 0.000000 0.026004
#
#
# Mechanical properties :
#
#
# Convention : Reuss Voigt Hill
#
# Bulk Modulus (GPa) = 36.64976 49.96322 43.30649
# Shear Modulus (GPa) = 22.15953 27.52583 24.84268
#
# Velocity S-wave (km/s) = 3.23352 3.60384 3.42370
# Velocity P-wave (km/s) = 5.58870 6.39464 6.00521
#
# Compressibility (1/GPa) = 0.02728531
#
# Stress axis : x y z
#
# Youngs Moduli (GPa) = 62.71342 89.72140 35.94343
#
# Poissons Ratio (x) = 0.28594 0.25949
# Poissons Ratio (y) = 0.19987 0.12247
# Poissons Ratio (z) = 0.45275 0.30571
#
# Static dielectric constant tensor:
#      x y z
#    x 1.782960 0.000000 -0.016080 
#    y 0.000000 1.812760 0.000000 
#    z -0.016080 0.000000 1.754850 
# 
# From -- ./inp_files/225713.got.cif
#   From: 2010.05.17/outbox.cif.g08.bks.cpg/sg12_113_cif.got.tgz:225713.got - 2010.06.03 13:09:07.
