data_PCOD9211160
_publ_section_title
;
Structure prediction by ZEFSAII (Michael W. Deem and Ramdas Pophale) SiO2 
 PCOD9211160
Probable space group: C 2/M
;
_chemical_formula_sum "Si O2"
_cell_formula_units_Z 64
_cell_length_a 18.850289
_cell_length_b 28.302919
_cell_length_c 12.371107
_cell_angle_alpha 90.000000
_cell_angle_beta 28.803822
_cell_angle_gamma 90.000000
_cell_volume 3180.061600
_symmetry_space_group_name_H-M "C 2/M"
_symmetry_group_IT_number 12
_symmetry_cell_setting 'monoclinic'
loop_
_space_group_symop_operation_xyz
x,y,z
-x,y,-z
-x,-y,-z
x,-y,z
1/2+x,1/2+y,z
1/2-x,1/2+y,-z
1/2-x,1/2-y,-z
1/2+x,1/2-y,z
loop_
_atom_site_type_symbol
_atom_site_label
_atom_site_fract_x
_atom_site_fract_y
_atom_site_fract_z
Si Si1 0.845507 0.596948 0.557784
Si Si2 0.158187 0.383973 0.840140
Si Si3 0.950546 0.811451 0.228552
Si Si4 0.756055 0.799030 0.297595
Si Si5 0.336826 0.417792 0.403771
Si Si6 0.138786 0.443654 0.085003
Si Si7 0.836410 0.946977 0.009944
Si Si8 0.385915 0.297578 0.557494
O O1 0.841765 0.654096 0.552346
O O2 0.764116 0.572116 0.564503
O O3 0.748884 0.585239 0.791296
O O4 0.008146 0.575603 0.336414
O O5 0.243476 0.416241 0.638135
O O6 0.257216 0.337210 0.726880
O O7 0.136090 0.413488 0.979106
O O8 0.000000 0.371132 0.000000
O O9 0.833859 0.784529 0.307372
O O10 0.890262 0.864438 0.311563
O O11 0.959052 0.796488 0.340923
O O12 0.106440 0.811721 0.961991
O O13 0.676671 0.755150 0.348602
O O14 0.488692 0.445564 0.209131
O O15 0.123024 0.500000 0.086399
O O16 0.289020 0.434961 0.951186
O O17 0.781959 0.000000 0.102893
O O18 0.500000 0.308735 0.500000
#
# Coordination Sequence:
#
# PCOD9211160 Si02
#       8
#     8   8   8   8   8   8   8   8
#     4  11  21  41  68  95 131 172 217 268 321 386
#     4  11  25  46  67  91 129 174 217 270 334 385
#     4   9  20  40  62  90 128 172 214 265 312 384
#     4  10  21  39  67  92 130 176 215 260 324 385
#     4  10  21  41  65  94 123 168 223 263 319 388
#     4  11  26  44  65  96 133 174 218 269 331 396
#     4  11  24  40  63  96 132 169 209 266 338 390
#     4  11  26  40  65 101 132 167 220 271 318 384
#
# _framework density 20.125395999999999
#
# number of rings (size 3 to 8) (size 9 to 14) (size 15 to 20)
#    0.000    1.500    2.500    1.500    5.250    5.750 
#    0.000    1.250    0.000    0.000    0.000    0.000 
#    0.000    0.000    0.000    0.000    0.000    0.000 
#
# Total GULP energy -178643.411011 kJ/mol
# GULP energy per Si atom -5582.606594 kJ/mol
# Density = 2.007959 g / cm^3
# Si number density = 20.125396 Si / 1000 Ang^3
#
#
#
# Elastic Constant Matrix: (Units=GPa)
#
#
# Indices 1 2 3 4 5 6 
#
# 1 77.2667 22.8740 26.5488 0.0000 -10.1202 -0.0016
# 2 22.8740 59.1869 20.5763 -0.0003 -3.1279 -0.0002
# 3 26.5488 20.5763 75.6733 0.0038 8.7441 -0.0039
# 4 0.0000 -0.0003 0.0038 14.2825 -0.0027 1.4975
# 5 -10.1202 -3.1279 8.7441 -0.0027 27.4100 0.0010
# 6 -0.0016 -0.0002 -0.0039 1.4975 0.0010 23.8863
#
#
#
# Elastic Compliance Matrix: (Units=1/GPa)
#
#
# Indices 1 2 3 4 5 6 
#
# 1 0.017185 -0.004229 -0.005769 0.000003 0.007703 0.000000
# 2 -0.004229 0.020109 -0.004225 0.000002 0.002081 -0.000001
# 3 -0.005769 -0.004225 0.017328 -0.000007 -0.008140 0.000003
# 4 0.000003 0.000002 -0.000007 0.070479 0.000011 -0.004419
# 5 0.007703 0.002081 -0.008140 0.000011 0.042161 -0.000003
# 6 0.000000 -0.000001 0.000003 -0.004419 -0.000003 0.042142
#
#
# Mechanical properties :
#
#
# Convention : Reuss Voigt Hill
#
# Bulk Modulus (GPa) = 38.20233 39.12502 38.66367
# Shear Modulus (GPa) = 20.27774 22.59095 21.43434
#
# Velocity S-wave (km/s) = 3.17767 3.35402 3.26703
# Velocity P-wave (km/s) = 5.69972 5.87215 5.78657
#
# Compressibility (1/GPa) = 0.02617642
#
# Stress axis : x y z
#
# Youngs Moduli (GPa) = 58.18896 49.72998 57.70964
#
# Poissons Ratio (x) = 0.21030 0.33295
# Poissons Ratio (y) = 0.24607 0.24380
# Poissons Ratio (z) = 0.33572 0.21009
#
# Static dielectric constant tensor:
#      x y z
#    x 1.752140 0.000000 0.001820 
#    y 0.000000 1.706130 0.000000 
#    z 0.001820 0.000000 1.695750 
# 
# From -- ./inp_files/161184.got.cif
#   From: 2010.05.17/outbox.cif.g08.bks.cpg/sg12_81_cif.got.tgz:161184.got - 2010.06.03 13:09:07.
