data_PCOD9211502
_publ_section_title
;
Structure prediction by ZEFSAII (Michael W. Deem and Ramdas Pophale) SiO2 
 PCOD9211502
Probable space group: C 2/M
;
_chemical_formula_sum "Si O2"
_cell_formula_units_Z 56
_cell_length_a 12.672291
_cell_length_b 15.089310
_cell_length_c 17.248686
_cell_angle_alpha 90.000000
_cell_angle_beta 128.571070
_cell_angle_gamma 90.000000
_cell_volume 2578.670526
_symmetry_space_group_name_H-M "C 2/M"
_symmetry_group_IT_number 12
_symmetry_cell_setting 'monoclinic'
loop_
_space_group_symop_operation_xyz
x,y,z
-x,y,-z
-x,-y,-z
x,-y,z
1/2+x,1/2+y,z
1/2-x,1/2+y,-z
1/2-x,1/2-y,-z
1/2+x,1/2-y,z
loop_
_atom_site_type_symbol
_atom_site_label
_atom_site_fract_x
_atom_site_fract_y
_atom_site_fract_z
Si Si1 0.687558 0.600575 0.258173
Si Si2 0.044420 0.240234 0.825397
Si Si3 0.506845 0.649485 0.418263
Si Si4 0.509453 0.101031 0.097342
Si Si5 0.806588 0.098474 0.197666
Si Si6 0.729546 0.099643 0.525029
Si Si7 0.042464 0.329756 0.662783
O O1 0.637076 0.500000 0.224310
O O2 0.571124 0.673448 0.197451
O O3 0.747336 0.606793 0.372759
O O4 0.816547 0.620142 0.263817
O O5 0.068273 0.319493 0.896525
O O6 0.998987 0.289618 0.725467
O O7 0.164574 0.175598 0.851070
O O8 0.500000 0.609589 0.500000
O O9 0.432285 0.599201 0.314498
O O10 0.662706 0.661767 0.467682
O O11 0.435689 0.745213 0.383163
O O12 0.670468 0.114124 0.184165
O O13 0.473199 0.000000 0.104501
O O14 0.500000 0.106090 0.000000
O O15 0.794791 0.000000 0.157059
O O16 0.577325 0.114898 0.429445
O O17 0.769568 0.000000 0.520273
#
# Coordination Sequence:
#
# PCOD9211502 Si02
#       7
#     8   8   8   8   8   8   8
#     4  11  22  39  58  84 123 166 207 246 296 355
#     4  11  22  39  66  89 119 156 200 249 306 363
#     4  11  22  34  56  85 123 166 214 255 292 349
#     4  10  24  45  68  94 122 152 193 249 311 373
#     4  10  21  40  63  90 123 163 204 247 303 359
#     4  11  22  35  51  78 119 166 211 253 298 345
#     4  11  23  34  55  82 118 163 210 254 299 344
#
# _framework density 21.716618
#
# number of rings (size 3 to 8) (size 9 to 14) (size 15 to 20)
#    0.000    1.286    2.857    4.714    4.000    4.000 
#    0.000    0.000    0.000    1.714    0.000    0.000 
#    0.000    0.000    0.000    0.000    0.000    0.000 
#
# Total GULP energy -156383.806847 kJ/mol
# GULP energy per Si atom -5585.135959 kJ/mol
# Density = 2.166719 g / cm^3
# Si number density = 21.716618 Si / 1000 Ang^3
#
#
#
# Elastic Constant Matrix: (Units=GPa)
#
#
# Indices 1 2 3 4 5 6 
#
# 1 52.5053 28.8110 3.4955 0.0000 -2.4634 0.0000
# 2 28.8110 134.7062 17.5164 0.0000 -21.0343 0.0000
# 3 3.4955 17.5164 35.7797 0.0000 -5.5982 0.0000
# 4 0.0000 0.0000 0.0000 18.4051 0.0000 -5.3601
# 5 -2.4634 -21.0343 -5.5982 0.0000 19.6552 0.0000
# 6 0.0000 0.0000 0.0000 -5.3601 0.0000 27.8199
#
#
#
# Elastic Compliance Matrix: (Units=1/GPa)
#
#
# Indices 1 2 3 4 5 6 
#
# 1 0.021697 -0.005055 -0.000069 0.000000 -0.002710 0.000000
# 2 -0.005055 0.010410 -0.003097 0.000000 0.009625 0.000000
# 3 -0.000069 -0.003097 0.030302 0.000000 0.005308 0.000000
# 4 0.000000 0.000000 0.000000 0.057563 0.000000 0.011091
# 5 -0.002710 0.009625 0.005308 0.000000 0.062350 0.000000
# 6 0.000000 0.000000 0.000000 0.011091 0.000000 0.038082
#
#
# Mechanical properties :
#
#
# Convention : Reuss Voigt Hill
#
# Bulk Modulus (GPa) = 21.75409 35.84855 28.80132
# Shear Modulus (GPa) = 19.82806 24.72058 22.27432
#
# Velocity S-wave (km/s) = 3.02493 3.37757 3.20610
# Velocity P-wave (km/s) = 4.71585 5.63506 5.19582
#
# Compressibility (1/GPa) = 0.04596838
#
# Stress axis : x y z
#
# Youngs Moduli (GPa) = 46.08976 96.05860 33.00099
#
# Poissons Ratio (x) = 0.48554 0.00228
# Poissons Ratio (y) = 0.23297 0.10219
# Poissons Ratio (z) = 0.00318 0.29746
#
# Static dielectric constant tensor:
#      x y z
#    x 1.813250 0.000000 0.018840 
#    y 0.000000 1.832630 0.000000 
#    z 0.018840 0.000000 1.785110 
# 
# From -- ./inp_files/263208.got.cif
#   From: 2010.05.17/outbox.cif.g08.bks.cpg/sg12_132_cif.got.tgz:263208.got - 2010.06.03 13:09:07.
