data_PCOD9211198
_publ_section_title
;
Structure prediction by ZEFSAII (Michael W. Deem and Ramdas Pophale) SiO2 
 PCOD9211198
Probable space group: C 2/M
;
_chemical_formula_sum "Si O2"
_cell_formula_units_Z 44
_cell_length_a 23.931633
_cell_length_b 10.197334
_cell_length_c 12.930849
_cell_angle_alpha 90.000000
_cell_angle_beta 146.180688
_cell_angle_gamma 90.000000
_cell_volume 1756.346661
_symmetry_space_group_name_H-M "C 2/M"
_symmetry_group_IT_number 12
_symmetry_cell_setting 'monoclinic'
loop_
_space_group_symop_operation_xyz
x,y,z
-x,y,-z
-x,-y,-z
x,-y,z
1/2+x,1/2+y,z
1/2-x,1/2+y,-z
1/2-x,1/2-y,-z
1/2+x,1/2-y,z
loop_
_atom_site_type_symbol
_atom_site_label
_atom_site_fract_x
_atom_site_fract_y
_atom_site_fract_z
Si Si1 0.693171 0.290840 0.283616
Si Si2 0.369769 0.000000 0.544108
Si Si3 0.631193 0.648963 0.405387
Si Si4 0.322943 0.711630 0.973253
Si Si5 0.501951 0.349729 0.390205
Si Si6 0.154628 0.500000 0.733894
Si Si7 0.400806 0.000000 0.122312
O O1 0.792123 0.382785 0.454688
O O2 0.622792 0.303221 0.274314
O O3 0.752356 0.154090 0.380331
O O4 0.650583 0.322813 0.105800
O O5 0.381236 0.000000 0.438334
O O6 0.487482 0.000000 0.759383
O O7 0.594915 0.500000 0.344855
O O8 0.569863 0.712898 0.405460
O O9 0.395140 0.653702 0.171585
O O10 0.337583 0.868346 0.000100
O O11 0.220225 0.635241 0.837240
O O12 0.500000 0.286431 0.500000
O O13 0.537686 0.500000 0.461068
O O14 0.090466 0.500000 0.739063
#
# Coordination Sequence:
#
# PCOD9211198 Si02
#       7
#     8   4   8   8   8   4   4
#     4  10  22  41  65  95 132 174 227 277 336 405
#     4  10  21  42  64  91 132 182 223 278 331 418
#     4  10  21  39  68  94 128 177 225 274 340 402
#     4  11  24  43  66  98 139 176 226 289 339 403
#     4  10  22  41  66  99 133 173 223 282 336 403
#     4  10  23  44  66  92 135 184 234 280 330 412
#     4  12  25  38  65 101 136 180 226 278 356 404
#
# _framework density 25.052002000000002
#
# number of rings (size 3 to 8) (size 9 to 14) (size 15 to 20)
#    0.000    1.636    1.818    1.909    1.273    6.545 
#    0.000    1.818    0.000    3.273    0.000    0.000 
#    0.000    0.000    0.000    0.000    0.000    0.000 
#
# Total GULP energy -122726.712894 kJ/mol
# GULP energy per Si atom -5578.486950 kJ/mol
# Density = 2.499498 g / cm^3
# Si number density = 25.052002 Si / 1000 Ang^3
#
#
#
# Elastic Constant Matrix: (Units=GPa)
#
#
# Indices 1 2 3 4 5 6 
#
# 1 174.7915 19.5336 54.7803 0.0000 -38.0618 0.0000
# 2 19.5336 113.4424 3.8948 0.0000 17.2816 0.0000
# 3 54.7803 3.8948 83.5700 0.0000 -27.4686 0.0000
# 4 0.0000 0.0000 0.0000 15.4109 0.0000 -0.8206
# 5 -38.0618 17.2816 -27.4686 0.0000 50.0799 0.0000
# 6 0.0000 0.0000 0.0000 -0.8206 0.0000 0.3880
#
#
#
# Elastic Compliance Matrix: (Units=1/GPa)
#
#
# Indices 1 2 3 4 5 6 
#
# 1 0.008156 -0.002026 -0.003641 0.000000 0.004901 0.000000
# 2 -0.002026 0.010039 -0.000957 0.000000 -0.005529 0.000000
# 3 -0.003641 -0.000957 0.016587 0.000000 0.006661 0.000000
# 4 0.000000 0.000000 0.000000 0.073124 0.000000 0.154657
# 5 0.004901 -0.005529 0.006661 0.000000 0.029254 0.000000
# 6 0.000000 0.000000 0.000000 0.154657 0.000000 2.904579
#
#
# Mechanical properties :
#
#
# Convention : Reuss Voigt Hill
#
# Bulk Modulus (GPa) = 46.43966 58.69126 52.56546
# Shear Modulus (GPa) = 1.63283 32.74876 17.19080
#
# Velocity S-wave (km/s) = 0.80820 3.61949 2.62239
# Velocity P-wave (km/s) = 4.41004 6.39892 5.49521
#
# Compressibility (1/GPa) = 0.02153332
#
# Stress axis : x y z
#
# Youngs Moduli (GPa) = 122.61366 99.61123 60.28962
#
# Poissons Ratio (x) = 0.20180 0.21951
# Poissons Ratio (y) = 0.24840 0.05771
# Poissons Ratio (z) = 0.44642 0.09535
#
# Static dielectric constant tensor:
#      x y z
#    x 1.992410 0.000000 0.024360 
#    y 0.000000 2.455280 0.000000 
#    z 0.024360 0.000000 1.977000 
# 
# From -- ./inp_files/175431.got.cif
#   From: 2010.05.17/outbox.cif.g08.bks.cpg/sg12_88_cif.got.tgz:175431.got - 2010.06.03 13:09:07.
