data_PCOD9211119
_publ_section_title
;
Structure prediction by ZEFSAII (Michael W. Deem and Ramdas Pophale) SiO2 
 PCOD9211119
Probable space group: C 2/M
;
_chemical_formula_sum "Si O2"
_cell_formula_units_Z 36
_cell_length_a 14.961434
_cell_length_b 27.944637
_cell_length_c 9.152457
_cell_angle_alpha 90.000000
_cell_angle_beta 153.073570
_cell_angle_gamma 90.000000
_cell_volume 1732.845984
_symmetry_space_group_name_H-M "C 2/M"
_symmetry_group_IT_number 12
_symmetry_cell_setting 'monoclinic'
loop_
_space_group_symop_operation_xyz
x,y,z
-x,y,-z
-x,-y,-z
x,-y,z
1/2+x,1/2+y,z
1/2-x,1/2+y,-z
1/2-x,1/2-y,-z
1/2+x,1/2-y,z
loop_
_atom_site_type_symbol
_atom_site_label
_atom_site_fract_x
_atom_site_fract_y
_atom_site_fract_z
Si Si1 0.396025 0.355112 0.189600
Si Si2 0.594384 0.553758 0.473596
Si Si3 0.500000 0.892920 0.000000
Si Si4 0.354050 0.271353 0.921452
Si Si5 0.017592 0.323349 0.761811
O O1 0.500000 0.353066 0.500000
O O2 0.466177 0.403864 0.215343
O O3 0.447582 0.308830 0.170864
O O4 0.162114 0.354732 0.873640
O O5 0.500000 0.550758 0.500000
O O6 0.586391 0.500000 0.401378
O O7 0.817017 0.574551 0.787583
O O8 0.443463 0.856987 0.785019
O O9 0.155419 0.295784 0.573493
O O10 0.500000 0.264885 0.000000
O O11 0.340052 0.219373 0.972749
#
# Coordination Sequence:
#
# PCOD9211119 Si02
#       5
#     8   8   4   8   8
#     4  11  22  43  63  91 129 169 217 262 322 380
#     4  10  21  39  66  95 125 165 219 272 321 380
#     4  12  21  40  66  96 132 168 217 264 326 382
#     4  12  25  39  62  93 134 175 220 260 318 384
#     4  12  24  39  62  93 133 176 215 262 318 388
#
# _framework density 20.775071000000001
#
# number of rings (size 3 to 8) (size 9 to 14) (size 15 to 20)
#    0.000    0.667    5.556    5.000    0.000    0.000 
#    0.000    0.000    0.000   10.000    0.000    0.000 
#    0.000    0.000    0.000    0.000    0.000    0.000 
#
# Total GULP energy -100505.656751 kJ/mol
# GULP energy per Si atom -5583.647597 kJ/mol
# Density = 2.072779 g / cm^3
# Si number density = 20.775071 Si / 1000 Ang^3
#
#
#
# Elastic Constant Matrix: (Units=GPa)
#
#
# Indices 1 2 3 4 5 6 
#
# 1 57.0149 42.7980 17.3529 0.0000 17.5145 0.0000
# 2 42.7980 161.8898 42.9552 0.0000 11.0528 0.0000
# 3 17.3529 42.9552 99.4369 0.0000 20.7567 0.0000
# 4 0.0000 0.0000 0.0000 16.0383 0.0000 6.6908
# 5 17.5145 11.0528 20.7567 0.0000 35.1250 0.0000
# 6 0.0000 0.0000 0.0000 6.6908 0.0000 16.3668
#
#
#
# Elastic Compliance Matrix: (Units=1/GPa)
#
#
# Indices 1 2 3 4 5 6 
#
# 1 0.025333 -0.006079 0.000505 0.000000 -0.011017 0.000000
# 2 -0.006079 0.008442 -0.003039 0.000000 0.002171 0.000000
# 3 0.000505 -0.003039 0.012701 0.000000 -0.006801 0.000000
# 4 0.000000 0.000000 0.000000 0.075171 0.000000 -0.030730
# 5 -0.011017 0.002171 -0.006801 0.000000 0.037299 0.000000
# 6 0.000000 0.000000 0.000000 -0.030730 0.000000 0.073662
#
#
# Mechanical properties :
#
#
# Convention : Reuss Voigt Hill
#
# Bulk Modulus (GPa) = 34.18799 58.28375 46.23587
# Shear Modulus (GPa) = 19.26151 27.85506 23.55828
#
# Velocity S-wave (km/s) = 3.04821 3.66566 3.37110
# Velocity P-wave (km/s) = 5.37408 6.78466 6.12015
#
# Compressibility (1/GPa) = 0.02925004
#
# Stress axis : x y z
#
# Youngs Moduli (GPa) = 39.47383 118.45082 78.73371
#
# Poissons Ratio (x) = 0.72006 -0.03975
# Poissons Ratio (y) = 0.23996 0.23929
# Poissons Ratio (z) = -0.01993 0.36000
#
# Static dielectric constant tensor:
#      x y z
#    x 1.787270 0.000000 -0.002480 
#    y 0.000000 1.757570 0.000000 
#    z -0.002480 0.000000 1.781700 
# 
# From -- ./inp_files/67481.got.cif
#   From: 2010.05.17/outbox.cif.g08.bks.cpg/sg12_34_cif.got.tgz:67481.got - 2010.06.03 13:09:07.
