data_PCOD9211899
_publ_section_title
;
Structure prediction by ZEFSAII (Michael W. Deem and Ramdas Pophale) SiO2 
 PCOD9211899
Probable space group: C 2/M
;
_chemical_formula_sum "Si O2"
_cell_formula_units_Z 40
_cell_length_a 17.883011
_cell_length_b 19.229275
_cell_length_c 11.162918
_cell_angle_alpha 90.000000
_cell_angle_beta 148.941628
_cell_angle_gamma 90.000000
_cell_volume 1980.414694
_symmetry_space_group_name_H-M "C 2/M"
_symmetry_group_IT_number 12
_symmetry_cell_setting 'monoclinic'
loop_
_space_group_symop_operation_xyz
x,y,z
-x,y,-z
-x,-y,-z
x,-y,z
1/2+x,1/2+y,z
1/2-x,1/2+y,-z
1/2-x,1/2-y,-z
1/2+x,1/2-y,z
loop_
_atom_site_type_symbol
_atom_site_label
_atom_site_fract_x
_atom_site_fract_y
_atom_site_fract_z
Si Si1 0.670969 0.178942 0.025546
Si Si2 0.082085 0.175552 0.805442
Si Si3 0.142232 0.917518 0.114098
Si Si4 0.749145 0.190580 0.394641
Si Si5 0.404152 0.081602 0.656933
O O1 0.829332 0.159073 0.193196
O O2 0.674973 0.208188 0.166551
O O3 0.610250 0.242840 0.865538
O O4 0.560906 0.115683 0.855946
O O5 0.910790 0.168485 0.581149
O O6 0.144759 0.128996 0.999374
O O7 0.290014 0.907178 0.391754
O O8 0.129370 0.000000 0.068614
O O9 0.000000 0.899410 0.000000
O O10 0.750000 0.250000 0.500000
O O11 0.666728 0.124107 0.332448
O O12 0.413360 0.000000 0.691798
#
# Coordination Sequence:
#
# PCOD9211899 Si02
#       5
#     8   8   8   8   8
#     4  11  26  41  60  97 135 167 212 266 324 393
#     4  11  24  41  65  94 130 171 212 266 328 383
#     4  10  21  40  67  96 125 164 219 269 316 382
#     4  12  23  41  68  93 127 174 218 266 321 385
#     4  11  24  42  67  97 129 169 217 268 320 383
#
# _framework density 20.197790999999999
#
# number of rings (size 3 to 8) (size 9 to 14) (size 15 to 20)
#    0.000    1.000    4.000    2.400    0.000    3.200 
#    0.000    2.000    0.000    3.600    0.000    0.000 
#    0.000    0.000    0.000    0.000    0.000    0.000 
#
# Total GULP energy -111704.959530 kJ/mol
# GULP energy per Si atom -5585.247976 kJ/mol
# Density = 2.015182 g / cm^3
# Si number density = 20.197791 Si / 1000 Ang^3
#
#
#
# Elastic Constant Matrix: (Units=GPa)
#
#
# Indices 1 2 3 4 5 6 
#
# 1 118.5687 51.3022 46.7929 0.0000 13.9412 0.0000
# 2 51.3022 79.9953 31.0767 0.0000 7.2562 0.0000
# 3 46.7929 31.0767 72.5466 0.0000 22.6741 0.0000
# 4 0.0000 0.0000 0.0000 31.0647 0.0000 1.2544
# 5 13.9412 7.2562 22.6741 0.0000 34.3658 0.0000
# 6 0.0000 0.0000 0.0000 1.2544 0.0000 19.7927
#
#
#
# Elastic Compliance Matrix: (Units=1/GPa)
#
#
# Indices 1 2 3 4 5 6 
#
# 1 0.013564 -0.006367 -0.005948 0.000000 -0.000233 0.000000
# 2 -0.006367 0.018035 -0.004077 0.000000 0.001465 0.000000
# 3 -0.005948 -0.004077 0.023110 0.000000 -0.011973 0.000000
# 4 0.000000 0.000000 0.000000 0.032273 0.000000 -0.002045
# 5 -0.000233 0.001465 -0.011973 0.000000 0.036784 0.000000
# 6 0.000000 0.000000 0.000000 -0.002045 0.000000 0.050653
#
#
# Mechanical properties :
#
#
# Convention : Reuss Voigt Hill
#
# Bulk Modulus (GPa) = 45.61133 58.82826 52.21979
# Shear Modulus (GPa) = 23.30893 26.50722 24.90807
#
# Velocity S-wave (km/s) = 3.40079 3.62661 3.51552
# Velocity P-wave (km/s) = 6.16862 6.83562 6.51067
#
# Compressibility (1/GPa) = 0.02192438
#
# Stress axis : x y z
#
# Youngs Moduli (GPa) = 73.72701 55.44903 43.27211
#
# Poissons Ratio (x) = 0.35302 0.25740
# Poissons Ratio (y) = 0.46938 0.17641
# Poissons Ratio (z) = 0.43856 0.22605
#
# Static dielectric constant tensor:
#      x y z
#    x 1.780060 0.000000 0.037500 
#    y 0.000000 1.675740 0.000000 
#    z 0.037500 0.000000 1.770130 
# 
# From -- ./inp_files/158432.got.cif
#   From: 2010.05.17/outbox.cif.g08.bks.cpg/sg12_80_cif.got.tgz:158432.got - 2010.06.03 13:09:07.
