data_PCOD9211931
_publ_section_title
;
Structure prediction by ZEFSAII (Michael W. Deem and Ramdas Pophale) SiO2 
 PCOD9211931
Probable space group: C 2/M
;
_chemical_formula_sum "Si O2"
_cell_formula_units_Z 32
_cell_length_a 16.313822
_cell_length_b 22.037018
_cell_length_c 8.013568
_cell_angle_alpha 90.000000
_cell_angle_beta 154.694952
_cell_angle_gamma 90.000000
_cell_volume 1231.422569
_symmetry_space_group_name_H-M "C 2/M"
_symmetry_group_IT_number 12
_symmetry_cell_setting 'monoclinic'
loop_
_space_group_symop_operation_xyz
x,y,z
-x,y,-z
-x,-y,-z
x,-y,z
1/2+x,1/2+y,z
1/2-x,1/2+y,-z
1/2-x,1/2-y,-z
1/2+x,1/2-y,z
loop_
_atom_site_type_symbol
_atom_site_label
_atom_site_fract_x
_atom_site_fract_y
_atom_site_fract_z
Si Si1 0.768684 0.500000 0.657268
Si Si2 0.181319 0.000000 0.105493
Si Si3 0.805732 0.370511 0.815503
Si Si4 0.230159 0.630205 0.893182
Si Si5 0.280259 0.812077 0.455623
O O1 0.757811 0.500000 0.436704
O O2 0.863308 0.440440 0.909594
O O3 0.548915 0.500000 0.310975
O O4 0.237379 0.937872 0.114450
O O5 0.701627 0.359362 0.448090
O O6 0.693230 0.360012 0.778442
O O7 0.995065 0.328778 0.156717
O O8 0.296585 0.677171 0.871806
O O9 0.000000 0.636153 0.500000
O O10 0.250000 0.750000 0.500000
#
# Coordination Sequence:
#
# PCOD9211931 Si02
#       5
#     4   4   8   8   8
#     4  11  23  41  69 102 136 178 213 273 352 400
#     4  11  22  40  67 102 140 170 216 282 335 410
#     4  10  22  42  69  98 130 175 217 273 339 400
#     4  10  21  40  68 101 131 171 223 274 337 394
#     4  10  22  42  64  93 131 174 227 271 318 389
#
# _framework density 25.986203
#
# number of rings (size 3 to 8) (size 9 to 14) (size 15 to 20)
#    0.000    1.750    2.500    1.125    0.000    8.000 
#    9.000    0.000    0.000    0.000    0.000    0.000 
#    0.000    0.000    0.000    0.000    0.000    0.000 
#
# Total GULP energy -89482.528332 kJ/mol
# GULP energy per Si atom -5592.658021 kJ/mol
# Density = 2.592706 g / cm^3
# Si number density = 25.986203 Si / 1000 Ang^3
#
#
#
# Elastic Constant Matrix: (Units=GPa)
#
#
# Indices 1 2 3 4 5 6 
#
# 1 272.0859 81.0278 57.0324 0.0000 -40.3602 0.0000
# 2 81.0278 163.1538 14.0817 0.0000 -10.1269 0.0000
# 3 57.0324 14.0817 83.9984 0.0000 3.0824 0.0000
# 4 0.0000 0.0000 0.0000 3.4586 0.0000 12.4295
# 5 -40.3602 -10.1269 3.0824 0.0000 57.6419 0.0000
# 6 0.0000 0.0000 0.0000 12.4295 0.0000 48.9724
#
#
#
# Elastic Compliance Matrix: (Units=1/GPa)
#
#
# Indices 1 2 3 4 5 6 
#
# 1 0.005664 -0.002269 -0.003603 0.000000 0.003760 0.000000
# 2 -0.002269 0.007205 0.000345 0.000000 -0.000341 0.000000
# 3 -0.003603 0.000345 0.014412 0.000000 -0.003233 0.000000
# 4 0.000000 0.000000 0.000000 3.290388 0.000000 -0.835117
# 5 0.003760 -0.000341 -0.003233 0.000000 0.020094 0.000000
# 6 0.000000 0.000000 0.000000 -0.835117 0.000000 0.232377
#
#
# Mechanical properties :
#
#
# Convention : Reuss Voigt Hill
#
# Bulk Modulus (GPa) = 61.62439 91.50243 76.56341
# Shear Modulus (GPa) = 1.39408 46.48767 23.94087
#
# Velocity S-wave (km/s) = 0.73323 4.23417 3.03857
# Velocity P-wave (km/s) = 4.94799 7.69368 6.46820
#
# Compressibility (1/GPa) = 0.01622734
#
# Stress axis : x y z
#
# Youngs Moduli (GPa) = 176.55664 138.79503 69.38498
#
# Poissons Ratio (x) = 0.31486 0.25001
# Poissons Ratio (y) = 0.40052 -0.02393
# Poissons Ratio (z) = 0.63619 -0.04787
#
# Static dielectric constant tensor:
#      x y z
#    x 2.050330 0.000000 -0.079280 
#    y 0.000000 2.081390 0.000000 
#    z -0.079280 0.000000 2.267380 
# 
# From -- ./inp_files/77869.got.cif
#   From: 2010.05.17/outbox.cif.g08.bks.cpg/sg12_39_cif.got.tgz:77869.got - 2010.06.03 13:09:07.
