data_PCOD9211313
_publ_section_title
;
Structure prediction by ZEFSAII (Michael W. Deem and Ramdas Pophale) SiO2 
 PCOD9211313
Probable space group: C 2/M
;
_chemical_formula_sum "Si O2"
_cell_formula_units_Z 56
_cell_length_a 18.292372
_cell_length_b 14.082649
_cell_length_c 23.253741
_cell_angle_alpha 90.000000
_cell_angle_beta 29.314542
_cell_angle_gamma 90.000000
_cell_volume 2932.864278
_symmetry_space_group_name_H-M "C 2/M"
_symmetry_group_IT_number 12
_symmetry_cell_setting 'monoclinic'
loop_
_space_group_symop_operation_xyz
x,y,z
-x,y,-z
-x,-y,-z
x,-y,z
1/2+x,1/2+y,z
1/2-x,1/2+y,-z
1/2-x,1/2-y,-z
1/2+x,1/2-y,z
loop_
_atom_site_type_symbol
_atom_site_label
_atom_site_fract_x
_atom_site_fract_y
_atom_site_fract_z
Si Si1 0.834660 0.887777 0.366573
Si Si2 0.561775 0.890436 0.744507
Si Si3 0.014615 0.300629 0.558019
Si Si4 0.758908 0.111605 0.083299
Si Si5 0.387114 0.389650 0.464317
Si Si6 0.287822 0.611916 0.195146
Si Si7 0.489746 0.292195 0.153528
O O1 0.674293 0.839410 0.468356
O O2 0.886712 0.872955 0.396192
O O3 0.944101 0.845225 0.243699
O O4 0.818840 0.000000 0.367934
O O5 0.419034 0.875650 0.800803
O O6 0.718436 0.875290 0.604353
O O7 0.540075 0.817284 0.811348
O O8 0.558403 0.000000 0.765640
O O9 0.009696 0.189379 0.577418
O O10 0.000000 0.311543 0.500000
O O11 0.883506 0.360394 0.676545
O O12 0.815596 0.130985 0.108872
O O13 0.790581 0.000000 0.049254
O O14 0.845972 0.178142 0.979350
O O15 0.427099 0.500000 0.447892
O O16 0.312290 0.500000 0.188525
O O17 0.384067 0.670472 0.174748
#
# Coordination Sequence:
#
# PCOD9211313 Si02
#       7
#     8   8   8   8   8   8   8
#     4  11  22  35  56  85 118 148 185 238 293 341
#     4  10  21  40  61  85 112 151 199 236 281 339
#     4  12  22  36  58  86 117 152 190 234 289 342
#     4  10  22  39  61  86 114 150 194 238 285 342
#     4  10  22  40  59  82 116 156 195 236 282 343
#     4  11  23  38  59  86 120 154 189 234 289 349
#     4  12  22  37  59  88 117 153 189 239 289 340
#
# _framework density 19.093961
#
# number of rings (size 3 to 8) (size 9 to 14) (size 15 to 20)
#    0.000    1.143    2.857    3.857    2.000    4.286 
#    0.000    0.714    0.000    1.714    0.000    0.000 
#    0.000    0.000    0.000    0.000    0.000    0.000 
#
# Total GULP energy -156514.422554 kJ/mol
# GULP energy per Si atom -5589.800806 kJ/mol
# Density = 1.905050 g / cm^3
# Si number density = 19.093961 Si / 1000 Ang^3
#
#
#
# Elastic Constant Matrix: (Units=GPa)
#
#
# Indices 1 2 3 4 5 6 
#
# 1 29.7403 32.4390 17.1138 0.0035 12.8611 -0.0010
# 2 32.4390 80.8220 21.1509 0.0106 16.9623 -0.0037
# 3 17.1138 21.1509 46.8797 0.0187 19.1262 -0.0057
# 4 0.0035 0.0106 0.0187 19.3924 -0.0043 6.5849
# 5 12.8611 16.9623 19.1262 -0.0043 21.7946 0.0015
# 6 -0.0010 -0.0037 -0.0057 6.5849 0.0015 33.5977
#
#
#
# Elastic Compliance Matrix: (Units=1/GPa)
#
#
# Indices 1 2 3 4 5 6 
#
# 1 0.070250 -0.022475 -0.008923 0.000005 -0.016132 -0.000002
# 2 -0.022475 0.022270 -0.000284 -0.000010 -0.003820 0.000004
# 3 -0.008923 -0.000284 0.035015 -0.000043 -0.025241 0.000015
# 4 0.000005 -0.000010 -0.000043 0.055243 0.000054 -0.010827
# 5 -0.016132 -0.003820 -0.025241 0.000054 0.080526 -0.000019
# 6 -0.000002 0.000004 0.000015 -0.010827 -0.000019 0.031886
#
#
# Mechanical properties :
#
#
# Convention : Reuss Voigt Hill
#
# Bulk Modulus (GPa) = 15.58387 33.20550 24.39468
# Shear Modulus (GPa) = 13.15982 20.73950 16.94966
#
# Velocity S-wave (km/s) = 2.62814 3.29930 2.98266
# Velocity P-wave (km/s) = 4.16999 5.65174 4.96644
#
# Compressibility (1/GPa) = 0.06416893
#
# Stress axis : x y z
#
# Youngs Moduli (GPa) = 14.23489 44.90438 28.55929
#
# Poissons Ratio (x) = 1.00922 0.25485
# Poissons Ratio (y) = 0.31993 0.00812
# Poissons Ratio (z) = 0.12702 0.01277
#
# Static dielectric constant tensor:
#      x y z
#    x 1.667180 0.000000 -0.012470 
#    y 0.000000 1.671700 0.000000 
#    z -0.012470 0.000000 1.669820 
# 
# From -- ./inp_files/183526.got.cif
#   From: 2010.05.17/outbox.cif.g08.bks.cpg/sg12_92_cif.got.tgz:183526.got - 2010.06.03 13:09:07.
