data_PCOD9211609
_publ_section_title
;
Structure prediction by ZEFSAII (Michael W. Deem and Ramdas Pophale) SiO2 
 PCOD9211609
Probable space group: C 2/M
;
_chemical_formula_sum "Si O2"
_cell_formula_units_Z 64
_cell_length_a 31.941740
_cell_length_b 15.763009
_cell_length_c 9.317266
_cell_angle_alpha 90.000000
_cell_angle_beta 39.127610
_cell_angle_gamma 90.000000
_cell_volume 2960.395617
_symmetry_space_group_name_H-M "C 2/M"
_symmetry_group_IT_number 12
_symmetry_cell_setting 'monoclinic'
loop_
_space_group_symop_operation_xyz
x,y,z
-x,y,-z
-x,-y,-z
x,-y,z
1/2+x,1/2+y,z
1/2-x,1/2+y,-z
1/2-x,1/2-y,-z
1/2+x,1/2-y,z
loop_
_atom_site_type_symbol
_atom_site_label
_atom_site_fract_x
_atom_site_fract_y
_atom_site_fract_z
Si Si1 0.905974 0.403439 0.575991
Si Si2 0.151089 0.329805 0.547568
Si Si3 0.734769 0.602580 0.552426
Si Si4 0.347642 0.668627 0.653991
Si Si5 0.781810 0.597759 0.112927
Si Si6 0.394780 0.278315 0.070807
Si Si7 0.930094 0.751639 0.672052
Si Si8 0.987373 0.092622 0.201012
O O1 0.927572 0.500000 0.545138
O O2 0.888069 0.391309 0.456760
O O3 0.951177 0.326846 0.511955
O O4 0.842078 0.382083 0.846029
O O5 0.212698 0.374246 0.462785
O O6 0.170003 0.252571 0.390730
O O7 0.108351 0.285907 0.787365
O O8 0.721860 0.500000 0.584585
O O9 0.765765 0.632285 0.315714
O O10 0.668585 0.658646 0.750013
O O11 0.283844 0.611024 0.807676
O O12 0.373406 0.695451 0.741206
O O13 0.412268 0.623913 0.417142
O O14 0.793141 0.500000 0.115600
O O15 0.399940 0.229751 0.906400
O O16 0.459382 0.337399 0.897945
O O17 0.000000 0.800931 0.500000
O O18 0.996458 0.000000 0.246805
O O19 0.000000 0.083318 0.000000
#
# Coordination Sequence:
#
# PCOD9211609 Si02
#       8
#     8   8   8   8   8   8   8   8
#     4  10  24  44  66  93 124 163 208 263 322 376
#     4  11  23  38  65  91 125 160 206 265 309 367
#     4  11  23  40  62  95 131 167 208 257 315 374
#     4  11  22  39  59  95 124 165 212 255 303 370
#     4  10  21  40  64  91 126 164 205 253 316 380
#     4  12  23  40  63  95 125 166 214 255 312 373
#     4  11  25  42  65  91 126 167 214 260 311 373
#     4  11  21  38  64  92 130 171 207 257 313 372
#
# _framework density 21.618732000000001
#
# number of rings (size 3 to 8) (size 9 to 14) (size 15 to 20)
#    0.000    1.125    3.750    2.250    3.500    3.250 
#    0.000    3.125    0.000    0.750    0.000    0.000 
#    0.000    0.000    0.000    0.000    0.000    0.000 
#
# Total GULP energy -178528.561195 kJ/mol
# GULP energy per Si atom -5579.017537 kJ/mol
# Density = 2.156953 g / cm^3
# Si number density = 21.618732 Si / 1000 Ang^3
#
#
#
# Elastic Constant Matrix: (Units=GPa)
#
#
# Indices 1 2 3 4 5 6 
#
# 1 101.3288 8.1259 20.6667 0.0000 19.0741 0.0000
# 2 8.1259 58.7667 20.5190 0.0000 5.8560 0.0000
# 3 20.6667 20.5190 58.3900 0.0000 14.4646 0.0000
# 4 0.0000 0.0000 0.0000 26.6680 0.0000 -6.0285
# 5 19.0741 5.8560 14.4646 0.0000 31.4169 0.0000
# 6 0.0000 0.0000 0.0000 -6.0285 0.0000 -45.9624
#
#
#
# Elastic Compliance Matrix: (Units=1/GPa)
#
#
# Indices 1 2 3 4 5 6 
#
# 1 0.011492 -0.000106 -0.002604 0.000000 -0.005759 0.000000
# 2 -0.000106 0.019405 -0.006661 0.000000 -0.000486 0.000000
# 3 -0.002604 -0.006661 0.022224 0.000000 -0.007410 0.000000
# 4 0.000000 0.000000 0.000000 0.036418 0.000000 -0.004777
# 5 -0.005759 -0.000486 -0.007410 0.000000 0.038828 0.000000
# 6 0.000000 0.000000 0.000000 -0.004777 0.000000 -0.021130
#
#
# Mechanical properties :
#
#
# Convention : Reuss Voigt Hill
#
# Bulk Modulus (GPa) = 29.08706 35.23430 32.16068
# Shear Modulus (GPa) = 36.37926 13.70278 25.04102
#
# Velocity S-wave (km/s) = 4.10660 2.52035 3.40708
# Velocity P-wave (km/s) = 5.99745 4.98026 5.51236
#
# Compressibility (1/GPa) = 0.03437955
#
# Stress axis : x y z
#
# Youngs Moduli (GPa) = 87.01356 51.53203 44.99576
#
# Poissons Ratio (x) = 0.00547 0.11716
# Poissons Ratio (y) = 0.00923 0.29974
# Poissons Ratio (z) = 0.22656 0.34328
#
# Static dielectric constant tensor:
#      x y z
#    x 1.849180 0.000000 0.001280 
#    y 0.000000 1.866040 0.000000 
#    z 0.001280 0.000000 1.801650 
# 
# From -- ./inp_files/112855.got.cif
#   From: 2010.05.17/outbox.cif.g08.bks.cpg/sg12_57_cif.got.tgz:112855.got - 2010.06.03 13:09:07.
