data_PCOD9211152
_publ_section_title
;
Structure prediction by ZEFSAII (Michael W. Deem and Ramdas Pophale) SiO2 
 PCOD9211152
Probable space group: C 2/M
;
_chemical_formula_sum "Si O2"
_cell_formula_units_Z 64
_cell_length_a 15.296731
_cell_length_b 25.340169
_cell_length_c 11.419705
_cell_angle_alpha 90.000000
_cell_angle_beta 39.264903
_cell_angle_gamma 90.000000
_cell_volume 2801.578117
_symmetry_space_group_name_H-M "C 2/M"
_symmetry_group_IT_number 12
_symmetry_cell_setting 'monoclinic'
loop_
_space_group_symop_operation_xyz
x,y,z
-x,y,-z
-x,-y,-z
x,-y,z
1/2+x,1/2+y,z
1/2-x,1/2+y,-z
1/2-x,1/2-y,-z
1/2+x,1/2-y,z
loop_
_atom_site_type_symbol
_atom_site_label
_atom_site_fract_x
_atom_site_fract_y
_atom_site_fract_z
Si Si1 0.791275 0.216743 0.142992
Si Si2 0.849930 0.441408 0.214764
Si Si3 0.424812 0.559383 0.201280
Si Si4 0.749223 0.307329 0.553037
Si Si5 0.387920 0.939753 0.455933
Si Si6 0.258354 0.158147 0.165197
Si Si7 0.524259 0.346236 0.234260
Si Si8 0.558446 0.152844 0.255595
O O1 0.807589 0.193437 0.255275
O O2 0.792181 0.280239 0.156860
O O3 0.646582 0.193304 0.242886
O O4 0.902398 0.194710 0.933385
O O5 0.785673 0.500000 0.257314
O O6 0.872792 0.437851 0.330108
O O7 0.779405 0.388840 0.235669
O O8 0.000000 0.441996 0.000000
O O9 0.412630 0.500000 0.262031
O O10 0.266136 0.578204 0.345715
O O11 0.520516 0.595797 0.182447
O O12 0.500000 0.558038 0.000000
O O13 0.750000 0.250000 0.500000
O O14 0.637005 0.335429 0.589483
O O15 0.906094 0.325683 0.388456
O O16 0.518753 0.903543 0.351936
O O17 0.408062 0.000000 0.471533
O O18 0.105580 0.157503 0.269684
O O19 0.356927 0.145347 0.951370
#
# Coordination Sequence:
#
# PCOD9211152 Si02
#       8
#     8   8   8   8   8   8   8   8
#     4  11  25  42  60  92 135 174 221 277 334 400
#     4  10  21  39  67 102 136 174 223 280 340 404
#     4  10  21  40  66  94 125 170 222 272 333 402
#     4  12  24  39  63  89 122 173 229 271 333 399
#     4  10  21  40  69 102 131 168 227 285 336 401
#     4  11  24  42  63  95 138 176 217 271 337 405
#     4  11  23  41  62  91 128 172 218 272 331 403
#     4  11  22  40  64  94 131 170 219 285 335 391
#
# _framework density 22.844268
#
# number of rings (size 3 to 8) (size 9 to 14) (size 15 to 20)
#    0.000    1.250    2.500    4.500    1.750    1.500 
#    0.000    3.750    0.000    4.500    0.000    0.000 
#    0.000    0.000    0.000    0.000    0.000    0.000 
#
# Total GULP energy -178871.336066 kJ/mol
# GULP energy per Si atom -5589.729252 kJ/mol
# Density = 2.279227 g / cm^3
# Si number density = 22.844268 Si / 1000 Ang^3
#
#
#
# Elastic Constant Matrix: (Units=GPa)
#
#
# Indices 1 2 3 4 5 6 
#
# 1 72.6028 33.0838 31.4387 0.0000 -12.7456 0.0000
# 2 33.0838 168.0945 10.7236 0.0000 -2.7767 0.0000
# 3 31.4387 10.7236 98.2364 0.0000 -4.1321 0.0000
# 4 0.0000 0.0000 0.0000 29.7937 0.0000 -1.6285
# 5 -12.7456 -2.7767 -4.1321 0.0000 38.4326 0.0000
# 6 0.0000 0.0000 0.0000 -1.6285 0.0000 29.1240
#
#
#
# Elastic Compliance Matrix: (Units=1/GPa)
#
#
# Indices 1 2 3 4 5 6 
#
# 1 0.018483 -0.003209 -0.005341 0.000000 0.005324 0.000000
# 2 -0.003209 0.006553 0.000288 0.000000 -0.000560 0.000000
# 3 -0.005341 0.000288 0.011837 0.000000 -0.000478 0.000000
# 4 0.000000 0.000000 0.000000 0.033667 0.000000 0.001883
# 5 0.005324 -0.000560 -0.000478 0.000000 0.027693 0.000000
# 6 0.000000 0.000000 0.000000 0.001883 0.000000 0.034441
#
#
# Mechanical properties :
#
#
# Convention : Reuss Voigt Hill
#
# Bulk Modulus (GPa) = 49.14108 54.38065 51.76087
# Shear Modulus (GPa) = 32.05491 37.04921 34.55206
#
# Velocity S-wave (km/s) = 3.74999 4.03155 3.89331
# Velocity P-wave (km/s) = 6.34885 6.74743 6.55117
#
# Compressibility (1/GPa) = 0.02034957
#
# Stress axis : x y z
#
# Youngs Moduli (GPa) = 54.10297 152.60142 84.47895
#
# Poissons Ratio (x) = 0.48972 0.45120
# Poissons Ratio (y) = 0.17362 -0.02434
# Poissons Ratio (z) = 0.28896 -0.04397
#
# Static dielectric constant tensor:
#      x y z
#    x 1.846390 0.000000 0.009540 
#    y 0.000000 1.996630 0.000000 
#    z 0.009540 0.000000 1.847490 
# 
# From -- ./inp_files/149767.got.cif
#   From: 2010.05.17/outbox.cif.g08.bks.cpg/sg12_75_cif.got.tgz:149767.got - 2010.06.03 13:09:07.
