data_PCOD9211756
_publ_section_title
;
Structure prediction by ZEFSAII (Michael W. Deem and Ramdas Pophale) SiO2 
 PCOD9211756
Probable space group: C 2/M
;
_chemical_formula_sum "Si O2"
_cell_formula_units_Z 64
_cell_length_a 25.448886
_cell_length_b 15.435083
_cell_length_c 12.323883
_cell_angle_alpha 90.000000
_cell_angle_beta 41.003640
_cell_angle_gamma 90.000000
_cell_volume 3176.142406
_symmetry_space_group_name_H-M "C 2/M"
_symmetry_group_IT_number 12
_symmetry_cell_setting 'monoclinic'
loop_
_space_group_symop_operation_xyz
x,y,z
-x,y,-z
-x,-y,-z
x,-y,z
1/2+x,1/2+y,z
1/2-x,1/2+y,-z
1/2-x,1/2-y,-z
1/2+x,1/2-y,z
loop_
_atom_site_type_symbol
_atom_site_label
_atom_site_fract_x
_atom_site_fract_y
_atom_site_fract_z
Si Si1 0.132955 0.143456 0.536372
Si Si2 0.088346 0.285010 0.024362
Si Si3 0.313904 0.098196 0.294147
Si Si4 0.588443 0.904526 0.413394
Si Si5 0.595729 0.595670 0.347816
Si Si6 0.973986 0.095861 0.914805
Si Si7 0.910151 0.340029 0.347251
Si Si8 0.156601 0.735038 0.150210
O O1 0.218310 0.111302 0.446525
O O2 0.127011 0.120482 0.418604
O O3 0.125679 0.245870 0.568054
O O4 0.054913 0.104199 0.717220
O O5 0.079714 0.181006 0.022090
O O6 0.122105 0.301502 0.091932
O O7 0.998272 0.323027 0.159692
O O8 0.145314 0.331616 0.849104
O O9 0.354025 0.113096 0.348378
O O10 0.330629 0.000000 0.230423
O O11 0.500000 0.900006 0.500000
O O12 0.582570 0.889665 0.550751
O O13 0.636647 0.828868 0.279748
O O14 0.622051 0.000000 0.338394
O O15 0.500000 0.592676 0.500000
O O16 0.625894 0.500000 0.270975
O O17 0.617603 0.671835 0.232738
O O18 0.938241 0.000000 0.949340
O O19 0.000000 0.099530 0.000000
O O20 0.250000 0.750000 0.000000
#
# Coordination Sequence:
#
# PCOD9211756 Si02
#       8
#     8   8   8   8   8   8   8   8
#     4  11  22  41  67  94 134 169 214 272 337 390
#     4  11  24  41  65  94 130 172 219 268 326 383
#     4  12  26  42  65 100 134 173 220 268 331 391
#     4  11  23  43  69  96 127 174 225 267 322 387
#     4  11  22  39  68  98 126 169 222 269 321 389
#     4  10  21  40  65  94 127 166 213 263 321 388
#     4  11  22  42  69  93 130 171 222 272 319 393
#     4  12  25  42  64  93 134 170 211 271 333 388
#
# _framework density 20.150230000000001
#
# number of rings (size 3 to 8) (size 9 to 14) (size 15 to 20)
#    0.000    0.875    2.500    6.375    0.000    4.000 
#    0.000    0.000    0.000    0.000    0.000    0.000 
#    0.000    0.000    0.000    0.000    0.000    0.000 
#
# Total GULP energy -178956.365062 kJ/mol
# GULP energy per Si atom -5592.386408 kJ/mol
# Density = 2.010437 g / cm^3
# Si number density = 20.150230 Si / 1000 Ang^3
#
#
#
# Elastic Constant Matrix: (Units=GPa)
#
#
# Indices 1 2 3 4 5 6 
#
# 1 79.8687 -0.5690 10.6753 0.0000 5.0061 0.0000
# 2 -0.5690 130.6139 40.7816 0.0000 -9.1704 0.0000
# 3 10.6753 40.7816 50.9191 0.0000 6.4632 0.0000
# 4 0.0000 0.0000 0.0000 -28.8604 0.0000 -9.5397
# 5 5.0061 -9.1704 6.4632 0.0000 34.7706 0.0000
# 6 0.0000 0.0000 0.0000 -9.5397 0.0000 13.5008
#
#
#
# Elastic Compliance Matrix: (Units=1/GPa)
#
#
# Indices 1 2 3 4 5 6 
#
# 1 0.013053 0.001076 -0.003478 0.000000 -0.000949 0.000000
# 2 0.001076 0.010971 -0.009587 0.000000 0.004521 0.000000
# 3 -0.003478 -0.009587 0.028987 0.000000 -0.007416 0.000000
# 4 0.000000 0.000000 0.000000 -0.028089 0.000000 -0.019848
# 5 -0.000949 0.004521 -0.007416 0.000000 0.031467 0.000000
# 6 0.000000 0.000000 0.000000 -0.019848 0.000000 0.060045
#
#
# Mechanical properties :
#
#
# Convention : Reuss Voigt Hill
#
# Bulk Modulus (GPa) = 34.44151 40.35306 37.39729
# Shear Modulus (GPa) = 33.31332 17.91644 25.61488
#
# Velocity S-wave (km/s) = 4.07043 2.98509 3.56925
# Velocity P-wave (km/s) = 6.26264 5.65248 5.96537
#
# Compressibility (1/GPa) = 0.02903473
#
# Stress axis : x y z
#
# Youngs Moduli (GPa) = 76.61335 91.14565 34.49770
#
# Poissons Ratio (x) = -0.09809 0.11998
# Poissons Ratio (y) = -0.08245 0.33071
# Poissons Ratio (z) = 0.26646 0.87377
#
# Static dielectric constant tensor:
#      x y z
#    x 1.681390 0.000000 0.009670 
#    y 0.000000 1.741250 0.000000 
#    z 0.009670 0.000000 1.675840 
# 
# From -- ./inp_files/183771.got.cif
#   From: 2010.05.17/outbox.cif.g08.bks.cpg/sg12_92_cif.got.tgz:183771.got - 2010.06.03 13:09:07.
