data_PCOD9211739
_publ_section_title
;
Structure prediction by ZEFSAII (Michael W. Deem and Ramdas Pophale) SiO2 
 PCOD9211739
Probable space group: C 2/M
;
_chemical_formula_sum "Si O2"
_cell_formula_units_Z 40
_cell_length_a 14.745525
_cell_length_b 30.655948
_cell_length_c 7.359795
_cell_angle_alpha 90.000000
_cell_angle_beta 39.378194
_cell_angle_gamma 90.000000
_cell_volume 2110.711048
_symmetry_space_group_name_H-M "C 2/M"
_symmetry_group_IT_number 12
_symmetry_cell_setting 'monoclinic'
loop_
_space_group_symop_operation_xyz
x,y,z
-x,y,-z
-x,-y,-z
x,-y,z
1/2+x,1/2+y,z
1/2-x,1/2+y,-z
1/2-x,1/2-y,-z
1/2+x,1/2-y,z
loop_
_atom_site_type_symbol
_atom_site_label
_atom_site_fract_x
_atom_site_fract_y
_atom_site_fract_z
Si Si1 0.051553 0.762482 0.237572
Si Si2 0.728590 0.700466 0.269560
Si Si3 0.168337 0.606047 0.770472
Si Si4 0.330318 0.450099 0.229610
Si Si5 0.662126 0.448776 0.208273
O O1 0.347508 0.701870 0.814781
O O2 0.000000 0.735528 0.500000
O O3 0.903035 0.782809 0.402471
O O4 0.142510 0.734378 0.958837
O O5 0.783446 0.654896 0.255681
O O6 0.247913 0.585458 0.473881
O O7 0.223318 0.576623 0.851490
O O8 0.000000 0.604304 0.000000
O O9 0.288869 0.500000 0.345447
O O10 0.500000 0.446498 0.000000
O O11 0.307141 0.444663 0.051748
O O12 0.500000 0.432866 0.500000
O O13 0.664103 0.500000 0.254313
#
# Coordination Sequence:
#
# PCOD9211739 Si02
#       5
#     8   8   8   8   8
#     4   7  14  33  61  86 110 162 205 255 304 379
#     4   8  17  34  58  87 118 159 204 249 318 365
#     4  12  25  39  58  98 138 163 206 271 318 369
#     4  10  21  40  65  93 124 166 216 259 309 380
#     4  10  21  40  68  91 121 173 216 254 314 376
#
# _framework density 18.950959000000001
#
# number of rings (size 3 to 8) (size 9 to 14) (size 15 to 20)
#    1.200    1.200    2.000    0.600    2.800    2.400 
#    3.600    5.000    0.000    0.000    0.000    0.000 
#    0.000    0.000    0.000    0.000    0.000    0.000 
#
# Total GULP energy -111368.161566 kJ/mol
# GULP energy per Si atom -5568.408078 kJ/mol
# Density = 1.890783 g / cm^3
# Si number density = 18.950959 Si / 1000 Ang^3
#
#
#
# Elastic Constant Matrix: (Units=GPa)
#
#
# Indices 1 2 3 4 5 6 
#
# 1 104.6440 76.5463 70.7133 0.0000 -16.8651 0.0000
# 2 76.5463 113.2320 83.9248 0.0000 -19.1059 0.0000
# 3 70.7133 83.9248 106.9831 0.0000 -25.6812 0.0000
# 4 0.0000 0.0000 0.0000 19.2382 0.0000 -16.9259
# 5 -16.8651 -19.1059 -25.6812 0.0000 30.2998 0.0000
# 6 0.0000 0.0000 0.0000 -16.9259 0.0000 -19.0449
#
#
#
# Elastic Compliance Matrix: (Units=1/GPa)
#
#
# Indices 1 2 3 4 5 6 
#
# 1 0.020606 -0.009169 -0.006355 0.000000 0.000302 0.000000
# 2 -0.009169 0.025199 -0.013958 0.000000 -0.001044 0.000000
# 3 -0.006355 -0.013958 0.027036 0.000000 0.010577 0.000000
# 4 0.000000 0.000000 0.000000 0.029171 0.000000 -0.025925
# 5 0.000302 -0.001044 0.010577 0.000000 0.041477 0.000000
# 6 0.000000 0.000000 0.000000 -0.025925 0.000000 -0.029467
#
#
# Mechanical properties :
#
#
# Convention : Reuss Voigt Hill
#
# Bulk Modulus (GPa) = 72.05955 87.46975 79.76465
# Shear Modulus (GPa) = 28.15122 12.34360 20.24741
#
# Velocity S-wave (km/s) = 3.85837 2.55491 3.27220
# Velocity P-wave (km/s) = 7.61289 7.41347 7.51384
#
# Compressibility (1/GPa) = 0.01387741
#
# Stress axis : x y z
#
# Youngs Moduli (GPa) = 48.52869 39.68452 36.98741
#
# Poissons Ratio (x) = 0.36387 0.23506
# Poissons Ratio (y) = 0.44496 0.51626
# Poissons Ratio (z) = 0.30841 0.55391
#
# Static dielectric constant tensor:
#      x y z
#    x 1.674700 0.000000 0.000660 
#    y 0.000000 1.647810 0.000000 
#    z 0.000660 0.000000 1.666020 
# 
# From -- ./inp_files/79244.got.cif
#   From: 2010.05.17/outbox.cif.g08.bks.cpg/sg12_40_cif.got.tgz:79244.got - 2010.06.03 13:09:07.
