data_PCOD9211240
_publ_section_title
;
Structure prediction by ZEFSAII (Michael W. Deem and Ramdas Pophale) SiO2 
 PCOD9211240
Probable space group: C 2/M
;
_chemical_formula_sum "Si O2"
_cell_formula_units_Z 64
_cell_length_a 29.385415
_cell_length_b 14.705735
_cell_length_c 9.430741
_cell_angle_alpha 90.000000
_cell_angle_beta 45.480261
_cell_angle_gamma 90.000000
_cell_volume 2905.757416
_symmetry_space_group_name_H-M "C 2/M"
_symmetry_group_IT_number 12
_symmetry_cell_setting 'monoclinic'
loop_
_space_group_symop_operation_xyz
x,y,z
-x,y,-z
-x,-y,-z
x,-y,z
1/2+x,1/2+y,z
1/2-x,1/2+y,-z
1/2-x,1/2-y,-z
1/2+x,1/2-y,z
loop_
_atom_site_type_symbol
_atom_site_label
_atom_site_fract_x
_atom_site_fract_y
_atom_site_fract_z
Si Si1 0.487484 0.784084 0.194762
Si Si2 0.820195 0.842416 0.787594
Si Si3 0.321735 0.253236 0.288944
Si Si4 0.852120 0.319862 0.513759
Si Si5 0.553408 0.106768 0.273186
Si Si6 0.036180 0.896716 0.570800
Si Si7 0.285608 0.395264 0.167989
Si Si8 0.189260 0.602744 0.927230
O O1 0.425578 0.846701 0.371694
O O2 0.544729 0.833696 0.151640
O O3 0.478946 0.684272 0.284968
O O4 0.500000 0.780534 0.000000
O O5 0.832093 0.748199 0.681854
O O6 0.887420 0.893549 0.622433
O O7 0.757216 0.885036 0.853413
O O8 0.803592 0.838404 0.989006
O O9 0.250000 0.250000 0.500000
O O10 0.359744 0.235555 0.348657
O O11 0.327407 0.350332 0.201026
O O12 0.320767 0.174268 0.175180
O O13 0.790688 0.385112 0.634765
O O14 0.500000 0.139108 0.500000
O O15 0.541767 0.000000 0.270590
O O16 0.626842 0.113838 0.163333
O O17 0.000000 0.878766 0.500000
O O18 0.018819 0.000000 0.653818
O O19 0.300350 0.500000 0.110973
O O20 0.186276 0.500000 0.876700
#
# Coordination Sequence:
#
# PCOD9211240 Si02
#       8
#     8   8   8   8   8   8   8   8
#     4  11  24  42  65  92 126 171 216 263 317 376
#     4  11  22  42  66  97 127 160 210 262 319 374
#     4  10  21  40  56  88 127 164 205 257 307 379
#     4  10  23  42  63  89 128 171 208 264 315 371
#     4  10  24  43  64  94 128 169 218 265 317 379
#     4  10  23  44  68  95 129 167 211 262 318 384
#     4  11  23  38  61  95 128 165 207 258 316 378
#     4  11  22  38  68  95 126 167 209 263 319 374
#
# _framework density 22.025237000000001
#
# number of rings (size 3 to 8) (size 9 to 14) (size 15 to 20)
#    0.000    1.500    2.500    2.625    1.750    6.000 
#    0.000    0.625    0.000    0.000    0.000    0.000 
#    0.000    0.000    0.000    0.000    0.000    0.000 
#
# Total GULP energy -178622.233034 kJ/mol
# GULP energy per Si atom -5581.944782 kJ/mol
# Density = 2.197511 g / cm^3
# Si number density = 22.025237 Si / 1000 Ang^3
#
#
#
# Elastic Constant Matrix: (Units=GPa)
#
#
# Indices 1 2 3 4 5 6 
#
# 1 99.8022 30.8887 42.9763 0.0000 -6.2595 0.0000
# 2 30.8887 74.9839 36.1542 0.0000 8.9185 0.0000
# 3 42.9763 36.1542 114.0731 0.0000 1.0651 0.0000
# 4 0.0000 0.0000 0.0000 12.2602 0.0000 -5.7354
# 5 -6.2595 8.9185 1.0651 0.0000 43.7367 0.0000
# 6 0.0000 0.0000 0.0000 -5.7354 0.0000 20.9611
#
#
#
# Elastic Compliance Matrix: (Units=1/GPa)
#
#
# Indices 1 2 3 4 5 6 
#
# 1 0.012984 -0.003900 -0.003681 0.000000 0.002743 0.000000
# 2 -0.003900 0.017342 -0.003990 0.000000 -0.003997 0.000000
# 3 -0.003681 -0.003990 0.011418 0.000000 0.000009 0.000000
# 4 0.000000 0.000000 0.000000 0.093537 0.000000 0.025594
# 5 0.002743 -0.003997 0.000009 0.000000 0.024072 0.000000
# 6 0.000000 0.000000 0.000000 0.025594 0.000000 0.054710
#
#
# Mechanical properties :
#
#
# Convention : Reuss Voigt Hill
#
# Bulk Modulus (GPa) = 53.75842 56.54418 55.15130
# Shear Modulus (GPa) = 20.54188 27.31427 23.92807
#
# Velocity S-wave (km/s) = 3.05725 3.52538 3.29962
# Velocity P-wave (km/s) = 6.07643 6.50378 6.29373
#
# Compressibility (1/GPa) = 0.01860174
#
# Stress axis : x y z
#
# Youngs Moduli (GPa) = 77.01734 57.66405 87.58412
#
# Poissons Ratio (x) = 0.22489 0.32242
# Poissons Ratio (y) = 0.30036 0.34943
# Poissons Ratio (z) = 0.28352 0.23006
#
# Static dielectric constant tensor:
#      x y z
#    x 1.747150 0.000000 -0.098030 
#    y 0.000000 1.766100 0.000000 
#    z -0.098030 0.000000 1.791040 
# 
# From -- ./inp_files/111970.got.cif
#   From: 2010.05.17/outbox.cif.g08.bks.cpg/sg12_56_cif.got.tgz:111970.got - 2010.06.03 13:09:07.
