data_PCOD9211354
_publ_section_title
;
Structure prediction by ZEFSAII (Michael W. Deem and Ramdas Pophale) SiO2 
 PCOD9211354
Probable space group: C 2/M
;
_chemical_formula_sum "Si O2"
_cell_formula_units_Z 56
_cell_length_a 19.172435
_cell_length_b 8.039904
_cell_length_c 18.343278
_cell_angle_alpha 90.000000
_cell_angle_beta 117.997821
_cell_angle_gamma 90.000000
_cell_volume 2496.599008
_symmetry_space_group_name_H-M "C 2/M"
_symmetry_group_IT_number 12
_symmetry_cell_setting 'monoclinic'
loop_
_space_group_symop_operation_xyz
x,y,z
-x,y,-z
-x,-y,-z
x,-y,z
1/2+x,1/2+y,z
1/2-x,1/2+y,-z
1/2-x,1/2-y,-z
1/2+x,1/2-y,z
loop_
_atom_site_type_symbol
_atom_site_label
_atom_site_fract_x
_atom_site_fract_y
_atom_site_fract_z
Si Si1 0.998934 0.697214 0.082399
Si Si2 0.864737 0.305432 0.744801
Si Si3 0.670710 0.698934 0.001829
Si Si4 0.742279 0.697384 0.185205
Si Si5 0.405581 0.298190 0.296529
Si Si6 0.084845 0.801558 0.381605
Si Si7 0.095923 0.189636 0.544271
O O1 0.014625 0.500000 0.084423
O O2 0.063757 0.766925 0.170235
O O3 0.910308 0.725481 0.066972
O O4 0.000000 0.767335 0.000000
O O5 0.878868 0.500000 0.741480
O O6 0.787223 0.278939 0.754853
O O7 0.863575 0.230571 0.663887
O O8 0.663544 0.500000 0.996942
O O9 0.685413 0.756418 0.092341
O O10 0.750000 0.750000 0.000000
O O11 0.734861 0.500000 0.187628
O O12 0.832777 0.741341 0.212103
O O13 0.406045 0.500000 0.297962
O O14 0.494576 0.242562 0.321950
O O15 0.385327 0.232886 0.368372
O O16 0.114263 0.733359 0.474328
O O17 0.079040 0.000000 0.389781
O O18 0.000000 0.179206 0.500000
O O19 0.127545 0.000000 0.561174
#
# Coordination Sequence:
#
# PCOD9211354 Si02
#       7
#     8   8   8   8   8   8   8
#     4  10  21  40  62  82 108 146 187 229 277 326
#     4  11  23  38  58  82 112 148 187 230 276 332
#     4  11  25  41  60  84 113 147 185 230 276 328
#     4  11  24  40  56  80 114 148 184 230 279 326
#     4   9  18  34  59  86 112 147 186 225 275 331
#     4   9  18  34  58  87 115 144 183 229 275 328
#     4   7  12  28  54  82 111 143 181 224 270 324
#
# _framework density 22.430515
#
# number of rings (size 3 to 8) (size 9 to 14) (size 15 to 20)
#    0.000    2.286    1.429    3.000    2.000    3.714 
#    0.000    1.429    0.000    2.571    0.000    0.000 
#    0.000    0.000    0.000    0.000    0.000    0.000 
#
# Total GULP energy -156274.897067 kJ/mol
# GULP energy per Si atom -5581.246324 kJ/mol
# Density = 2.237946 g / cm^3
# Si number density = 22.430515 Si / 1000 Ang^3
#
#
#
# Elastic Constant Matrix: (Units=GPa)
#
#
# Indices 1 2 3 4 5 6 
#
# 1 52.3535 -14.3263 -3.5325 0.0000 -14.3222 0.0000
# 2 -14.3263 17.9065 1.5466 0.0000 -4.1642 0.0000
# 3 -3.5325 1.5466 25.4239 0.0000 -9.5403 0.0000
# 4 0.0000 0.0000 0.0000 10.4167 0.0000 -4.3318
# 5 -14.3222 -4.1642 -9.5403 0.0000 42.7385 0.0000
# 6 0.0000 0.0000 0.0000 -4.3318 0.0000 2.8328
#
#
#
# Elastic Compliance Matrix: (Units=1/GPa)
#
#
# Indices 1 2 3 4 5 6 
#
# 1 0.031455 0.027963 0.008346 0.000000 0.015129 0.000000
# 2 0.027963 0.082053 0.005905 0.000000 0.018684 0.000000
# 3 0.008346 0.005905 0.045184 0.000000 0.013458 0.000000
# 4 0.000000 0.000000 0.000000 0.263669 0.000000 0.403193
# 5 0.015129 0.018684 0.013458 0.000000 0.033293 0.000000
# 6 0.000000 0.000000 0.000000 0.403193 0.000000 0.969558
#
#
# Mechanical properties :
#
#
# Convention : Reuss Voigt Hill
#
# Bulk Modulus (GPa) = 4.11320 7.00661 5.55990
# Shear Modulus (GPa) = 3.51661 18.66400 11.09031
#
# Velocity S-wave (km/s) = 1.25347 2.88771 2.22599
# Velocity P-wave (km/s) = 1.98309 3.77478 3.01510
#
# Compressibility (1/GPa) = 0.24311953
#
# Stress axis : x y z
#
# Youngs Moduli (GPa) = 31.79169 12.18727 22.13186
#
# Poissons Ratio (x) = -0.34079 -0.18472
# Poissons Ratio (y) = -0.88899 -0.13068
# Poissons Ratio (z) = -0.26534 -0.07196
#
# Static dielectric constant tensor:
#      x y z
#    x 1.819310 0.000000 -0.038620 
#    y 0.000000 1.804740 0.000000 
#    z -0.038620 0.000000 1.885550 
# 
# From -- ./inp_files/281597.got.cif
#   From: 2010.05.17/outbox.cif.g08.bks.cpg/sg12_141_cif.got.tgz:281597.got - 2010.06.03 13:09:07.
