data_PCOD9211929
_publ_section_title
;
Structure prediction by ZEFSAII (Michael W. Deem and Ramdas Pophale) SiO2 
 PCOD9211929
Probable space group: C 2/M
;
_chemical_formula_sum "Si O2"
_cell_formula_units_Z 40
_cell_length_a 5.347564
_cell_length_b 25.925438
_cell_length_c 15.627594
_cell_angle_alpha 90.000000
_cell_angle_beta 59.098607
_cell_angle_gamma 90.000000
_cell_volume 1859.037001
_symmetry_space_group_name_H-M "C 2/M"
_symmetry_group_IT_number 12
_symmetry_cell_setting 'monoclinic'
loop_
_space_group_symop_operation_xyz
x,y,z
-x,y,-z
-x,-y,-z
x,-y,z
1/2+x,1/2+y,z
1/2-x,1/2+y,-z
1/2-x,1/2-y,-z
1/2+x,1/2-y,z
loop_
_atom_site_type_symbol
_atom_site_label
_atom_site_fract_x
_atom_site_fract_y
_atom_site_fract_z
Si Si1 0.796682 0.350534 0.616418
Si Si2 0.148927 0.059522 0.062822
Si Si3 0.681111 0.807574 0.045286
Si Si4 0.064871 0.062135 0.266584
Si Si5 0.865341 0.341988 0.269607
O O1 0.712260 0.411756 0.638515
O O2 0.474639 0.325767 0.664135
O O3 0.000000 0.340841 0.500000
O O4 0.957202 0.333925 0.675007
O O5 0.048505 0.082235 0.171021
O O6 0.061557 0.000000 0.088506
O O7 0.500000 0.060546 0.000000
O O8 0.000000 0.073550 0.000000
O O9 0.511313 0.813662 0.163398
O O10 0.500000 0.832326 0.000000
O O11 0.750000 0.750000 0.000000
O O12 0.000000 0.829602 0.000000
O O13 0.335407 0.095933 0.256055
O O14 0.092152 0.000000 0.268911
#
# Coordination Sequence:
#
# PCOD9211929 Si02
#       5
#     8   8   8   8   8
#     4  10  22  40  59  85 122 171 222 268 315 356
#     4   9  18  31  46  67 101 150 194 239 299 357
#     4  10  21  40  68 101 129 159 192 254 317 389
#     4   9  22  37  56  83 124 167 221 271 309 364
#     4  10  22  39  59  93 124 163 213 261 314 378
#
# _framework density 21.516514999999998
#
# number of rings (size 3 to 8) (size 9 to 14) (size 15 to 20)
#    1.200    1.200    0.000    1.800    2.800    2.000 
#    0.000    1.000    0.000    0.600    0.000   56.000 
#    0.000    0.000    0.000    0.000    0.000    0.000 
#
# Total GULP energy -111394.467492 kJ/mol
# GULP energy per Si atom -5569.723375 kJ/mol
# Density = 2.146754 g / cm^3
# Si number density = 21.516515 Si / 1000 Ang^3
#
#
#
# Elastic Constant Matrix: (Units=GPa)
#
#
# Indices 1 2 3 4 5 6 
#
# 1 156.9788 -4.3885 53.0200 0.0000 0.1288 0.0000
# 2 -4.3885 59.2484 21.0151 0.0000 0.7597 0.0000
# 3 53.0200 21.0151 170.8717 0.0000 -12.2250 0.0000
# 4 0.0000 0.0000 0.0000 43.6894 0.0000 -42.2636
# 5 0.1288 0.7597 -12.2250 0.0000 36.1156 0.0000
# 6 0.0000 0.0000 0.0000 -42.2636 0.0000 73.5115
#
#
#
# Elastic Compliance Matrix: (Units=1/GPa)
#
#
# Indices 1 2 3 4 5 6 
#
# 1 0.007252 0.001432 -0.002491 0.000000 -0.000899 0.000000
# 2 0.001432 0.017976 -0.002749 0.000000 -0.001314 0.000000
# 3 -0.002491 -0.002749 0.007141 0.000000 0.002484 0.000000
# 4 0.000000 0.000000 0.000000 0.051570 0.000000 0.029649
# 5 -0.000899 -0.001314 0.002484 0.000000 0.028561 0.000000
# 6 0.000000 0.000000 0.000000 0.029649 0.000000 0.030649
#
#
# Mechanical properties :
#
#
# Convention : Reuss Voigt Hill
#
# Bulk Modulus (GPa) = 40.39776 58.48799 49.44288
# Shear Modulus (GPa) = 31.44323 51.82678 41.63501
#
# Velocity S-wave (km/s) = 3.82691 4.91317 4.40366
# Velocity P-wave (km/s) = 6.19217 7.70893 6.99180
#
# Compressibility (1/GPa) = 0.02475384
#
# Stress axis : x y z
#
# Youngs Moduli (GPa) = 137.88655 55.62919 140.03534
#
# Poissons Ratio (x) = -0.07967 0.34880
# Poissons Ratio (y) = -0.19748 0.38499
# Poissons Ratio (z) = 0.34345 0.15294
#
# Static dielectric constant tensor:
#      x y z
#    x 1.825840 0.000000 -0.005800 
#    y 0.000000 1.655740 0.000000 
#    z -0.005800 0.000000 1.750000 
# 
# From -- ./inp_files/192291.got.cif
#   From: 2010.05.17/outbox.cif.g08.bks.cpg/sg12_97_cif.got.tgz:192291.got - 2010.06.03 13:09:07.
