data_PCOD9211624
_publ_section_title
;
Structure prediction by ZEFSAII (Michael W. Deem and Ramdas Pophale) SiO2 
 PCOD9211624
Probable space group: C 2/M
;
_chemical_formula_sum "Si O2"
_cell_formula_units_Z 64
_cell_length_a 15.738489
_cell_length_b 16.160930
_cell_length_c 21.066334
_cell_angle_alpha 90.000000
_cell_angle_beta 147.039325
_cell_angle_gamma 90.000000
_cell_volume 2915.196062
_symmetry_space_group_name_H-M "C 2/M"
_symmetry_group_IT_number 12
_symmetry_cell_setting 'monoclinic'
loop_
_space_group_symop_operation_xyz
x,y,z
-x,y,-z
-x,-y,-z
x,-y,z
1/2+x,1/2+y,z
1/2-x,1/2+y,-z
1/2-x,1/2-y,-z
1/2+x,1/2-y,z
loop_
_atom_site_type_symbol
_atom_site_label
_atom_site_fract_x
_atom_site_fract_y
_atom_site_fract_z
Si Si1 0.405278 0.865103 0.497530
Si Si2 0.960655 0.785034 0.045185
Si Si3 0.970852 0.178918 0.554929
Si Si4 0.889193 0.339248 0.148166
Si Si5 0.365406 0.593312 0.227096
Si Si6 0.437573 0.669102 0.763282
Si Si7 0.442034 0.094707 0.046658
Si Si8 0.153804 0.591062 0.397745
O O1 0.500000 0.906889 0.500000
O O2 0.486544 0.777774 0.564949
O O3 0.239964 0.841542 0.364505
O O4 0.371582 0.908028 0.542843
O O5 0.774164 0.795711 0.937367
O O6 0.014817 0.687928 0.084923
O O7 0.000000 0.813212 0.000000
O O8 0.032756 0.844265 0.143929
O O9 0.089438 0.145484 0.682737
O O10 0.796004 0.152013 0.467508
O O11 0.000000 0.151228 0.500000
O O12 0.003806 0.262664 0.207084
O O13 0.986406 0.388289 0.261718
O O14 0.871042 0.393933 0.073187
O O15 0.406006 0.500000 0.269737
O O16 0.465668 0.618971 0.228400
O O17 0.188762 0.595535 0.090460
O O18 0.512627 0.000000 0.089802
O O19 0.203280 0.500000 0.406955
#
# Coordination Sequence:
#
# PCOD9211624 Si02
#       8
#     8   8   8   8   8   8   8   8
#     4  11  25  41  67  96 130 169 220 268 315 385
#     4  11  24  38  67  97 127 165 214 269 320 378
#     4  11  24  42  66  98 130 168 217 267 324 394
#     4  11  21  42  64  90 124 170 216 259 313 386
#     4  11  21  37  65  91 123 167 211 262 318 379
#     4  11  20  42  66  91 120 172 219 260 311 382
#     4  10  21  40  64  92 124 163 207 260 322 383
#     4  12  25  41  66  95 133 175 210 266 336 384
#
# _framework density 21.953925999999999
#
# number of rings (size 3 to 8) (size 9 to 14) (size 15 to 20)
#    0.000    1.000    5.000    2.625    1.750    2.500 
#    0.000    0.000    0.000    1.875    0.000    0.000 
#    0.000    0.000    0.000    0.000    0.000    0.000 
#
# Total GULP energy -178582.654581 kJ/mol
# GULP energy per Si atom -5580.707956 kJ/mol
# Density = 2.190396 g / cm^3
# Si number density = 21.953926 Si / 1000 Ang^3
#
#
#
# Elastic Constant Matrix: (Units=GPa)
#
#
# Indices 1 2 3 4 5 6 
#
# 1 106.0852 16.2117 29.0190 0.0000 -35.8545 -0.0004
# 2 16.2117 67.9093 13.7754 0.0004 -1.8428 0.0008
# 3 29.0190 13.7754 121.8196 0.0008 -27.7728 0.0007
# 4 0.0000 0.0004 0.0008 14.9920 0.0004 10.5607
# 5 -35.8545 -1.8428 -27.7728 0.0004 23.8012 -0.0004
# 6 -0.0004 0.0008 0.0007 10.5607 -0.0004 -36.1812
#
#
#
# Elastic Compliance Matrix: (Units=1/GPa)
#
#
# Indices 1 2 3 4 5 6 
#
# 1 0.021371 -0.004871 0.003697 -0.000001 0.036130 -0.000001
# 2 -0.004871 0.016204 -0.002805 0.000000 -0.009357 0.000000
# 3 0.003697 -0.002805 0.012079 -0.000001 0.019446 0.000000
# 4 -0.000001 0.000000 -0.000001 0.055326 -0.000002 0.016149
# 5 0.036130 -0.009357 0.019446 -0.000002 0.118408 -0.000002
# 6 -0.000001 0.000000 0.000000 0.016149 -0.000002 -0.022925
#
#
# Mechanical properties :
#
#
# Convention : Reuss Voigt Hill
#
# Bulk Modulus (GPa) = 23.98399 45.98069 34.98234
# Shear Modulus (GPa) = 22.49020 16.30959 19.39990
#
# Velocity S-wave (km/s) = 3.20414 2.72858 2.97587
# Velocity P-wave (km/s) = 4.96358 5.56026 5.27037
#
# Compressibility (1/GPa) = 0.04169447
#
# Stress axis : x y z
#
# Youngs Moduli (GPa) = 46.79331 61.71501 82.78951
#
# Poissons Ratio (x) = 0.30063 -0.30608
# Poissons Ratio (y) = 0.22794 0.23223
# Poissons Ratio (z) = -0.17300 0.17311
#
# Static dielectric constant tensor:
#      x y z
#    x 1.866670 0.000000 -0.017360 
#    y 0.000000 1.802810 0.000000 
#    z -0.017360 0.000000 1.855440 
# 
# From -- ./inp_files/271749.got.cif
#   From: 2010.05.17/outbox.cif.g08.bks.cpg/sg12_136_cif.got.tgz:271749.got - 2010.06.03 13:09:07.
