data_PCOD9211346
_publ_section_title
;
Structure prediction by ZEFSAII (Michael W. Deem and Ramdas Pophale) SiO2 
 PCOD9211346
Probable space group: C 2/M
;
_chemical_formula_sum "Si O2"
_cell_formula_units_Z 64
_cell_length_a 32.307920
_cell_length_b 22.406494
_cell_length_c 9.538155
_cell_angle_alpha 90.000000
_cell_angle_beta 154.261299
_cell_angle_gamma 90.000000
_cell_volume 2998.504720
_symmetry_space_group_name_H-M "C 2/M"
_symmetry_group_IT_number 12
_symmetry_cell_setting 'monoclinic'
loop_
_space_group_symop_operation_xyz
x,y,z
-x,y,-z
-x,-y,-z
x,-y,z
1/2+x,1/2+y,z
1/2-x,1/2+y,-z
1/2-x,1/2-y,-z
1/2+x,1/2-y,z
loop_
_atom_site_type_symbol
_atom_site_label
_atom_site_fract_x
_atom_site_fract_y
_atom_site_fract_z
Si Si1 0.578781 0.141164 0.358496
Si Si2 0.049370 0.132218 0.793826
Si Si3 0.230308 0.660261 0.590664
Si Si4 0.082263 0.068238 0.158076
Si Si5 0.245003 0.275988 0.199336
Si Si6 0.095610 0.226456 0.521463
Si Si7 0.904249 0.380514 0.275626
Si Si8 0.291914 0.932131 0.713855
O O1 0.678574 0.141096 0.578009
O O2 0.561020 0.208803 0.361155
O O3 0.585554 0.106879 0.527672
O O4 0.500000 0.125581 0.000000
O O5 0.000000 0.116811 0.500000
O O6 0.990237 0.186318 0.685146
O O7 0.158022 0.148244 0.089793
O O8 0.046942 0.077439 0.892729
O O9 0.223103 0.732621 0.576988
O O10 0.184253 0.618139 0.330046
O O11 0.191745 0.087341 0.480081
O O12 0.089216 0.000000 0.225632
O O13 0.000000 0.098263 0.000000
O O14 0.340332 0.297102 0.411255
O O15 0.176088 0.235505 0.888034
O O16 0.175848 0.331371 0.003056
O O17 0.000000 0.355570 0.500000
O O18 0.871328 0.433815 0.075966
O O19 0.279262 0.000000 0.617337
#
# Coordination Sequence:
#
# PCOD9211346 Si02
#       8
#     8   8   8   8   8   8   8   8
#     4  10  22  41  61  87 129 163 206 258 309 375
#     4  11  21  32  61  91 124 161 209 253 305 373
#     4  10  21  40  61  92 125 169 210 256 313 372
#     4   9  21  40  59  83 120 165 210 260 309 364
#     4   9  19  35  57  85 127 163 200 249 305 376
#     4   9  19  34  53  84 125 164 193 244 309 367
#     4  11  24  38  65  94 123 166 206 262 317 379
#     4  10  23  44  64  90 126 164 213 270 314 365
#
# _framework density 21.343972000000001
#
# number of rings (size 3 to 8) (size 9 to 14) (size 15 to 20)
#    0.000    2.125    1.250    1.500    5.250    1.500 
#    6.750    0.625    0.000    1.500    0.000    0.000 
#    0.000    0.000    0.000    0.000    0.000    0.000 
#
# Total GULP energy -178194.309079 kJ/mol
# GULP energy per Si atom -5568.572159 kJ/mol
# Density = 2.129539 g / cm^3
# Si number density = 21.343972 Si / 1000 Ang^3
#
#
#
# Elastic Constant Matrix: (Units=GPa)
#
#
# Indices 1 2 3 4 5 6 
#
# 1 117.3246 11.9873 48.8329 0.0000 -5.6335 0.0000
# 2 11.9873 34.6024 26.3131 0.0000 -12.2192 0.0000
# 3 48.8329 26.3131 83.9077 0.0000 -10.6761 0.0000
# 4 0.0000 0.0000 0.0000 18.4733 0.0000 -3.0180
# 5 -5.6335 -12.2192 -10.6761 0.0000 35.0495 0.0000
# 6 0.0000 0.0000 0.0000 -3.0180 0.0000 9.4767
#
#
#
# Elastic Compliance Matrix: (Units=1/GPa)
#
#
# Indices 1 2 3 4 5 6 
#
# 1 0.011303 0.001494 -0.007021 0.000000 0.000199 0.000000
# 2 0.001494 0.041838 -0.012591 0.000000 0.010991 0.000000
# 3 -0.007021 -0.012591 0.020027 0.000000 0.000582 0.000000
# 4 0.000000 0.000000 0.000000 0.057103 0.000000 0.018186
# 5 0.000199 0.010991 0.000582 0.000000 0.032572 0.000000
# 6 0.000000 0.000000 0.000000 0.018186 0.000000 0.111313
#
#
# Mechanical properties :
#
#
# Convention : Reuss Voigt Hill
#
# Bulk Modulus (GPa) = 27.07789 45.56682 36.32235
# Shear Modulus (GPa) = 15.49411 22.51333 19.00372
#
# Velocity S-wave (km/s) = 2.69722 3.25127 2.98712
# Velocity P-wave (km/s) = 4.73434 5.95731 5.38068
#
# Compressibility (1/GPa) = 0.03693050
#
# Stress axis : x y z
#
# Youngs Moduli (GPa) = 88.47523 23.90149 49.93359
#
# Poissons Ratio (x) = -0.03570 0.35059
# Poissons Ratio (y) = -0.13216 0.62873
# Poissons Ratio (z) = 0.62119 0.30095
#
# Static dielectric constant tensor:
#      x y z
#    x 1.802370 0.000000 -0.016900 
#    y 0.000000 1.792380 0.000000 
#    z -0.016900 0.000000 1.817530 
# 
# From -- ./inp_files/113633.got.cif
#   From: 2010.05.17/outbox.cif.g08.bks.cpg/sg12_57_cif.got.tgz:113633.got - 2010.06.03 13:09:07.
