data_PCOD9211175
_publ_section_title
;
Structure prediction by ZEFSAII (Michael W. Deem and Ramdas Pophale) SiO2 
 PCOD9211175
Probable space group: C 2/M
;
_chemical_formula_sum "Si O2"
_cell_formula_units_Z 42
_cell_length_a 9.797131
_cell_length_b 18.053592
_cell_length_c 14.363489
_cell_angle_alpha 90.000000
_cell_angle_beta 57.894566
_cell_angle_gamma 90.000000
_cell_volume 2152.001474
_symmetry_space_group_name_H-M "C 2/M"
_symmetry_group_IT_number 12
_symmetry_cell_setting 'monoclinic'
loop_
_space_group_symop_operation_xyz
x,y,z
-x,y,-z
-x,-y,-z
x,-y,z
1/2+x,1/2+y,z
1/2-x,1/2+y,-z
1/2-x,1/2-y,-z
1/2+x,1/2-y,z
loop_
_atom_site_type_symbol
_atom_site_label
_atom_site_fract_x
_atom_site_fract_y
_atom_site_fract_z
Si Si1 0.571960 0.416454 0.870463
Si Si2 0.670497 0.414294 0.397821
Si Si3 0.756132 0.272466 0.761560
Si Si4 0.278446 0.382601 0.837329
Si Si5 0.874178 0.283938 0.381875
Si Si6 0.500000 0.000000 0.000000
O O1 0.631808 0.500000 0.828543
O O2 0.704691 0.352330 0.817430
O O3 0.427995 0.397046 0.851490
O O4 0.500000 0.416673 0.000000
O O5 0.500000 0.386477 0.500000
O O6 0.685151 0.500000 0.416625
O O7 0.673017 0.404577 0.285792
O O8 0.816775 0.367839 0.386867
O O9 0.737694 0.205047 0.841719
O O10 0.649636 0.254040 0.710013
O O11 0.940463 0.274784 0.660292
O O12 0.132313 0.434753 0.922407
O O13 0.750000 0.250000 0.500000
#
# Coordination Sequence:
#
# PCOD9211175 Si02
#       6
#     8   8   8   8   8   2
#     4  11  25  45  65  96 139 178 221 283 341 390
#     4  10  21  39  67  97 131 175 220 278 334 406
#     4  11  24  42  70  95 135 180 221 278 334 406
#     4  11  23  45  64 101 132 176 230 275 335 405
#     4  11  22  41  65  99 133 171 222 274 335 404
#     4  12  24  40  76  92 134 184 220 288 330 404
#
# _framework density 19.516715000000001
#
# number of rings (size 3 to 8) (size 9 to 14) (size 15 to 20)
#    0.000    1.143    3.810    2.857    1.333    4.571 
#    0.000    0.000    0.000    2.286    0.000    0.000 
#    0.000    0.000    0.000    0.000    0.000    0.000 
#
# Total GULP energy -117035.723826 kJ/mol
# GULP energy per Si atom -5573.129706 kJ/mol
# Density = 1.947229 g / cm^3
# Si number density = 19.516715 Si / 1000 Ang^3
#
#
#
# Elastic Constant Matrix: (Units=GPa)
#
#
# Indices 1 2 3 4 5 6 
#
# 1 42.7287 26.6368 28.9918 0.0000 -11.9234 0.0000
# 2 26.6368 176.3874 47.6502 0.0000 -15.8140 0.0000
# 3 28.9918 47.6502 65.1851 0.0000 -26.6658 0.0000
# 4 0.0000 0.0000 0.0000 34.4073 0.0000 -9.0729
# 5 -11.9234 -15.8140 -26.6658 0.0000 31.9163 0.0000
# 6 0.0000 0.0000 0.0000 -9.0729 0.0000 16.2435
#
#
#
# Elastic Compliance Matrix: (Units=1/GPa)
#
#
# Indices 1 2 3 4 5 6 
#
# 1 0.033758 -0.001307 -0.013924 0.000000 0.000331 0.000000
# 2 -0.001307 0.007147 -0.005157 0.000000 -0.001255 0.000000
# 3 -0.013924 -0.005157 0.033621 0.000000 0.020334 0.000000
# 4 0.000000 0.000000 0.000000 0.034084 0.000000 0.019038
# 5 0.000331 -0.001255 0.020334 0.000000 0.047822 0.000000
# 6 0.000000 0.000000 0.000000 0.019038 0.000000 0.072197
#
#
# Mechanical properties :
#
#
# Convention : Reuss Voigt Hill
#
# Bulk Modulus (GPa) = 29.62822 54.53986 42.08404
# Shear Modulus (GPa) = 17.81553 28.58157 23.19855
#
# Velocity S-wave (km/s) = 3.02459 3.83099 3.45142
# Velocity P-wave (km/s) = 5.23559 6.89743 6.12315
#
# Compressibility (1/GPa) = 0.03375161
#
# Stress axis : x y z
#
# Youngs Moduli (GPa) = 29.62287 139.91362 29.74303
#
# Poissons Ratio (x) = 0.18284 0.41413
# Poissons Ratio (y) = 0.03871 0.15338
# Poissons Ratio (z) = 0.41245 0.72153
#
# Static dielectric constant tensor:
#      x y z
#    x 1.685810 0.000000 0.012210 
#    y 0.000000 1.729690 0.000000 
#    z 0.012210 0.000000 1.670380 
# 
# From -- ./inp_files/195842.got.cif
#   From: 2010.05.17/outbox.cif.g08.bks.cpg/sg12_98_cif.got.tgz:195842.got - 2010.06.03 13:09:07.
