data_PCOD9211277
_publ_section_title
;
Structure prediction by ZEFSAII (Michael W. Deem and Ramdas Pophale) SiO2 
 PCOD9211277
Probable space group: C 2/M
;
_chemical_formula_sum "Si O2"
_cell_formula_units_Z 56
_cell_length_a 16.766015
_cell_length_b 14.707678
_cell_length_c 18.439351
_cell_angle_alpha 90.000000
_cell_angle_beta 148.725516
_cell_angle_gamma 90.000000
_cell_volume 2360.493799
_symmetry_space_group_name_H-M "C 2/M"
_symmetry_group_IT_number 12
_symmetry_cell_setting 'monoclinic'
loop_
_space_group_symop_operation_xyz
x,y,z
-x,y,-z
-x,-y,-z
x,-y,z
1/2+x,1/2+y,z
1/2-x,1/2+y,-z
1/2-x,1/2-y,-z
1/2+x,1/2-y,z
loop_
_atom_site_type_symbol
_atom_site_label
_atom_site_fract_x
_atom_site_fract_y
_atom_site_fract_z
Si Si1 0.777546 0.605809 0.046405
Si Si2 0.743713 0.600572 0.494715
Si Si3 0.681041 0.399904 0.619699
Si Si4 0.039208 0.700679 0.699714
Si Si5 0.473495 0.391208 0.896353
Si Si6 0.175215 0.703594 0.665964
Si Si7 0.905996 0.899920 0.235505
O O1 0.811439 0.500000 0.090338
O O2 0.621435 0.635727 0.964810
O O3 0.734756 0.608995 0.928905
O O4 0.908799 0.669421 0.180468
O O5 0.813220 0.500000 0.537892
O O6 0.710836 0.609980 0.556058
O O7 0.574207 0.599568 0.328453
O O8 0.861800 0.674324 0.556809
O O9 0.500000 0.404449 0.500000
O O10 0.747484 0.500000 0.690571
O O11 0.734503 0.307588 0.700054
O O12 0.145639 0.656238 0.721596
O O13 0.077646 0.804930 0.711800
O O14 0.469393 0.500000 0.893398
O O15 0.313141 0.354747 0.741073
O O16 0.500000 0.358915 0.000000
O O17 0.000000 0.702090 0.500000
O O18 0.896100 0.000000 0.263748
#
# Coordination Sequence:
#
# PCOD9211277 Si02
#       7
#     8   8   8   8   8   8   8
#     4  10  22  40  60  83 114 158 201 240 293 358
#     4  10  22  39  63  92 121 154 196 251 301 348
#     4   9  19  39  63  87 120 160 198 238 294 359
#     4  12  23  38  61  90 122 154 195 253 301 344
#     4  10  21  40  60  78 114 163 200 234 291 359
#     4  11  24  37  60  93 120 154 201 247 293 350
#     4  10  22  38  58  86 117 153 193 237 296 356
#
# _framework density 23.723849999999999
#
# number of rings (size 3 to 8) (size 9 to 14) (size 15 to 20)
#    0.000    1.714    1.429    3.000    4.000    2.571 
#    0.000    0.000    0.000    0.429    0.000    0.000 
#    0.000    0.000    0.000    0.000    0.000    0.000 
#
# Total GULP energy -156148.559813 kJ/mol
# GULP energy per Si atom -5576.734279 kJ/mol
# Density = 2.366985 g / cm^3
# Si number density = 23.723850 Si / 1000 Ang^3
#
#
#
# Elastic Constant Matrix: (Units=GPa)
#
#
# Indices 1 2 3 4 5 6 
#
# 1 41.7182 -2.3928 -14.6378 -0.0006 -7.5410 -0.0003
# 2 -2.3928 38.8545 12.9835 -0.0007 -7.2698 -0.0004
# 3 -14.6378 12.9835 79.5153 -0.0010 -3.1729 -0.0004
# 4 -0.0006 -0.0007 -0.0010 29.2940 -0.0003 1.5846
# 5 -7.5410 -7.2698 -3.1729 -0.0003 22.0915 -0.0001
# 6 -0.0003 -0.0004 -0.0004 1.5846 -0.0001 -2.5610
#
#
#
# Elastic Compliance Matrix: (Units=1/GPa)
#
#
# Indices 1 2 3 4 5 6 
#
# 1 0.027904 0.002013 0.005245 0.000001 0.010941 -0.000004
# 2 0.002013 0.028998 -0.003979 0.000001 0.009658 -0.000004
# 3 0.005245 -0.003979 0.014292 0.000001 0.002534 -0.000002
# 4 0.000001 0.000001 0.000001 0.033031 0.000001 0.020437
# 5 0.010941 0.009658 0.002534 0.000001 0.052543 -0.000005
# 6 -0.000004 -0.000004 -0.000002 0.020437 -0.000005 -0.377820
#
#
# Mechanical properties :
#
#
# Convention : Reuss Voigt Hill
#
# Bulk Modulus (GPa) = 12.86158 16.88822 14.87490
# Shear Modulus (GPa) = -24.79017 20.70724 -2.04147
#
# Velocity S-wave (km/s) = -3.23607 2.95760 -0.92864
# Velocity P-wave (km/s) = 2.92057 4.33559 2.26579
#
# Compressibility (1/GPa) = 0.07775092
#
# Stress axis : x y z
#
# Youngs Moduli (GPa) = 35.83767 34.48556 69.96704
#
# Poissons Ratio (x) = -0.06942 -0.36695
# Poissons Ratio (y) = -0.07214 0.27839
# Poissons Ratio (z) = -0.18795 0.13721
#
# Static dielectric constant tensor:
#      x y z
#    x 1.915330 0.000000 -0.070630 
#    y 0.000000 1.941580 0.000000 
#    z -0.070630 0.000000 1.922750 
# 
# From -- ./inp_files/316783.got.cif
#   From: 2010.05.17/outbox.cif.g08.bks.cpg/sg12_159_cif.got.tgz:316783.got - 2010.06.03 13:09:07.
