data_PCOD9211726
_publ_section_title
;
Structure prediction by ZEFSAII (Michael W. Deem and Ramdas Pophale) SiO2 
 PCOD9211726
Probable space group: C 2/M
;
_chemical_formula_sum "Si O2"
_cell_formula_units_Z 56
_cell_length_a 12.462310
_cell_length_b 28.020316
_cell_length_c 15.023913
_cell_angle_alpha 90.000000
_cell_angle_beta 31.484264
_cell_angle_gamma 90.000000
_cell_volume 2739.965148
_symmetry_space_group_name_H-M "C 2/M"
_symmetry_group_IT_number 12
_symmetry_cell_setting 'monoclinic'
loop_
_space_group_symop_operation_xyz
x,y,z
-x,y,-z
-x,-y,-z
x,-y,z
1/2+x,1/2+y,z
1/2-x,1/2+y,-z
1/2-x,1/2-y,-z
1/2+x,1/2-y,z
loop_
_atom_site_type_symbol
_atom_site_label
_atom_site_fract_x
_atom_site_fract_y
_atom_site_fract_z
Si Si1 0.188140 0.055221 0.002246
Si Si2 0.413134 0.304577 0.793195
Si Si3 0.282045 0.656609 0.698907
Si Si4 0.063482 0.303571 0.186162
Si Si5 0.405405 0.053363 0.165531
Si Si6 0.690644 0.614502 0.660100
Si Si7 0.886498 0.387723 0.711175
O O1 0.402122 0.060066 0.904548
O O2 0.239205 0.077489 0.870429
O O3 0.135407 0.000000 0.031803
O O4 0.007143 0.081565 0.183411
O O5 0.291398 0.323864 0.793145
O O6 0.464393 0.248763 0.752741
O O7 0.608885 0.338611 0.668060
O O8 0.272816 0.307946 0.980783
O O9 0.500000 0.665927 0.500000
O O10 0.236769 0.599812 0.727922
O O11 0.112873 0.683163 0.759291
O O12 0.076725 0.342028 0.254054
O O13 0.315627 0.000000 0.245037
O O14 0.500000 0.053262 0.000000
O O15 0.778879 0.626148 0.695233
O O16 0.885509 0.591874 0.471147
#
# Coordination Sequence:
#
# PCOD9211726 Si02
#       7
#     8   8   8   8   8   8   8
#     4  11  23  43  69  95 129 172 218 272 330 394
#     4  11  25  42  69  94 127 178 222 265 329 390
#     4  12  24  40  66  96 136 170 212 275 329 393
#     4  11  24  44  65  95 130 170 224 271 321 391
#     4  10  21  40  65  92 126 169 219 270 323 385
#     4  11  24  42  66  95 132 172 217 269 328 389
#     4  11  24  42  65  96 133 170 216 274 323 391
#
# _framework density 20.438217000000002
#
# number of rings (size 3 to 8) (size 9 to 14) (size 15 to 20)
#    0.000    1.000    2.857    3.429    2.000    4.286 
#    0.000    1.429    0.000    0.000    0.000    0.000 
#    0.000    0.000    0.000    0.000    0.000    0.000 
#
# Total GULP energy -156530.118589 kJ/mol
# GULP energy per Si atom -5590.361378 kJ/mol
# Density = 2.039170 g / cm^3
# Si number density = 20.438217 Si / 1000 Ang^3
#
#
#
# Elastic Constant Matrix: (Units=GPa)
#
#
# Indices 1 2 3 4 5 6 
#
# 1 76.4988 35.7403 -18.2268 0.0000 5.8059 0.0000
# 2 35.7403 116.8952 23.9930 0.0000 4.7735 0.0000
# 3 -18.2268 23.9930 52.6819 0.0003 8.5428 0.0001
# 4 0.0000 0.0000 0.0003 -3.7263 -0.0002 -3.2969
# 5 5.8059 4.7735 8.5428 -0.0002 16.2266 -0.0001
# 6 0.0000 0.0000 0.0001 -3.2969 -0.0001 27.0960
#
#
#
# Elastic Compliance Matrix: (Units=1/GPa)
#
#
# Indices 1 2 3 4 5 6 
#
# 1 0.021214 -0.008717 0.013256 0.000001 -0.012005 0.000000
# 2 -0.008717 0.013023 -0.009656 -0.000001 0.004371 0.000000
# 3 0.013256 -0.009656 0.030913 0.000003 -0.018177 0.000000
# 4 0.000001 -0.000001 0.000003 -0.242282 -0.000004 -0.029479
# 5 -0.012005 0.004371 -0.018177 -0.000004 0.074207 0.000000
# 6 0.000000 0.000000 0.000000 -0.029479 0.000000 0.033319
#
#
# Mechanical properties :
#
#
# Convention : Reuss Voigt Hill
#
# Bulk Modulus (GPa) = 18.20893 36.56543 27.38718
# Shear Modulus (GPa) = -121.75350 21.55722 -50.09814
#
# Velocity S-wave (km/s) = -7.72663 3.25122 -4.95633
# Velocity P-wave (km/s) = 8.40669 5.65892 4.39597
#
# Compressibility (1/GPa) = 0.05491812
#
# Stress axis : x y z
#
# Youngs Moduli (GPa) = 47.13825 76.78611 32.34839
#
# Poissons Ratio (x) = 0.66933 -0.42882
# Poissons Ratio (y) = 0.41090 0.31235
# Poissons Ratio (z) = -0.62488 0.74143
#
# Static dielectric constant tensor:
#      x y z
#    x 1.733820 0.000000 -0.010370 
#    y 0.000000 1.722740 0.000000 
#    z -0.010370 0.000000 1.745850 
# 
# From -- ./inp_files/209996.got.cif
#   From: 2010.05.17/outbox.cif.g08.bks.cpg/sg12_105_cif.got.tgz:209996.got - 2010.06.03 13:09:07.
