data_PCOD9211569
_publ_section_title
;
Structure prediction by ZEFSAII (Michael W. Deem and Ramdas Pophale) SiO2 
 PCOD9211569
Probable space group: C 2/M
;
_chemical_formula_sum "Si O2"
_cell_formula_units_Z 64
_cell_length_a 9.609749
_cell_length_b 17.275452
_cell_length_c 29.473734
_cell_angle_alpha 90.000000
_cell_angle_beta 40.416960
_cell_angle_gamma 90.000000
_cell_volume 3172.363805
_symmetry_space_group_name_H-M "C 2/M"
_symmetry_group_IT_number 12
_symmetry_cell_setting 'monoclinic'
loop_
_space_group_symop_operation_xyz
x,y,z
-x,y,-z
-x,-y,-z
x,-y,z
1/2+x,1/2+y,z
1/2-x,1/2+y,-z
1/2-x,1/2-y,-z
1/2+x,1/2-y,z
loop_
_atom_site_type_symbol
_atom_site_label
_atom_site_fract_x
_atom_site_fract_y
_atom_site_fract_z
Si Si1 0.358097 0.832243 0.253377
Si Si2 0.199311 0.909525 0.865221
Si Si3 0.503382 0.743279 0.049924
Si Si4 0.934811 0.644369 0.466541
Si Si5 0.088705 0.411499 0.623918
Si Si6 0.164762 0.189027 0.201785
Si Si7 0.349941 0.408269 0.225359
Si Si8 0.567006 0.316534 0.412031
O O1 0.542169 0.897606 0.201643
O O2 0.241873 0.818776 0.234158
O O3 0.498664 0.758718 0.234219
O O4 0.184643 0.840711 0.336170
O O5 0.095703 0.844062 0.923040
O O6 0.111388 0.887633 0.836648
O O7 0.151930 0.000000 0.886674
O O8 0.366040 0.792207 0.119781
O O9 0.500000 0.774017 0.000000
O O10 0.750000 0.750000 0.000000
O O11 0.972616 0.591235 0.413634
O O12 0.680123 0.659714 0.529940
O O13 0.000000 0.615790 0.500000
O O14 0.059354 0.725015 0.425016
O O15 0.132052 0.500000 0.627071
O O16 0.293841 0.359255 0.584026
O O17 0.883657 0.377647 0.701624
O O18 0.034328 0.117381 0.213631
O O19 0.328613 0.500000 0.232166
#
# Coordination Sequence:
#
# PCOD9211569 Si02
#       8
#     8   8   8   8   8   8   8   8
#     4  11  23  36  65  91 122 163 210 270 318 375
#     4  10  21  41  64  92 125 163 212 262 314 373
#     4  11  22  39  62  91 128 168 206 249 308 382
#     4  11  25  39  61  92 128 166 213 274 323 380
#     4  11  24  44  66  89 126 174 217 262 330 400
#     4  11  23  39  61  95 124 162 211 260 315 373
#     4  10  21  40  64  89 123 162 208 268 325 374
#     4  11  23  40  62  92 123 167 216 268 323 389
#
# _framework density 20.174232
#
# number of rings (size 3 to 8) (size 9 to 14) (size 15 to 20)
#    0.000    1.250    1.250    6.375    5.250    2.000 
#    0.000    0.625    0.000    2.250    0.000    0.000 
#    0.000    0.000    0.000    0.000    0.000    0.000 
#
# Total GULP energy -178741.556666 kJ/mol
# GULP energy per Si atom -5585.673646 kJ/mol
# Density = 2.012831 g / cm^3
# Si number density = 20.174232 Si / 1000 Ang^3
#
#
#
# Elastic Constant Matrix: (Units=GPa)
#
#
# Indices 1 2 3 4 5 6 
#
# 1 136.1285 8.5601 13.5130 -0.0007 7.6234 0.0002
# 2 8.5601 36.1520 12.2510 -0.0001 -6.4622 0.0004
# 3 13.5130 12.2510 87.1914 0.0035 -2.3118 -0.0013
# 4 -0.0007 -0.0001 0.0035 17.7046 0.0006 -10.0829
# 5 7.6234 -6.4622 -2.3118 0.0006 36.6362 0.0000
# 6 0.0002 0.0004 -0.0013 -10.0829 0.0000 34.5237
#
#
#
# Elastic Compliance Matrix: (Units=1/GPa)
#
#
# Indices 1 2 3 4 5 6 
#
# 1 0.007670 -0.001837 -0.000983 0.000001 -0.001982 0.000000
# 2 -0.001837 0.030380 -0.003838 0.000001 0.005499 0.000000
# 3 -0.000983 -0.003838 0.012168 -0.000003 0.000295 0.000000
# 4 0.000001 0.000001 -0.000003 0.067752 -0.000001 0.019787
# 5 -0.001982 0.005499 0.000295 -0.000001 0.028696 0.000000
# 6 0.000000 0.000000 0.000000 0.019787 0.000000 0.034745
#
#
# Mechanical properties :
#
#
# Convention : Reuss Voigt Hill
#
# Bulk Modulus (GPa) = 27.09931 36.45779 31.77855
# Shear Modulus (GPa) = 24.15132 32.78276 28.46704
#
# Velocity S-wave (km/s) = 3.46372 4.03548 3.76048
# Velocity P-wave (km/s) = 5.42755 6.31064 5.88568
#
# Compressibility (1/GPa) = 0.03690131
#
# Stress axis : x y z
#
# Youngs Moduli (GPa) = 130.37592 32.91691 82.17946
#
# Poissons Ratio (x) = 0.06048 0.08079
# Poissons Ratio (y) = 0.23954 0.31540
# Poissons Ratio (z) = 0.12818 0.12634
#
# Static dielectric constant tensor:
#      x y z
#    x 1.690220 0.000000 0.010130 
#    y 0.000000 1.729290 0.000000 
#    z 0.010130 0.000000 1.779220 
# 
# From -- ./inp_files/372906.got.cif
#   From: 2010.05.17/outbox.cif.g08.bks.cpg/sg12_187_cif.got.tgz:372906.got - 2010.06.03 13:09:07.
