data_PCOD9211729
_publ_section_title
;
Structure prediction by ZEFSAII (Michael W. Deem and Ramdas Pophale) SiO2 
 PCOD9211729
Probable space group: C 2/M
;
_chemical_formula_sum "Si O2"
_cell_formula_units_Z 34
_cell_length_a 13.589014
_cell_length_b 16.869759
_cell_length_c 7.878957
_cell_angle_alpha 90.000000
_cell_angle_beta 121.959591
_cell_angle_gamma 90.000000
_cell_volume 1532.418133
_symmetry_space_group_name_H-M "C 2/M"
_symmetry_group_IT_number 12
_symmetry_cell_setting 'monoclinic'
loop_
_space_group_symop_operation_xyz
x,y,z
-x,y,-z
-x,-y,-z
x,-y,z
1/2+x,1/2+y,z
1/2-x,1/2+y,-z
1/2-x,1/2-y,-z
1/2+x,1/2-y,z
loop_
_atom_site_type_symbol
_atom_site_label
_atom_site_fract_x
_atom_site_fract_y
_atom_site_fract_z
Si Si1 0.204021 0.908426 0.929674
Si Si2 0.000000 0.500000 0.000000
Si Si3 0.961074 0.383978 0.279423
Si Si4 0.878132 0.088027 0.497533
Si Si5 0.996962 0.212826 0.803804
O O1 0.217676 0.902455 0.736734
O O2 0.107884 0.844910 0.888676
O O3 0.167308 0.000000 0.926958
O O4 0.322539 0.892506 0.132871
O O5 0.992641 0.431996 0.840762
O O6 0.994390 0.291712 0.296671
O O7 0.000000 0.412439 0.500000
O O8 0.000000 0.089227 0.500000
O O9 0.890652 0.157724 0.643589
O O10 0.867258 0.000000 0.563260
O O11 0.000000 0.237680 0.000000
#
# Coordination Sequence:
#
# PCOD9211729 Si02
#       5
#     8   2   8   8   8
#     4  10  21  40  65  92 127 176 210 260 330 378
#     4  12  26  48  68  94 122 170 232 262 310 390
#     4  12  25  47  69  91 131 172 215 272 322 371
#     4   8  16  34  59  85 124 165 203 256 320 372
#     4  11  22  39  62  99 132 166 217 265 316 392
#
# _framework density 22.187154
#
# number of rings (size 3 to 8) (size 9 to 14) (size 15 to 20)
#    0.000    1.647    2.353    5.294    0.000    1.882 
#    4.235    2.353    0.000    0.000    0.000    0.000 
#    0.000    0.000    0.000    0.000    0.000    0.000 
#
# Total GULP energy -94656.561792 kJ/mol
# GULP energy per Si atom -5568.033047 kJ/mol
# Density = 2.213666 g / cm^3
# Si number density = 22.187154 Si / 1000 Ang^3
#
#
#
# Elastic Constant Matrix: (Units=GPa)
#
#
# Indices 1 2 3 4 5 6 
#
# 1 23.3611 14.8543 28.9181 0.0000 -10.3290 0.0000
# 2 14.8543 154.8828 57.4994 0.0000 -13.2012 0.0000
# 3 28.9181 57.4994 197.0139 0.0000 -14.1677 0.0000
# 4 0.0000 0.0000 0.0000 -10.8681 0.0000 -29.3233
# 5 -10.3290 -13.2012 -14.1677 0.0000 35.5304 0.0000
# 6 0.0000 0.0000 0.0000 -29.3233 0.0000 10.4747
#
#
#
# Elastic Compliance Matrix: (Units=1/GPa)
#
#
# Indices 1 2 3 4 5 6 
#
# 1 0.058783 -0.001840 -0.007116 0.000000 0.013568 0.000000
# 2 -0.001840 0.007426 -0.001789 0.000000 0.001511 0.000000
# 3 -0.007116 -0.001789 0.006636 0.000000 -0.000087 0.000000
# 4 0.000000 0.000000 0.000000 -0.010758 0.000000 -0.030115
# 5 0.013568 0.001511 -0.000087 0.000000 0.032616 0.000000
# 6 0.000000 0.000000 0.000000 -0.030115 0.000000 0.011162
#
#
# Mechanical properties :
#
#
# Convention : Reuss Voigt Hill
#
# Bulk Modulus (GPa) = 19.47148 64.20016 41.83582
# Shear Modulus (GPa) = 34.60885 25.29312 29.95098
#
# Velocity S-wave (km/s) = 3.95379 3.38004 3.67812
# Velocity P-wave (km/s) = 5.44411 6.65067 6.07741
#
# Compressibility (1/GPa) = 0.05135716
#
# Stress axis : x y z
#
# Youngs Moduli (GPa) = 17.01166 134.66740 150.69361
#
# Poissons Ratio (x) = 0.24773 1.07230
# Poissons Ratio (y) = 0.03129 0.26952
# Poissons Ratio (z) = 0.12105 0.24086
#
# Static dielectric constant tensor:
#      x y z
#    x 1.881610 0.000000 0.002370 
#    y 0.000000 1.809200 0.000000 
#    z 0.002370 0.000000 1.860340 
# 
# From -- ./inp_files/73402.got.cif
#   From: 2010.05.17/outbox.cif.g08.bks.cpg/sg12_37_cif.got.tgz:73402.got - 2010.06.03 13:09:07.
