data_PCOD9211432
_publ_section_title
;
Structure prediction by ZEFSAII (Michael W. Deem and Ramdas Pophale) SiO2 
 PCOD9211432
Probable space group: C 2/M
;
_chemical_formula_sum "Si O2"
_cell_formula_units_Z 64
_cell_length_a 28.760892
_cell_length_b 20.434949
_cell_length_c 14.086124
_cell_angle_alpha 90.000000
_cell_angle_beta 19.641161
_cell_angle_gamma 90.000000
_cell_volume 2782.738741
_symmetry_space_group_name_H-M "C 2/M"
_symmetry_group_IT_number 12
_symmetry_cell_setting 'monoclinic'
loop_
_space_group_symop_operation_xyz
x,y,z
-x,y,-z
-x,-y,-z
x,-y,z
1/2+x,1/2+y,z
1/2-x,1/2+y,-z
1/2-x,1/2-y,-z
1/2+x,1/2-y,z
loop_
_atom_site_type_symbol
_atom_site_label
_atom_site_fract_x
_atom_site_fract_y
_atom_site_fract_z
Si Si1 0.595225 0.427791 0.410067
Si Si2 0.833884 0.423761 0.811568
Si Si3 0.651167 0.868345 0.828263
Si Si4 0.577858 0.723740 0.985371
Si Si5 0.201218 0.680268 0.280474
Si Si6 0.128020 0.814713 0.470200
Si Si7 0.608067 0.929699 0.596658
Si Si8 0.346523 0.398685 0.280520
O O1 0.500000 0.427320 0.500000
O O2 0.588097 0.500000 0.467682
O O3 0.546755 0.372329 0.574953
O O4 0.749505 0.416453 0.071959
O O5 0.805408 0.500000 0.836311
O O6 0.778350 0.366427 0.849051
O O7 0.000000 0.416634 0.500000
O O8 0.591612 0.796467 0.919875
O O9 0.730464 0.851653 0.773714
O O10 0.759505 0.895158 0.543956
O O11 0.525140 0.917570 0.082578
O O12 0.673383 0.705698 0.893583
O O13 0.624373 0.673855 0.815814
O O14 0.429178 0.709919 0.318068
O O15 0.131023 0.750766 0.397755
O O16 0.113465 0.632025 0.516623
O O17 0.747098 0.928949 0.391964
O O18 0.596545 0.000000 0.569505
O O19 0.500000 0.427195 0.000000
#
# Coordination Sequence:
#
# PCOD9211432 Si02
#       8
#     8   8   8   8   8   8   8   8
#     4  10  23  42  63  91 127 170 215 259 320 395
#     4  10  22  39  62  92 128 169 215 266 327 393
#     4  11  23  40  64  96 131 169 219 274 325 389
#     4  10  21  40  62  96 128 171 214 268 327 389
#     4  10  22  39  64  93 129 168 216 269 323 388
#     4  11  22  39  66  97 131 165 219 273 326 381
#     4  11  25  44  66  93 131 179 220 267 329 388
#     4  11  23  41  66  94 131 172 217 270 324 386
#
# _framework density 22.998925
#
# number of rings (size 3 to 8) (size 9 to 14) (size 15 to 20)
#    0.000    1.500    2.500    1.875    1.750    3.750 
#    0.000    2.500    0.000    0.000    0.000    0.000 
#    0.000    0.000    0.000    0.000    0.000    0.000 
#
# Total GULP energy -178625.460383 kJ/mol
# GULP energy per Si atom -5582.045637 kJ/mol
# Density = 2.294658 g / cm^3
# Si number density = 22.998925 Si / 1000 Ang^3
#
#
#
# Elastic Constant Matrix: (Units=GPa)
#
#
# Indices 1 2 3 4 5 6 
#
# 1 44.4582 31.0122 7.4007 -0.0003 3.9150 0.0002
# 2 31.0122 116.8363 10.1055 -0.0008 9.3052 0.0019
# 3 7.4007 10.1055 101.1348 -0.0012 -1.1529 0.0018
# 4 -0.0003 -0.0008 -0.0012 10.2869 0.0003 -0.2750
# 5 3.9150 9.3052 -1.1529 0.0003 29.4541 -0.0001
# 6 0.0002 0.0019 0.0018 -0.2750 -0.0001 -13.3612
#
#
#
# Elastic Compliance Matrix: (Units=1/GPa)
#
#
# Indices 1 2 3 4 5 6 
#
# 1 0.027838 -0.007154 -0.001339 0.000000 -0.001492 -0.000001
# 2 -0.007154 0.010703 -0.000574 0.000001 -0.002453 0.000001
# 3 -0.001339 -0.000574 0.010052 0.000001 0.000753 0.000001
# 4 0.000000 0.000001 0.000001 0.097158 -0.000001 -0.001999
# 5 -0.001492 -0.002453 0.000753 -0.000001 0.034954 -0.000001
# 6 -0.000001 0.000001 0.000001 -0.001999 -0.000001 -0.074803
#
#
# Mechanical properties :
#
#
# Convention : Reuss Voigt Hill
#
# Bulk Modulus (GPa) = 32.83246 39.94066 36.38656
# Shear Modulus (GPa) = 37.26072 19.53669 28.39870
#
# Velocity S-wave (km/s) = 4.02942 2.91771 3.51776
# Velocity P-wave (km/s) = 5.99625 5.36235 5.68813
#
# Compressibility (1/GPa) = 0.03045766
#
# Stress axis : x y z
#
# Youngs Moduli (GPa) = 35.92209 93.43183 99.48548
#
# Poissons Ratio (x) = 0.66845 0.13323
# Poissons Ratio (y) = 0.25700 0.05709
# Poissons Ratio (z) = 0.04811 0.05362
#
# Static dielectric constant tensor:
#      x y z
#    x 1.894020 0.000000 -0.036980 
#    y 0.000000 1.842980 0.000000 
#    z -0.036980 0.000000 1.955810 
# 
# From -- ./inp_files/251887.got.cif
#   From: 2010.05.17/outbox.cif.g08.bks.cpg/sg12_126_cif.got.tgz:251887.got - 2010.06.03 13:09:07.
