data_PCOD9211059
_publ_section_title
;
Structure prediction by ZEFSAII (Michael W. Deem and Ramdas Pophale) SiO2 
 PCOD9211059
Probable space group: C 2/M
;
_chemical_formula_sum "Si O2"
_cell_formula_units_Z 64
_cell_length_a 10.643503
_cell_length_b 17.405142
_cell_length_c 26.395041
_cell_angle_alpha 90.000000
_cell_angle_beta 36.298037
_cell_angle_gamma 90.000000
_cell_volume 2894.647050
_symmetry_space_group_name_H-M "C 2/M"
_symmetry_group_IT_number 12
_symmetry_cell_setting 'monoclinic'
loop_
_space_group_symop_operation_xyz
x,y,z
-x,y,-z
-x,-y,-z
x,-y,z
1/2+x,1/2+y,z
1/2-x,1/2+y,-z
1/2-x,1/2-y,-z
1/2+x,1/2-y,z
loop_
_atom_site_type_symbol
_atom_site_label
_atom_site_fract_x
_atom_site_fract_y
_atom_site_fract_z
Si Si1 0.748299 0.238051 0.923597
Si Si2 0.220845 0.586054 0.107638
Si Si3 0.456956 0.088910 0.662697
Si Si4 0.113511 0.858313 0.842029
Si Si5 0.089860 0.699203 0.417198
Si Si6 0.624803 0.624506 0.411936
Si Si7 0.772850 0.081389 0.730157
Si Si8 0.591921 0.286485 0.240665
O O1 0.759968 0.330950 0.926686
O O2 0.863917 0.216478 0.833271
O O3 0.885082 0.183524 0.915690
O O4 0.500000 0.218618 0.000000
O O5 0.263050 0.500000 0.071628
O O6 0.355454 0.597869 0.115107
O O7 0.974902 0.583848 0.202918
O O8 0.215679 0.091614 0.763699
O O9 0.475071 0.146020 0.608797
O O10 0.632045 0.115965 0.647488
O O11 0.502698 0.000000 0.634888
O O12 0.278789 0.787765 0.784267
O O13 0.030358 0.789440 0.434220
O O14 0.344447 0.707252 0.332659
O O15 0.000000 0.669570 0.500000
O O16 0.500000 0.590205 0.500000
O O17 0.608313 0.589865 0.361617
O O18 0.809091 0.145234 0.759703
O O19 0.827898 0.000000 0.735764
#
# Coordination Sequence:
#
# PCOD9211059 Si02
#       8
#     8   8   8   8   8   8   8   8
#     4  11  24  43  72  97 127 167 222 273 325 390
#     4  10  21  39  65  97 130 164 206 264 331 389
#     4  12  24  41  66  94 130 176 223 269 324 384
#     4  11  20  41  68  92 124 172 221 263 315 393
#     4  11  25  41  65  95 134 177 221 267 324 388
#     4  11  24  40  65  96 131 171 226 274 321 385
#     4  11  22  39  62  92 132 172 213 270 335 384
#     4  11  22  41  66  93 129 173 220 268 322 391
#
# _framework density 22.109777000000001
#
# number of rings (size 3 to 8) (size 9 to 14) (size 15 to 20)
#    0.000    1.000    5.000    2.250    1.750    5.000 
#    0.000    0.000    0.000    2.625    0.000    0.000 
#    0.000    0.000    0.000    0.000    0.000    0.000 
#
# Total GULP energy -178513.572230 kJ/mol
# GULP energy per Si atom -5578.549132 kJ/mol
# Density = 2.205945 g / cm^3
# Si number density = 22.109777 Si / 1000 Ang^3
#
#
#
# Elastic Constant Matrix: (Units=GPa)
#
#
# Indices 1 2 3 4 5 6 
#
# 1 53.5400 49.9466 12.1931 0.0010 12.6592 -0.0036
# 2 49.9466 115.7383 7.3993 0.0015 6.9641 -0.0058
# 3 12.1931 7.3993 96.4885 -0.0074 4.5774 0.0107
# 4 0.0010 0.0015 -0.0074 16.6405 0.0050 4.5392
# 5 12.6592 6.9641 4.5774 0.0050 28.8879 -0.0048
# 6 -0.0036 -0.0058 0.0107 4.5392 -0.0048 37.1147
#
#
#
# Elastic Compliance Matrix: (Units=1/GPa)
#
#
# Indices 1 2 3 4 5 6 
#
# 1 0.035579 -0.014472 -0.002833 0.000001 -0.011654 0.000000
# 2 -0.014472 0.014686 0.000574 -0.000001 0.002710 0.000001
# 3 -0.002833 0.000574 0.010706 0.000006 -0.000593 -0.000004
# 4 0.000001 -0.000001 0.000006 0.062168 -0.000013 -0.007603
# 5 -0.011654 0.002710 -0.000593 -0.000013 0.039164 0.000006
# 6 0.000000 0.000001 -0.000004 -0.007603 0.000006 0.027873
#
#
# Mechanical properties :
#
#
# Convention : Reuss Voigt Hill
#
# Bulk Modulus (GPa) = 36.35255 44.98273 40.66764
# Shear Modulus (GPa) = 21.47699 29.61048 25.54373
#
# Velocity S-wave (km/s) = 3.12008 3.66354 3.40268
# Velocity P-wave (km/s) = 5.42747 6.18747 5.81989
#
# Compressibility (1/GPa) = 0.02750839
#
# Stress axis : x y z
#
# Youngs Moduli (GPa) = 28.10678 68.09410 93.40462
#
# Poissons Ratio (x) = 0.98543 0.26465
# Poissons Ratio (y) = 0.40675 -0.05361
# Poissons Ratio (z) = 0.07964 -0.03909
#
# Static dielectric constant tensor:
#      x y z
#    x 1.844270 -0.000010 -0.030680 
#    y -0.000010 1.855130 -0.000040 
#    z -0.030680 -0.000040 1.705210 
# 
# From -- ./inp_files/374415.got.cif
#   From: 2010.05.17/outbox.cif.g08.bks.cpg/sg12_188_cif.got.tgz:374415.got - 2010.06.03 13:09:07.
