data_PCOD9211317
_publ_section_title
;
Structure prediction by ZEFSAII (Michael W. Deem and Ramdas Pophale) SiO2 
 PCOD9211317
Probable space group: C 2/M
;
_chemical_formula_sum "Si O2"
_cell_formula_units_Z 48
_cell_length_a 24.527587
_cell_length_b 17.999691
_cell_length_c 5.967393
_cell_angle_alpha 90.000000
_cell_angle_beta 57.786236
_cell_angle_gamma 90.000000
_cell_volume 2228.990982
_symmetry_space_group_name_H-M "C 2/M"
_symmetry_group_IT_number 12
_symmetry_cell_setting 'monoclinic'
loop_
_space_group_symop_operation_xyz
x,y,z
-x,y,-z
-x,-y,-z
x,-y,z
1/2+x,1/2+y,z
1/2-x,1/2+y,-z
1/2-x,1/2-y,-z
1/2+x,1/2-y,z
loop_
_atom_site_type_symbol
_atom_site_label
_atom_site_fract_x
_atom_site_fract_y
_atom_site_fract_z
Si Si1 0.344333 0.314445 0.492991
Si Si2 0.399796 0.916404 0.294514
Si Si3 0.778716 0.413368 0.267870
Si Si4 0.632951 0.187767 0.245867
Si Si5 0.438852 0.777550 0.988321
Si Si6 0.467097 0.412000 0.325837
O O1 0.285893 0.366881 0.549719
O O2 0.327750 0.251852 0.712722
O O3 0.377080 0.264585 0.227833
O O4 0.400966 0.366966 0.458900
O O5 0.324866 0.917090 0.383279
O O6 0.402976 0.867472 0.507393
O O7 0.434770 0.866468 0.033198
O O8 0.422615 0.000000 0.264295
O O9 0.767998 0.500000 0.221325
O O10 0.819756 0.364412 0.001315
O O11 0.575364 0.229702 0.240385
O O12 0.500000 0.753506 0.000000
O O13 0.500000 0.393490 0.500000
O O14 0.455544 0.500000 0.362931
O O15 0.500000 0.401662 0.000000
#
# Coordination Sequence:
#
# PCOD9211317 Si02
#       6
#     8   8   8   8   8   8
#     4  11  23  35  62  90 124 162 211 258 319 382
#     4   9  20  39  61  85 116 155 199 255 316 381
#     4  10  21  40  61  86 121 160 207 257 317 385
#     4  10  22  38  60  88 122 158 202 260 319 377
#     4  10  23  39  57  85 120 159 203 255 317 381
#     4  10  23  43  65  93 133 177 224 273 321 378
#
# _framework density 21.534407000000002
#
# number of rings (size 3 to 8) (size 9 to 14) (size 15 to 20)
#    0.000    2.000    0.000    2.000    4.667   10.333 
#    0.000    0.833    0.000    0.000    0.000    0.000 
#    0.000    0.000    0.000    0.000    0.000    0.000 
#
# Total GULP energy -133665.039139 kJ/mol
# GULP energy per Si atom -5569.376631 kJ/mol
# Density = 2.148539 g / cm^3
# Si number density = 21.534407 Si / 1000 Ang^3
#
#
#
# Elastic Constant Matrix: (Units=GPa)
#
#
# Indices 1 2 3 4 5 6 
#
# 1 60.8827 35.8163 19.9829 0.0000 5.0469 0.0000
# 2 35.8163 152.8833 21.2865 0.0000 0.9498 0.0000
# 3 19.9829 21.2865 56.3265 0.0000 9.8146 0.0000
# 4 0.0000 0.0000 0.0000 -9.5286 0.0000 -17.6057
# 5 5.0469 0.9498 9.8146 0.0000 28.2936 0.0000
# 6 0.0000 0.0000 0.0000 -17.6057 0.0000 23.5261
#
#
#
# Elastic Compliance Matrix: (Units=1/GPa)
#
#
# Indices 1 2 3 4 5 6 
#
# 1 0.020785 -0.004088 -0.005542 0.000000 -0.001648 0.000000
# 2 -0.004088 0.007722 -0.001650 0.000000 0.001042 0.000000
# 3 -0.005542 -0.001650 0.021458 0.000000 -0.006400 0.000000
# 4 0.000000 0.000000 0.000000 -0.044046 0.000000 -0.032961
# 5 -0.001648 0.001042 -0.006400 0.000000 0.037823 0.000000
# 6 0.000000 0.000000 0.000000 -0.032961 0.000000 0.017839
#
#
# Mechanical properties :
#
#
# Convention : Reuss Voigt Hill
#
# Bulk Modulus (GPa) = 36.48721 47.14043 41.81382
# Shear Modulus (GPa) = 53.60454 21.32536 37.46495
#
# Velocity S-wave (km/s) = 4.99465 3.15031 4.17558
# Velocity P-wave (km/s) = 7.08820 5.93050 6.53503
#
# Compressibility (1/GPa) = 0.02740687
#
# Stress axis : x y z
#
# Youngs Moduli (GPa) = 48.11099 129.50460 46.60201
#
# Poissons Ratio (x) = 0.52935 0.25827
# Poissons Ratio (y) = 0.19665 0.07687
# Poissons Ratio (z) = 0.26664 0.21363
#
# Static dielectric constant tensor:
#      x y z
#    x 1.826750 0.000000 0.027170 
#    y 0.000000 1.760860 0.000000 
#    z 0.027170 0.000000 1.862920 
# 
# From -- ./inp_files/24821.got.cif
#   From: 2010.05.17/outbox.cif.g08.bks.cpg/sg12_13_cif.got.tgz:24821.got - 2010.06.03 13:09:07.
