data_PCOD9211130
_publ_section_title
;
Structure prediction by ZEFSAII (Michael W. Deem and Ramdas Pophale) SiO2 
 PCOD9211130
Probable space group: C 2/M
;
_chemical_formula_sum "Si O2"
_cell_formula_units_Z 44
_cell_length_a 10.888092
_cell_length_b 24.004289
_cell_length_c 7.863074
_cell_angle_alpha 90.000000
_cell_angle_beta 87.008174
_cell_angle_gamma 90.000000
_cell_volume 2052.299033
_symmetry_space_group_name_H-M "C 2/M"
_symmetry_group_IT_number 12
_symmetry_cell_setting 'monoclinic'
loop_
_space_group_symop_operation_xyz
x,y,z
-x,y,-z
-x,-y,-z
x,-y,z
1/2+x,1/2+y,z
1/2-x,1/2+y,-z
1/2-x,1/2-y,-z
1/2+x,1/2-y,z
loop_
_atom_site_type_symbol
_atom_site_label
_atom_site_fract_x
_atom_site_fract_y
_atom_site_fract_z
Si Si1 0.831799 0.500000 0.397841
Si Si2 0.580173 0.307957 0.328791
Si Si3 0.500000 0.622322 0.000000
Si Si4 0.419567 0.000000 0.775420
Si Si5 0.549180 0.816035 0.195182
Si Si6 0.265349 0.898570 0.920889
Si Si7 0.688038 0.876693 0.689576
O O1 0.886532 0.500000 0.580750
O O2 0.777104 0.437213 0.390917
O O3 0.933332 0.500000 0.238738
O O4 0.500000 0.321430 0.500000
O O5 0.540835 0.341100 0.159955
O O6 0.562694 0.243784 0.279431
O O7 0.718159 0.327696 0.364913
O O8 0.620313 0.589681 0.924164
O O9 0.355740 0.947156 0.860423
O O10 0.683283 0.844890 0.182190
O O11 0.452267 0.854724 0.306192
O O12 0.500000 0.811164 0.000000
O O13 0.291390 0.886370 0.113549
#
# Coordination Sequence:
#
# PCOD9211130 Si02
#       7
#     4   8   4   4   8   8   8
#     4  11  23  41  61 101 133 156 219 278 314 384
#     4  11  25  41  65  96 130 178 212 261 329 382
#     4  10  24  43  62  90 138 163 220 264 306 412
#     4  11  23  38  66  95 127 168 209 273 330 373
#     4  10  21  39  66  96 128 166 216 272 318 380
#     4  10  22  40  66  92 123 174 210 263 329 379
#     4  10  23  41  66  94 127 169 216 268 320 385
#
# _framework density 21.439371999999999
#
# number of rings (size 3 to 8) (size 9 to 14) (size 15 to 20)
#    0.000    1.636    2.727    0.545    5.091    5.455 
#    0.000    1.364    0.000    0.000    0.000    0.000 
#    0.000    0.000    0.000    0.000    0.000    0.000 
#
# Total GULP energy -122675.612959 kJ/mol
# GULP energy per Si atom -5576.164225 kJ/mol
# Density = 2.139058 g / cm^3
# Si number density = 21.439372 Si / 1000 Ang^3
#
#
#
# Elastic Constant Matrix: (Units=GPa)
#
#
# Indices 1 2 3 4 5 6 
#
# 1 80.2037 6.1049 14.4843 0.0000 -16.2284 0.0000
# 2 6.1049 72.8058 8.3456 0.0000 -1.8901 0.0000
# 3 14.4843 8.3456 74.9792 0.0000 -15.3993 0.0000
# 4 0.0000 0.0000 0.0000 7.6947 0.0000 -0.3715
# 5 -16.2284 -1.8901 -15.3993 0.0000 20.7727 0.0000
# 6 0.0000 0.0000 0.0000 -0.3715 0.0000 15.5646
#
#
#
# Elastic Compliance Matrix: (Units=1/GPa)
#
#
# Indices 1 2 3 4 5 6 
#
# 1 0.014888 -0.000903 -0.000476 0.000000 0.011196 0.000000
# 2 -0.000903 0.013968 -0.001491 0.000000 -0.000540 0.000000
# 3 -0.000476 -0.001491 0.015914 0.000000 0.011290 0.000000
# 4 0.000000 0.000000 0.000000 0.130109 0.000000 0.003105
# 5 0.011196 -0.000540 0.011290 0.000000 0.065207 0.000000
# 6 0.000000 0.000000 0.000000 0.003105 0.000000 0.064322
#
#
# Mechanical properties :
#
#
# Convention : Reuss Voigt Hill
#
# Bulk Modulus (GPa) = 25.62189 31.76202 28.69196
# Shear Modulus (GPa) = 15.47224 22.07666 18.77445
#
# Velocity S-wave (km/s) = 2.68931 3.21241 2.96243
# Velocity P-wave (km/s) = 4.64973 5.34850 5.01131
#
# Compressibility (1/GPa) = 0.03902913
#
# Stress axis : x y z
#
# Youngs Moduli (GPa) = 67.16620 71.59323 62.83918
#
# Poissons Ratio (x) = 0.06466 0.02992
# Poissons Ratio (y) = 0.06066 0.09370
# Poissons Ratio (z) = 0.03198 0.10676
#
# Static dielectric constant tensor:
#      x y z
#    x 1.894240 0.000000 -0.017100 
#    y 0.000000 1.859260 0.000000 
#    z -0.017100 0.000000 1.767970 
# 
# From -- ./inp_files/49343.got.cif
#   From: 2010.05.17/outbox.cif.g08.bks.cpg/sg12_25_cif.got.tgz:49343.got - 2010.06.03 13:09:07.
