data_PCOD9211338
_publ_section_title
;
Structure prediction by ZEFSAII (Michael W. Deem and Ramdas Pophale) SiO2 
 PCOD9211338
Probable space group: C 2/M
;
_chemical_formula_sum "Si O2"
_cell_formula_units_Z 42
_cell_length_a 17.710925
_cell_length_b 18.850170
_cell_length_c 7.649849
_cell_angle_alpha 90.000000
_cell_angle_beta 131.162773
_cell_angle_gamma 90.000000
_cell_volume 1922.709334
_symmetry_space_group_name_H-M "C 2/M"
_symmetry_group_IT_number 12
_symmetry_cell_setting 'monoclinic'
loop_
_space_group_symop_operation_xyz
x,y,z
-x,y,-z
-x,-y,-z
x,-y,z
1/2+x,1/2+y,z
1/2-x,1/2+y,-z
1/2-x,1/2-y,-z
1/2+x,1/2-y,z
loop_
_atom_site_type_symbol
_atom_site_label
_atom_site_fract_x
_atom_site_fract_y
_atom_site_fract_z
Si Si1 0.000000 0.000000 0.000000
Si Si2 0.823582 0.000000 0.435250
Si Si3 0.932981 0.253997 0.549977
Si Si4 0.253542 0.655466 0.314591
Si Si5 0.763703 0.651800 0.127864
Si Si6 0.092074 0.759395 0.054621
Si Si7 0.680979 0.500000 0.989866
O O1 0.914535 0.000000 0.709700
O O2 0.910447 0.000000 0.014717
O O3 0.761932 0.073104 0.369804
O O4 0.850344 0.000000 0.265911
O O5 0.857850 0.195118 0.514732
O O6 0.862751 0.313947 0.360390
O O7 0.000000 0.218296 0.500000
O O8 0.018358 0.282315 0.809366
O O9 0.241558 0.666183 0.087265
O O10 0.161448 0.700181 0.253336
O O11 0.748414 0.568946 0.125217
O O12 0.669372 0.689096 0.078498
O O13 0.000000 0.803446 0.000000
#
# Coordination Sequence:
#
# PCOD9211338 Si02
#       7
#     2   4   8   8   8   8   4
#     4  12  26  40  64  92 132 168 204 254 330 370
#     4  10  25  43  65  91 128 170 213 255 321 379
#     4  11  19  36  65  85 117 166 207 251 307 367
#     4  10  21  41  62  89 125 164 210 262 307 379
#     4  10  21  40  61  90 125 162 212 259 307 378
#     4  11  23  36  61  94 123 162 211 263 318 366
#     4  10  25  41  63  93 130 166 210 262 313 382
#
# _framework density 21.844176999999998
#
# number of rings (size 3 to 8) (size 9 to 14) (size 15 to 20)
#    0.000    1.524    3.810    1.429    4.000    4.571 
#    0.000    1.905    0.000    0.000    0.000    0.000 
#    0.000    0.000    0.000    0.000    0.000    0.000 
#
# Total GULP energy -116922.556944 kJ/mol
# GULP energy per Si atom -5567.740807 kJ/mol
# Density = 2.179446 g / cm^3
# Si number density = 21.844177 Si / 1000 Ang^3
#
#
#
# Elastic Constant Matrix: (Units=GPa)
#
#
# Indices 1 2 3 4 5 6 
#
# 1 93.5173 28.1184 8.8749 0.0000 21.6987 0.0000
# 2 28.1184 152.7167 35.6962 0.0000 16.5212 0.0000
# 3 8.8749 35.6962 120.9371 0.0000 23.7501 0.0000
# 4 0.0000 0.0000 0.0000 12.1835 0.0000 -8.1101
# 5 21.6987 16.5212 23.7501 0.0000 36.0357 0.0000
# 6 0.0000 0.0000 0.0000 -8.1101 0.0000 8.1972
#
#
#
# Elastic Compliance Matrix: (Units=1/GPa)
#
#
# Indices 1 2 3 4 5 6 
#
# 1 0.012910 -0.001803 0.001090 0.000000 -0.007666 0.000000
# 2 -0.001803 0.007431 -0.001844 0.000000 -0.001106 0.000000
# 3 0.001090 -0.001844 0.009989 0.000000 -0.006394 0.000000
# 4 0.000000 0.000000 0.000000 0.240403 0.000000 0.237847
# 5 -0.007666 -0.001106 -0.006394 0.000000 0.037088 0.000000
# 6 0.000000 0.000000 0.000000 0.237847 0.000000 0.357310
#
#
# Mechanical properties :
#
#
# Convention : Reuss Voigt Hill
#
# Bulk Modulus (GPa) = 39.65517 56.95002 48.30259
# Shear Modulus (GPa) = 7.36758 30.91539 19.14148
#
# Velocity S-wave (km/s) = 1.83851 3.76609 2.96340
# Velocity P-wave (km/s) = 4.76444 6.71110 5.81974
#
# Compressibility (1/GPa) = 0.02521740
#
# Stress axis : x y z
#
# Youngs Moduli (GPa) = 77.45644 134.57893 100.11295
#
# Poissons Ratio (x) = 0.24259 -0.10913
# Poissons Ratio (y) = 0.13962 0.18458
# Poissons Ratio (z) = -0.08444 0.24813
#
# Static dielectric constant tensor:
#      x y z
#    x 1.906030 0.000000 -0.142230 
#    y 0.000000 1.780190 0.000000 
#    z -0.142230 0.000000 1.857990 
# 
# From -- ./inp_files/77098.got.cif
#   From: 2010.05.17/outbox.cif.g08.bks.cpg/sg12_39_cif.got.tgz:77098.got - 2010.06.03 13:09:07.
