data_PCOD9211742
_publ_section_title
;
Structure prediction by ZEFSAII (Michael W. Deem and Ramdas Pophale) SiO2 
 PCOD9211742
Probable space group: C 2/M
;
_chemical_formula_sum "Si O2"
_cell_formula_units_Z 64
_cell_length_a 18.456765
_cell_length_b 13.497902
_cell_length_c 24.212535
_cell_angle_alpha 90.000000
_cell_angle_beta 28.831619
_cell_angle_gamma 90.000000
_cell_volume 2908.860001
_symmetry_space_group_name_H-M "C 2/M"
_symmetry_group_IT_number 12
_symmetry_cell_setting 'monoclinic'
loop_
_space_group_symop_operation_xyz
x,y,z
-x,y,-z
-x,-y,-z
x,-y,z
1/2+x,1/2+y,z
1/2-x,1/2+y,-z
1/2-x,1/2-y,-z
1/2+x,1/2-y,z
loop_
_atom_site_type_symbol
_atom_site_label
_atom_site_fract_x
_atom_site_fract_y
_atom_site_fract_z
Si Si1 0.354687 0.616316 0.960033
Si Si2 0.877882 0.882395 0.431171
Si Si3 0.984618 0.617728 0.847720
Si Si4 0.062875 0.275272 0.515442
Si Si5 0.956200 0.381063 0.313406
Si Si6 0.321604 0.116493 0.742454
Si Si7 0.380384 0.381808 0.305148
Si Si8 0.531071 0.749009 0.918051
O O1 0.353736 0.500000 0.975375
O O2 0.488860 0.634445 0.826734
O O3 0.395290 0.680771 0.986098
O O4 0.193743 0.637586 0.040226
O O5 0.939908 0.811737 0.437160
O O6 0.698112 0.862153 0.551461
O O7 0.934569 0.860105 0.331660
O O8 0.899292 0.000000 0.428151
O O9 0.005589 0.500000 0.838160
O O10 0.052323 0.653108 0.743995
O O11 0.049009 0.669483 0.858639
O O12 0.227451 0.322031 0.397713
O O13 0.000000 0.235587 0.500000
O O14 0.950302 0.360805 0.611614
O O15 0.969539 0.500000 0.301054
O O16 0.099682 0.350518 0.252833
O O17 0.176162 0.179375 0.825310
O O18 0.286605 0.000000 0.767725
O O19 0.345518 0.500000 0.327371
O O20 0.500000 0.789038 0.000000
#
# Coordination Sequence:
#
# PCOD9211742 Si02
#       8
#     8   8   8   8   8   8   8   8
#     4  10  22  41  66  94 126 164 209 268 323 375
#     4  10  22  41  64  92 124 169 219 264 309 365
#     4  10  23  43  67  93 124 168 218 265 315 374
#     4  12  25  37  59  94 130 172 207 252 315 379
#     4   9  19  39  67  91 119 163 216 266 312 366
#     4  11  24  42  64  93 129 165 208 261 322 381
#     4  10  21  40  65  93 126 163 211 265 317 374
#     4  12  26  41  62  96 129 170 211 261 321 383
#
# _framework density 22.001745
#
# number of rings (size 3 to 8) (size 9 to 14) (size 15 to 20)
#    0.000    1.500    1.250    3.000    3.500    5.500 
#    0.000    0.625    0.000    0.000    0.000    0.000 
#    0.000    0.000    0.000    0.000    0.000    0.000 
#
# Total GULP energy -179130.066963 kJ/mol
# GULP energy per Si atom -5597.814593 kJ/mol
# Density = 2.195167 g / cm^3
# Si number density = 22.001745 Si / 1000 Ang^3
#
#
#
# Elastic Constant Matrix: (Units=GPa)
#
#
# Indices 1 2 3 4 5 6 
#
# 1 156.6451 50.6191 27.9139 0.0005 18.1669 0.0001
# 2 50.6191 84.8111 11.6553 0.0024 -0.7147 0.0001
# 3 27.9139 11.6553 75.5972 0.0023 13.0341 0.0001
# 4 0.0005 0.0024 0.0023 25.5699 -0.0006 -1.8059
# 5 18.1669 -0.7147 13.0341 -0.0006 30.3300 -0.0001
# 6 0.0001 0.0001 0.0001 -1.8059 -0.0001 35.0486
#
#
#
# Elastic Compliance Matrix: (Units=1/GPa)
#
#
# Indices 1 2 3 4 5 6 
#
# 1 0.008881 -0.005110 -0.001678 0.000000 -0.004719 0.000000
# 2 -0.005110 0.015025 -0.001100 -0.000001 0.003887 0.000000
# 3 -0.001678 -0.001100 0.014957 -0.000001 -0.005448 0.000000
# 4 0.000000 -0.000001 -0.000001 0.039251 0.000001 0.002022
# 5 -0.004719 0.003887 -0.005448 0.000001 0.038230 0.000000
# 6 0.000000 0.000000 0.000000 0.002022 0.000000 0.028636
#
#
# Mechanical properties :
#
#
# Convention : Reuss Voigt Hill
#
# Bulk Modulus (GPa) = 43.31442 55.27003 49.29222
# Shear Modulus (GPa) = 29.68213 33.31404 31.49809
#
# Velocity S-wave (km/s) = 3.67697 3.89544 3.78778
# Velocity P-wave (km/s) = 6.14462 6.73853 6.44842
#
# Compressibility (1/GPa) = 0.02308700
#
# Stress axis : x y z
#
# Youngs Moduli (GPa) = 112.59443 66.55706 66.86051
#
# Poissons Ratio (x) = 0.34011 0.11219
# Poissons Ratio (y) = 0.57536 0.07354
# Poissons Ratio (z) = 0.18893 0.07320
#
# Static dielectric constant tensor:
#      x y z
#    x 1.794570 0.000000 0.030590 
#    y 0.000000 1.841810 0.000000 
#    z 0.030590 0.000000 1.798290 
# 
# From -- ./inp_files/344008.got.cif
#   From: 2010.05.17/outbox.cif.g08.bks.cpg/sg12_173_cif.got.tgz:344008.got - 2010.06.03 13:09:07.
