data_PCOD9211389
_publ_section_title
;
Structure prediction by ZEFSAII (Michael W. Deem and Ramdas Pophale) SiO2 
 PCOD9211389
Probable space group: C 2/M
;
_chemical_formula_sum "Si O2"
_cell_formula_units_Z 48
_cell_length_a 14.449575
_cell_length_b 27.114792
_cell_length_c 9.126501
_cell_angle_alpha 90.000000
_cell_angle_beta 139.648558
_cell_angle_gamma 90.000000
_cell_volume 2315.198163
_symmetry_space_group_name_H-M "C 2/M"
_symmetry_group_IT_number 12
_symmetry_cell_setting 'monoclinic'
loop_
_space_group_symop_operation_xyz
x,y,z
-x,y,-z
-x,-y,-z
x,-y,z
1/2+x,1/2+y,z
1/2-x,1/2+y,-z
1/2-x,1/2-y,-z
1/2+x,1/2-y,z
loop_
_atom_site_type_symbol
_atom_site_label
_atom_site_fract_x
_atom_site_fract_y
_atom_site_fract_z
Si Si1 0.443649 0.670891 0.716415
Si Si2 0.847081 0.097709 0.366298
Si Si3 0.547602 0.227611 0.400092
Si Si4 0.893949 0.554326 0.732299
Si Si5 0.226652 0.151337 0.217708
Si Si6 0.105911 0.626462 0.837571
O O1 0.392522 0.647401 0.504453
O O2 0.423088 0.729588 0.679890
O O3 0.363476 0.639527 0.746300
O O4 0.609780 0.665177 0.954697
O O5 0.758630 0.066364 0.379206
O O6 0.000000 0.075508 0.500000
O O7 0.733178 0.110525 0.101348
O O8 0.500000 0.249438 0.500000
O O9 0.685900 0.197381 0.615123
O O10 0.438219 0.184713 0.212462
O O11 0.893519 0.500000 0.662544
O O12 0.965251 0.595871 0.715764
O O13 0.000000 0.552978 0.000000
O O14 0.336324 0.118008 0.257948
#
# Coordination Sequence:
#
# PCOD9211389 Si02
#       6
#     8   8   8   8   8   8
#     4  11  22  36  55  85 126 166 203 246 297 350
#     4  11  21  37  63  92 124 156 195 250 302 356
#     4  10  22  35  57  83 121 169 210 246 286 353
#     4   9  20  39  64  93 119 149 196 251 309 367
#     4  10  22  37  54  82 120 165 201 250 291 350
#     4  10  21  40  62  88 120 160 203 252 297 352
#
# _framework density 20.732565999999998
#
# number of rings (size 3 to 8) (size 9 to 14) (size 15 to 20)
#    0.000    1.833    1.667    2.000    2.333    1.667 
#    6.000    0.000    0.000   12.500    0.000    5.833 
#    0.000    0.000    0.000    0.000    0.000    0.000 
#
# Total GULP energy -133607.316120 kJ/mol
# GULP energy per Si atom -5566.971505 kJ/mol
# Density = 2.068538 g / cm^3
# Si number density = 20.732566 Si / 1000 Ang^3
#
#
#
# Elastic Constant Matrix: (Units=GPa)
#
#
# Indices 1 2 3 4 5 6 
#
# 1 138.4190 35.5769 43.1761 0.0000 12.8973 0.0000
# 2 35.5769 59.3530 16.7042 0.0000 -5.8442 0.0000
# 3 43.1761 16.7042 82.5505 0.0000 11.8859 0.0000
# 4 0.0000 0.0000 0.0000 9.9546 0.0000 -3.2534
# 5 12.8973 -5.8442 11.8859 0.0000 37.2712 0.0000
# 6 0.0000 0.0000 0.0000 -3.2534 0.0000 5.1362
#
#
#
# Elastic Compliance Matrix: (Units=1/GPa)
#
#
# Indices 1 2 3 4 5 6 
#
# 1 0.010033 -0.005269 -0.003734 0.000000 -0.003107 0.000000
# 2 -0.005269 0.021265 -0.002400 0.000000 0.005923 0.000000
# 3 -0.003734 -0.002400 0.015115 0.000000 -0.003904 0.000000
# 4 0.000000 0.000000 0.000000 0.126681 0.000000 0.080242
# 5 -0.003107 0.005923 -0.003904 0.000000 0.030079 0.000000
# 6 0.000000 0.000000 0.000000 0.080242 0.000000 0.245522
#
#
# Mechanical properties :
#
#
# Convention : Reuss Voigt Hill
#
# Bulk Modulus (GPa) = 42.36052 52.35964 47.36008
# Shear Modulus (GPa) = 10.43036 22.79676 16.61356
#
# Velocity S-wave (km/s) = 2.24540 3.31956 2.83384
# Velocity P-wave (km/s) = 5.21523 6.32473 5.79659
#
# Compressibility (1/GPa) = 0.02360689
#
# Stress axis : x y z
#
# Youngs Moduli (GPa) = 99.67220 47.02491 66.16145
#
# Poissons Ratio (x) = 0.24777 0.24704
# Poissons Ratio (y) = 0.52517 0.15879
# Poissons Ratio (z) = 0.37217 0.11286
#
# Static dielectric constant tensor:
#      x y z
#    x 1.877710 0.000000 0.038210 
#    y 0.000000 1.732330 0.000000 
#    z 0.038210 0.000000 1.747770 
# 
# From -- ./inp_files/67427.got.cif
#   From: 2010.05.17/outbox.cif.g08.bks.cpg/sg12_34_cif.got.tgz:67427.got - 2010.06.03 13:09:07.
