data_PCOD9211616
_publ_section_title
;
Structure prediction by ZEFSAII (Michael W. Deem and Ramdas Pophale) SiO2 
 PCOD9211616
Probable space group: C 2/M
;
_chemical_formula_sum "Si O2"
_cell_formula_units_Z 48
_cell_length_a 9.472188
_cell_length_b 15.736001
_cell_length_c 18.262932
_cell_angle_alpha 90.000000
_cell_angle_beta 67.495906
_cell_angle_gamma 90.000000
_cell_volume 2514.882371
_symmetry_space_group_name_H-M "C 2/M"
_symmetry_group_IT_number 12
_symmetry_cell_setting 'monoclinic'
loop_
_space_group_symop_operation_xyz
x,y,z
-x,y,-z
-x,-y,-z
x,-y,z
1/2+x,1/2+y,z
1/2-x,1/2+y,-z
1/2-x,1/2-y,-z
1/2+x,1/2-y,z
loop_
_atom_site_type_symbol
_atom_site_label
_atom_site_fract_x
_atom_site_fract_y
_atom_site_fract_z
Si Si1 0.404309 0.834393 0.847573
Si Si2 0.577813 0.667792 0.845670
Si Si3 0.765205 0.000000 0.595070
Si Si4 0.570383 0.500000 0.066004
Si Si5 0.589271 0.000000 0.056712
Si Si6 0.094670 0.000000 0.594939
Si Si7 0.219317 0.165198 0.654495
Si Si8 0.449709 0.163897 0.344228
O O1 0.473394 0.750847 0.871046
O O2 0.222992 0.827207 0.870546
O O3 0.481095 0.840837 0.751858
O O4 0.437687 0.917647 0.887971
O O5 0.483812 0.583283 0.880725
O O6 0.645946 0.662980 0.750264
O O7 0.837177 0.000000 0.500069
O O8 0.658523 0.917284 0.624027
O O9 0.909636 0.000000 0.622560
O O10 0.500000 0.500000 0.000000
O O11 0.743701 0.500000 0.010109
O O12 0.500000 0.000000 0.000000
O O13 0.158295 0.916829 0.623587
O O14 0.402962 0.165657 0.630902
O O15 0.152436 0.250727 0.630861
#
# Coordination Sequence:
#
# PCOD9211616 Si02
#       8
#     8   8   4   4   4   4   8   8
#     4  10  22  42  62  87 118 152 198 246 291 351
#     4  10  22  40  64  88 115 155 197 243 296 349
#     4  11  24  40  60  90 125 163 197 242 296 349
#     4  12  23  41  59  82 121 160 191 241 302 354
#     4  12  27  41  55  86 121 156 199 243 296 354
#     4  11  24  40  60  90 127 159 199 243 292 354
#     4  10  21  40  64  92 120 155 202 248 293 354
#     4  10  21  40  66  90 119 157 200 247 298 350
#
# _framework density 19.086379999999998
#
# number of rings (size 3 to 8) (size 9 to 14) (size 15 to 20)
#    0.000    1.500    1.667    2.500    2.333    7.333 
#    3.000    0.000    0.000    0.000    0.000    0.000 
#    0.000    0.000    0.000    0.000    0.000    0.000 
#
# Total GULP energy -134053.234877 kJ/mol
# GULP energy per Si atom -5585.551453 kJ/mol
# Density = 1.904294 g / cm^3
# Si number density = 19.086380 Si / 1000 Ang^3
#
#
#
# Elastic Constant Matrix: (Units=GPa)
#
#
# Indices 1 2 3 4 5 6 
#
# 1 174.9613 102.4241 35.4821 0.0000 7.5949 0.0000
# 2 102.4241 223.8980 43.2132 0.0000 2.6002 0.0000
# 3 35.4821 43.2132 18.9211 0.0000 -0.2081 0.0000
# 4 0.0000 0.0000 0.0000 -70.4245 0.0000 0.1492
# 5 7.5949 2.6002 -0.2081 0.0000 31.7522 0.0000
# 6 0.0000 0.0000 0.0000 0.1492 0.0000 36.9915
#
#
#
# Elastic Compliance Matrix: (Units=1/GPa)
#
#
# Indices 1 2 3 4 5 6 
#
# 1 0.009708 -0.001602 -0.014570 0.000000 -0.002286 0.000000
# 2 -0.001602 0.008270 -0.015888 0.000000 -0.000398 0.000000
# 3 -0.014570 -0.015888 0.116522 0.000000 0.005550 0.000000
# 4 0.000000 0.000000 0.000000 -0.014199 0.000000 0.000057
# 5 -0.002286 -0.000398 0.005550 0.000000 0.032110 0.000000
# 6 0.000000 0.000000 0.000000 0.000057 0.000000 0.027033
#
#
# Mechanical properties :
#
#
# Convention : Reuss Voigt Hill
#
# Bulk Modulus (GPa) = 14.20887 86.66881 50.43884
# Shear Modulus (GPa) = 18.72484 15.44124 17.08304
#
# Velocity S-wave (km/s) = 3.13558 2.84741 2.99496
# Velocity P-wave (km/s) = 4.53540 7.50451 6.20030
#
# Compressibility (1/GPa) = 0.07037855
#
# Stress axis : x y z
#
# Youngs Moduli (GPa) = 103.01241 120.91369 8.58204
#
# Poissons Ratio (x) = 0.19372 0.12504
# Poissons Ratio (y) = 0.16504 0.13635
# Poissons Ratio (z) = 1.50094 1.92112
#
# Static dielectric constant tensor:
#      x y z
#    x 1.646300 0.000000 0.000820 
#    y 0.000000 1.628920 0.000000 
#    z 0.000820 0.000000 1.642730 
# 
# From -- ./inp_files/299803.got.cif
#   From: 2010.05.17/outbox.cif.g08.bks.cpg/sg12_150_cif.got.tgz:299803.got - 2010.06.03 13:09:07.
