data_PCOD9211230
_publ_section_title
;
Structure prediction by ZEFSAII (Michael W. Deem and Ramdas Pophale) SiO2 
 PCOD9211230
Probable space group: C 2/M
;
_chemical_formula_sum "Si O2"
_cell_formula_units_Z 42
_cell_length_a 10.253589
_cell_length_b 13.608219
_cell_length_c 13.416583
_cell_angle_alpha 90.000000
_cell_angle_beta 69.715963
_cell_angle_gamma 90.000000
_cell_volume 1755.962626
_symmetry_space_group_name_H-M "C 2/M"
_symmetry_group_IT_number 12
_symmetry_cell_setting 'monoclinic'
loop_
_space_group_symop_operation_xyz
x,y,z
-x,y,-z
-x,-y,-z
x,-y,z
1/2+x,1/2+y,z
1/2-x,1/2+y,-z
1/2-x,1/2-y,-z
1/2+x,1/2-y,z
loop_
_atom_site_type_symbol
_atom_site_label
_atom_site_fract_x
_atom_site_fract_y
_atom_site_fract_z
Si Si1 0.978248 0.612373 0.254128
Si Si2 0.906636 0.773524 0.927896
Si Si3 0.500000 0.500000 0.500000
Si Si4 0.311927 0.892908 0.615979
Si Si5 0.680002 0.318675 0.409547
Si Si6 0.014162 0.890263 0.273164
O O1 0.955454 0.500000 0.226088
O O2 0.833698 0.655470 0.332671
O O3 0.032127 0.682795 0.152338
O O4 0.090391 0.609085 0.313164
O O5 0.918421 0.866584 0.850512
O O6 0.750000 0.750000 0.000000
O O7 0.000000 0.789488 0.000000
O O8 0.617613 0.410545 0.486012
O O9 0.335637 0.793075 0.547674
O O10 0.151310 0.884937 0.693496
O O11 0.336791 0.000000 0.561826
O O12 0.585984 0.320011 0.333448
O O13 0.044895 0.000000 0.308060
#
# Coordination Sequence:
#
# PCOD9211230 Si02
#       6
#     8   8   2   8   8   8
#     4  11  22  41  68  94 135 184 222 274 347 393
#     4  12  24  37  62  99 138 175 234 278 317 400
#     4  12  28  40  78 110 124 164 242 292 322 412
#     4  10  21  39  71  95 125 181 222 258 341 413
#     4  12  21  45  69  99 131 173 227 279 341 407
#     4  11  22  41  68  93 133 183 218 271 352 397
#
# _framework density 23.918505
#
# number of rings (size 3 to 8) (size 9 to 14) (size 15 to 20)
#    0.000    0.762    5.714    2.286    0.000    1.524 
#    0.000    4.286    0.000    0.000    0.000    0.000 
#    0.000    0.000    0.000    0.000    0.000    0.000 
#
# Total GULP energy -117442.909497 kJ/mol
# GULP energy per Si atom -5592.519500 kJ/mol
# Density = 2.386407 g / cm^3
# Si number density = 23.918505 Si / 1000 Ang^3
#
#
#
# Elastic Constant Matrix: (Units=GPa)
#
#
# Indices 1 2 3 4 5 6 
#
# 1 122.5066 -4.9520 36.2688 0.0000 -25.1122 0.0000
# 2 -4.9520 217.7743 24.2771 0.0000 -5.4656 0.0000
# 3 36.2688 24.2771 109.3778 0.0000 -29.2190 0.0000
# 4 0.0000 0.0000 0.0000 51.4010 0.0000 9.2050
# 5 -25.1122 -5.4656 -29.2190 0.0000 54.2572 0.0000
# 6 0.0000 0.0000 0.0000 9.2050 0.0000 7.9528
#
#
#
# Elastic Compliance Matrix: (Units=1/GPa)
#
#
# Indices 1 2 3 4 5 6 
#
# 1 0.009560 0.000570 -0.002452 0.000000 0.003162 0.000000
# 2 0.000570 0.004743 -0.001219 0.000000 0.000085 0.000000
# 3 -0.002452 -0.001219 0.011552 0.000000 0.004964 0.000000
# 4 0.000000 0.000000 0.000000 0.024542 0.000000 -0.028406
# 5 0.003162 0.000085 0.004964 0.000000 0.022576 0.000000
# 6 0.000000 0.000000 0.000000 -0.028406 0.000000 0.158620
#
#
# Mechanical properties :
#
#
# Convention : Reuss Voigt Hill
#
# Bulk Modulus (GPa) = 50.88208 62.31626 56.59917
# Shear Modulus (GPa) = 20.46286 48.99317 34.72802
#
# Velocity S-wave (km/s) = 2.92811 4.53077 3.81455
# Velocity P-wave (km/s) = 5.72285 7.31304 6.56626
#
# Compressibility (1/GPa) = 0.01965328
#
# Stress axis : x y z
#
# Youngs Moduli (GPa) = 104.60398 210.84135 86.56381
#
# Poissons Ratio (x) = -0.12019 0.21225
# Poissons Ratio (y) = -0.05963 0.10552
# Poissons Ratio (z) = 0.25648 0.25702
#
# Static dielectric constant tensor:
#      x y z
#    x 1.926350 0.000000 -0.029900 
#    y 0.000000 1.950650 0.000000 
#    z -0.029900 0.000000 1.576840 
# 
# From -- ./inp_files/255693.got.cif
#   From: 2010.05.17/outbox.cif.g08.bks.cpg/sg12_128_cif.got.tgz:255693.got - 2010.06.03 13:09:07.
