data_PCOD9211974
_publ_section_title
;
Structure prediction by ZEFSAII (Michael W. Deem and Ramdas Pophale) SiO2 
 PCOD9211974
Probable space group: C 2/M
;
_chemical_formula_sum "Si O2"
_cell_formula_units_Z 48
_cell_length_a 29.674642
_cell_length_b 14.038299
_cell_length_c 14.962870
_cell_angle_alpha 90.000000
_cell_angle_beta 160.379373
_cell_angle_gamma 90.000000
_cell_volume 2093.068970
_symmetry_space_group_name_H-M "C 2/M"
_symmetry_group_IT_number 12
_symmetry_cell_setting 'monoclinic'
loop_
_space_group_symop_operation_xyz
x,y,z
-x,y,-z
-x,-y,-z
x,-y,z
1/2+x,1/2+y,z
1/2-x,1/2+y,-z
1/2-x,1/2-y,-z
1/2+x,1/2-y,z
loop_
_atom_site_type_symbol
_atom_site_label
_atom_site_fract_x
_atom_site_fract_y
_atom_site_fract_z
Si Si1 0.119701 0.113861 0.153853
Si Si2 0.292239 0.686875 0.856074
Si Si3 0.984714 0.602190 0.646912
Si Si4 0.274361 0.892800 0.773521
Si Si5 0.103661 0.777574 0.764986
Si Si6 0.849794 0.613549 0.712094
O O1 0.108183 0.170751 0.040304
O O2 0.254567 0.149236 0.455599
O O3 0.873147 0.000000 0.851119
O O4 0.000000 0.126330 0.000000
O O5 0.168320 0.616811 0.613855
O O6 0.227459 0.793964 0.731159
O O7 0.364904 0.667057 0.085031
O O8 0.007556 0.500000 0.647058
O O9 0.031855 0.682349 0.666906
O O10 0.074673 0.605446 0.904147
O O11 0.278460 0.879334 0.675097
O O12 0.218116 0.000000 0.687683
O O13 0.000000 0.821247 0.500000
O O14 0.250000 0.750000 0.000000
O O15 0.862746 0.500000 0.718924
O O16 0.000000 0.653288 0.000000
#
# Coordination Sequence:
#
# PCOD9211974 Si02
#       6
#     8   8   8   8   8   8
#     4  10  22  39  58  90 137 182 222 276 343 401
#     4  11  22  38  68  96 131 177 233 278 337 404
#     4  10  21  40  69 100 131 178 232 273 330 412
#     4   9  20  36  57  91 129 168 218 275 331 388
#     4  11  23  45  69 101 136 176 219 285 349 408
#     4   9  17  32  55  81 118 165 219 272 314 379
#
# _framework density 22.932832999999999
#
# number of rings (size 3 to 8) (size 9 to 14) (size 15 to 20)
#    0.000    2.000    1.667    1.500    0.000    7.000 
#    0.000    0.000    0.000    8.500    0.000    0.000 
#    0.000    0.000    0.000    0.000    0.000    0.000 
#
# Total GULP energy -134049.116549 kJ/mol
# GULP energy per Si atom -5585.379856 kJ/mol
# Density = 2.288064 g / cm^3
# Si number density = 22.932833 Si / 1000 Ang^3
#
#
#
# Elastic Constant Matrix: (Units=GPa)
#
#
# Indices 1 2 3 4 5 6 
#
# 1 112.2384 2.8479 42.9596 0.0000 -18.3023 0.0000
# 2 2.8479 73.3432 0.0936 0.0000 -5.2171 0.0000
# 3 42.9596 0.0936 81.0313 0.0000 -14.6840 0.0000
# 4 0.0000 0.0000 0.0000 13.4301 0.0000 -4.8276
# 5 -18.3023 -5.2171 -14.6840 0.0000 41.3616 0.0000
# 6 0.0000 0.0000 0.0000 -4.8276 0.0000 7.5782
#
#
#
# Elastic Compliance Matrix: (Units=1/GPa)
#
#
# Indices 1 2 3 4 5 6 
#
# 1 0.011550 -0.000220 -0.005560 0.000000 0.003109 0.000000
# 2 -0.000220 0.013770 0.000425 0.000000 0.001790 0.000000
# 3 -0.005560 0.000425 0.015873 0.000000 0.003229 0.000000
# 4 0.000000 0.000000 0.000000 0.096574 0.000000 0.061521
# 5 0.003109 0.001790 0.003229 0.000000 0.026925 0.000000
# 6 0.000000 0.000000 0.000000 0.061521 0.000000 0.171148
#
#
# Mechanical properties :
#
#
# Convention : Reuss Voigt Hill
#
# Bulk Modulus (GPa) = 32.80433 39.82390 36.31411
# Shear Modulus (GPa) = 14.01695 27.18812 20.60253
#
# Velocity S-wave (km/s) = 2.47496 3.44692 3.00056
# Velocity P-wave (km/s) = 4.74372 5.76584 5.27957
#
# Compressibility (1/GPa) = 0.03048378
#
# Stress axis : x y z
#
# Youngs Moduli (GPa) = 86.57835 72.62226 62.99981
#
# Poissons Ratio (x) = 0.01599 0.35026
# Poissons Ratio (y) = 0.01907 -0.02679
# Poissons Ratio (z) = 0.48136 -0.03089
#
# Static dielectric constant tensor:
#      x y z
#    x 1.868260 0.000000 -0.016960 
#    y 0.000000 1.917030 0.000000 
#    z -0.016960 0.000000 1.869970 
# 
# From -- ./inp_files/251508.got.cif
#   From: 2010.05.17/outbox.cif.g08.bks.cpg/sg12_126_cif.got.tgz:251508.got - 2010.06.03 13:09:07.
