data_PCOD9211190
_publ_section_title
;
Structure prediction by ZEFSAII (Michael W. Deem and Ramdas Pophale) SiO2 
 PCOD9211190
Probable space group: C 2/M
;
_chemical_formula_sum "Si O2"
_cell_formula_units_Z 56
_cell_length_a 12.184876
_cell_length_b 25.698923
_cell_length_c 9.423949
_cell_angle_alpha 90.000000
_cell_angle_beta 120.162076
_cell_angle_gamma 90.000000
_cell_volume 2551.455471
_symmetry_space_group_name_H-M "C 2/M"
_symmetry_group_IT_number 12
_symmetry_cell_setting 'monoclinic'
loop_
_space_group_symop_operation_xyz
x,y,z
-x,y,-z
-x,-y,-z
x,-y,z
1/2+x,1/2+y,z
1/2-x,1/2+y,-z
1/2-x,1/2-y,-z
1/2+x,1/2-y,z
loop_
_atom_site_type_symbol
_atom_site_label
_atom_site_fract_x
_atom_site_fract_y
_atom_site_fract_z
Si Si1 0.855963 0.311315 0.208989
Si Si2 0.764824 0.669357 0.466009
Si Si3 0.074713 0.671925 0.179286
Si Si4 0.359464 0.561085 0.941393
Si Si5 0.722484 0.631377 0.884657
Si Si6 0.650636 0.938366 0.562026
Si Si7 0.515568 0.705350 0.670027
O O1 0.828037 0.316707 0.356133
O O2 0.968885 0.347497 0.220698
O O3 0.912012 0.254143 0.212802
O O4 0.743426 0.329428 0.033382
O O5 0.825636 0.697420 0.644868
O O6 0.797002 0.607654 0.506538
O O7 0.618561 0.685384 0.359588
O O8 0.156648 0.632253 0.138715
O O9 0.000000 0.700725 0.000000
O O10 0.373968 0.500000 0.946130
O O11 0.245132 0.572167 0.757339
O O12 0.500000 0.584644 0.000000
O O13 0.314635 0.578475 0.066454
O O14 0.607624 0.656170 0.725546
O O15 0.500000 0.931759 0.500000
O O16 0.666437 0.000000 0.531883
O O17 0.500000 0.723803 0.500000
#
# Coordination Sequence:
#
# PCOD9211190 Si02
#       7
#     8   8   8   8   8   8   8
#     4  11  25  42  68  94 126 178 233 277 326 402
#     4  12  23  43  71  93 133 178 230 282 336 409
#     4  10  23  41  62  90 134 172 213 278 343 391
#     4  10  21  41  71 105 136 174 229 285 342 415
#     4  11  23  44  64  97 138 176 215 280 348 399
#     4  10  21  39  68 103 132 168 229 288 337 399
#     4  12  26  42  65  97 137 179 226 281 341 404
#
# _framework density 21.948257999999999
#
# number of rings (size 3 to 8) (size 9 to 14) (size 15 to 20)
#    0.000    1.143    2.857    3.429    4.000    1.143 
#    2.571    0.714    0.000    6.000    0.000    0.000 
#    0.000    0.000    0.000    0.000    0.000    0.000 
#
# Total GULP energy -155970.667999 kJ/mol
# GULP energy per Si atom -5570.381000 kJ/mol
# Density = 2.189830 g / cm^3
# Si number density = 21.948258 Si / 1000 Ang^3
#
#
#
# Elastic Constant Matrix: (Units=GPa)
#
#
# Indices 1 2 3 4 5 6 
#
# 1 126.8545 7.7685 35.7319 0.0000 -4.5904 0.0000
# 2 7.7685 54.1464 5.0927 0.0000 12.3655 0.0000
# 3 35.7319 5.0927 40.6496 0.0000 -12.9781 0.0000
# 4 0.0000 0.0000 0.0000 22.5717 0.0000 -1.5705
# 5 -4.5904 12.3655 -12.9781 0.0000 39.4186 0.0000
# 6 0.0000 0.0000 0.0000 -1.5705 0.0000 26.8356
#
#
#
# Elastic Compliance Matrix: (Units=1/GPa)
#
#
# Indices 1 2 3 4 5 6 
#
# 1 0.010625 -0.000130 -0.009962 0.000000 -0.002002 0.000000
# 2 -0.000130 0.020853 -0.005131 0.000000 -0.008246 0.000000
# 3 -0.009962 -0.005131 0.038154 0.000000 0.013011 0.000000
# 4 0.000000 0.000000 0.000000 0.044484 0.000000 0.002603
# 5 -0.002002 -0.008246 0.013011 0.000000 0.032006 0.000000
# 6 0.000000 0.000000 0.000000 0.002603 0.000000 0.037416
#
#
# Mechanical properties :
#
#
# Convention : Reuss Voigt Hill
#
# Bulk Modulus (GPa) = 25.51950 35.42631 30.47291
# Shear Modulus (GPa) = 22.02193 29.30235 25.66214
#
# Velocity S-wave (km/s) = 3.17102 3.65782 3.42308
# Velocity P-wave (km/s) = 5.00595 5.83227 5.43484
#
# Compressibility (1/GPa) = 0.03918573
#
# Stress axis : x y z
#
# Youngs Moduli (GPa) = 94.12046 47.95518 26.20936
#
# Poissons Ratio (x) = 0.00624 0.26110
# Poissons Ratio (y) = 0.01226 0.13447
# Poissons Ratio (z) = 0.93764 0.24604
#
# Static dielectric constant tensor:
#      x y z
#    x 1.843370 0.000000 0.061160 
#    y 0.000000 1.845860 0.000000 
#    z 0.061160 0.000000 1.894940 
# 
# From -- ./inp_files/54822.got.cif
#   From: 2010.05.17/outbox.cif.g08.bks.cpg/sg12_28_cif.got.tgz:54822.got - 2010.06.03 13:09:07.
