data_PCOD9211785
_publ_section_title
;
Structure prediction by ZEFSAII (Michael W. Deem and Ramdas Pophale) SiO2 
 PCOD9211785
Probable space group: C 2/M
;
_chemical_formula_sum "Si O2"
_cell_formula_units_Z 42
_cell_length_a 22.059077
_cell_length_b 13.244696
_cell_length_c 7.500555
_cell_angle_alpha 90.000000
_cell_angle_beta 106.276114
_cell_angle_gamma 90.000000
_cell_volume 2103.578745
_symmetry_space_group_name_H-M "C 2/M"
_symmetry_group_IT_number 12
_symmetry_cell_setting 'monoclinic'
loop_
_space_group_symop_operation_xyz
x,y,z
-x,y,-z
-x,-y,-z
x,-y,z
1/2+x,1/2+y,z
1/2-x,1/2+y,-z
1/2-x,1/2-y,-z
1/2+x,1/2-y,z
loop_
_atom_site_type_symbol
_atom_site_label
_atom_site_fract_x
_atom_site_fract_y
_atom_site_fract_z
Si Si1 0.425370 0.888592 0.461569
Si Si2 0.687461 0.710207 0.046522
Si Si3 0.387808 0.666176 0.342327
Si Si4 0.000000 0.000000 0.500000
Si Si5 0.283359 0.619471 0.548735
Si Si6 0.849060 0.616482 0.749235
O O1 0.500000 0.893385 0.500000
O O2 0.404366 0.785467 0.350633
O O3 0.404942 0.877136 0.651665
O O4 0.398889 0.000000 0.383500
O O5 0.707441 0.651906 0.240777
O O6 0.647502 0.805636 0.086888
O O7 0.750000 0.750000 0.000000
O O8 0.647853 0.645346 0.873018
O O9 0.445588 0.589830 0.421228
O O10 0.338610 0.656441 0.464383
O O11 0.286365 0.500000 0.545390
O O12 0.214984 0.645953 0.411284
O O13 0.843330 0.500000 0.803072
#
# Coordination Sequence:
#
# PCOD9211785 Si02
#       6
#     8   8   8   2   8   8
#     4  10  21  41  68  94 127 182 232 281 358 419
#     4  12  24  38  70 105 136 176 239 294 353 414
#     4  12  24  44  71  97 141 189 236 294 345 429
#     4  12  28  48  68 104 148 198 234 286 356 426
#     4  11  23  41  66  98 141 183 229 293 362 417
#     4  10  21  40  66 100 141 175 224 298 366 420
#
# _framework density 19.965976000000001
#
# number of rings (size 3 to 8) (size 9 to 14) (size 15 to 20)
#    0.000    0.952    5.714    1.714    1.333    1.524 
#    0.000    4.762    0.000    3.429    0.000    0.000 
#    0.000    0.000    0.000    0.000    0.000    0.000 
#
# Total GULP energy -116988.395839 kJ/mol
# GULP energy per Si atom -5570.875992 kJ/mol
# Density = 1.992053 g / cm^3
# Si number density = 19.965976 Si / 1000 Ang^3
#
#
#
# Elastic Constant Matrix: (Units=GPa)
#
#
# Indices 1 2 3 4 5 6 
#
# 1 135.2980 38.4130 56.0028 0.0000 -11.1460 0.0000
# 2 38.4130 109.0073 39.3871 0.0000 1.3663 0.0000
# 3 56.0028 39.3871 103.4530 0.0000 -2.7922 0.0000
# 4 0.0000 0.0000 0.0000 7.9082 0.0000 2.8246
# 5 -11.1460 1.3663 -2.7922 0.0000 6.3468 0.0000
# 6 0.0000 0.0000 0.0000 2.8246 0.0000 35.6805
#
#
#
# Elastic Compliance Matrix: (Units=1/GPa)
#
#
# Indices 1 2 3 4 5 6 
#
# 1 0.011693 -0.002616 -0.004822 0.000000 0.018976 0.000000
# 2 -0.002616 0.011330 -0.003124 0.000000 -0.008408 0.000000
# 3 -0.004822 -0.003124 0.013415 0.000000 -0.001893 0.000000
# 4 0.000000 0.000000 0.000000 0.130130 0.000000 -0.010302
# 5 0.018976 -0.008408 -0.001893 0.000000 0.191861 0.000000
# 6 0.000000 0.000000 0.000000 -0.010302 0.000000 0.028842
#
#
# Mechanical properties :
#
#
# Convention : Reuss Voigt Hill
#
# Bulk Modulus (GPa) = 65.30192 68.37379 66.83786
# Shear Modulus (GPa) = 12.09191 24.25079 18.17135
#
# Velocity S-wave (km/s) = 2.46362 3.48890 3.02009
# Velocity P-wave (km/s) = 6.39298 7.10981 6.76090
#
# Compressibility (1/GPa) = 0.01531349
#
# Stress axis : x y z
#
# Youngs Moduli (GPa) = 85.52187 88.26229 74.54509
#
# Poissons Ratio (x) = 0.23091 0.35942
# Poissons Ratio (y) = 0.22374 0.23290
# Poissons Ratio (z) = 0.41235 0.27576
#
# Static dielectric constant tensor:
#      x y z
#    x 1.695340 0.000000 0.028130 
#    y 0.000000 1.786680 0.000000 
#    z 0.028130 0.000000 1.697690 
# 
# From -- ./inp_files/24337.got.cif
#   From: 2010.05.17/outbox.cif.g08.bks.cpg/sg12_13_cif.got.tgz:24337.got - 2010.06.03 13:09:07.
