data_PCOD9211947
_publ_section_title
;
Structure prediction by ZEFSAII (Michael W. Deem and Ramdas Pophale) SiO2 
 PCOD9211947
Probable space group: C 2/M
;
_chemical_formula_sum "Si O2"
_cell_formula_units_Z 50
_cell_length_a 18.749577
_cell_length_b 15.815795
_cell_length_c 9.127430
_cell_angle_alpha 90.000000
_cell_angle_beta 63.396399
_cell_angle_gamma 90.000000
_cell_volume 2420.080329
_symmetry_space_group_name_H-M "C 2/M"
_symmetry_group_IT_number 12
_symmetry_cell_setting 'monoclinic'
loop_
_space_group_symop_operation_xyz
x,y,z
-x,y,-z
-x,-y,-z
x,-y,z
1/2+x,1/2+y,z
1/2-x,1/2+y,-z
1/2-x,1/2-y,-z
1/2+x,1/2-y,z
loop_
_atom_site_type_symbol
_atom_site_label
_atom_site_fract_x
_atom_site_fract_y
_atom_site_fract_z
Si Si1 0.765882 0.102430 0.299192
Si Si2 0.081722 0.157062 0.349169
Si Si3 0.576141 0.397932 0.017619
Si Si4 0.000000 0.500000 0.500000
Si Si5 0.409740 0.896939 0.032478
Si Si6 0.252332 0.397806 0.649484
Si Si7 0.889358 0.348952 0.716341
O O1 0.756711 0.129481 0.475965
O O2 0.700285 0.143211 0.256608
O O3 0.758097 0.000000 0.302487
O O4 0.849504 0.125322 0.151223
O O5 0.082017 0.132676 0.178065
O O6 0.165807 0.128626 0.344338
O O7 0.079617 0.258062 0.358529
O O8 0.000000 0.123114 0.500000
O O9 0.572225 0.500000 0.027981
O O10 0.500000 0.365426 0.000000
O O11 0.064484 0.425994 0.400064
O O12 0.332948 0.871082 0.201358
O O13 0.408868 0.000000 0.026286
O O14 0.500000 0.873894 0.000000
O O15 0.396566 0.860976 0.883264
O O16 0.251383 0.500000 0.652957
#
# Coordination Sequence:
#
# PCOD9211947 Si02
#       7
#     8   8   8   2   8   8   8
#     4  10  21  40  68  93 124 170 216 256 311 386
#     4  12  26  41  62  96 131 167 214 271 327 376
#     4  10  22  42  68  94 128 173 216 254 312 389
#     4  12  24  44  70  92 120 172 218 264 316 408
#     4  10  22  39  65  95 128 168 216 267 321 377
#     4  10  23  41  65  97 132 169 214 266 322 383
#     4  12  25  41  67  91 128 166 216 267 324 384
#
# _framework density 20.660471000000001
#
# number of rings (size 3 to 8) (size 9 to 14) (size 15 to 20)
#    0.000    1.280    2.400    2.400    2.240    8.960 
#    0.000    0.000    0.000    0.000    0.000    0.000 
#    0.000    0.000    0.000    0.000    0.000    0.000 
#
# Total GULP energy -139428.883984 kJ/mol
# GULP energy per Si atom -5577.155359 kJ/mol
# Density = 2.061345 g / cm^3
# Si number density = 20.660471 Si / 1000 Ang^3
#
#
#
# Elastic Constant Matrix: (Units=GPa)
#
#
# Indices 1 2 3 4 5 6 
#
# 1 222.1169 2.4514 -92.8407 0.0000 -41.0931 0.0000
# 2 2.4514 169.2272 1279.3969 0.0000 222.4786 0.0000
# 3 -92.8407 1279.396912461.8516 0.0000 2263.9252 0.0000
# 4 0.0000 0.0000 0.0000 143.6801 0.0000 -61.3177
# 5 -41.0931 222.4786 2263.9252 0.0000 464.3073 0.0000
# 6 0.0000 0.0000 0.0000 -61.3177 0.0000 2.1246
#
#
#
# Elastic Compliance Matrix: (Units=1/GPa)
#
#
# Indices 1 2 3 4 5 6 
#
# 1 0.004789 -0.000989 -0.000227 0.000000 0.002002 0.000000
# 2 -0.000989 0.027973 -0.003750 0.000000 0.004796 0.000000
# 3 -0.000227 -0.003750 0.001233 0.000000 -0.004233 0.000000
# 4 0.000000 0.000000 0.000000 -0.000615 0.000000 -0.017750
# 5 0.002002 0.004796 -0.004233 0.000000 0.020674 0.000000
# 6 0.000000 0.000000 0.000000 -0.017750 0.000000 -0.041591
#
#
# Mechanical properties :
#
#
# Convention : Reuss Voigt Hill
#
# Bulk Modulus (GPa) = 41.55881 1692.35676 866.95779
# Shear Modulus (GPa) = 164.38790 899.63496 532.01143
#
# Velocity S-wave (km/s) = 8.92968 20.88978 16.06428
# Velocity P-wave (km/s) = 11.24623 37.45331 27.65165
#
# Compressibility (1/GPa) = 0.02406228
#
# Stress axis : x y z
#
# Youngs Moduli (GPa) = 208.81956 35.74862 811.25308
#
# Poissons Ratio (x) = 0.03536 0.18381
# Poissons Ratio (y) = 0.20654 3.04260
# Poissons Ratio (z) = 0.04731 0.13408
#
# Static dielectric constant tensor:
#      x y z
#    x 1.602940 0.000000 0.052780 
#    y 0.000000 1.747540 0.000000 
#    z 0.052780 0.000000 1.665610 
# 
# From -- ./inp_files/75772.got.cif
#   From: 2010.05.17/outbox.cif.g08.bks.cpg/sg12_38_cif.got.tgz:75772.got - 2010.06.03 13:09:07.
