data_PCOD9211179
_publ_section_title
;
Structure prediction by ZEFSAII (Michael W. Deem and Ramdas Pophale) SiO2 
 PCOD9211179
Probable space group: C 2/M
;
_chemical_formula_sum "Si O2"
_cell_formula_units_Z 52
_cell_length_a 10.439515
_cell_length_b 22.883184
_cell_length_c 10.839551
_cell_angle_alpha 90.000000
_cell_angle_beta 115.232184
_cell_angle_gamma 90.000000
_cell_volume 2342.387636
_symmetry_space_group_name_H-M "C 2/M"
_symmetry_group_IT_number 12
_symmetry_cell_setting 'monoclinic'
loop_
_space_group_symop_operation_xyz
x,y,z
-x,y,-z
-x,-y,-z
x,-y,z
1/2+x,1/2+y,z
1/2-x,1/2+y,-z
1/2-x,1/2-y,-z
1/2+x,1/2-y,z
loop_
_atom_site_type_symbol
_atom_site_label
_atom_site_fract_x
_atom_site_fract_y
_atom_site_fract_z
Si Si1 0.090805 0.000000 0.808587
Si Si2 0.270493 0.096267 0.298150
Si Si3 0.645330 0.000000 0.231918
Si Si4 0.859225 0.695916 0.026304
Si Si5 0.629827 0.390370 0.984630
Si Si6 0.837805 0.696257 0.483151
Si Si7 0.330680 0.500000 0.556882
Si Si8 0.470385 0.884144 0.721834
O O1 0.255372 0.000000 0.845095
O O2 0.064723 0.942185 0.877511
O O3 0.000375 0.000000 0.645426
O O4 0.255896 0.162993 0.339234
O O5 0.213502 0.055187 0.379469
O O6 0.436655 0.087070 0.347268
O O7 0.211599 0.084912 0.137456
O O8 0.565969 0.937795 0.204356
O O9 0.744294 0.000000 0.395465
O O10 0.935222 0.666746 0.176489
O O11 0.750000 0.750000 0.000000
O O12 0.741431 0.645682 0.947724
O O13 0.000000 0.706381 0.000000
O O14 0.500000 0.356466 0.000000
O O15 0.750000 0.750000 0.500000
O O16 0.848261 0.650291 0.600922
O O17 0.000000 0.708835 0.500000
#
# Coordination Sequence:
#
# PCOD9211179 Si02
#       8
#     4   8   4   8   8   8   4   8
#     4  12  25  41  61 103 144 176 230 278 354 411
#     4  10  21  39  67  98 124 173 233 280 336 404
#     4  12  24  42  65 100 143 181 221 288 353 424
#     4  11  25  44  66  97 132 177 229 279 341 409
#     4  11  22  42  69  95 137 183 229 284 335 410
#     4  10  22  42  63  96 131 170 226 282 340 407
#     4  12  21  40  67  96 138 171 226 279 346 412
#     4  10  23  42  66  96 131 173 227 280 347 404
#
# _framework density 22.199572
#
# number of rings (size 3 to 8) (size 9 to 14) (size 15 to 20)
#    0.000    1.231    3.077    2.769    0.000    7.385 
#    2.769    3.846    0.000    0.000    0.000    0.000 
#    0.000    0.000    0.000    0.000    0.000    0.000 
#
# Total GULP energy -144755.732273 kJ/mol
# GULP energy per Si atom -5567.528164 kJ/mol
# Density = 2.214904 g / cm^3
# Si number density = 22.199572 Si / 1000 Ang^3
#
#
#
# Elastic Constant Matrix: (Units=GPa)
#
#
# Indices 1 2 3 4 5 6 
#
# 1 136.2151 53.9403 -10.2491 0.0000 -7.6126 0.0000
# 2 53.9403 107.7860 14.5403 0.0000 2.9353 0.0000
# 3 -10.2491 14.5403 73.4034 0.0000 10.6912 0.0000
# 4 0.0000 0.0000 0.0000 20.0833 0.0000 7.8229
# 5 -7.6126 2.9353 10.6912 0.0000 25.2311 0.0000
# 6 0.0000 0.0000 0.0000 7.8229 0.0000 33.5239
#
#
#
# Elastic Compliance Matrix: (Units=1/GPa)
#
#
# Indices 1 2 3 4 5 6 
#
# 1 0.009699 -0.005196 0.001992 0.000000 0.002687 0.000000
# 2 -0.005196 0.012318 -0.002908 0.000000 -0.001768 0.000000
# 3 0.001992 -0.002908 0.015284 0.000000 -0.005537 0.000000
# 4 0.000000 0.000000 0.000000 0.054771 0.000000 -0.012781
# 5 0.002687 -0.001768 -0.005537 0.000000 0.042996 0.000000
# 6 0.000000 0.000000 0.000000 -0.012781 0.000000 0.032812
#
#
# Mechanical properties :
#
#
# Convention : Reuss Voigt Hill
#
# Bulk Modulus (GPa) = 39.87545 48.20750 44.04148
# Shear Modulus (GPa) = 26.53054 33.04586 29.78820
#
# Velocity S-wave (km/s) = 3.46076 3.86240 3.66708
# Velocity P-wave (km/s) = 5.82841 6.45395 6.14914
#
# Compressibility (1/GPa) = 0.02507809
#
# Stress axis : x y z
#
# Youngs Moduli (GPa) = 103.10594 81.18112 65.42805
#
# Poissons Ratio (x) = 0.42178 -0.13034
# Poissons Ratio (y) = 0.53569 0.19026
# Poissons Ratio (z) = -0.20539 0.23607
#
# Static dielectric constant tensor:
#      x y z
#    x 1.893640 0.000000 0.036390 
#    y 0.000000 1.925510 0.000000 
#    z 0.036390 0.000000 1.875620 
# 
# From -- ./inp_files/134069.got.cif
#   From: 2010.05.17/outbox.cif.g08.bks.cpg/sg12_68_cif.got.tgz:134069.got - 2010.06.03 13:09:07.
