data_PCOD9211828
_publ_section_title
;
Structure prediction by ZEFSAII (Michael W. Deem and Ramdas Pophale) SiO2 
 PCOD9211828
Probable space group: C 2/M
;
_chemical_formula_sum "Si O2"
_cell_formula_units_Z 48
_cell_length_a 14.431005
_cell_length_b 9.183833
_cell_length_c 23.660672
_cell_angle_alpha 90.000000
_cell_angle_beta 42.573097
_cell_angle_gamma 90.000000
_cell_volume 2121.460056
_symmetry_space_group_name_H-M "C 2/M"
_symmetry_group_IT_number 12
_symmetry_cell_setting 'monoclinic'
loop_
_space_group_symop_operation_xyz
x,y,z
-x,y,-z
-x,-y,-z
x,-y,z
1/2+x,1/2+y,z
1/2-x,1/2+y,-z
1/2-x,1/2-y,-z
1/2+x,1/2-y,z
loop_
_atom_site_type_symbol
_atom_site_label
_atom_site_fract_x
_atom_site_fract_y
_atom_site_fract_z
Si Si1 0.259341 0.835012 0.120851
Si Si2 0.014844 0.220566 0.054063
Si Si3 0.510355 0.667432 0.808795
Si Si4 0.957385 0.328907 0.376314
Si Si5 0.210252 0.329976 0.430854
Si Si6 0.201090 0.173849 0.322680
O O1 0.361616 0.785956 0.124010
O O2 0.114495 0.764188 0.171288
O O3 0.224909 0.000000 0.147538
O O4 0.360295 0.824749 0.020623
O O5 0.041692 0.158238 0.102829
O O6 0.000000 0.139002 0.000000
O O7 0.542514 0.500000 0.777846
O O8 0.644649 0.765138 0.748186
O O9 0.967878 0.500000 0.355289
O O10 0.879067 0.323652 0.472052
O O11 0.859942 0.234581 0.379306
O O12 0.102975 0.252903 0.321415
O O13 0.213792 0.500000 0.412254
O O14 0.153749 0.230818 0.405846
O O15 0.193872 0.000000 0.321091
#
# Coordination Sequence:
#
# PCOD9211828 Si02
#       6
#     8   8   8   8   8   8
#     4   8  17  34  58  82 110 147 187 235 294 358
#     4   8  18  34  60  86 109 140 196 242 299 358
#     4  11  22  38  57  83 118 155 193 245 305 360
#     4  10  21  40  67  94 121 156 201 248 297 358
#     4  10  21  40  66  94 122 157 198 246 301 358
#     4  12  26  40  57  86 124 166 207 250 300 355
#
# _framework density 22.625926
#
# number of rings (size 3 to 8) (size 9 to 14) (size 15 to 20)
#    1.000    1.000    0.000    4.500    0.000    7.000 
#    0.000    5.000    0.000    0.000    0.000    0.000 
#    0.000    0.000    0.000    0.000    0.000    0.000 
#
# Total GULP energy -133690.101143 kJ/mol
# GULP energy per Si atom -5570.420881 kJ/mol
# Density = 2.257443 g / cm^3
# Si number density = 22.625926 Si / 1000 Ang^3
#
#
#
# Elastic Constant Matrix: (Units=GPa)
#
#
# Indices 1 2 3 4 5 6 
#
# 1 89.8113 24.3346 30.6019 0.0000 -41.4452 0.0000
# 2 24.3346 123.6304 7.2852 0.0000 -24.6400 0.0001
# 3 30.6019 7.2852 62.8580 0.0000 -17.4273 0.0000
# 4 0.0000 0.0000 0.0000 23.0488 0.0000 -4.0671
# 5 -41.4452 -24.6400 -17.4273 0.0000 54.9901 0.0000
# 6 0.0000 0.0001 0.0000 -4.0671 0.0000 23.2253
#
#
#
# Elastic Compliance Matrix: (Units=1/GPa)
#
#
# Indices 1 2 3 4 5 6 
#
# 1 0.018889 -0.000994 -0.005764 0.000000 0.011964 0.000000
# 2 -0.000994 0.008934 0.000384 0.000000 0.003376 0.000000
# 3 -0.005764 0.000384 0.019201 0.000000 0.001913 0.000000
# 4 0.000000 0.000000 0.000000 0.044770 0.000000 0.007840
# 5 0.011964 0.003376 0.001913 0.000000 0.029321 0.000000
# 6 0.000000 0.000000 0.000000 0.007840 0.000000 0.044429
#
#
# Mechanical properties :
#
#
# Convention : Reuss Voigt Hill
#
# Bulk Modulus (GPa) = 29.17332 44.52703 36.85017
# Shear Modulus (GPa) = 26.35512 34.52471 30.43992
#
# Velocity S-wave (km/s) = 3.41665 3.91050 3.67189
# Velocity P-wave (km/s) = 5.33726 6.33338 5.85654
#
# Compressibility (1/GPa) = 0.03427790
#
# Stress axis : x y z
#
# Youngs Moduli (GPa) = 52.94166 111.92614 52.08129
#
# Poissons Ratio (x) = 0.11123 0.30017
# Poissons Ratio (y) = 0.05261 -0.02002
# Poissons Ratio (z) = 0.30513 -0.04302
#
# Static dielectric constant tensor:
#      x y z
#    x 1.950870 0.000000 -0.023670 
#    y 0.000000 1.796690 0.000000 
#    z -0.023670 0.000000 1.936410 
# 
# From -- ./inp_files/360219.got.cif
#   From: 2010.05.17/outbox.cif.g08.bks.cpg/sg12_181_cif.got.tgz:360219.got - 2010.06.03 13:09:07.
