data_PCOD9211642
_publ_section_title
;
Structure prediction by ZEFSAII (Michael W. Deem and Ramdas Pophale) SiO2 
 PCOD9211642
Probable space group: C 2/M
;
_chemical_formula_sum "Si O2"
_cell_formula_units_Z 48
_cell_length_a 19.397536
_cell_length_b 11.573683
_cell_length_c 14.369984
_cell_angle_alpha 90.000000
_cell_angle_beta 136.528143
_cell_angle_gamma 90.000000
_cell_volume 2219.533654
_symmetry_space_group_name_H-M "C 2/M"
_symmetry_group_IT_number 12
_symmetry_cell_setting 'monoclinic'
loop_
_space_group_symop_operation_xyz
x,y,z
-x,y,-z
-x,-y,-z
x,-y,z
1/2+x,1/2+y,z
1/2-x,1/2+y,-z
1/2-x,1/2-y,-z
1/2+x,1/2-y,z
loop_
_atom_site_type_symbol
_atom_site_label
_atom_site_fract_x
_atom_site_fract_y
_atom_site_fract_z
Si Si1 0.939080 0.797106 0.848900
Si Si2 0.405969 0.233326 0.474194
Si Si3 0.245313 0.872923 0.945355
Si Si4 0.483698 0.370408 0.261085
Si Si5 0.746477 0.126231 0.553960
Si Si6 0.212208 0.369682 0.217985
O O1 0.841964 0.867959 0.716982
O O2 0.884825 0.678318 0.824530
O O3 0.008114 0.795540 0.824907
O O4 0.000000 0.838759 0.000000
O O5 0.500000 0.204142 0.500000
O O6 0.446374 0.323377 0.590040
O O7 0.354945 0.133127 0.484985
O O8 0.310270 0.291339 0.330690
O O9 0.127307 0.876624 0.807538
O O10 0.306985 0.867386 0.910983
O O11 0.267291 0.000000 0.012965
O O12 0.250000 0.750000 0.000000
O O13 0.511286 0.500000 0.260555
O O14 0.750000 0.250000 0.500000
O O15 0.748932 0.000000 0.507600
O O16 0.235635 0.500000 0.268081
#
# Coordination Sequence:
#
# PCOD9211642 Si02
#       6
#     8   8   8   8   8   8
#     4  11  24  42  65  98 137 176 224 280 339 404
#     4  11  22  41  67  96 133 171 221 281 338 398
#     4  10  21  40  64  93 129 171 224 279 335 400
#     4  11  22  38  65  96 129 173 225 272 330 405
#     4  11  25  45  71 103 138 182 229 283 342 405
#     4  10  22  39  65  97 134 176 225 280 339 404
#
# _framework density 21.626162999999998
#
# number of rings (size 3 to 8) (size 9 to 14) (size 15 to 20)
#    0.000    1.333    3.333    2.000    0.000    5.333 
#    0.000    7.500    0.000    0.000    0.000    0.000 
#    0.000    0.000    0.000    0.000    0.000    0.000 
#
# Total GULP energy -133683.016302 kJ/mol
# GULP energy per Si atom -5570.125679 kJ/mol
# Density = 2.157694 g / cm^3
# Si number density = 21.626163 Si / 1000 Ang^3
#
#
#
# Elastic Constant Matrix: (Units=GPa)
#
#
# Indices 1 2 3 4 5 6 
#
# 1 111.6715 26.1691 2.9709 0.0000 -7.7757 0.0000
# 2 26.1691 148.3279 23.1886 0.0000 -7.1792 0.0000
# 3 2.9709 23.1886 80.6215 0.0000 -3.2306 0.0000
# 4 0.0000 0.0000 0.0000 12.5339 0.0000 0.4767
# 5 -7.7757 -7.1792 -3.2306 0.0000 32.0694 0.0000
# 6 0.0000 0.0000 0.0000 0.4767 0.0000 29.2508
#
#
#
# Elastic Compliance Matrix: (Units=1/GPa)
#
#
# Indices 1 2 3 4 5 6 
#
# 1 0.009462 -0.001605 0.000191 0.000000 0.001954 0.000000
# 2 -0.001605 0.007393 -0.002025 0.000000 0.001062 0.000000
# 3 0.000191 -0.002025 0.013015 0.000000 0.000904 0.000000
# 4 0.000000 0.000000 0.000000 0.079833 0.000000 -0.001301
# 5 0.001954 0.001062 0.000904 0.000000 0.031985 0.000000
# 6 0.000000 0.000000 0.000000 -0.001301 0.000000 0.034208
#
#
# Mechanical properties :
#
#
# Convention : Reuss Voigt Hill
#
# Bulk Modulus (GPa) = 43.49036 49.47534 46.48285
# Shear Modulus (GPa) = 26.25540 33.99031 30.12285
#
# Velocity S-wave (km/s) = 3.48811 3.96880 3.73619
# Velocity P-wave (km/s) = 6.03128 6.62789 6.33661
#
# Compressibility (1/GPa) = 0.02299360
#
# Stress axis : x y z
#
# Youngs Moduli (GPa) = 105.68763 135.26590 76.83340
#
# Poissons Ratio (x) = 0.21705 -0.01469
# Poissons Ratio (y) = 0.16959 0.15556
# Poissons Ratio (z) = -0.02020 0.27387
#
# Static dielectric constant tensor:
#      x y z
#    x 1.819000 0.000000 -0.006060 
#    y 0.000000 1.865480 0.000000 
#    z -0.006060 0.000000 1.792970 
# 
# From -- ./inp_files/232855.got.cif
#   From: 2010.05.17/outbox.cif.g08.bks.cpg/sg12_117_cif.got.tgz:232855.got - 2010.06.03 13:09:07.
