data_PCOD9211919
_publ_section_title
;
Structure prediction by ZEFSAII (Michael W. Deem and Ramdas Pophale) SiO2 
 PCOD9211919
Probable space group: C 2/M
;
_chemical_formula_sum "Si O2"
_cell_formula_units_Z 64
_cell_length_a 14.186880
_cell_length_b 29.224443
_cell_length_c 9.131893
_cell_angle_alpha 90.000000
_cell_angle_beta 53.749400
_cell_angle_gamma 90.000000
_cell_volume 3053.269628
_symmetry_space_group_name_H-M "C 2/M"
_symmetry_group_IT_number 12
_symmetry_cell_setting 'monoclinic'
loop_
_space_group_symop_operation_xyz
x,y,z
-x,y,-z
-x,-y,-z
x,-y,z
1/2+x,1/2+y,z
1/2-x,1/2+y,-z
1/2-x,1/2-y,-z
1/2+x,1/2-y,z
loop_
_atom_site_type_symbol
_atom_site_label
_atom_site_fract_x
_atom_site_fract_y
_atom_site_fract_z
Si Si1 0.055368 0.385534 0.806665
Si Si2 0.381289 0.702582 0.312690
Si Si3 0.196038 0.296524 0.720551
Si Si4 0.378970 0.946373 0.520112
Si Si5 0.586312 0.175160 0.285755
Si Si6 0.338156 0.649340 0.086245
Si Si7 0.387029 0.278621 0.790959
Si Si8 0.364513 0.449466 0.067345
O O1 0.130564 0.343796 0.803766
O O2 0.121494 0.417757 0.630172
O O3 0.962816 0.359038 0.789530
O O4 0.000000 0.409691 0.000000
O O5 0.257439 0.698803 0.505552
O O6 0.380096 0.750354 0.223936
O O7 0.399650 0.660813 0.184367
O O8 0.477782 0.707141 0.349770
O O9 0.294424 0.289150 0.751281
O O10 0.500000 0.933016 0.500000
O O11 0.250629 0.944352 0.718930
O O12 0.396430 0.000000 0.471291
O O13 0.500000 0.183778 0.500000
O O14 0.701383 0.153204 0.246903
O O15 0.612137 0.224189 0.189596
O O16 0.361747 0.600154 0.993443
O O17 0.358035 0.691122 0.958620
O O18 0.346989 0.500000 0.013164
O O19 0.500000 0.450918 0.000000
#
# Coordination Sequence:
#
# PCOD9211919 Si02
#       8
#     8   8   8   8   8   8   8   8
#     4  12  25  38  61  94 134 178 219 273 342 407
#     4  11  22  37  59  80 116 166 213 259 314 380
#     4  11  23  38  55  83 119 165 217 257 312 385
#     4  10  22  44  73 103 132 170 227 286 339 404
#     4  12  23  39  61  85 125 175 223 269 322 388
#     4  12  24  38  61  92 123 163 209 270 329 388
#     4  12  24  38  57  86 124 163 213 267 319 388
#     4  10  21  40  67  98 128 163 216 278 340 400
#
# _framework density 20.961137000000001
#
# number of rings (size 3 to 8) (size 9 to 14) (size 15 to 20)
#    0.000    0.750    2.500    6.750    1.750    0.250 
#    0.000    0.000    0.000    2.250    0.000    0.000 
#    0.000   32.500    0.000    0.000    0.000    0.000 
#
# Total GULP energy -178493.427840 kJ/mol
# GULP energy per Si atom -5577.919620 kJ/mol
# Density = 2.091343 g / cm^3
# Si number density = 20.961137 Si / 1000 Ang^3
#
#
#
# Elastic Constant Matrix: (Units=GPa)
#
#
# Indices 1 2 3 4 5 6 
#
# 1 111.2531 13.1581 17.0578 0.0000 1.0180 0.0000
# 2 13.1581 102.1778 27.7458 0.0000 5.7506 0.0000
# 3 17.0578 27.7458 78.5350 0.0000 -2.9708 0.0000
# 4 0.0000 0.0000 0.0000 24.5486 0.0000 -4.0911
# 5 1.0180 5.7506 -2.9708 0.0000 34.2363 0.0000
# 6 0.0000 0.0000 0.0000 -4.0911 0.0000 10.8361
#
#
#
# Elastic Compliance Matrix: (Units=1/GPa)
#
#
# Indices 1 2 3 4 5 6 
#
# 1 0.009349 -0.000699 -0.001796 0.000000 -0.000316 0.000000
# 2 -0.000699 0.011039 -0.003830 0.000000 -0.002166 0.000000
# 3 -0.001796 -0.003830 0.014550 0.000000 0.001959 0.000000
# 4 0.000000 0.000000 0.000000 0.043471 0.000000 0.016412
# 5 -0.000316 -0.002166 0.001959 0.000000 0.029752 0.000000
# 6 0.000000 0.000000 0.000000 0.016412 0.000000 0.098480
#
#
# Mechanical properties :
#
#
# Convention : Reuss Voigt Hill
#
# Bulk Modulus (GPa) = 44.86391 45.32104 45.09247
# Shear Modulus (GPa) = 22.05362 29.52449 25.78905
#
# Velocity S-wave (km/s) = 3.24716 3.75712 3.51141
# Velocity P-wave (km/s) = 5.95891 6.36315 6.16434
#
# Compressibility (1/GPa) = 0.02228963
#
# Stress axis : x y z
#
# Youngs Moduli (GPa) = 106.95902 90.59000 68.72616
#
# Poissons Ratio (x) = 0.06328 0.12342
# Poissons Ratio (y) = 0.07471 0.26323
# Poissons Ratio (z) = 0.19209 0.34697
#
# Static dielectric constant tensor:
#      x y z
#    x 1.833690 0.000000 -0.088460 
#    y 0.000000 1.763370 0.000000 
#    z -0.088460 0.000000 1.817010 
# 
# From -- ./inp_files/68251.got.cif
#   From: 2010.05.17/outbox.cif.g08.bks.cpg/sg12_35_cif.got.tgz:68251.got - 2010.06.03 13:09:07.
