data_PCOD9211615
_publ_section_title
;
Structure prediction by ZEFSAII (Michael W. Deem and Ramdas Pophale) SiO2 
 PCOD9211615
Probable space group: C 2/M
;
_chemical_formula_sum "Si O2"
_cell_formula_units_Z 42
_cell_length_a 24.712477
_cell_length_b 10.342034
_cell_length_c 9.778504
_cell_angle_alpha 90.000000
_cell_angle_beta 115.854595
_cell_angle_gamma 90.000000
_cell_volume 2249.006285
_symmetry_space_group_name_H-M "C 2/M"
_symmetry_group_IT_number 12
_symmetry_cell_setting 'monoclinic'
loop_
_space_group_symop_operation_xyz
x,y,z
-x,y,-z
-x,-y,-z
x,-y,z
1/2+x,1/2+y,z
1/2-x,1/2+y,-z
1/2-x,1/2-y,-z
1/2+x,1/2-y,z
loop_
_atom_site_type_symbol
_atom_site_label
_atom_site_fract_x
_atom_site_fract_y
_atom_site_fract_z
Si Si1 0.899224 0.851300 0.877539
Si Si2 0.738798 0.650422 0.364807
Si Si3 0.424781 0.850826 0.143957
Si Si4 0.000000 0.000000 0.500000
Si Si5 0.359184 0.153087 0.348058
Si Si6 0.956600 0.225731 0.653467
O O1 0.828350 0.837143 0.766379
O O2 0.934569 0.821951 0.776807
O O3 0.910617 0.000000 0.932829
O O4 0.916983 0.748284 0.011542
O O5 0.746270 0.500000 0.418408
O O6 0.750000 0.750000 0.500000
O O7 0.789555 0.676029 0.306300
O O8 0.380647 0.811647 0.219770
O O9 0.492859 0.835167 0.272553
O O10 0.413096 0.000000 0.092809
O O11 0.986559 0.887952 0.600356
O O12 0.399752 0.225262 0.504033
O O13 0.370517 0.000000 0.373810
#
# Coordination Sequence:
#
# PCOD9211615 Si02
#       6
#     8   8   8   2   8   8
#     4  11  25  40  61  91 126 160 200 254 310 363
#     4  10  21  40  64  92 119 157 204 255 308 365
#     4  11  25  41  60  90 126 164 207 249 303 366
#     4  12  24  36  64 100 124 164 204 256 308 378
#     4  10  21  40  66  89 121 159 205 259 304 361
#     4  12  22  39  65  91 124 159 209 249 309 365
#
# _framework density 18.674913
#
# number of rings (size 3 to 8) (size 9 to 14) (size 15 to 20)
#    0.000    1.143    4.762    1.143    1.333    6.095 
#    0.000    0.000    0.000    0.000    0.000    0.000 
#    0.000    0.000    0.000    0.000    0.000    0.000 
#
# Total GULP energy -117048.967473 kJ/mol
# GULP energy per Si atom -5573.760356 kJ/mol
# Density = 1.863241 g / cm^3
# Si number density = 18.674913 Si / 1000 Ang^3
#
#
#
# Elastic Constant Matrix: (Units=GPa)
#
#
# Indices 1 2 3 4 5 6 
#
# 1 118.5654 48.5922 48.1598 0.0000 -22.2652 0.0000
# 2 48.5922 84.4699 55.0780 0.0000 -23.6077 0.0000
# 3 48.1598 55.0780 78.6812 0.0000 -27.6769 0.0000
# 4 0.0000 0.0000 0.0000 32.1090 0.0000 -8.4031
# 5 -22.2652 -23.6077 -27.6769 0.0000 28.2197 0.0000
# 6 0.0000 0.0000 0.0000 -8.4031 0.0000 0.4984
#
#
#
# Elastic Compliance Matrix: (Units=1/GPa)
#
#
# Indices 1 2 3 4 5 6 
#
# 1 0.011990 -0.003644 -0.003867 0.000000 0.002619 0.000000
# 2 -0.003644 0.023357 -0.012607 0.000000 0.004300 0.000000
# 3 -0.003867 -0.012607 0.029188 0.000000 0.015029 0.000000
# 4 0.000000 0.000000 0.000000 -0.009127 0.000000 -0.153877
# 5 0.002619 0.004300 0.015029 0.000000 0.055840 0.000000
# 6 0.000000 0.000000 0.000000 -0.153877 0.000000 -0.587978
#
#
# Mechanical properties :
#
#
# Convention : Reuss Voigt Hill
#
# Bulk Modulus (GPa) = 41.15372 65.04182 53.09777
# Shear Modulus (GPa) = -11.67151 20.82451 4.57650
#
# Velocity S-wave (km/s) = -2.50268 3.34294 1.56714
# Velocity P-wave (km/s) = 3.70588 7.05722 5.63640
#
# Compressibility (1/GPa) = 0.02429914
#
# Stress axis : x y z
#
# Youngs Moduli (GPa) = 83.40184 42.81359 34.26046
#
# Poissons Ratio (x) = 0.15602 0.13247
# Poissons Ratio (y) = 0.30393 0.43193
# Poissons Ratio (z) = 0.32249 0.53976
#
# Static dielectric constant tensor:
#      x y z
#    x 1.655090 0.000000 0.003810 
#    y 0.000000 1.626100 0.000000 
#    z 0.003810 0.000000 1.616910 
# 
# From -- ./inp_files/83982.got.cif
#   From: 2010.05.17/outbox.cif.g08.bks.cpg/sg12_42_cif.got.tgz:83982.got - 2010.06.03 13:09:07.
