data_PCOD9211882
_publ_section_title
;
Structure prediction by ZEFSAII (Michael W. Deem and Ramdas Pophale) SiO2 
 PCOD9211882
Probable space group: C 2/M
;
_chemical_formula_sum "Si O2"
_cell_formula_units_Z 36
_cell_length_a 8.715709
_cell_length_b 22.092011
_cell_length_c 14.755278
_cell_angle_alpha 90.000000
_cell_angle_beta 38.290517
_cell_angle_gamma 90.000000
_cell_volume 1760.480491
_symmetry_space_group_name_H-M "C 2/M"
_symmetry_group_IT_number 12
_symmetry_cell_setting 'monoclinic'
loop_
_space_group_symop_operation_xyz
x,y,z
-x,y,-z
-x,-y,-z
x,-y,z
1/2+x,1/2+y,z
1/2-x,1/2+y,-z
1/2-x,1/2-y,-z
1/2+x,1/2-y,z
loop_
_atom_site_type_symbol
_atom_site_label
_atom_site_fract_x
_atom_site_fract_y
_atom_site_fract_z
Si Si1 0.213191 0.569026 0.100576
Si Si2 0.719321 0.816186 0.968646
Si Si3 0.092715 0.174014 0.639448
Si Si4 0.000000 0.229267 0.500000
Si Si5 0.254304 0.432129 0.549437
O O1 0.181461 0.500000 0.076546
O O2 0.999447 0.574221 0.276154
O O3 0.500000 0.572363 0.000000
O O4 0.172924 0.627520 0.056503
O O5 0.945371 0.836054 0.799372
O O6 0.500000 0.808742 0.000000
O O7 0.750000 0.750000 0.000000
O O8 0.271900 0.228909 0.580361
O O9 0.236122 0.116278 0.534908
O O10 0.937498 0.193324 0.621358
O O11 0.500000 0.425615 0.500000
O O12 0.265738 0.500000 0.507466
#
# Coordination Sequence:
#
# PCOD9211882 Si02
#       5
#     8   8   8   4   8
#     4  10  24  45  67  93 134 177 216 270 335 394
#     4  12  26  40  65  99 134 171 215 272 330 398
#     4  11  23  40  63  91 124 167 209 266 312 389
#     4  10  24  38  62  88 126 160 210 256 324 368
#     4  10  21  40  67  93 123 168 218 265 316 382
#
# _framework density 20.448962999999999
#
# number of rings (size 3 to 8) (size 9 to 14) (size 15 to 20)
#    0.000    1.333    1.111    3.333    9.333    1.333 
#    0.000    0.556    0.000    0.000    0.000    0.000 
#    0.000    0.000    0.000    0.000    0.000    0.000 
#
# Total GULP energy -100392.544528 kJ/mol
# GULP energy per Si atom -5577.363585 kJ/mol
# Density = 2.040242 g / cm^3
# Si number density = 20.448963 Si / 1000 Ang^3
#
#
#
# Elastic Constant Matrix: (Units=GPa)
#
#
# Indices 1 2 3 4 5 6 
#
# 1 66.6566 51.3771 13.0870 0.0000 -0.8994 0.0000
# 2 51.3771 185.8684 54.1761 0.0000 29.2037 0.0000
# 3 13.0870 54.1761 113.5433 0.0000 5.2959 0.0000
# 4 0.0000 0.0000 0.0000 54.6673 0.0000 47.2940
# 5 -0.8994 29.2037 5.2959 0.0000 32.0900 0.0000
# 6 0.0000 0.0000 0.0000 47.2940 0.0000 108.9362
#
#
#
# Elastic Compliance Matrix: (Units=1/GPa)
#
#
# Indices 1 2 3 4 5 6 
#
# 1 0.020227 -0.006817 0.000610 0.000000 0.006670 0.000000
# 2 -0.006817 0.009561 -0.003388 0.000000 -0.008333 0.000000
# 3 0.000610 -0.003388 0.010288 0.000000 0.001402 0.000000
# 4 0.000000 0.000000 0.000000 0.029296 0.000000 -0.012719
# 5 0.006670 -0.008333 0.001402 0.000000 0.038702 0.000000
# 6 0.000000 0.000000 0.000000 -0.012719 0.000000 0.014701
#
#
# Mechanical properties :
#
#
# Convention : Reuss Voigt Hill
#
# Bulk Modulus (GPa) = 47.87640 67.03873 57.45756
# Shear Modulus (GPa) = 33.57391 55.63390 44.60391
#
# Velocity S-wave (km/s) = 4.05636 5.22162 4.67543
# Velocity P-wave (km/s) = 6.73811 8.31915 7.57002
#
# Compressibility (1/GPa) = 0.02088712
#
# Stress axis : x y z
#
# Youngs Moduli (GPa) = 49.43970 104.58994 97.20193
#
# Poissons Ratio (x) = 0.71297 -0.05931
# Poissons Ratio (y) = 0.33702 0.32928
# Poissons Ratio (z) = -0.03017 0.35431
#
# Static dielectric constant tensor:
#      x y z
#    x 1.730900 0.000000 -0.029690 
#    y 0.000000 1.735560 0.000000 
#    z -0.029690 0.000000 2.309540 
# 
# From -- ./inp_files/197458.got.cif
#   From: 2010.05.17/outbox.cif.g08.bks.cpg/sg12_99_cif.got.tgz:197458.got - 2010.06.03 13:09:07.
