data_PCOD9211837
_publ_section_title
;
Structure prediction by ZEFSAII (Michael W. Deem and Ramdas Pophale) SiO2 
 PCOD9211837
Probable space group: C 2/M
;
_chemical_formula_sum "Si O2"
_cell_formula_units_Z 64
_cell_length_a 17.755189
_cell_length_b 15.115265
_cell_length_c 14.089663
_cell_angle_alpha 90.000000
_cell_angle_beta 49.474085
_cell_angle_gamma 90.000000
_cell_volume 2874.215588
_symmetry_space_group_name_H-M "C 2/M"
_symmetry_group_IT_number 12
_symmetry_cell_setting 'monoclinic'
loop_
_space_group_symop_operation_xyz
x,y,z
-x,y,-z
-x,-y,-z
x,-y,z
1/2+x,1/2+y,z
1/2-x,1/2+y,-z
1/2-x,1/2-y,-z
1/2+x,1/2-y,z
loop_
_atom_site_type_symbol
_atom_site_label
_atom_site_fract_x
_atom_site_fract_y
_atom_site_fract_z
Si Si1 0.948225 0.398475 0.247169
Si Si2 0.632432 0.190686 0.997937
Si Si3 0.720960 0.394799 0.397735
Si Si4 0.920734 0.405084 0.481848
Si Si5 0.692303 0.776234 0.302344
Si Si6 0.060587 0.896787 0.696302
Si Si7 0.649153 0.318119 0.156832
Si Si8 0.903360 0.817632 0.131473
O O1 0.947957 0.500000 0.217322
O O2 0.833464 0.370444 0.334713
O O3 0.970675 0.391901 0.340210
O O4 0.036085 0.354419 0.118170
O O5 0.646261 0.277545 0.053192
O O6 0.739341 0.143543 0.919123
O O7 0.607596 0.221698 0.911510
O O8 0.716732 0.500000 0.376389
O O9 0.699230 0.325529 0.332439
O O10 0.642415 0.381982 0.547657
O O11 0.865236 0.500000 0.520226
O O12 0.858056 0.323163 0.567482
O O13 0.000000 0.412437 0.500000
O O14 0.644043 0.761076 0.238940
O O15 0.788242 0.840030 0.208789
O O16 0.079719 0.833235 0.771146
O O17 0.948644 0.877282 0.752473
O O18 0.067721 0.000000 0.720210
O O19 0.000000 0.858210 0.000000
#
# Coordination Sequence:
#
# PCOD9211837 Si02
#       8
#     8   8   8   8   8   8   8   8
#     4  10  21  40  66  94 128 168 216 275 331 382
#     4  10  21  41  64  91 130 167 218 275 314 391
#     4  10  24  42  63  98 132 167 220 276 324 390
#     4  10  22  39  61  97 134 163 212 273 328 393
#     4  11  24  39  69  96 127 184 213 265 336 396
#     4  11  25  44  65  95 135 172 218 279 335 398
#     4  10  23  41  62  93 129 174 222 262 325 398
#     4  11  22  40  64  94 125 166 220 268 323 390
#
# _framework density 22.266945
#
# number of rings (size 3 to 8) (size 9 to 14) (size 15 to 20)
#    0.000    1.625    1.250    2.250    3.500    3.750 
#    0.000    3.125    0.000    6.750    0.000    0.875 
#    0.000    0.000    0.000    0.000    0.000    0.000 
#
# Total GULP energy -178213.093877 kJ/mol
# GULP energy per Si atom -5569.159184 kJ/mol
# Density = 2.221626 g / cm^3
# Si number density = 22.266945 Si / 1000 Ang^3
#
#
#
# Elastic Constant Matrix: (Units=GPa)
#
#
# Indices 1 2 3 4 5 6 
#
# 1 93.1250 34.7615 40.4940 0.0000 -10.4886 0.0000
# 2 34.7615 60.7487 58.9248 0.0000 -5.3648 0.0000
# 3 40.4940 58.9248 146.5541 0.0000 -12.9958 0.0000
# 4 0.0000 0.0000 0.0000 33.1353 0.0000 1.3360
# 5 -10.4886 -5.3648 -12.9958 0.0000 38.6708 0.0000
# 6 0.0000 0.0000 0.0000 1.3360 0.0000 21.5557
#
#
#
# Elastic Compliance Matrix: (Units=1/GPa)
#
#
# Indices 1 2 3 4 5 6 
#
# 1 0.013990 -0.006967 -0.000839 0.000000 0.002546 0.000000
# 2 -0.006967 0.030456 -0.010424 0.000000 -0.001168 0.000000
# 3 -0.000839 -0.010424 0.011439 0.000000 0.002171 0.000000
# 4 0.000000 0.000000 0.000000 0.030255 0.000000 -0.001875
# 5 0.002546 -0.001168 0.002171 0.000000 0.027117 0.000000
# 6 0.000000 0.000000 0.000000 -0.001875 0.000000 0.046508
#
#
# Mechanical properties :
#
#
# Convention : Reuss Voigt Hill
#
# Bulk Modulus (GPa) = 51.47843 63.19872 57.33858
# Shear Modulus (GPa) = 24.66711 29.75553 27.21132
#
# Velocity S-wave (km/s) = 3.33196 3.65952 3.49958
# Velocity P-wave (km/s) = 6.16211 6.80441 6.49121
#
# Compressibility (1/GPa) = 0.01942561
#
# Stress axis : x y z
#
# Youngs Moduli (GPa) = 71.47745 32.83451 87.42304
#
# Poissons Ratio (x) = 0.22877 0.07330
# Poissons Ratio (y) = 0.49801 0.91127
# Poissons Ratio (z) = 0.05993 0.34226
#
# Static dielectric constant tensor:
#      x y z
#    x 1.874000 0.000000 -0.059210 
#    y 0.000000 1.893390 0.000000 
#    z -0.059210 0.000000 1.842420 
# 
# From -- ./inp_files/225700.got.cif
#   From: 2010.05.17/outbox.cif.g08.bks.cpg/sg12_113_cif.got.tgz:225700.got - 2010.06.03 13:09:07.
