data_PCOD9211955
_publ_section_title
;
Structure prediction by ZEFSAII (Michael W. Deem and Ramdas Pophale) SiO2 
 PCOD9211955
Probable space group: C 2/M
;
_chemical_formula_sum "Si O2"
_cell_formula_units_Z 56
_cell_length_a 20.417934
_cell_length_b 31.376589
_cell_length_c 8.358614
_cell_angle_alpha 90.000000
_cell_angle_beta 32.164110
_cell_angle_gamma 90.000000
_cell_volume 2850.663043
_symmetry_space_group_name_H-M "C 2/M"
_symmetry_group_IT_number 12
_symmetry_cell_setting 'monoclinic'
loop_
_space_group_symop_operation_xyz
x,y,z
-x,y,-z
-x,-y,-z
x,-y,z
1/2+x,1/2+y,z
1/2-x,1/2+y,-z
1/2-x,1/2-y,-z
1/2+x,1/2-y,z
loop_
_atom_site_type_symbol
_atom_site_label
_atom_site_fract_x
_atom_site_fract_y
_atom_site_fract_z
Si Si1 0.173259 0.663157 0.006027
Si Si2 0.685265 0.603569 0.524185
Si Si3 0.953092 0.870305 0.871819
Si Si4 0.084085 0.213944 0.480592
Si Si5 0.945732 0.699110 0.290856
Si Si6 0.364668 0.049685 0.352478
Si Si7 0.200823 0.622393 0.271165
O O1 0.224410 0.635332 0.753622
O O2 0.280991 0.695467 0.838979
O O3 0.149650 0.631655 0.201909
O O4 0.055425 0.687525 0.186141
O O5 0.567301 0.597074 0.652827
O O6 0.762410 0.564440 0.434322
O O7 0.623939 0.626129 0.805063
O O8 0.012993 0.824457 0.717532
O O9 0.849329 0.879073 0.954777
O O10 0.099777 0.254527 0.561988
O O11 0.000000 0.223838 0.500000
O O12 0.843689 0.662763 0.530131
O O13 0.000000 0.698683 0.000000
O O14 0.345891 0.080317 0.543451
O O15 0.351491 0.000000 0.418052
O O16 0.500000 0.057043 0.000000
#
# Coordination Sequence:
#
# PCOD9211955 Si02
#       7
#     8   8   8   8   8   8   8
#     4  11  23  39  62  86 121 168 205 259 314 367
#     4   9  19  36  60  88 120 159 205 242 306 368
#     4   9  19  36  59  84 120 166 204 254 298 367
#     4  11  23  38  58  87 123 162 218 258 308 355
#     4  12  27  38  57  84 121 168 214 268 303 367
#     4  10  21  40  68  96 126 160 203 252 303 372
#     4  11  21  40  62  85 123 163 202 256 319 366
#
# _framework density 19.644552000000001
#
# number of rings (size 3 to 8) (size 9 to 14) (size 15 to 20)
#    0.000    1.571    1.429    4.286    6.000    1.714 
#    0.000    6.429    0.000    3.429    0.000   14.000 
#    0.000    0.000    0.000    0.000    0.000    0.000 
#
# Total GULP energy -156351.374640 kJ/mol
# GULP energy per Si atom -5583.977666 kJ/mol
# Density = 1.959984 g / cm^3
# Si number density = 19.644552 Si / 1000 Ang^3
#
#
#
# Elastic Constant Matrix: (Units=GPa)
#
#
# Indices 1 2 3 4 5 6 
#
# 1 87.4055 33.9136 23.1900 0.0000 -17.7015 0.0000
# 2 33.9136 106.9159 48.3849 0.0000 -7.3243 0.0000
# 3 23.1900 48.3849 67.5450 0.0000 -20.4222 0.0000
# 4 0.0000 0.0000 0.0000 21.0155 0.0000 -0.8870
# 5 -17.7015 -7.3243 -20.4222 0.0000 30.2786 0.0000
# 6 0.0000 0.0000 0.0000 -0.8870 0.0000 20.8663
#
#
#
# Elastic Compliance Matrix: (Units=1/GPa)
#
#
# Indices 1 2 3 4 5 6 
#
# 1 0.014561 -0.004270 0.000404 0.000000 0.007752 0.000000
# 2 -0.004270 0.015529 -0.011654 0.000000 -0.006600 0.000000
# 3 0.000404 -0.011654 0.027929 0.000000 0.016254 0.000000
# 4 0.000000 0.000000 0.000000 0.047669 0.000000 0.002026
# 5 0.007752 -0.006600 0.016254 0.000000 0.046925 0.000000
# 6 0.000000 0.000000 0.000000 0.002026 0.000000 0.048010
#
#
# Mechanical properties :
#
#
# Convention : Reuss Voigt Hill
#
# Bulk Modulus (GPa) = 37.06705 52.53817 44.80261
# Shear Modulus (GPa) = 20.77645 24.85727 22.81686
#
# Velocity S-wave (km/s) = 3.25563 3.56104 3.41175
# Velocity P-wave (km/s) = 5.74822 6.61139 6.19486
#
# Compressibility (1/GPa) = 0.02697814
#
# Stress axis : x y z
#
# Youngs Moduli (GPa) = 68.67857 64.39395 35.80527
#
# Poissons Ratio (x) = 0.27498 -0.01445
# Poissons Ratio (y) = 0.29327 0.41726
# Poissons Ratio (z) = -0.02772 0.75043
#
# Static dielectric constant tensor:
#      x y z
#    x 1.772020 0.000000 -0.021820 
#    y 0.000000 1.646780 0.000000 
#    z -0.021820 0.000000 1.702800 
# 
# From -- ./inp_files/91525.got.cif
#   From: 2010.05.17/outbox.cif.g08.bks.cpg/sg12_46_cif.got.tgz:91525.got - 2010.06.03 13:09:07.
