data_PCOD9211017
_publ_section_title
;
Structure prediction by ZEFSAII (Michael W. Deem and Ramdas Pophale) SiO2 
 PCOD9211017
Probable space group: C 2/M
;
_chemical_formula_sum "Si O2"
_cell_formula_units_Z 40
_cell_length_a 16.142883
_cell_length_b 25.529035
_cell_length_c 8.676132
_cell_angle_alpha 90.000000
_cell_angle_beta 35.322219
_cell_angle_gamma 90.000000
_cell_volume 2067.284568
_symmetry_space_group_name_H-M "C 2/M"
_symmetry_group_IT_number 12
_symmetry_cell_setting 'monoclinic'
loop_
_space_group_symop_operation_xyz
x,y,z
-x,y,-z
-x,-y,-z
x,-y,z
1/2+x,1/2+y,z
1/2-x,1/2+y,-z
1/2-x,1/2-y,-z
1/2+x,1/2-y,z
loop_
_atom_site_type_symbol
_atom_site_label
_atom_site_fract_x
_atom_site_fract_y
_atom_site_fract_z
Si Si1 0.366302 0.152114 0.930018
Si Si2 0.835156 0.255235 0.210405
Si Si3 0.312104 0.848410 0.648073
Si Si4 0.337275 0.558144 0.300819
Si Si5 0.846374 0.937669 0.651786
O O1 0.539433 0.157102 0.674072
O O2 0.342735 0.153495 0.782677
O O3 0.301945 0.197993 0.138514
O O4 0.286384 0.098170 0.094505
O O5 0.750000 0.250000 0.500000
O O6 0.799232 0.198928 0.196199
O O7 0.000000 0.260527 0.000000
O O8 0.243475 0.900566 0.682565
O O9 0.272303 0.500000 0.383609
O O10 0.347766 0.570872 0.465802
O O11 0.500000 0.556178 0.000000
O O12 0.000000 0.923665 0.500000
O O13 0.825177 0.000000 0.713544
#
# Coordination Sequence:
#
# PCOD9211017 Si02
#       5
#     8   8   8   8   8
#     4  11  25  42  63  94 131 167 217 270 322 391
#     4  12  24  43  67  92 128 172 220 272 323 389
#     4  11  24  43  63  93 131 171 217 265 327 389
#     4  10  21  39  65  94 126 167 216 264 320 391
#     4  10  22  41  66  96 129 168 213 265 327 391
#
# _framework density 19.349055
#
# number of rings (size 3 to 8) (size 9 to 14) (size 15 to 20)
#    0.000    1.200    2.000    3.600    0.000    4.800 
#    3.600    4.000    0.000    0.000    0.000    0.000 
#    0.000    0.000    0.000    0.000    0.000    0.000 
#
# Total GULP energy -111414.768417 kJ/mol
# GULP energy per Si atom -5570.738421 kJ/mol
# Density = 1.930502 g / cm^3
# Si number density = 19.349055 Si / 1000 Ang^3
#
#
#
# Elastic Constant Matrix: (Units=GPa)
#
#
# Indices 1 2 3 4 5 6 
#
# 1 100.4779 66.3146 36.9363 0.0000 1.8312 0.0000
# 2 66.3146 94.9023 36.5902 0.0000 5.7885 0.0000
# 3 36.9363 36.5902 102.8395 0.0000 23.0673 0.0000
# 4 0.0000 0.0000 0.0000 33.7004 0.0000 -4.2277
# 5 1.8312 5.7885 23.0673 0.0000 20.5552 0.0000
# 6 0.0000 0.0000 0.0000 -4.2277 0.0000 19.9533
#
#
#
# Elastic Compliance Matrix: (Units=1/GPa)
#
#
# Indices 1 2 3 4 5 6 
#
# 1 0.019560 -0.012517 -0.003971 0.000000 0.006239 0.000000
# 2 -0.012517 0.020280 -0.002257 0.000000 -0.002063 0.000000
# 3 -0.003971 -0.002257 0.015678 0.000000 -0.016604 0.000000
# 4 0.000000 0.000000 0.000000 0.030484 0.000000 0.006459
# 5 0.006239 -0.002063 -0.016604 0.000000 0.067308 0.000000
# 6 0.000000 0.000000 0.000000 0.006459 0.000000 0.051486
#
#
# Mechanical properties :
#
#
# Convention : Reuss Voigt Hill
#
# Bulk Modulus (GPa) = 55.47323 64.21132 59.84228
# Shear Modulus (GPa) = 20.13743 25.40033 22.76888
#
# Velocity S-wave (km/s) = 3.22956 3.62711 3.43409
# Velocity P-wave (km/s) = 6.52983 7.12735 6.83512
#
# Compressibility (1/GPa) = 0.01802671
#
# Stress axis : x y z
#
# Youngs Moduli (GPa) = 51.12541 49.31005 63.78546
#
# Poissons Ratio (x) = 0.61723 0.25329
# Poissons Ratio (y) = 0.63995 0.14397
# Poissons Ratio (z) = 0.20301 0.11130
#
# Static dielectric constant tensor:
#      x y z
#    x 2.054440 0.000000 0.219130 
#    y 0.000000 1.716960 0.000000 
#    z 0.219130 0.000000 1.791850 
# 
# From -- ./inp_files/79251.got.cif
#   From: 2010.05.17/outbox.cif.g08.bks.cpg/sg12_40_cif.got.tgz:79251.got - 2010.06.03 13:09:07.
