data_PCOD9211538
_publ_section_title
;
Structure prediction by ZEFSAII (Michael W. Deem and Ramdas Pophale) SiO2 
 PCOD9211538
Probable space group: C 2/M
;
_chemical_formula_sum "Si O2"
_cell_formula_units_Z 48
_cell_length_a 18.694387
_cell_length_b 26.933575
_cell_length_c 8.796922
_cell_angle_alpha 90.000000
_cell_angle_beta 31.396968
_cell_angle_gamma 90.000000
_cell_volume 2307.512552
_symmetry_space_group_name_H-M "C 2/M"
_symmetry_group_IT_number 12
_symmetry_cell_setting 'monoclinic'
loop_
_space_group_symop_operation_xyz
x,y,z
-x,y,-z
-x,-y,-z
x,-y,z
1/2+x,1/2+y,z
1/2-x,1/2+y,-z
1/2-x,1/2-y,-z
1/2+x,1/2-y,z
loop_
_atom_site_type_symbol
_atom_site_label
_atom_site_fract_x
_atom_site_fract_y
_atom_site_fract_z
Si Si1 0.261436 0.357441 0.700709
Si Si2 0.549365 0.212482 0.239422
Si Si3 0.849942 0.918851 0.796728
Si Si4 0.105652 0.444636 0.443852
Si Si5 0.074661 0.827732 0.131240
Si Si6 0.666746 0.148850 0.537294
O O1 0.275148 0.408030 0.772864
O O2 0.417006 0.340969 0.382620
O O3 0.178584 0.359726 0.694558
O O4 0.183460 0.317983 0.948128
O O5 0.500000 0.200973 0.500000
O O6 0.579248 0.270560 0.170154
O O7 0.430400 0.193897 0.340487
O O8 0.878818 0.864656 0.818817
O O9 0.000000 0.941447 0.500000
O O10 0.752641 0.945203 0.092666
O O11 0.074685 0.500000 0.558979
O O12 0.110414 0.400573 0.556415
O O13 0.000000 0.432508 0.500000
O O14 0.181763 0.838880 0.802751
#
# Coordination Sequence:
#
# PCOD9211538 Si02
#       6
#     8   8   8   8   8   8
#     4  11  22  36  56  83 118 152 187 237 293 337
#     4  12  23  36  56  82 116 158 202 237 277 337
#     4   9  19  37  59  82 112 150 191 233 280 337
#     4  10  21  40  64  85 109 147 192 236 284 340
#     4  10  22  38  57  82 115 159 198 231 277 339
#     4  11  23  38  58  85 120 152 187 240 291 340
#
# _framework density 20.801621000000001
#
# number of rings (size 3 to 8) (size 9 to 14) (size 15 to 20)
#    0.000    1.500    0.000    7.000    0.000    6.333 
#    0.000    0.833    0.000   17.000    0.000    0.000 
#    0.000    0.000    0.000    0.000    0.000    0.000 
#
# Total GULP energy -134189.759642 kJ/mol
# GULP energy per Si atom -5591.239985 kJ/mol
# Density = 2.075428 g / cm^3
# Si number density = 20.801621 Si / 1000 Ang^3
#
#
#
# Elastic Constant Matrix: (Units=GPa)
#
#
# Indices 1 2 3 4 5 6 
#
# 1 121.0590 43.3626 14.2743 0.0000 3.9876 0.0000
# 2 43.3626 108.2630 19.8582 0.0000 2.8509 0.0000
# 3 14.2743 19.8582 62.7207 0.0000 -2.4562 -0.0001
# 4 0.0000 0.0000 0.0000 3.3525 0.0000 10.6391
# 5 3.9876 2.8509 -2.4562 0.0000 29.2230 0.0000
# 6 0.0000 0.0000 -0.0001 10.6391 0.0000 -31.8157
#
#
#
# Elastic Compliance Matrix: (Units=1/GPa)
#
#
# Indices 1 2 3 4 5 6 
#
# 1 0.009740 -0.003672 -0.001096 0.000000 -0.001063 0.000000
# 2 -0.003672 0.011234 -0.002754 0.000000 -0.000826 0.000000
# 3 -0.001096 -0.002754 0.017138 0.000000 0.001859 0.000000
# 4 0.000000 0.000000 0.000000 0.144713 0.000000 0.048392
# 5 -0.001063 -0.000826 0.001859 0.000000 0.034601 0.000000
# 6 0.000000 0.000000 0.000000 0.048392 0.000000 -0.015249
#
#
# Mechanical properties :
#
#
# Convention : Reuss Voigt Hill
#
# Bulk Modulus (GPa) = 43.34781 49.67033 46.50907
# Shear Modulus (GPa) = 22.23108 14.45514 18.34311
#
# Velocity S-wave (km/s) = 3.27267 2.63896 2.97275
# Velocity P-wave (km/s) = 5.92996 5.76328 5.84722
#
# Compressibility (1/GPa) = 0.02306922
#
# Stress axis : x y z
#
# Youngs Moduli (GPa) = 102.66951 89.01205 58.35104
#
# Poissons Ratio (x) = 0.32687 0.06393
# Poissons Ratio (y) = 0.37702 0.16068
# Poissons Ratio (z) = 0.11249 0.24510
#
# Static dielectric constant tensor:
#      x y z
#    x 1.749500 0.000000 -0.006990 
#    y 0.000000 1.722890 0.000000 
#    z -0.006990 0.000000 1.791790 
# 
# From -- ./inp_files/80596.got.cif
#   From: 2010.05.17/outbox.cif.g08.bks.cpg/sg12_41_cif.got.tgz:80596.got - 2010.06.03 13:09:07.
