data_PCOD9211323
_publ_section_title
;
Structure prediction by ZEFSAII (Michael W. Deem and Ramdas Pophale) SiO2 
 PCOD9211323
Probable space group: C 2/M
;
_chemical_formula_sum "Si O2"
_cell_formula_units_Z 48
_cell_length_a 19.460380
_cell_length_b 8.597534
_cell_length_c 21.143677
_cell_angle_alpha 90.000000
_cell_angle_beta 36.498084
_cell_angle_gamma 90.000000
_cell_volume 2104.135502
_symmetry_space_group_name_H-M "C 2/M"
_symmetry_group_IT_number 12
_symmetry_cell_setting 'monoclinic'
loop_
_space_group_symop_operation_xyz
x,y,z
-x,y,-z
-x,-y,-z
x,-y,z
1/2+x,1/2+y,z
1/2-x,1/2+y,-z
1/2-x,1/2-y,-z
1/2+x,1/2-y,z
loop_
_atom_site_type_symbol
_atom_site_label
_atom_site_fract_x
_atom_site_fract_y
_atom_site_fract_z
Si Si1 0.062812 0.188142 0.176267
Si Si2 0.937908 0.318486 0.956311
Si Si3 0.587559 0.683170 0.489191
Si Si4 0.341966 0.680292 0.155893
Si Si5 0.299075 0.315281 0.397857
Si Si6 0.622717 0.682550 0.269314
O O1 0.103632 0.266519 0.081658
O O2 0.929125 0.236335 0.286352
O O3 0.129635 0.230648 0.191057
O O4 0.067067 0.000000 0.166893
O O5 0.915816 0.500000 0.983830
O O6 0.074879 0.282208 0.861576
O O7 0.883577 0.219153 0.053463
O O8 0.500000 0.740004 0.500000
O O9 0.609671 0.500000 0.460887
O O10 0.707504 0.767555 0.411855
O O11 0.509025 0.696547 0.610337
O O12 0.358770 0.500000 0.158720
O O13 0.208565 0.726544 0.251569
O O14 0.302808 0.500000 0.400471
O O15 0.250000 0.250000 0.500000
O O16 0.652844 0.500000 0.251504
#
# Coordination Sequence:
#
# PCOD9211323 Si02
#       6
#     8   8   8   8   8   8
#     4  10  22  40  61  88 123 160 199 247 300 353
#     4  11  23  41  65  91 118 155 202 244 298 361
#     4  10  22  40  61  89 123 161 203 248 300 351
#     4  11  23  41  64  90 123 156 195 246 302 355
#     4  11  22  39  62  88 122 161 203 247 298 353
#     4  10  21  40  61  87 124 161 200 246 298 354
#
# _framework density 22.812218999999999
#
# number of rings (size 3 to 8) (size 9 to 14) (size 15 to 20)
#    0.000    1.500    1.667    4.500    2.333    3.667 
#    0.000    0.000    0.000    0.000    0.000    0.000 
#    0.000    0.000    0.000    0.000    0.000    0.000 
#
# Total GULP energy -134298.665327 kJ/mol
# GULP energy per Si atom -5595.777722 kJ/mol
# Density = 2.276030 g / cm^3
# Si number density = 22.812219 Si / 1000 Ang^3
#
#
#
# Elastic Constant Matrix: (Units=GPa)
#
#
# Indices 1 2 3 4 5 6 
#
# 1 88.0330 -0.9593 4.0457 0.0000 5.6800 0.0000
# 2 -0.9593 32.3570 1.5120 0.0000 -5.2281 -0.0001
# 3 4.0457 1.5120 41.1131 0.0000 -0.4674 0.0000
# 4 0.0000 0.0000 0.0000 15.2655 0.0000 -1.7487
# 5 5.6800 -5.2281 -0.4674 0.0000 44.5748 0.0000
# 6 0.0000 -0.0001 0.0000 -1.7487 0.0000 37.2084
#
#
#
# Elastic Compliance Matrix: (Units=1/GPa)
#
#
# Indices 1 2 3 4 5 6 
#
# 1 0.011508 0.000159 -0.001155 0.000000 -0.001460 0.000000
# 2 0.000159 0.031556 -0.001134 0.000000 0.003669 0.000000
# 3 -0.001155 -0.001134 0.024482 0.000000 0.000271 0.000000
# 4 0.000000 0.000000 0.000000 0.065862 0.000000 0.003095
# 5 -0.001460 0.003669 0.000271 0.000000 0.023053 0.000000
# 6 0.000000 0.000000 0.000000 0.003095 0.000000 0.027021
#
#
# Mechanical properties :
#
#
# Convention : Reuss Voigt Hill
#
# Bulk Modulus (GPa) = 15.80142 18.96665 17.38404
# Shear Modulus (GPa) = 23.94208 29.87007 26.90607
#
# Velocity S-wave (km/s) = 3.24316 3.62247 3.43805
# Velocity P-wave (km/s) = 4.57885 5.08220 4.83708
#
# Compressibility (1/GPa) = 0.06328546
#
# Stress axis : x y z
#
# Youngs Moduli (GPa) = 86.89319 31.68995 40.84697
#
# Poissons Ratio (x) = -0.00505 0.04717
# Poissons Ratio (y) = -0.01384 0.04634
# Poissons Ratio (z) = 0.10035 0.03595
#
# Static dielectric constant tensor:
#      x y z
#    x 1.861090 0.000000 -0.009700 
#    y 0.000000 1.772400 0.000000 
#    z -0.009700 0.000000 1.941740 
# 
# From -- ./inp_files/319546.got.cif
#   From: 2010.05.17/outbox.cif.g08.bks.cpg/sg12_160_cif.got.tgz:319546.got - 2010.06.03 13:09:07.
