data_PCOD9211093
_publ_section_title
;
Structure prediction by ZEFSAII (Michael W. Deem and Ramdas Pophale) SiO2 
 PCOD9211093
Probable space group: C 2/M
;
_chemical_formula_sum "Si O2"
_cell_formula_units_Z 56
_cell_length_a 15.581786
_cell_length_b 18.566655
_cell_length_c 11.300218
_cell_angle_alpha 90.000000
_cell_angle_beta 125.624838
_cell_angle_gamma 90.000000
_cell_volume 2657.340726
_symmetry_space_group_name_H-M "C 2/M"
_symmetry_group_IT_number 12
_symmetry_cell_setting 'monoclinic'
loop_
_space_group_symop_operation_xyz
x,y,z
-x,y,-z
-x,-y,-z
x,-y,z
1/2+x,1/2+y,z
1/2-x,1/2+y,-z
1/2-x,1/2-y,-z
1/2+x,1/2-y,z
loop_
_atom_site_type_symbol
_atom_site_label
_atom_site_fract_x
_atom_site_fract_y
_atom_site_fract_z
Si Si1 0.379919 0.084822 0.952751
Si Si2 0.122779 0.578291 0.563742
Si Si3 0.236906 0.221072 0.814119
Si Si4 0.265406 0.880974 0.102257
Si Si5 0.984897 0.160554 0.349502
Si Si6 0.025719 0.918560 0.892910
Si Si7 0.845279 0.277052 0.500948
O O1 0.350037 0.098096 0.068110
O O2 0.344722 0.000000 0.899767
O O3 0.500000 0.087314 0.000000
O O4 0.324192 0.159121 0.859535
O O5 0.147554 0.500000 0.536975
O O6 0.189087 0.592871 0.735700
O O7 0.142903 0.638428 0.483296
O O8 0.000000 0.582785 0.500000
O O9 0.256184 0.294281 0.904620
O O10 0.136948 0.174657 0.775369
O O11 0.190705 0.255283 0.658171
O O12 0.152765 0.917597 0.989021
O O13 0.021514 0.114074 0.266095
O O14 0.000000 0.135081 0.500000
O O15 0.046579 0.235752 0.389683
O O16 0.985468 0.000000 0.866895
O O17 0.000000 0.882255 0.000000
O O18 0.750000 0.250000 0.500000
#
# Coordination Sequence:
#
# PCOD9211093 Si02
#       7
#     8   8   8   8   8   8   8
#     4  11  24  40  61  94 134 172 219 278 342 413
#     4  10  21  39  66  93 125 170 217 274 343 397
#     4  10  22  40  64  92 124 174 225 270 336 409
#     4  11  22  42  66  95 130 175 224 284 342 405
#     4  10  22  42  65  93 134 177 222 273 336 417
#     4  11  25  41  66 101 132 171 227 287 342 400
#     4  10  22  40  62  94 128 168 220 281 329 405
#
# _framework density 21.073701
#
# number of rings (size 3 to 8) (size 9 to 14) (size 15 to 20)
#    0.000    1.571    1.429    3.857    4.000    3.143 
#    0.000    4.286    0.000    0.000    0.000    0.000 
#    0.000    0.571    0.000    0.000    0.000    0.000 
#
# Total GULP energy -155893.724061 kJ/mol
# GULP energy per Si atom -5567.633002 kJ/mol
# Density = 2.102574 g / cm^3
# Si number density = 21.073701 Si / 1000 Ang^3
#
#
#
# Elastic Constant Matrix: (Units=GPa)
#
#
# Indices 1 2 3 4 5 6 
#
# 1 89.4342 22.7833 2.2599 0.0000 0.8748 0.0000
# 2 22.7833 152.1684 21.0895 0.0000 5.3785 0.0000
# 3 2.2599 21.0895 57.7993 0.0000 2.6687 0.0000
# 4 0.0000 0.0000 0.0000 12.8636 0.0000 0.3674
# 5 0.8748 5.3785 2.6687 0.0000 26.3367 0.0000
# 6 0.0000 0.0000 0.0000 0.3674 0.0000 16.7453
#
#
#
# Elastic Compliance Matrix: (Units=1/GPa)
#
#
# Indices 1 2 3 4 5 6 
#
# 1 0.011627 -0.001766 0.000192 0.000000 -0.000045 0.000000
# 2 -0.001766 0.007226 -0.002514 0.000000 -0.001162 0.000000
# 3 0.000192 -0.002514 0.018273 0.000000 -0.001345 0.000000
# 4 0.000000 0.000000 0.000000 0.077788 0.000000 -0.001707
# 5 -0.000045 -0.001162 -0.001345 0.000000 0.038345 0.000000
# 6 0.000000 0.000000 0.000000 -0.001707 0.000000 0.059756
#
#
# Mechanical properties :
#
#
# Convention : Reuss Voigt Hill
#
# Bulk Modulus (GPa) = 34.54242 43.51858 39.03050
# Shear Modulus (GPa) = 21.66011 28.07373 24.86692
#
# Velocity S-wave (km/s) = 3.20945 3.65385 3.43884
# Velocity P-wave (km/s) = 5.49190 6.20454 5.85906
#
# Compressibility (1/GPa) = 0.02894991
#
# Stress axis : x y z
#
# Youngs Moduli (GPa) = 86.00792 138.39849 54.72548
#
# Poissons Ratio (x) = 0.24439 -0.01050
# Poissons Ratio (y) = 0.15187 0.13756
# Poissons Ratio (z) = -0.01649 0.34789
#
# Static dielectric constant tensor:
#      x y z
#    x 1.813720 0.000000 0.057660 
#    y 0.000000 1.872150 0.000000 
#    z 0.057660 0.000000 1.760900 
# 
# From -- ./inp_files/146232.got.cif
#   From: 2010.05.17/outbox.cif.g08.bks.cpg/sg12_74_cif.got.tgz:146232.got - 2010.06.03 13:09:07.
