data_PCOD9211844
_publ_section_title
;
Structure prediction by ZEFSAII (Michael W. Deem and Ramdas Pophale) SiO2 
 PCOD9211844
Probable space group: C 2/M
;
_chemical_formula_sum "Si O2"
_cell_formula_units_Z 56
_cell_length_a 19.244731
_cell_length_b 8.853549
_cell_length_c 27.446966
_cell_angle_alpha 90.000000
_cell_angle_beta 40.746500
_cell_angle_gamma 90.000000
_cell_volume 3052.433159
_symmetry_space_group_name_H-M "C 2/M"
_symmetry_group_IT_number 12
_symmetry_cell_setting 'monoclinic'
loop_
_space_group_symop_operation_xyz
x,y,z
-x,y,-z
-x,-y,-z
x,-y,z
1/2+x,1/2+y,z
1/2-x,1/2+y,-z
1/2-x,1/2-y,-z
1/2+x,1/2-y,z
loop_
_atom_site_type_symbol
_atom_site_label
_atom_site_fract_x
_atom_site_fract_y
_atom_site_fract_z
Si Si1 0.816448 0.680354 0.420709
Si Si2 0.964948 0.180630 0.073634
Si Si3 0.639324 0.828929 0.048596
Si Si4 0.733229 0.179356 0.761108
Si Si5 0.523856 0.167775 0.212345
Si Si6 0.309902 0.324251 0.321136
Si Si7 0.069191 0.323845 0.293198
O O1 0.805439 0.500000 0.426176
O O2 0.750000 0.750000 0.500000
O O3 0.777243 0.747115 0.389646
O O4 0.942995 0.714362 0.361660
O O5 0.858915 0.253400 0.154289
O O6 0.063143 0.232529 0.054762
O O7 0.950706 0.000000 0.082250
O O8 0.000000 0.224258 0.000000
O O9 0.584455 0.837998 0.130205
O O10 0.651498 0.000000 0.022974
O O11 0.750000 0.750000 0.000000
O O12 0.724689 0.246867 0.711021
O O13 0.848925 0.223858 0.720420
O O14 0.718364 0.000000 0.766731
O O15 0.436871 0.297320 0.255055
O O16 0.595909 0.188695 0.221471
O O17 0.471137 0.000000 0.247505
O O18 0.281861 0.500000 0.335719
O O19 0.081180 0.500000 0.301313
#
# Coordination Sequence:
#
# PCOD9211844 Si02
#       7
#     8   8   8   8   8   8   8
#     4  10  21  40  66  95 128 160 195 243 294 351
#     4  11  25  43  61  83 116 159 204 252 310 365
#     4  11  23  38  58  84 116 151 197 250 303 359
#     4  12  24  39  60  88 122 157 201 253 301 354
#     4   9  19  37  58  81 112 151 194 247 298 348
#     4  11  21  36  62  89 117 157 200 239 291 354
#     4   9  20  38  60  87 120 157 196 238 293 353
#
# _framework density 18.346019999999999
#
# number of rings (size 3 to 8) (size 9 to 14) (size 15 to 20)
#    0.000    1.571    1.429    4.714    2.000    4.571 
#    0.000    0.714    0.000    4.286    0.000    0.000 
#    0.000    0.000    0.000    0.000    0.000    0.000 
#
# Total GULP energy -156198.279830 kJ/mol
# GULP energy per Si atom -5578.509994 kJ/mol
# Density = 1.830426 g / cm^3
# Si number density = 18.346020 Si / 1000 Ang^3
#
#
#
# Elastic Constant Matrix: (Units=GPa)
#
#
# Indices 1 2 3 4 5 6 
#
# 1 126.9506 65.2240 66.7677 0.0000 19.8103 0.0000
# 2 65.2240 111.4036 54.8819 0.0000 15.3872 -0.0001
# 3 66.7677 54.8819 101.6391 0.0000 29.2077 0.0000
# 4 0.0000 0.0000 0.0000 28.3066 0.0000 -0.0521
# 5 19.8103 15.3872 29.2077 0.0000 29.1253 0.0000
# 6 0.0000 -0.0001 0.0000 -0.0521 0.0000 32.4675
#
#
#
# Elastic Compliance Matrix: (Units=1/GPa)
#
#
# Indices 1 2 3 4 5 6 
#
# 1 0.013764 -0.004913 -0.006244 0.000000 -0.000505 0.000000
# 2 -0.004913 0.013984 -0.004441 0.000000 0.000407 0.000000
# 3 -0.006244 -0.004441 0.020291 0.000000 -0.013756 0.000000
# 4 0.000000 0.000000 0.000000 0.035328 0.000000 0.000057
# 5 -0.000505 0.000407 -0.013756 0.000000 0.048258 0.000000
# 6 0.000000 0.000000 0.000000 0.000057 0.000000 0.030800
#
#
# Mechanical properties :
#
#
# Convention : Reuss Voigt Hill
#
# Bulk Modulus (GPa) = 59.36598 79.30450 69.33524
# Shear Modulus (GPa) = 25.09626 28.18786 26.64206
#
# Velocity S-wave (km/s) = 3.70258 3.92402 3.81491
# Velocity P-wave (km/s) = 7.12096 7.99071 7.56834
#
# Compressibility (1/GPa) = 0.01684467
#
# Stress axis : x y z
#
# Youngs Moduli (GPa) = 72.65526 71.50994 49.28282
#
# Poissons Ratio (x) = 0.35130 0.30771
# Poissons Ratio (y) = 0.35693 0.21885
# Poissons Ratio (z) = 0.45364 0.31756
#
# Static dielectric constant tensor:
#      x y z
#    x 1.619730 0.000000 0.017270 
#    y 0.000000 1.624900 0.000000 
#    z 0.017270 0.000000 1.637400 
# 
# From -- ./inp_files/363020.got.cif
#   From: 2010.05.17/outbox.cif.g08.bks.cpg/sg12_182_cif.got.tgz:363020.got - 2010.06.03 13:09:07.
