data_PCOD9211403
_publ_section_title
;
Structure prediction by ZEFSAII (Michael W. Deem and Ramdas Pophale) SiO2 
 PCOD9211403
Probable space group: C 2/M
;
_chemical_formula_sum "Si O2"
_cell_formula_units_Z 60
_cell_length_a 9.752406
_cell_length_b 9.520464
_cell_length_c 31.741666
_cell_angle_alpha 90.000000
_cell_angle_beta 78.401676
_cell_angle_gamma 90.000000
_cell_volume 2886.955015
_symmetry_space_group_name_H-M "C 2/M"
_symmetry_group_IT_number 12
_symmetry_cell_setting 'monoclinic'
loop_
_space_group_symop_operation_xyz
x,y,z
-x,y,-z
-x,-y,-z
x,-y,z
1/2+x,1/2+y,z
1/2-x,1/2+y,-z
1/2-x,1/2-y,-z
1/2+x,1/2-y,z
loop_
_atom_site_type_symbol
_atom_site_label
_atom_site_fract_x
_atom_site_fract_y
_atom_site_fract_z
Si Si1 0.795408 0.500000 0.995597
Si Si2 0.405982 0.726261 0.947606
Si Si3 0.074631 0.666464 0.241898
Si Si4 0.063608 0.335516 0.660616
Si Si5 0.871815 0.164957 0.611481
Si Si6 0.842302 0.337187 0.527313
Si Si7 0.121674 0.166607 0.804281
Si Si8 0.205048 0.835089 0.893942
O O1 0.896432 0.377074 0.969671
O O2 0.685515 0.619169 0.020192
O O3 0.327201 0.744695 0.907380
O O4 0.565225 0.680064 0.930634
O O5 0.056096 0.500000 0.236172
O O6 0.999711 0.703857 0.290238
O O7 0.239974 0.693721 0.232225
O O8 0.004514 0.748489 0.207870
O O9 0.026981 0.500000 0.654643
O O10 0.996582 0.237101 0.629343
O O11 0.230705 0.325179 0.648039
O O12 0.844527 0.252866 0.570889
O O13 0.897427 0.000000 0.600919
O O14 0.794986 0.500000 0.534957
O O15 0.750000 0.250000 0.500000
O O16 0.000000 0.340784 0.500000
O O17 0.163413 0.205657 0.849289
O O18 0.091959 0.000000 0.805877
O O19 0.245850 0.000000 0.891787
#
# Coordination Sequence:
#
# PCOD9211403 Si02
#       8
#     4   8   8   8   8   8   8   8
#     4  10  24  40  64  94 114 160 198 240 294 354
#     4  11  23  42  65  87 122 156 196 243 295 346
#     4  10  21  40  62  90 120 157 197 244 296 354
#     4  10  22  39  60  87 124 156 194 248 304 354
#     4  11  23  38  59  90 121 157 204 251 300 360
#     4  11  24  41  61  86 120 161 206 254 305 358
#     4  10  22  39  62  87 119 156 197 238 293 354
#     4  11  23  42  61  89 123 155 192 248 294 341
#
# _framework density 20.783142999999999
#
# number of rings (size 3 to 8) (size 9 to 14) (size 15 to 20)
#    0.000    1.467    1.333    3.200    0.000   10.133 
#    2.400    0.000    0.000    0.000    0.000    0.000 
#    0.000    0.000    0.000    0.000    0.000    0.000 
#
# Total GULP energy -167297.033620 kJ/mol
# GULP energy per Si atom -5576.567787 kJ/mol
# Density = 2.073584 g / cm^3
# Si number density = 20.783143 Si / 1000 Ang^3
#
#
#
# Elastic Constant Matrix: (Units=GPa)
#
#
# Indices 1 2 3 4 5 6 
#
# 1 52.0501 9.5438 -5.9588 0.0000 18.7979 0.0000
# 2 9.5438 97.9089 13.7722 0.0000 15.9440 0.0000
# 3 -5.9588 13.7722 53.8268 0.0000 -1.5365 0.0000
# 4 0.0000 0.0000 0.0000 32.3746 0.0000 -1.4935
# 5 18.7979 15.9440 -1.5365 0.0000 32.5796 0.0000
# 6 0.0000 0.0000 0.0000 -1.4935 0.0000 13.5668
#
#
#
# Elastic Compliance Matrix: (Units=1/GPa)
#
#
# Indices 1 2 3 4 5 6 
#
# 1 0.024575 -0.000489 0.002451 0.000000 -0.013825 0.000000
# 2 -0.000489 0.011613 -0.003184 0.000000 -0.005551 0.000000
# 3 0.002451 -0.003184 0.019695 0.000000 0.001073 0.000000
# 4 0.000000 0.000000 0.000000 0.031046 0.000000 0.003418
# 5 -0.013825 -0.005551 0.001073 0.000000 0.041438 0.000000
# 6 0.000000 0.000000 0.000000 0.003418 0.000000 0.074086
#
#
# Mechanical properties :
#
#
# Convention : Reuss Voigt Hill
#
# Bulk Modulus (GPa) = 18.71280 26.50004 22.60642
# Shear Modulus (GPa) = 22.45073 28.13275 25.29174
#
# Velocity S-wave (km/s) = 3.29026 3.68317 3.49224
# Velocity P-wave (km/s) = 4.84333 5.55572 5.21171
#
# Compressibility (1/GPa) = 0.05343936
#
# Stress axis : x y z
#
# Youngs Moduli (GPa) = 40.69125 86.10958 50.77500
#
# Poissons Ratio (x) = 0.04211 -0.12445
# Poissons Ratio (y) = 0.01990 0.16167
# Poissons Ratio (z) = -0.09974 0.27417
#
# Static dielectric constant tensor:
#      x y z
#    x 1.739370 0.000000 0.008020 
#    y 0.000000 1.703870 0.000000 
#    z 0.008020 0.000000 1.762040 
# 
# From -- ./inp_files/373599.got.cif
#   From: 2010.05.17/outbox.cif.g08.bks.cpg/sg12_187_cif.got.tgz:373599.got - 2010.06.03 13:09:07.
