data_PCOD9211184
_publ_section_title
;
Structure prediction by ZEFSAII (Michael W. Deem and Ramdas Pophale) SiO2 
 PCOD9211184
Probable space group: C 2/M
;
_chemical_formula_sum "Si O2"
_cell_formula_units_Z 48
_cell_length_a 17.071585
_cell_length_b 27.959485
_cell_length_c 8.732021
_cell_angle_alpha 90.000000
_cell_angle_beta 148.020643
_cell_angle_gamma 90.000000
_cell_volume 2207.379399
_symmetry_space_group_name_H-M "C 2/M"
_symmetry_group_IT_number 12
_symmetry_cell_setting 'monoclinic'
loop_
_space_group_symop_operation_xyz
x,y,z
-x,y,-z
-x,-y,-z
x,-y,z
1/2+x,1/2+y,z
1/2-x,1/2+y,-z
1/2-x,1/2-y,-z
1/2+x,1/2-y,z
loop_
_atom_site_type_symbol
_atom_site_label
_atom_site_fract_x
_atom_site_fract_y
_atom_site_fract_z
Si Si1 0.145700 0.315241 0.138529
Si Si2 0.056584 0.363522 0.434915
Si Si3 0.957446 0.050915 0.749983
Si Si4 0.714358 0.279584 0.094233
Si Si5 0.862685 0.445969 0.660322
Si Si6 0.035154 0.153831 0.239968
O O1 0.192500 0.260902 0.185476
O O2 0.290547 0.339452 0.448070
O O3 0.000000 0.316330 0.000000
O O4 0.086738 0.341984 0.889442
O O5 0.164757 0.318895 0.654115
O O6 0.134007 0.403913 0.459155
O O7 0.000000 0.384983 0.500000
O O8 0.780968 0.054219 0.470325
O O9 0.013249 0.101279 0.781659
O O10 0.003293 0.000000 0.756424
O O11 0.000000 0.049716 0.000000
O O12 0.750000 0.250000 0.000000
O O13 0.558718 0.307066 0.825252
O O14 0.870126 0.500000 0.605060
O O15 0.000000 0.438621 0.000000
O O16 0.000000 0.157592 0.000000
#
# Coordination Sequence:
#
# PCOD9211184 Si02
#       6
#     8   8   8   8   8   8
#     4  12  25  42  67  94 128 175 229 285 335 397
#     4  12  24  42  64  93 134 176 224 279 335 398
#     4   9  17  33  59  93 123 154 201 263 324 383
#     4  12  26  45  61  90 132 180 226 277 338 398
#     4  10  21  39  67  99 132 169 215 272 335 403
#     4  11  23  40  66  97 130 166 221 279 333 400
#
# _framework density 21.745244
#
# number of rings (size 3 to 8) (size 9 to 14) (size 15 to 20)
#    0.000    1.000    1.667    7.000    0.000    2.333 
#    0.000    0.833    0.000    0.000    0.000    1.167 
#    0.000    0.667    0.000    0.000    0.000    0.000 
#
# Total GULP energy -134163.914393 kJ/mol
# GULP energy per Si atom -5590.163100 kJ/mol
# Density = 2.169575 g / cm^3
# Si number density = 21.745244 Si / 1000 Ang^3
#
#
#
# Elastic Constant Matrix: (Units=GPa)
#
#
# Indices 1 2 3 4 5 6 
#
# 1 61.9473 46.1244 18.3980 0.0000 -2.8848 0.0000
# 2 46.1244 187.2476 17.4627 0.0000 -5.3251 0.0000
# 3 18.3980 17.4627 126.2860 0.0000 9.7954 0.0000
# 4 0.0000 0.0000 0.0000 24.6677 0.0000 5.7361
# 5 -2.8848 -5.3251 9.7954 0.0000 18.9190 0.0000
# 6 0.0000 0.0000 0.0000 5.7361 0.0000 6.3926
#
#
#
# Elastic Compliance Matrix: (Units=1/GPa)
#
#
# Indices 1 2 3 4 5 6 
#
# 1 0.020587 -0.004741 -0.002588 0.000000 0.003145 0.000000
# 2 -0.004741 0.006575 -0.000319 0.000000 0.001293 0.000000
# 3 -0.002588 -0.000319 0.008728 0.000000 -0.005003 0.000000
# 4 0.000000 0.000000 0.000000 0.051228 0.000000 -0.045967
# 5 0.003145 0.001293 -0.005003 0.000000 0.056291 0.000000
# 6 0.000000 0.000000 0.000000 -0.045967 0.000000 0.197678
#
#
# Mechanical properties :
#
#
# Convention : Reuss Voigt Hill
#
# Bulk Modulus (GPa) = 48.55356 59.93902 54.24629
# Shear Modulus (GPa) = 13.76481 29.56225 21.66353
#
# Velocity S-wave (km/s) = 2.51868 3.69111 3.15975
# Velocity P-wave (km/s) = 5.55294 6.76682 6.18971
#
# Compressibility (1/GPa) = 0.02059581
#
# Stress axis : x y z
#
# Youngs Moduli (GPa) = 48.57346 152.09721 114.57812
#
# Poissons Ratio (x) = 0.72102 0.29649
# Poissons Ratio (y) = 0.23026 0.03653
# Poissons Ratio (z) = 0.12569 0.04849
#
# Static dielectric constant tensor:
#      x y z
#    x 1.813350 0.000000 -0.017470 
#    y 0.000000 1.842260 0.000000 
#    z -0.017470 0.000000 1.779240 
# 
# From -- ./inp_files/80810.got.cif
#   From: 2010.05.17/outbox.cif.g08.bks.cpg/sg12_41_cif.got.tgz:80810.got - 2010.06.03 13:09:07.
