data_PCOD9211398
_publ_section_title
;
Structure prediction by ZEFSAII (Michael W. Deem and Ramdas Pophale) SiO2 
 PCOD9211398
Probable space group: C 2/M
;
_chemical_formula_sum "Si O2"
_cell_formula_units_Z 64
_cell_length_a 27.405547
_cell_length_b 15.066970
_cell_length_c 18.978172
_cell_angle_alpha 90.000000
_cell_angle_beta 24.000837
_cell_angle_gamma 90.000000
_cell_volume 3187.471615
_symmetry_space_group_name_H-M "C 2/M"
_symmetry_group_IT_number 12
_symmetry_cell_setting 'monoclinic'
loop_
_space_group_symop_operation_xyz
x,y,z
-x,y,-z
-x,-y,-z
x,-y,z
1/2+x,1/2+y,z
1/2-x,1/2+y,-z
1/2-x,1/2-y,-z
1/2+x,1/2-y,z
loop_
_atom_site_type_symbol
_atom_site_label
_atom_site_fract_x
_atom_site_fract_y
_atom_site_fract_z
Si Si1 0.280953 0.893958 0.119967
Si Si2 0.845776 0.775537 0.432671
Si Si3 0.037770 0.350966 0.339093
Si Si4 0.601822 0.649954 0.229507
Si Si5 0.517498 0.098352 0.733768
Si Si6 0.326657 0.396047 0.591269
Si Si7 0.316449 0.103267 0.714457
Si Si8 0.421137 0.394122 0.898491
O O1 0.193755 0.871146 0.170256
O O2 0.235649 0.861689 0.255277
O O3 0.279073 0.000000 0.127204
O O4 0.416627 0.870034 0.921764
O O5 0.750000 0.750000 0.500000
O O6 0.891834 0.678849 0.395326
O O7 0.800001 0.834121 0.559157
O O8 0.959229 0.834576 0.255759
O O9 0.083974 0.254922 0.256468
O O10 0.113939 0.388478 0.303147
O O11 0.045014 0.408094 0.259672
O O12 0.900744 0.345981 0.548328
O O13 0.470165 0.608234 0.415551
O O14 0.633146 0.621502 0.108634
O O15 0.563835 0.000000 0.691782
O O16 0.295771 0.500000 0.618684
O O17 0.315718 0.000000 0.693804
O O18 0.180702 0.131313 0.910469
O O19 0.446457 0.500000 0.871419
#
# Coordination Sequence:
#
# PCOD9211398 Si02
#       8
#     8   8   8   8   8   8   8   8
#     4  10  22  36  57  90 127 164 198 239 296 367
#     4  11  24  43  64  88 113 149 204 258 318 364
#     4  11  21  33  54  88 127 169 202 238 290 359
#     4  11  20  31  55  91 126 166 199 234 292 359
#     4  11  23  40  60  85 119 157 201 252 307 366
#     4  10  21  40  62  89 124 159 199 245 298 363
#     4  10  22  36  55  84 123 170 208 239 287 356
#     4  10  21  40  63  88 121 161 205 252 299 360
#
# _framework density 20.078610000000001
#
# number of rings (size 3 to 8) (size 9 to 14) (size 15 to 20)
#    0.000    1.500    2.500    4.875    5.250    5.000 
#    0.000    0.625    0.000    2.250    0.000    2.625 
#    0.000    0.000    0.000    0.000    0.000    0.000 
#
# Total GULP energy -178647.146770 kJ/mol
# GULP energy per Si atom -5582.723337 kJ/mol
# Density = 2.003291 g / cm^3
# Si number density = 20.078610 Si / 1000 Ang^3
#
#
#
# Elastic Constant Matrix: (Units=GPa)
#
#
# Indices 1 2 3 4 5 6 
#
# 1 80.7490 35.2889 35.1099 0.0000 -5.7728 0.0000
# 2 35.2889 83.1171 20.2701 0.0000 -0.7374 0.0000
# 3 35.1099 20.2701 69.8461 0.0000 20.6694 0.0000
# 4 0.0000 0.0000 0.0000 14.9668 0.0000 0.4187
# 5 -5.7728 -0.7374 20.6694 0.0000 21.5098 0.0000
# 6 0.0000 0.0000 0.0000 0.4187 0.0000 -8.5730
#
#
#
# Elastic Compliance Matrix: (Units=1/GPa)
#
#
# Indices 1 2 3 4 5 6 
#
# 1 0.023949 -0.005812 -0.017041 0.000000 0.022604 0.000000
# 2 -0.005812 0.014872 -0.001514 0.000000 0.000405 0.000000
# 3 -0.017041 -0.001514 0.034503 0.000000 -0.037781 0.000000
# 4 0.000000 0.000000 0.000000 0.066723 0.000000 0.003259
# 5 0.022604 0.000405 -0.037781 0.000000 0.088875 0.000000
# 6 0.000000 0.000000 0.000000 0.003259 0.000000 -0.116486
#
#
# Mechanical properties :
#
#
# Convention : Reuss Voigt Hill
#
# Bulk Modulus (GPa) = 40.66782 46.11669 43.39225
# Shear Modulus (GPa) = 29.52144 15.11695 22.31920
#
# Velocity S-wave (km/s) = 3.83860 2.74686 3.33767
# Velocity P-wave (km/s) = 6.32019 5.75137 6.04247
#
# Compressibility (1/GPa) = 0.02458947
#
# Stress axis : x y z
#
# Youngs Moduli (GPa) = 41.75457 67.24206 28.98271
#
# Poissons Ratio (x) = 0.39079 0.49390
# Poissons Ratio (y) = 0.24267 0.04389
# Poissons Ratio (z) = 0.71155 0.10184
#
# Static dielectric constant tensor:
#      x y z
#    x 1.736160 0.000000 -0.008960 
#    y 0.000000 1.722420 0.000000 
#    z -0.008960 0.000000 1.782310 
# 
# From -- ./inp_files/330352.got.cif
#   From: 2010.05.17/outbox.cif.g08.bks.cpg/sg12_166_cif.got.tgz:330352.got - 2010.06.03 13:09:07.
