data_PCOD9211937
_publ_section_title
;
Structure prediction by ZEFSAII (Michael W. Deem and Ramdas Pophale) SiO2 
 PCOD9211937
Probable space group: C 2/M
;
_chemical_formula_sum "Si O2"
_cell_formula_units_Z 40
_cell_length_a 8.911780
_cell_length_b 21.312711
_cell_length_c 16.927620
_cell_angle_alpha 90.000000
_cell_angle_beta 145.378383
_cell_angle_gamma 90.000000
_cell_volume 1826.691990
_symmetry_space_group_name_H-M "C 2/M"
_symmetry_group_IT_number 12
_symmetry_cell_setting 'monoclinic'
loop_
_space_group_symop_operation_xyz
x,y,z
-x,y,-z
-x,-y,-z
x,-y,z
1/2+x,1/2+y,z
1/2-x,1/2+y,-z
1/2-x,1/2-y,-z
1/2+x,1/2-y,z
loop_
_atom_site_type_symbol
_atom_site_label
_atom_site_fract_x
_atom_site_fract_y
_atom_site_fract_z
Si Si1 0.729581 0.675224 0.363083
Si Si2 0.904445 0.426021 0.136582
Si Si3 0.417287 0.069213 0.324862
Si Si4 0.005649 0.887279 0.415016
Si Si5 0.243477 0.686208 0.044774
O O1 0.826116 0.614124 0.355222
O O2 0.583387 0.660691 0.381024
O O3 0.507017 0.697779 0.209031
O O4 0.000000 0.710772 0.500000
O O5 0.840199 0.500000 0.093918
O O6 0.841357 0.411694 0.202003
O O7 0.224625 0.417790 0.271895
O O8 0.775928 0.375559 0.020702
O O9 0.737037 0.068234 0.467620
O O10 0.309896 0.000000 0.291605
O O11 0.000000 0.858825 0.500000
O O12 0.250000 0.750000 0.000000
O O13 0.000000 0.680870 0.000000
#
# Coordination Sequence:
#
# PCOD9211937 Si02
#       5
#     8   8   8   8   8
#     4  10  22  42  66  99 133 176 230 274 334 404
#     4  10  21  40  68 102 137 179 230 280 336 401
#     4   9  19  34  61 101 143 181 218 276 343 400
#     4   9  17  35  62  96 140 179 223 280 336 397
#     4  12  28  49  71  99 138 182 222 280 345 404
#
# _framework density 21.897506
#
# number of rings (size 3 to 8) (size 9 to 14) (size 15 to 20)
#    0.000    2.000    2.000    0.600    2.800    8.000 
#    0.000    6.000    0.000    0.000    0.000    0.000 
#    0.000    0.000    0.000    0.000    0.000    0.000 
#
# Total GULP energy -111502.811257 kJ/mol
# GULP energy per Si atom -5575.140563 kJ/mol
# Density = 2.184767 g / cm^3
# Si number density = 21.897506 Si / 1000 Ang^3
#
#
#
# Elastic Constant Matrix: (Units=GPa)
#
#
# Indices 1 2 3 4 5 6 
#
# 1 110.0929 44.9853 43.7451 -0.0001 -15.9729 0.0011
# 2 44.9853 85.1421 48.1012 0.0024 -20.5383 0.0016
# 3 43.7451 48.1012 164.0527 0.0068 -23.4631 0.0062
# 4 -0.0001 0.0024 0.0068 17.2034 0.0002 -1.6043
# 5 -15.9729 -20.5383 -23.4631 0.0002 36.9555 -0.0009
# 6 0.0011 0.0016 0.0062 -1.6043 -0.0009 5.8441
#
#
#
# Elastic Compliance Matrix: (Units=1/GPa)
#
#
# Indices 1 2 3 4 5 6 
#
# 1 0.011981 -0.005161 -0.001486 0.000001 0.001367 0.000001
# 2 -0.005161 0.017494 -0.002949 -0.000001 0.005619 0.000000
# 3 -0.001486 -0.002949 0.007732 -0.000003 0.002628 -0.000008
# 4 0.000001 -0.000001 -0.000003 0.059655 -0.000002 0.016376
# 5 0.001367 0.005619 0.002628 -0.000002 0.032442 0.000000
# 6 0.000001 0.000000 -0.000008 0.016376 0.000000 0.175610
#
#
# Mechanical properties :
#
#
# Convention : Reuss Voigt Hill
#
# Bulk Modulus (GPa) = 55.51199 70.32787 62.91993
# Shear Modulus (GPa) = 15.14643 26.83099 20.98871
#
# Velocity S-wave (km/s) = 2.63287 3.50422 3.09932
# Velocity P-wave (km/s) = 5.88630 6.96845 6.45011
#
# Compressibility (1/GPa) = 0.01801413
#
# Stress axis : x y z
#
# Youngs Moduli (GPa) = 83.46682 57.16388 129.32442
#
# Poissons Ratio (x) = 0.29502 0.19218
# Poissons Ratio (y) = 0.43076 0.38143
# Poissons Ratio (z) = 0.12404 0.16860
#
# Static dielectric constant tensor:
#      x y z
#    x 1.790990 0.000000 0.040540 
#    y 0.000000 1.773440 -0.000010 
#    z 0.040540 -0.000010 1.939410 
# 
# From -- ./inp_files/259353.got.cif
#   From: 2010.05.17/outbox.cif.g08.bks.cpg/sg12_130_cif.got.tgz:259353.got - 2010.06.03 13:09:07.
