data_PCOD9211478
_publ_section_title
;
Structure prediction by ZEFSAII (Michael W. Deem and Ramdas Pophale) SiO2 
 PCOD9211478
Probable space group: C 2/M
;
_chemical_formula_sum "Si O2"
_cell_formula_units_Z 56
_cell_length_a 25.267861
_cell_length_b 9.257447
_cell_length_c 14.780901
_cell_angle_alpha 90.000000
_cell_angle_beta 119.347461
_cell_angle_gamma 90.000000
_cell_volume 3013.765998
_symmetry_space_group_name_H-M "C 2/M"
_symmetry_group_IT_number 12
_symmetry_cell_setting 'monoclinic'
loop_
_space_group_symop_operation_xyz
x,y,z
-x,y,-z
-x,-y,-z
x,-y,z
1/2+x,1/2+y,z
1/2-x,1/2+y,-z
1/2-x,1/2-y,-z
1/2+x,1/2-y,z
loop_
_atom_site_type_symbol
_atom_site_label
_atom_site_fract_x
_atom_site_fract_y
_atom_site_fract_z
Si Si1 0.400528 0.169287 0.484359
Si Si2 0.523361 0.671813 0.297487
Si Si3 0.229983 0.829249 0.892858
Si Si4 0.179250 0.329441 0.197096
Si Si5 0.900150 0.172621 0.295844
Si Si6 0.741431 0.830579 0.587033
Si Si7 0.945568 0.171922 0.884300
O O1 0.434680 0.242473 0.597091
O O2 0.415056 0.247818 0.402080
O O3 0.328271 0.182845 0.439805
O O4 0.415974 0.000000 0.492211
O O5 0.534890 0.500000 0.317767
O O6 0.453811 0.697818 0.269011
O O7 0.536072 0.708986 0.203665
O O8 0.281717 0.809559 0.860940
O O9 0.165101 0.779854 0.798000
O O10 0.223735 0.000000 0.905991
O O11 0.250000 0.750000 0.000000
O O12 0.176828 0.500000 0.215396
O O13 0.214896 0.245273 0.304947
O O14 0.112703 0.262653 0.135488
O O15 0.896799 0.000000 0.310751
O O16 0.750000 0.750000 0.500000
O O17 0.755997 0.000000 0.590668
O O18 0.931637 0.000000 0.874610
O O19 0.000000 0.197355 0.000000
#
# Coordination Sequence:
#
# PCOD9211478 Si02
#       7
#     8   8   8   8   8   8   8
#     4  11  23  38  58  89 123 156 196 247 303 358
#     4  10  22  39  61  88 119 160 204 245 296 357
#     4  10  23  40  63  92 122 158 202 251 304 359
#     4  11  23  41  63  91 124 159 201 250 306 363
#     4  10  21  40  63  88 120 160 200 244 297 359
#     4  11  23  38  60  89 122 162 204 249 303 361
#     4  10  23  42  65  91 120 160 207 252 300 358
#
# _framework density 18.581403999999999
#
# number of rings (size 3 to 8) (size 9 to 14) (size 15 to 20)
#    0.000    1.571    1.429    2.571    2.000    8.857 
#    0.000    0.000    0.000    0.000    0.000    0.000 
#    0.000    0.000    0.000    0.000    0.000    0.000 
#
# Total GULP energy -156510.872755 kJ/mol
# GULP energy per Si atom -5589.674027 kJ/mol
# Density = 1.853911 g / cm^3
# Si number density = 18.581404 Si / 1000 Ang^3
#
#
#
# Elastic Constant Matrix: (Units=GPa)
#
#
# Indices 1 2 3 4 5 6 
#
# 1 37.5473 54.9678 26.9146 0.0000 45.7253 0.0000
# 2 54.9678 79.9707 66.7732 0.0000 13.8678 0.0000
# 3 26.9146 66.7732 126.9242 0.0000 19.4433 0.0000
# 4 0.0000 0.0000 0.0000 36.2424 0.0000 2.3903
# 5 45.7253 13.8678 19.4433 0.0000 8.2787 0.0000
# 6 0.0000 0.0000 0.0000 2.3903 0.0000 32.1466
#
#
#
# Elastic Compliance Matrix: (Units=1/GPa)
#
#
# Indices 1 2 3 4 5 6 
#
# 1 -0.003353 0.000970 -0.003729 0.000000 0.025652 0.000000
# 2 0.000970 0.023336 -0.008862 0.000000 -0.023633 0.000000
# 3 -0.003729 -0.008862 0.012344 0.000000 0.006450 0.000000
# 4 0.000000 0.000000 0.000000 0.027728 0.000000 -0.002062
# 5 0.025652 -0.023633 0.006450 0.000000 0.003549 0.000000
# 6 0.000000 0.000000 0.000000 -0.002062 0.000000 0.031261
#
#
# Mechanical properties :
#
#
# Convention : Reuss Voigt Hill
#
# Bulk Modulus (GPa) = 110.08083 60.19482 85.13783
# Shear Modulus (GPa) = 41.27646 21.71933 31.49790
#
# Velocity S-wave (km/s) = 4.71827 3.42259 4.12166
# Velocity P-wave (km/s) = 9.43684 6.93429 8.28065
#
# Compressibility (1/GPa) = 0.00908423
#
# Stress axis : x y z
#
# Youngs Moduli (GPa) = -298.24508 42.85262 81.01355
#
# Poissons Ratio (x) = -0.04155 0.30208
# Poissons Ratio (y) = 0.28920 0.71795
# Poissons Ratio (z) = -1.11208 0.37976
#
# Static dielectric constant tensor:
#      x y z
#    x 1.638570 0.000000 0.009430 
#    y 0.000000 1.623450 0.000000 
#    z 0.009430 0.000000 1.603500 
# 
# From -- ./inp_files/239032.got.cif
#   From: 2010.05.17/outbox.cif.g08.bks.cpg/sg12_120_cif.got.tgz:239032.got - 2010.06.03 13:09:07.
