data_PCOD9211309
_publ_section_title
;
Structure prediction by ZEFSAII (Michael W. Deem and Ramdas Pophale) SiO2 
 PCOD9211309
Probable space group: C 2/M
;
_chemical_formula_sum "Si O2"
_cell_formula_units_Z 64
_cell_length_a 19.375783
_cell_length_b 21.822977
_cell_length_c 9.206858
_cell_angle_alpha 90.000000
_cell_angle_beta 123.137642
_cell_angle_gamma 90.000000
_cell_volume 3259.843781
_symmetry_space_group_name_H-M "C 2/M"
_symmetry_group_IT_number 12
_symmetry_cell_setting 'monoclinic'
loop_
_space_group_symop_operation_xyz
x,y,z
-x,y,-z
-x,-y,-z
x,-y,z
1/2+x,1/2+y,z
1/2-x,1/2+y,-z
1/2-x,1/2-y,-z
1/2+x,1/2-y,z
loop_
_atom_site_type_symbol
_atom_site_label
_atom_site_fract_x
_atom_site_fract_y
_atom_site_fract_z
Si Si1 0.686067 0.181801 0.700373
Si Si2 0.064950 0.737776 0.751748
Si Si3 0.404857 0.826066 0.912600
Si Si4 0.676120 0.650700 0.906139
Si Si5 0.417048 0.430819 0.972459
Si Si6 0.709876 0.610751 0.396338
Si Si7 0.625494 0.737872 0.391736
Si Si8 0.728461 0.928195 0.221178
O O1 0.596815 0.185265 0.676639
O O2 0.712877 0.128153 0.619649
O O3 0.685236 0.239124 0.588844
O O4 0.753067 0.178966 0.906733
O O5 0.120286 0.796188 0.775325
O O6 0.969165 0.756891 0.657101
O O7 0.095635 0.716087 0.945182
O O8 0.373251 0.786330 0.739769
O O9 0.354022 0.887661 0.875004
O O10 0.500000 0.841546 0.000000
O O11 0.714607 0.606381 0.830491
O O12 0.617251 0.611098 0.940926
O O13 0.433610 0.500000 0.041891
O O14 0.349459 0.430493 0.768615
O O15 0.500000 0.404144 0.000000
O O16 0.657343 0.672561 0.372408
O O17 0.735529 0.580409 0.575905
O O18 0.718466 0.000000 0.176340
#
# Coordination Sequence:
#
# PCOD9211309 Si02
#       8
#     8   8   8   8   8   8   8   8
#     4  11  21  34  59  88 117 155 191 244 306 365
#     4  11  22  37  60  91 125 156 193 250 317 371
#     4  10  22  40  63  90 123 162 205 250 306 369
#     4  11  23  37  62  90 122 158 203 249 303 365
#     4  10  21  40  61  83 117 162 209 249 287 343
#     4  11  23  37  62  90 122 158 203 249 303 365
#     4  11  22  37  60  91 125 156 193 250 317 371
#     4  12  25  42  62  87 124 169 212 249 294 356
#
# _framework density 19.632843000000001
#
# number of rings (size 3 to 8) (size 9 to 14) (size 15 to 20)
#    0.000    1.125    2.500    4.875    3.500    1.250 
#    0.000    1.875    0.000    4.500    0.000    3.500 
#    0.000    0.000    0.000    0.000    0.000    0.000 
#
# Total GULP energy -178663.976760 kJ/mol
# GULP energy per Si atom -5583.249274 kJ/mol
# Density = 1.958816 g / cm^3
# Si number density = 19.632843 Si / 1000 Ang^3
#
#
#
# Elastic Constant Matrix: (Units=GPa)
#
#
# Indices 1 2 3 4 5 6 
#
# 1 138.0852 49.8139 14.3300 0.0000 -11.2926 0.0000
# 2 49.8139 95.6371 11.0126 0.0000 1.0055 0.0000
# 3 14.3300 11.0126 39.6994 0.0000 -12.9856 0.0000
# 4 0.0000 0.0000 0.0000 8.3288 0.0000 1.7418
# 5 -11.2926 1.0055 -12.9856 0.0000 22.2377 0.0000
# 6 0.0000 0.0000 0.0000 1.7418 0.0000 13.4184
#
#
#
# Elastic Compliance Matrix: (Units=1/GPa)
#
#
# Indices 1 2 3 4 5 6 
#
# 1 0.009454 -0.004916 -0.000502 0.000000 0.004730 0.000000
# 2 -0.004916 0.013497 -0.003691 0.000000 -0.005262 0.000000
# 3 -0.000502 -0.003691 0.032590 0.000000 0.018943 0.000000
# 4 0.000000 0.000000 0.000000 0.123416 0.000000 -0.016020
# 5 0.004730 -0.005262 0.018943 0.000000 0.058670 0.000000
# 6 0.000000 0.000000 0.000000 -0.016020 0.000000 0.076604
#
#
# Mechanical properties :
#
#
# Convention : Reuss Voigt Hill
#
# Bulk Modulus (GPa) = 26.79194 47.08165 36.93679
# Shear Modulus (GPa) = 14.49732 22.01465 18.25598
#
# Velocity S-wave (km/s) = 2.72034 3.35224 3.05268
# Velocity P-wave (km/s) = 4.85212 6.24632 5.59283
#
# Compressibility (1/GPa) = 0.03732466
#
# Stress axis : x y z
#
# Youngs Moduli (GPa) = 105.77074 74.08890 30.68396
#
# Poissons Ratio (x) = 0.36425 0.01539
# Poissons Ratio (y) = 0.52002 0.11325
# Poissons Ratio (z) = 0.05305 0.27344
#
# Static dielectric constant tensor:
#      x y z
#    x 1.740960 0.000000 -0.005380 
#    y 0.000000 1.673980 0.000000 
#    z -0.005380 0.000000 1.703480 
# 
# From -- ./inp_files/89637.got.cif
#   From: 2010.05.17/outbox.cif.g08.bks.cpg/sg12_45_cif.got.tgz:89637.got - 2010.06.03 13:09:07.
