data_PCOD9211133
_publ_section_title
;
Structure prediction by ZEFSAII (Michael W. Deem and Ramdas Pophale) SiO2 
 PCOD9211133
Probable space group: C 2/M
;
_chemical_formula_sum "Si O2"
_cell_formula_units_Z 64
_cell_length_a 8.795873
_cell_length_b 26.898989
_cell_length_c 13.983087
_cell_angle_alpha 90.000000
_cell_angle_beta 56.706663
_cell_angle_gamma 90.000000
_cell_volume 2765.396000
_symmetry_space_group_name_H-M "C 2/M"
_symmetry_group_IT_number 12
_symmetry_cell_setting 'monoclinic'
loop_
_space_group_symop_operation_xyz
x,y,z
-x,y,-z
-x,-y,-z
x,-y,z
1/2+x,1/2+y,z
1/2-x,1/2+y,-z
1/2-x,1/2-y,-z
1/2+x,1/2-y,z
loop_
_atom_site_type_symbol
_atom_site_label
_atom_site_fract_x
_atom_site_fract_y
_atom_site_fract_z
Si Si1 0.565676 0.940777 0.778879
Si Si2 0.168411 0.557114 0.518426
Si Si3 0.858875 0.119352 0.309230
Si Si4 0.157281 0.059618 0.875987
Si Si5 0.688630 0.254980 0.914336
Si Si6 0.403161 0.796141 0.664515
Si Si7 0.793165 0.801826 0.591864
Si Si8 0.761596 0.350002 0.197211
O O1 0.623427 0.934901 0.645876
O O2 0.353497 0.926351 0.849570
O O3 0.659822 0.906025 0.827066
O O4 0.587115 0.000000 0.792044
O O5 0.230416 0.500000 0.488584
O O6 0.318140 0.594349 0.425127
O O7 0.000000 0.561773 0.500000
O O8 0.867865 0.079047 0.222304
O O9 0.692160 0.154497 0.338375
O O10 0.047988 0.148688 0.245766
O O11 0.152780 0.000000 0.874664
O O12 0.000000 0.078248 0.000000
O O13 0.829972 0.282901 0.796331
O O14 0.660900 0.198871 0.882165
O O15 0.500000 0.283158 0.000000
O O16 0.750000 0.250000 0.000000
O O17 0.621702 0.797779 0.580390
O O18 0.321751 0.751465 0.630898
O O19 0.718121 0.837607 0.698646
O O20 0.000000 0.817762 0.500000
#
# Coordination Sequence:
#
# PCOD9211133 Si02
#       8
#     8   8   8   8   8   8   8   8
#     4  10  22  44  68  96 138 181 228 286 347 410
#     4  10  21  39  66  96 131 179 231 282 338 408
#     4  12  24  38  65  98 135 171 229 281 340 416
#     4  10  22  42  66  92 127 176 230 290 352 410
#     4  11  23  45  72  93 130 176 225 283 337 400
#     4  11  24  44  66 100 128 171 229 277 340 411
#     4  11  24  43  64  89 136 174 215 273 341 408
#     4  11  26  41  63 103 134 176 230 275 341 415
#
# _framework density 23.143160000000002
#
# number of rings (size 3 to 8) (size 9 to 14) (size 15 to 20)
#    0.000    1.250    1.250    5.250    1.750    4.000 
#    0.000    1.250    0.000    2.625    0.000    0.000 
#    0.000    0.000    0.000    0.000    0.000    0.000 
#
# Total GULP energy -178791.164375 kJ/mol
# GULP energy per Si atom -5587.223887 kJ/mol
# Density = 2.309049 g / cm^3
# Si number density = 23.143160 Si / 1000 Ang^3
#
#
#
# Elastic Constant Matrix: (Units=GPa)
#
#
# Indices 1 2 3 4 5 6 
#
# 1 78.4943 23.4351 26.5188 0.0000 -13.7680 0.0000
# 2 23.4351 80.3110 33.8299 0.0000 -0.7826 0.0000
# 3 26.5188 33.8299 114.7680 0.0000 -14.3464 0.0000
# 4 0.0000 0.0000 0.0000 -5.5687 0.0000 -6.4430
# 5 -13.7680 -0.7826 -14.3464 0.0000 34.6066 0.0000
# 6 0.0000 0.0000 0.0000 -6.4430 0.0000 35.8663
#
#
#
# Elastic Compliance Matrix: (Units=1/GPa)
#
#
# Indices 1 2 3 4 5 6 
#
# 1 0.015374 -0.003673 -0.001809 0.000000 0.005283 0.000000
# 2 -0.003673 0.015168 -0.003968 0.000000 -0.002763 0.000000
# 3 -0.001809 -0.003968 0.010757 0.000000 0.003650 0.000000
# 4 0.000000 0.000000 0.000000 -0.148675 0.000000 -0.026708
# 5 0.005283 -0.002763 0.003650 0.000000 0.032449 0.000000
# 6 0.000000 0.000000 0.000000 -0.026708 0.000000 0.023083
#
#
# Mechanical properties :
#
#
# Convention : Reuss Voigt Hill
#
# Bulk Modulus (GPa) = 44.64367 49.01564 46.82966
# Shear Modulus (GPa) = -196.25309 25.63348 -85.30981
#
# Velocity S-wave (km/s) = -9.21866 3.33168 -6.07798
# Velocity P-wave (km/s) = 9.69430 6.00212 5.38303
#
# Compressibility (1/GPa) = 0.02239959
#
# Stress axis : x y z
#
# Youngs Moduli (GPa) = 65.04366 65.92960 92.96162
#
# Poissons Ratio (x) = 0.24213 0.16821
# Poissons Ratio (y) = 0.23888 0.36885
# Poissons Ratio (z) = 0.11769 0.26159
#
# Static dielectric constant tensor:
#      x y z
#    x 1.903640 0.000000 -0.214250 
#    y 0.000000 1.898790 0.000000 
#    z -0.214250 0.000000 2.611400 
# 
# From -- ./inp_files/201278.got.cif
#   From: 2010.05.17/outbox.cif.g08.bks.cpg/sg12_101_cif.got.tgz:201278.got - 2010.06.03 13:09:07.
