data_PCOD9211847
_publ_section_title
;
Structure prediction by ZEFSAII (Michael W. Deem and Ramdas Pophale) SiO2 
 PCOD9211847
Probable space group: C 2/M
;
_chemical_formula_sum "Si O2"
_cell_formula_units_Z 56
_cell_length_a 19.114087
_cell_length_b 22.201437
_cell_length_c 17.249348
_cell_angle_alpha 90.000000
_cell_angle_beta 21.283235
_cell_angle_gamma 90.000000
_cell_volume 2656.980374
_symmetry_space_group_name_H-M "C 2/M"
_symmetry_group_IT_number 12
_symmetry_cell_setting 'monoclinic'
loop_
_space_group_symop_operation_xyz
x,y,z
-x,y,-z
-x,-y,-z
x,-y,z
1/2+x,1/2+y,z
1/2-x,1/2+y,-z
1/2-x,1/2-y,-z
1/2+x,1/2-y,z
loop_
_atom_site_type_symbol
_atom_site_label
_atom_site_fract_x
_atom_site_fract_y
_atom_site_fract_z
Si Si1 0.823472 0.649555 0.493014
Si Si2 0.526544 0.069779 0.792678
Si Si3 0.634268 0.750381 0.199648
Si Si4 0.422681 0.334838 0.992107
Si Si5 0.761368 0.932434 0.698593
Si Si6 0.861259 0.115594 0.753633
Si Si7 0.096692 0.567741 0.316001
O O1 0.850260 0.619042 0.381476
O O2 0.942350 0.711067 0.382252
O O3 0.942395 0.602058 0.422560
O O4 0.606837 0.659223 0.745597
O O5 0.585871 0.073373 0.821545
O O6 0.556591 0.000000 0.737669
O O7 0.302245 0.088381 0.021696
O O8 0.774919 0.782916 0.116699
O O9 0.591804 0.682861 0.269462
O O10 0.750000 0.750000 0.000000
O O11 0.293557 0.394931 0.118701
O O12 0.500000 0.326521 0.000000
O O13 0.782107 0.885819 0.746831
O O14 0.948155 0.924262 0.451028
O O15 0.762025 0.000000 0.731650
O O16 0.131056 0.500000 0.252860
O O17 0.000000 0.565943 0.500000
#
# Coordination Sequence:
#
# PCOD9211847 Si02
#       7
#     8   8   8   8   8   8   8
#     4  11  24  43  66  93 136 173 221 272 328 391
#     4  11  23  39  65  97 131 168 213 267 332 400
#     4  11  26  45  65  96 131 177 223 272 329 395
#     4  11  25  43  67  97 130 172 221 280 326 388
#     4  10  23  41  67 101 129 164 215 269 334 407
#     4  11  22  42  65  91 130 172 211 269 328 385
#     4  10  21  40  66  95 130 168 213 268 329 390
#
# _framework density 21.076557999999999
#
# number of rings (size 3 to 8) (size 9 to 14) (size 15 to 20)
#    0.000    1.286    2.857    2.571    2.000    7.714 
#    0.000    1.429    0.000    0.000    0.000    0.000 
#    0.000    0.000    0.000    0.000    0.000    0.000 
#
# Total GULP energy -156493.363295 kJ/mol
# GULP energy per Si atom -5589.048689 kJ/mol
# Density = 2.102859 g / cm^3
# Si number density = 21.076558 Si / 1000 Ang^3
#
#
#
# Elastic Constant Matrix: (Units=GPa)
#
#
# Indices 1 2 3 4 5 6 
#
# 1 48.9150 19.7174 -16.9032 -0.0122 -1.9884 0.0028
# 2 19.7174 117.0783 21.4945 -0.0204 -2.5136 0.0138
# 3 -16.9032 21.4945 125.3026 -0.0324 -11.9172 0.0131
# 4 -0.0122 -0.0204 -0.0324 20.0421 0.0321 12.6568
# 5 -1.9884 -2.5136 -11.9172 0.0321 30.6826 -0.0203
# 6 0.0028 0.0138 0.0131 12.6568 -0.0203 23.6223
#
#
#
# Elastic Compliance Matrix: (Units=1/GPa)
#
#
# Indices 1 2 3 4 5 6 
#
# 1 0.023976 -0.004770 0.004323 0.000018 0.002842 -0.000010
# 2 -0.004770 0.009769 -0.002360 0.000010 -0.000425 -0.000009
# 3 0.004323 -0.002360 0.009321 0.000015 0.003707 -0.000009
# 4 0.000018 0.000010 0.000015 0.075411 -0.000098 -0.040405
# 5 0.002842 -0.000425 0.003707 -0.000098 0.034181 0.000080
# 6 -0.000010 -0.000009 -0.000009 -0.040405 0.000080 0.063982
#
#
# Mechanical properties :
#
#
# Convention : Reuss Voigt Hill
#
# Bulk Modulus (GPa) = 26.70122 37.76816 32.23469
# Shear Modulus (GPa) = 21.30029 32.66856 26.98442
#
# Velocity S-wave (km/s) = 3.18247 3.94127 3.58202
# Velocity P-wave (km/s) = 5.11862 6.21851 5.69518
#
# Compressibility (1/GPa) = 0.03745147
#
# Stress axis : x y z
#
# Youngs Moduli (GPa) = 41.70842 102.36678 107.28212
#
# Poissons Ratio (x) = 0.48834 -0.46378
# Poissons Ratio (y) = 0.19897 0.25316
# Poissons Ratio (z) = -0.18030 0.24156
#
# Static dielectric constant tensor:
#      x y z
#    x 1.807220 0.000010 0.015940 
#    y 0.000010 1.724280 0.000060 
#    z 0.015940 0.000060 1.773610 
# 
# From -- ./inp_files/285976.got.cif
#   From: 2010.05.17/outbox.cif.g08.bks.cpg/sg12_143_cif.got.tgz:285976.got - 2010.06.03 13:09:07.
