data_PCOD9211641
_publ_section_title
;
Structure prediction by ZEFSAII (Michael W. Deem and Ramdas Pophale) SiO2 
 PCOD9211641
Probable space group: C 2/M
;
_chemical_formula_sum "Si O2"
_cell_formula_units_Z 52
_cell_length_a 18.469705
_cell_length_b 9.523655
_cell_length_c 18.479575
_cell_angle_alpha 90.000000
_cell_angle_beta 53.206451
_cell_angle_gamma 90.000000
_cell_volume 2603.029031
_symmetry_space_group_name_H-M "C 2/M"
_symmetry_group_IT_number 12
_symmetry_cell_setting 'monoclinic'
loop_
_space_group_symop_operation_xyz
x,y,z
-x,y,-z
-x,-y,-z
x,-y,z
1/2+x,1/2+y,z
1/2-x,1/2+y,-z
1/2-x,1/2-y,-z
1/2+x,1/2-y,z
loop_
_atom_site_type_symbol
_atom_site_label
_atom_site_fract_x
_atom_site_fract_y
_atom_site_fract_z
Si Si1 0.754875 0.665310 0.422718
Si Si2 0.547210 0.164708 0.767414
Si Si3 0.078488 0.162497 0.892912
Si Si4 0.783663 0.736592 0.075812
Si Si5 0.709645 0.000000 0.028959
Si Si6 0.403749 0.329476 0.590126
Si Si7 0.590446 0.338991 0.246802
O O1 0.737482 0.500000 0.447609
O O2 0.750000 0.750000 0.500000
O O3 0.853707 0.676335 0.328198
O O4 0.679055 0.716255 0.410923
O O5 0.551417 0.246722 0.840158
O O6 0.475093 0.238335 0.758246
O O7 0.525083 0.000000 0.789177
O O8 0.164937 0.227036 0.881501
O O9 0.094270 0.000000 0.862473
O O10 0.000000 0.163843 0.000000
O O11 0.761005 0.877659 0.046456
O O12 0.688337 0.662712 0.151141
O O13 0.834837 0.625218 0.995122
O O14 0.500000 0.284629 0.500000
O O15 0.401569 0.500000 0.591167
O O16 0.398322 0.288728 0.677308
O O17 0.555937 0.500000 0.267491
#
# Coordination Sequence:
#
# PCOD9211641 Si02
#       7
#     8   8   8   8   4   8   8
#     4  10  21  40  64  93 128 161 201 253 312 374
#     4  11  26  41  61  93 128 164 210 262 314 371
#     4  11  26  43  63  89 126 166 212 259 312 376
#     4  11  23  41  63  92 121 163 210 256 314 368
#     4  10  24  38  66  88 124 156 212 260 314 368
#     4   9  18  35  62  90 117 155 203 246 296 365
#     4  11  23  40  65  89 122 163 209 258 311 371
#
# _framework density 19.976727
#
# number of rings (size 3 to 8) (size 9 to 14) (size 15 to 20)
#    0.000    1.538    1.538    2.308    6.462    4.000 
#    0.000    0.769    0.000    2.769    0.000    0.000 
#    0.000    0.000    0.000    0.000    0.000    0.000 
#
# Total GULP energy -144825.223545 kJ/mol
# GULP energy per Si atom -5570.200906 kJ/mol
# Density = 1.993126 g / cm^3
# Si number density = 19.976727 Si / 1000 Ang^3
#
#
#
# Elastic Constant Matrix: (Units=GPa)
#
#
# Indices 1 2 3 4 5 6 
#
# 1 170.3979 70.2899 48.1419 0.0000 30.2724 0.0000
# 2 70.2899 134.7441 42.6862 0.0000 29.1197 0.0000
# 3 48.1419 42.6862 72.8513 0.0000 25.6429 0.0000
# 4 0.0000 0.0000 0.0000 16.2092 0.0000 18.9619
# 5 30.2724 29.1197 25.6429 0.0000 41.6606 0.0000
# 6 0.0000 0.0000 0.0000 18.9619 0.0000 20.0268
#
#
#
# Elastic Compliance Matrix: (Units=1/GPa)
#
#
# Indices 1 2 3 4 5 6 
#
# 1 0.008305 -0.002911 -0.003031 0.000000 -0.002134 0.000000
# 2 -0.002911 0.010668 -0.003124 0.000000 -0.003419 0.000000
# 3 -0.003031 -0.003124 0.020446 0.000000 -0.008199 0.000000
# 4 0.000000 0.000000 0.000000 -0.573274 0.000000 0.542790
# 5 -0.002134 -0.003419 -0.008199 0.000000 0.032991 0.000000
# 6 0.000000 0.000000 0.000000 0.542790 0.000000 -0.463994
#
#
# Mechanical properties :
#
#
# Convention : Reuss Voigt Hill
#
# Bulk Modulus (GPa) = 46.97666 77.80326 62.38996
# Shear Modulus (GPa) = -5.32124 30.03768 12.35822
#
# Velocity S-wave (km/s) = -1.63386 3.88188 2.48993
# Velocity P-wave (km/s) = 4.47296 7.68918 6.29011
#
# Compressibility (1/GPa) = 0.02128717
#
# Stress axis : x y z
#
# Youngs Moduli (GPa) = 120.41063 93.73435 48.90906
#
# Poissons Ratio (x) = 0.27284 0.14826
# Poissons Ratio (y) = 0.35048 0.15280
# Poissons Ratio (z) = 0.36500 0.29284
#
# Static dielectric constant tensor:
#      x y z
#    x 1.698410 0.000000 -0.018040 
#    y 0.000000 1.673770 0.000000 
#    z -0.018040 0.000000 1.764490 
# 
# From -- ./inp_files/274959.got.cif
#   From: 2010.05.17/outbox.cif.g08.bks.cpg/sg12_138_cif.got.tgz:274959.got - 2010.06.03 13:09:07.
