data_PCOD9211972
_publ_section_title
;
Structure prediction by ZEFSAII (Michael W. Deem and Ramdas Pophale) SiO2 
 PCOD9211972
Probable space group: C 2/M
;
_chemical_formula_sum "Si O2"
_cell_formula_units_Z 32
_cell_length_a 9.959551
_cell_length_b 26.410010
_cell_length_c 7.411249
_cell_angle_alpha 90.000000
_cell_angle_beta 135.974592
_cell_angle_gamma 90.000000
_cell_volume 1354.784899
_symmetry_space_group_name_H-M "C 2/M"
_symmetry_group_IT_number 12
_symmetry_cell_setting 'monoclinic'
loop_
_space_group_symop_operation_xyz
x,y,z
-x,y,-z
-x,-y,-z
x,-y,z
1/2+x,1/2+y,z
1/2-x,1/2+y,-z
1/2-x,1/2-y,-z
1/2+x,1/2-y,z
loop_
_atom_site_type_symbol
_atom_site_label
_atom_site_fract_x
_atom_site_fract_y
_atom_site_fract_z
Si Si1 0.210745 0.651718 0.054720
Si Si2 0.966328 0.442930 0.684759
Si Si3 0.600257 0.388348 0.273383
Si Si4 0.652585 0.195884 0.398297
O O1 0.097914 0.599071 0.906976
O O2 0.079692 0.693066 0.820239
O O3 0.428464 0.639313 0.212471
O O4 0.201624 0.671127 0.250627
O O5 0.011379 0.500000 0.783971
O O6 0.740995 0.429076 0.499934
O O7 0.000000 0.439509 0.500000
O O8 0.748286 0.342883 0.367086
O O9 0.500000 0.411016 0.000000
O O10 0.750000 0.250000 0.500000
#
# Coordination Sequence:
#
# PCOD9211972 Si02
#       4
#     8   8   8   8
#     4  10  22  44  64  95 138 169 219 279 330 388
#     4  10  21  40  68  99 133 177 223 269 330 397
#     4  11  22  39  64  98 134 173 215 278 330 393
#     4  10  24  43  65  91 126 176 223 271 330 397
#
# _framework density 23.619983999999999
#
# number of rings (size 3 to 8) (size 9 to 14) (size 15 to 20)
#    0.000    1.750    2.500    0.750    3.500    2.500 
#    4.500   10.000    0.000   15.000    0.000    0.000 
#    0.000    0.000    0.000    0.000    0.000    0.000 
#
# Total GULP energy -89387.804291 kJ/mol
# GULP energy per Si atom -5586.737768 kJ/mol
# Density = 2.356622 g / cm^3
# Si number density = 23.619984 Si / 1000 Ang^3
#
#
#
# Elastic Constant Matrix: (Units=GPa)
#
#
# Indices 1 2 3 4 5 6 
#
# 1 108.7257 -2.5620 28.7944 0.0000 15.4022 0.0000
# 2 -2.5620 154.2888 45.6747 0.0000 -0.7169 0.0000
# 3 28.7944 45.6747 130.4146 0.0000 23.1364 0.0000
# 4 0.0000 0.0000 0.0000 29.1462 0.0000 -3.0796
# 5 15.4022 -0.7169 23.1364 0.0000 41.8206 0.0000
# 6 0.0000 0.0000 0.0000 -3.0796 0.0000 22.8596
#
#
#
# Elastic Compliance Matrix: (Units=1/GPa)
#
#
# Indices 1 2 3 4 5 6 
#
# 1 0.010123 0.000761 -0.002043 0.000000 -0.002585 0.000000
# 2 0.000761 0.007398 -0.003029 0.000000 0.001522 0.000000
# 3 -0.002043 -0.003029 0.010041 0.000000 -0.004854 0.000000
# 4 0.000000 0.000000 0.000000 0.034805 0.000000 0.004689
# 5 -0.002585 0.001522 -0.004854 0.000000 0.027575 0.000000
# 6 0.000000 0.000000 0.000000 0.004689 0.000000 0.044377
#
#
# Mechanical properties :
#
#
# Convention : Reuss Voigt Hill
#
# Bulk Modulus (GPa) = 52.80026 59.69371 56.24698
# Shear Modulus (GPa) = 33.49995 40.20007 36.85001
#
# Velocity S-wave (km/s) = 3.77010 4.12995 3.95412
# Velocity P-wave (km/s) = 6.43072 6.93321 6.68669
#
# Compressibility (1/GPa) = 0.01893930
#
# Stress axis : x y z
#
# Youngs Moduli (GPa) = 98.78901 135.17674 99.59235
#
# Poissons Ratio (x) = -0.10285 0.20345
# Poissons Ratio (y) = -0.07516 0.30166
# Poissons Ratio (z) = 0.20181 0.40944
#
# Static dielectric constant tensor:
#      x y z
#    x 2.014280 0.000000 -0.046140 
#    y 0.000000 1.845770 0.000000 
#    z -0.046140 0.000000 1.940670 
# 
# From -- ./inp_files/51814.got.cif
#   From: 2010.05.17/outbox.cif.g08.bks.cpg/sg12_26_cif.got.tgz:51814.got - 2010.06.03 13:09:07.
