data_PCOD9211120
_publ_section_title
;
Structure prediction by ZEFSAII (Michael W. Deem and Ramdas Pophale) SiO2 
 PCOD9211120
Probable space group: C 2/M
;
_chemical_formula_sum "Si O2"
_cell_formula_units_Z 64
_cell_length_a 9.203207
_cell_length_b 19.166204
_cell_length_c 28.590051
_cell_angle_alpha 90.000000
_cell_angle_beta 140.058124
_cell_angle_gamma 90.000000
_cell_volume 3237.666627
_symmetry_space_group_name_H-M "C 2/M"
_symmetry_group_IT_number 12
_symmetry_cell_setting 'monoclinic'
loop_
_space_group_symop_operation_xyz
x,y,z
-x,y,-z
-x,-y,-z
x,-y,z
1/2+x,1/2+y,z
1/2-x,1/2+y,-z
1/2-x,1/2-y,-z
1/2+x,1/2-y,z
loop_
_atom_site_type_symbol
_atom_site_label
_atom_site_fract_x
_atom_site_fract_y
_atom_site_fract_z
Si Si1 0.027887 0.583532 0.604279
Si Si2 0.378984 0.321096 0.520697
Si Si3 0.850399 0.424535 0.869678
Si Si4 0.157574 0.334957 0.727100
Si Si5 0.749153 0.693223 0.692607
Si Si6 0.970241 0.078665 0.123567
Si Si7 0.159050 0.675680 0.992730
Si Si8 0.964002 0.080920 0.294983
O O1 0.011984 0.500000 0.600720
O O2 0.043094 0.613718 0.660671
O O3 0.271343 0.602446 0.640930
O O4 0.810963 0.618419 0.526394
O O5 0.500000 0.320185 0.500000
O O6 0.250000 0.250000 0.500000
O O7 0.565569 0.321780 0.606892
O O8 0.958449 0.500000 0.884981
O O9 0.741740 0.429628 0.893921
O O10 0.641266 0.415719 0.782842
O O11 0.018881 0.360409 0.916088
O O12 0.226615 0.266835 0.713932
O O13 0.349913 0.377163 0.802138
O O14 0.985089 0.310259 0.724274
O O15 0.695626 0.631248 0.715144
O O16 0.867539 0.124275 0.056551
O O17 0.049767 0.000000 0.131322
O O18 0.250000 0.750000 0.000000
O O19 0.000000 0.683554 0.000000
O O20 0.953929 0.000000 0.307916
#
# Coordination Sequence:
#
# PCOD9211120 Si02
#       8
#     8   8   8   8   8   8   8   8
#     4  11  23  42  67  94 124 165 209 259 321 380
#     4  12  25  44  64  90 123 168 208 265 321 383
#     4   9  18  38  66  90 122 168 211 253 306 370
#     4  12  24  41  65  93 126 167 207 270 315 381
#     4  12  26  42  65  93 126 164 215 261 325 381
#     4  10  21  39  66  95 126 167 216 260 311 376
#     4  10  22  38  62  94 129 166 209 260 307 367
#     4  10  23  42  66  95 129 165 210 264 315 380
#
# _framework density 19.767323999999999
#
# number of rings (size 3 to 8) (size 9 to 14) (size 15 to 20)
#    0.000    1.250    3.750    1.500    3.500    4.250 
#    0.000    1.250    0.000    0.750    0.000    0.000 
#    0.000    0.000    0.000    0.000    0.000    0.000 
#
# Total GULP energy -178557.299908 kJ/mol
# GULP energy per Si atom -5579.915622 kJ/mol
# Density = 1.972233 g / cm^3
# Si number density = 19.767324 Si / 1000 Ang^3
#
#
#
# Elastic Constant Matrix: (Units=GPa)
#
#
# Indices 1 2 3 4 5 6 
#
# 1 67.8589 48.7108 7.7545 -0.0001 7.6689 0.0000
# 2 48.7108 129.9678 48.9237 0.0003 18.7235 0.0001
# 3 7.7545 48.9237 73.8598 0.0005 14.3654 0.0002
# 4 -0.0001 0.0003 0.0005 33.0371 0.0000 8.7846
# 5 7.6689 18.7235 14.3654 0.0000 17.3794 0.0000
# 6 0.0000 0.0001 0.0002 8.7846 0.0000 24.6060
#
#
#
# Elastic Compliance Matrix: (Units=1/GPa)
#
#
# Indices 1 2 3 4 5 6 
#
# 1 0.021152 -0.009149 0.004454 0.000000 -0.003158 0.000000
# 2 -0.009149 0.014857 -0.007808 0.000000 -0.005515 0.000000
# 3 0.004454 -0.007808 0.020244 0.000000 -0.010287 0.000000
# 4 0.000000 0.000000 0.000000 0.033444 0.000000 -0.011940
# 5 -0.003158 -0.005515 -0.010287 0.000000 0.073377 0.000000
# 6 0.000000 0.000000 0.000000 -0.011940 0.000000 0.044903
#
#
# Mechanical properties :
#
#
# Convention : Reuss Voigt Hill
#
# Bulk Modulus (GPa) = 32.00344 53.60714 42.80529
# Shear Modulus (GPa) = 20.54246 26.09102 23.31674
#
# Velocity S-wave (km/s) = 3.22718 3.63699 3.43820
# Velocity P-wave (km/s) = 5.48739 6.69439 6.12072
#
# Compressibility (1/GPa) = 0.03124664
#
# Stress axis : x y z
#
# Youngs Moduli (GPa) = 47.27715 67.30949 49.39722
#
# Poissons Ratio (x) = 0.61582 -0.22000
# Poissons Ratio (y) = 0.43254 0.38568
# Poissons Ratio (z) = -0.21056 0.52553
#
# Static dielectric constant tensor:
#      x y z
#    x 1.874970 0.000000 -0.512040 
#    y 0.000000 1.703170 0.000000 
#    z -0.512040 0.000000 3.370460 
# 
# From -- ./inp_files/373019.got.cif
#   From: 2010.05.17/outbox.cif.g08.bks.cpg/sg12_187_cif.got.tgz:373019.got - 2010.06.03 13:09:07.
