data_PCOD9211481
_publ_section_title
;
Structure prediction by ZEFSAII (Michael W. Deem and Ramdas Pophale) SiO2 
 PCOD9211481
Probable space group: C 2/M
;
_chemical_formula_sum "Si O2"
_cell_formula_units_Z 64
_cell_length_a 30.849916
_cell_length_b 8.433723
_cell_length_c 16.536232
_cell_angle_alpha 90.000000
_cell_angle_beta 132.963987
_cell_angle_gamma 90.000000
_cell_volume 3148.413247
_symmetry_space_group_name_H-M "C 2/M"
_symmetry_group_IT_number 12
_symmetry_cell_setting 'monoclinic'
loop_
_space_group_symop_operation_xyz
x,y,z
-x,y,-z
-x,-y,-z
x,-y,z
1/2+x,1/2+y,z
1/2-x,1/2+y,-z
1/2-x,1/2-y,-z
1/2+x,1/2-y,z
loop_
_atom_site_type_symbol
_atom_site_label
_atom_site_fract_x
_atom_site_fract_y
_atom_site_fract_z
Si Si1 0.701828 0.816083 0.076724
Si Si2 0.888959 0.190493 0.503388
Si Si3 0.663864 0.311464 0.194203
Si Si4 0.267949 0.310684 0.435020
Si Si5 0.955608 0.806684 0.872179
Si Si6 0.624354 0.312920 0.841414
Si Si7 0.497784 0.693578 0.749324
Si Si8 0.168371 0.684495 0.731537
O O1 0.663584 0.770945 0.106929
O O2 0.769768 0.778881 0.184983
O O3 0.695453 0.000000 0.049200
O O4 0.678753 0.717230 0.971224
O O5 0.835784 0.224316 0.498699
O O6 0.870179 0.264705 0.394579
O O7 0.950432 0.243630 0.621277
O O8 0.891318 0.000000 0.495736
O O9 0.658902 0.500000 0.175125
O O10 0.725172 0.270725 0.315782
O O11 0.610281 0.259741 0.184387
O O12 0.260005 0.500000 0.420294
O O13 0.250000 0.250000 0.500000
O O14 0.976853 0.751278 0.811293
O O15 0.956097 0.000000 0.870062
O O16 0.000000 0.758185 0.000000
O O17 0.620045 0.500000 0.818114
O O18 0.564180 0.260712 0.809861
O O19 0.634231 0.221355 0.770871
O O20 0.496634 0.500000 0.750050
O O21 0.183244 0.500000 0.744143
#
# Coordination Sequence:
#
# PCOD9211481 Si02
#       8
#     8   8   8   8   8   8   8   8
#     4  12  24  41  63  91 127 162 203 255 312 376
#     4  10  21  40  63  88 122 165 209 256 304 362
#     4  11  21  35  60  91 122 157 202 252 307 364
#     4  11  22  36  58  86 121 160 203 251 302 359
#     4   9  17  32  57  90 124 160 205 253 299 358
#     4  11  23  41  66  93 121 159 207 258 310 368
#     4   9  19  37  62  91 123 163 211 256 302 362
#     4  12  25  42  64  91 123 160 204 257 318 375
#
# _framework density 20.327698999999999
#
# number of rings (size 3 to 8) (size 9 to 14) (size 15 to 20)
#    0.000    1.375    1.250    5.250    0.000    5.000 
#    0.000    3.750    0.000    9.750    0.000    0.000 
#    0.000    0.000    0.000    0.000    0.000    0.000 
#
# Total GULP energy -178944.821630 kJ/mol
# GULP energy per Si atom -5592.025676 kJ/mol
# Density = 2.028143 g / cm^3
# Si number density = 20.327699 Si / 1000 Ang^3
#
#
#
# Elastic Constant Matrix: (Units=GPa)
#
#
# Indices 1 2 3 4 5 6 
#
# 1 85.8632 3.6174 19.2737 0.0000 -9.1350 0.0000
# 2 3.6174 19.5520 -8.2609 0.0000 1.6784 0.0000
# 3 19.2737 -8.2609 91.7297 0.0000 -6.5306 0.0000
# 4 0.0000 0.0000 0.0000 25.0994 0.0000 -5.6968
# 5 -9.1350 1.6784 -6.5306 0.0000 38.1533 0.0000
# 6 0.0000 0.0000 0.0000 -5.6968 0.0000 25.5137
#
#
#
# Elastic Compliance Matrix: (Units=1/GPa)
#
#
# Indices 1 2 3 4 5 6 
#
# 1 0.012729 -0.003781 -0.002821 0.000000 0.002731 0.000000
# 2 -0.003781 0.054381 0.005524 0.000000 -0.002352 0.000000
# 3 -0.002821 0.005524 0.012074 0.000000 0.001148 0.000000
# 4 0.000000 0.000000 0.000000 0.041969 0.000000 0.009371
# 5 0.002731 -0.002352 0.001148 0.000000 0.027164 0.000000
# 6 0.000000 0.000000 0.000000 0.009371 0.000000 0.041287
#
#
# Mechanical properties :
#
#
# Convention : Reuss Voigt Hill
#
# Bulk Modulus (GPa) = 12.98212 25.15615 19.06913
# Shear Modulus (GPa) = 22.99534 29.92093 26.45813
#
# Velocity S-wave (km/s) = 3.36703 3.84074 3.61166
# Velocity P-wave (km/s) = 4.63855 5.66308 5.17623
#
# Compressibility (1/GPa) = 0.07702901
#
# Stress axis : x y z
#
# Youngs Moduli (GPa) = 78.55769 18.38870 82.82576
#
# Poissons Ratio (x) = 0.06953 0.23363
# Poissons Ratio (y) = 0.29706 -0.45757
# Poissons Ratio (z) = 0.22159 -0.10159
#
# Static dielectric constant tensor:
#      x y z
#    x 1.721750 0.000000 0.007080 
#    y 0.000000 1.696280 0.000000 
#    z 0.007080 0.000000 1.693580 
# 
# From -- ./inp_files/250006.got.cif
#   From: 2010.05.17/outbox.cif.g08.bks.cpg/sg12_126_cif.got.tgz:250006.got - 2010.06.03 13:09:07.
