data_PCOD9211696
_publ_section_title
;
Structure prediction by ZEFSAII (Michael W. Deem and Ramdas Pophale) SiO2 
 PCOD9211696
Probable space group: C 2/M
;
_chemical_formula_sum "Si O2"
_cell_formula_units_Z 48
_cell_length_a 7.076467
_cell_length_b 13.660326
_cell_length_c 27.979118
_cell_angle_alpha 90.000000
_cell_angle_beta 140.414819
_cell_angle_gamma 90.000000
_cell_volume 1723.471710
_symmetry_space_group_name_H-M "C 2/M"
_symmetry_group_IT_number 12
_symmetry_cell_setting 'monoclinic'
loop_
_space_group_symop_operation_xyz
x,y,z
-x,y,-z
-x,-y,-z
x,-y,z
1/2+x,1/2+y,z
1/2-x,1/2+y,-z
1/2-x,1/2-y,-z
1/2+x,1/2-y,z
loop_
_atom_site_type_symbol
_atom_site_label
_atom_site_fract_x
_atom_site_fract_y
_atom_site_fract_z
Si Si1 0.671753 0.387595 0.145172
Si Si2 0.107460 0.817442 0.817028
Si Si3 0.216692 0.386330 0.978207
Si Si4 0.770367 0.392621 0.645815
Si Si5 0.921344 0.835220 0.674080
Si Si6 0.173964 0.363987 0.485153
O O1 0.752371 0.500000 0.148489
O O2 0.902113 0.300949 0.179125
O O3 0.602901 0.372836 0.187126
O O4 0.356230 0.365720 0.057203
O O5 0.438297 0.836930 0.900133
O O6 0.037261 0.850982 0.750080
O O7 0.140329 0.500000 0.963546
O O8 0.500000 0.369270 0.000000
O O9 0.920331 0.500000 0.675586
O O10 0.909453 0.283937 0.664520
O O11 0.610625 0.379205 0.667082
O O12 0.504823 0.402682 0.555244
O O13 0.584611 0.877303 0.604077
O O14 0.250000 0.250000 0.500000
O O15 0.000000 0.388890 0.500000
#
# Coordination Sequence:
#
# PCOD9211696 Si02
#       6
#     8   8   8   8   8   8
#     4  11  25  43  64  92 125 163 209 257 309 378
#     4  12  23  41  66  92 127 167 204 259 325 368
#     4  10  22  42  68  95 124 164 213 260 310 376
#     4  10  21  40  65  90 125 172 211 252 310 369
#     4  10  22  39  62  95 129 161 209 264 309 370
#     4   8  16  33  58  85 119 161 203 249 298 356
#
# _framework density 27.850763000000001
#
# number of rings (size 3 to 8) (size 9 to 14) (size 15 to 20)
#    0.000    1.833    0.000    3.500    0.000    6.333 
#    0.000    3.333    0.000   45.000    0.000    0.000 
#    0.000    0.000    0.000    0.000    0.000    0.000 
#
# Total GULP energy -134408.499297 kJ/mol
# GULP energy per Si atom -5600.354137 kJ/mol
# Density = 2.778737 g / cm^3
# Si number density = 27.850763 Si / 1000 Ang^3
#
#
#
# Elastic Constant Matrix: (Units=GPa)
#
#
# Indices 1 2 3 4 5 6 
#
# 1 75.3275 -2.6887 21.2069 0.0000 -12.8616 0.0000
# 2 -2.6887 171.7301 56.2496 0.0000 -4.2174 0.0000
# 3 21.2069 56.2496 224.3181 -0.0001 -25.2627 0.0000
# 4 0.0000 0.0000 -0.0001 27.3208 0.0000 0.9395
# 5 -12.8616 -4.2174 -25.2627 0.0000 49.4928 0.0000
# 6 0.0000 0.0000 0.0000 0.9395 0.0000 11.4281
#
#
#
# Elastic Compliance Matrix: (Units=1/GPa)
#
#
# Indices 1 2 3 4 5 6 
#
# 1 0.014162 0.000677 -0.001154 0.000000 0.003149 0.000000
# 2 0.000677 0.006380 -0.001679 0.000000 -0.000138 0.000000
# 3 -0.001154 -0.001679 0.005239 0.000000 0.002231 0.000000
# 4 0.000000 0.000000 0.000000 0.036706 0.000000 -0.003018
# 5 0.003149 -0.000138 0.002231 0.000000 0.022151 0.000000
# 6 0.000000 0.000000 0.000000 -0.003018 0.000000 0.087752
#
#
# Mechanical properties :
#
#
# Convention : Reuss Voigt Hill
#
# Bulk Modulus (GPa) = 46.57847 68.99014 57.78431
# Shear Modulus (GPa) = 27.19466 44.08885 35.64176
#
# Velocity S-wave (km/s) = 3.12820 3.98306 3.58123
# Velocity P-wave (km/s) = 5.45968 6.78072 6.15574
#
# Compressibility (1/GPa) = 0.02146915
#
# Stress axis : x y z
#
# Youngs Moduli (GPa) = 70.61118 156.72972 190.85823
#
# Poissons Ratio (x) = -0.10612 0.22025
# Poissons Ratio (y) = -0.04781 0.32054
# Poissons Ratio (z) = 0.08149 0.26322
#
# Static dielectric constant tensor:
#      x y z
#    x 2.212180 0.000000 0.023660 
#    y 0.000000 2.135250 0.000000 
#    z 0.023660 0.000000 2.233300 
# 
# From -- ./inp_files/356365.got.cif
#   From: 2010.05.17/outbox.cif.g08.bks.cpg/sg12_179_cif.got.tgz:356365.got - 2010.06.03 13:09:07.
