data_PCOD9211366
_publ_section_title
;
Structure prediction by ZEFSAII (Michael W. Deem and Ramdas Pophale) SiO2 
 PCOD9211366
Probable space group: C 2/M
;
_chemical_formula_sum "Si O2"
_cell_formula_units_Z 64
_cell_length_a 11.833693
_cell_length_b 31.471428
_cell_length_c 17.024039
_cell_angle_alpha 90.000000
_cell_angle_beta 30.756897
_cell_angle_gamma 90.000000
_cell_volume 3242.329391
_symmetry_space_group_name_H-M "C 2/M"
_symmetry_group_IT_number 12
_symmetry_cell_setting 'monoclinic'
loop_
_space_group_symop_operation_xyz
x,y,z
-x,y,-z
-x,-y,-z
x,-y,z
1/2+x,1/2+y,z
1/2-x,1/2+y,-z
1/2-x,1/2-y,-z
1/2+x,1/2-y,z
loop_
_atom_site_type_symbol
_atom_site_label
_atom_site_fract_x
_atom_site_fract_y
_atom_site_fract_z
Si Si1 0.522312 0.607813 0.345880
Si Si2 0.614541 0.049023 0.592543
Si Si3 0.776118 0.904861 0.940540
Si Si4 0.115345 0.050559 0.847535
Si Si5 0.744998 0.749575 0.129227
Si Si6 0.389875 0.184079 0.912616
Si Si7 0.597394 0.698071 0.359409
Si Si8 0.850344 0.548399 0.240361
O O1 0.302993 0.581757 0.456547
O O2 0.671340 0.609534 0.178915
O O3 0.476577 0.654944 0.404615
O O4 0.660427 0.580580 0.326861
O O5 0.375280 0.059308 0.700163
O O6 0.603290 0.050900 0.694315
O O7 0.669941 0.000000 0.538489
O O8 0.988945 0.924609 0.855260
O O9 0.695701 0.863608 0.036139
O O10 0.577036 0.938551 0.062384
O O11 0.088217 0.000000 0.851039
O O12 0.000000 0.060471 0.000000
O O13 0.645414 0.790502 0.146576
O O14 0.607069 0.733235 0.285802
O O15 0.760044 0.711374 0.056507
O O16 0.000000 0.758138 0.000000
O O17 0.646837 0.184699 0.781562
O O18 0.500000 0.713261 0.500000
O O19 0.784545 0.500000 0.261018
#
# Coordination Sequence:
#
# PCOD9211366 Si02
#       8
#     8   8   8   8   8   8   8   8
#     4  12  24  37  57  94 132 161 207 260 320 381
#     4  10  22  41  61  84 125 175 216 260 315 377
#     4  12  23  37  63  91 123 162 212 268 313 370
#     4  10  21  40  62  85 119 169 223 265 312 372
#     4   9  20  41  66  90 121 159 205 252 314 388
#     4  10  21  40  63  91 123 160 206 256 317 381
#     4  11  22  38  65  94 127 165 201 254 326 383
#     4  11  22  37  60  89 124 169 211 256 310 375
#
# _framework density 19.738894999999999
#
# number of rings (size 3 to 8) (size 9 to 14) (size 15 to 20)
#    0.000    1.375    3.750    2.250    0.000    5.000 
#    0.000    1.250    0.000    0.000    0.000    0.000 
#    0.000    0.000    0.000    0.000    0.000    0.000 
#
# Total GULP energy -178923.698977 kJ/mol
# GULP energy per Si atom -5591.365593 kJ/mol
# Density = 1.969397 g / cm^3
# Si number density = 19.738895 Si / 1000 Ang^3
#
#
#
# Elastic Constant Matrix: (Units=GPa)
#
#
# Indices 1 2 3 4 5 6 
#
# 1 70.7029 27.0397 11.4380 0.0000 0.5598 0.0000
# 2 27.0397 55.5455 18.6341 0.0000 4.1241 0.0000
# 3 11.4380 18.6341 66.9617 0.0000 12.5611 0.0000
# 4 0.0000 0.0000 0.0000 21.7379 0.0000 4.1217
# 5 0.5598 4.1241 12.5611 0.0000 37.6020 0.0000
# 6 0.0000 0.0000 0.0000 4.1217 0.0000 15.8510
#
#
#
# Elastic Compliance Matrix: (Units=1/GPa)
#
#
# Indices 1 2 3 4 5 6 
#
# 1 0.017438 -0.008272 -0.000851 0.000000 0.000932 0.000000
# 2 -0.008272 0.023786 -0.005057 0.000000 -0.000796 0.000000
# 3 -0.000851 -0.005057 0.017475 0.000000 -0.005270 0.000000
# 4 0.000000 0.000000 0.000000 0.048388 0.000000 -0.012582
# 5 0.000932 -0.000796 -0.005270 0.000000 0.028428 0.000000
# 6 0.000000 0.000000 0.000000 -0.012582 0.000000 0.066359
#
#
# Mechanical properties :
#
#
# Convention : Reuss Voigt Hill
#
# Bulk Modulus (GPa) = 32.96221 34.15933 33.56077
# Shear Modulus (GPa) = 20.80318 24.11140 22.45729
#
# Velocity S-wave (km/s) = 3.24993 3.49881 3.37667
# Velocity P-wave (km/s) = 5.55141 5.80219 5.67818
#
# Compressibility (1/GPa) = 0.03033777
#
# Stress axis : x y z
#
# Youngs Moduli (GPa) = 57.34693 42.04195 57.22404
#
# Poissons Ratio (x) = 0.34778 0.04872
# Poissons Ratio (y) = 0.47439 0.28936
# Poissons Ratio (z) = 0.04883 0.21259
#
# Static dielectric constant tensor:
#      x y z
#    x 1.684180 0.000000 0.016750 
#    y 0.000000 1.664860 0.000000 
#    z 0.016750 0.000000 1.694990 
# 
# From -- ./inp_files/80795.got.cif
#   From: 2010.05.17/outbox.cif.g08.bks.cpg/sg12_41_cif.got.tgz:80795.got - 2010.06.03 13:09:07.
