data_PCOD9211634
_publ_section_title
;
Structure prediction by ZEFSAII (Michael W. Deem and Ramdas Pophale) SiO2 
 PCOD9211634
Probable space group: C 2/M
;
_chemical_formula_sum "Si O2"
_cell_formula_units_Z 64
_cell_length_a 34.663526
_cell_length_b 8.408006
_cell_length_c 15.595043
_cell_angle_alpha 90.000000
_cell_angle_beta 43.473980
_cell_angle_gamma 90.000000
_cell_volume 3127.206793
_symmetry_space_group_name_H-M "C 2/M"
_symmetry_group_IT_number 12
_symmetry_cell_setting 'monoclinic'
loop_
_space_group_symop_operation_xyz
x,y,z
-x,y,-z
-x,-y,-z
x,-y,z
1/2+x,1/2+y,z
1/2-x,1/2+y,-z
1/2-x,1/2-y,-z
1/2+x,1/2-y,z
loop_
_atom_site_type_symbol
_atom_site_label
_atom_site_fract_x
_atom_site_fract_y
_atom_site_fract_z
Si Si1 0.526056 0.183493 0.083859
Si Si2 0.797314 0.191666 0.990118
Si Si3 0.292676 0.692137 0.359948
Si Si4 0.590616 0.809809 0.278947
Si Si5 0.755171 0.693989 0.744734
Si Si6 0.918533 0.186763 0.165222
Si Si7 0.496861 0.312966 0.312028
Si Si8 0.383063 0.807820 0.567479
O O1 0.464146 0.217246 0.145647
O O2 0.524210 0.228264 0.185881
O O3 0.540787 0.000000 0.048205
O O4 0.566304 0.288846 0.959340
O O5 0.856989 0.259122 0.864416
O O6 0.799552 0.000000 0.984479
O O7 0.750000 0.250000 0.000000
O O8 0.778063 0.242925 0.116211
O O9 0.293134 0.500000 0.357269
O O10 0.250000 0.750000 0.500000
O O11 0.273664 0.747686 0.296452
O O12 0.355590 0.742969 0.280855
O O13 0.533989 0.733697 0.334246
O O14 0.604587 0.761898 0.353857
O O15 0.584574 0.000000 0.286869
O O16 0.755446 0.500000 0.744687
O O17 0.820280 0.744301 0.644498
O O18 0.924179 0.000000 0.177389
O O19 0.498913 0.500000 0.294509
O O20 0.432933 0.259395 0.429226
O O21 0.384854 0.000000 0.559752
#
# Coordination Sequence:
#
# PCOD9211634 Si02
#       8
#     8   8   8   8   8   8   8   8
#     4  11  23  41  65  91 119 161 210 256 311 374
#     4  11  21  38  64  93 127 169 213 258 313 372
#     4  10  23  41  64  93 127 164 205 253 310 371
#     4  11  23  41  63  92 126 163 208 258 311 371
#     4   9  20  40  63  90 123 167 208 246 308 376
#     4  10  21  40  64  92 128 162 200 256 315 367
#     4  12  26  41  61  91 125 160 206 261 314 371
#     4  10  21  41  64  87 123 167 207 251 306 372
#
# _framework density 20.465546
#
# number of rings (size 3 to 8) (size 9 to 14) (size 15 to 20)
#    0.000    1.500    1.250    4.500    3.500    3.500 
#    0.000    1.250    0.000    0.000    0.000    0.000 
#    0.000    0.000    0.000    0.000    0.000    0.000 
#
# Total GULP energy -178956.574355 kJ/mol
# GULP energy per Si atom -5592.392949 kJ/mol
# Density = 2.041897 g / cm^3
# Si number density = 20.465546 Si / 1000 Ang^3
#
#
#
# Elastic Constant Matrix: (Units=GPa)
#
#
# Indices 1 2 3 4 5 6 
#
# 1 26.2293 -3.3123 -0.6154 -0.0001 2.2398 0.0000
# 2 -3.3123 22.7705 -11.2127 0.0003 0.2011 -0.0005
# 3 -0.6154 -11.2127 66.3082 0.0001 -9.1943 0.0000
# 4 -0.0001 0.0003 0.0001 34.4806 0.0000 -2.0561
# 5 2.2398 0.2011 -9.1943 0.0000 36.0308 0.0000
# 6 0.0000 -0.0005 0.0000 -2.0561 0.0000 25.9980
#
#
#
# Elastic Compliance Matrix: (Units=1/GPa)
#
#
# Indices 1 2 3 4 5 6 
#
# 1 0.039129 0.006262 0.001120 0.000000 -0.002182 0.000000
# 2 0.006262 0.049029 0.008560 0.000000 0.001521 0.000001
# 3 0.001120 0.008560 0.017129 0.000000 0.004254 0.000000
# 4 0.000000 0.000000 0.000000 0.029139 0.000000 0.002304
# 5 -0.002182 0.001521 0.004254 0.000000 0.028967 0.000000
# 6 0.000000 0.000001 0.000000 0.002304 0.000000 0.038647
#
#
# Mechanical properties :
#
#
# Convention : Reuss Voigt Hill
#
# Bulk Modulus (GPa) = 7.29022 9.44748 8.36885
# Shear Modulus (GPa) = 23.16115 27.99844 25.57979
#
# Velocity S-wave (km/s) = 3.36775 3.70276 3.53922
# Velocity P-wave (km/s) = 4.32345 4.78612 4.56065
#
# Compressibility (1/GPa) = 0.13717012
#
# Stress axis : x y z
#
# Youngs Moduli (GPa) = 25.55673 20.39606 58.38134
#
# Poissons Ratio (x) = -0.12773 -0.06536
# Poissons Ratio (y) = -0.16004 -0.49974
# Poissons Ratio (z) = -0.02861 -0.17459
#
# Static dielectric constant tensor:
#      x y z
#    x 1.724510 0.000000 0.003350 
#    y 0.000000 1.704330 0.000000 
#    z 0.003350 0.000000 1.706920 
# 
# From -- ./inp_files/249888.got.cif
#   From: 2010.05.17/outbox.cif.g08.bks.cpg/sg12_125_cif.got.tgz:249888.got - 2010.06.03 13:09:07.
