data_PCOD9211365
_publ_section_title
;
Structure prediction by ZEFSAII (Michael W. Deem and Ramdas Pophale) SiO2 
 PCOD9211365
Probable space group: C 2/M
;
_chemical_formula_sum "Si O2"
_cell_formula_units_Z 56
_cell_length_a 19.127638
_cell_length_b 8.640432
_cell_length_c 18.123499
_cell_angle_alpha 90.000000
_cell_angle_beta 111.096282
_cell_angle_gamma 90.000000
_cell_volume 2794.536181
_symmetry_space_group_name_H-M "C 2/M"
_symmetry_group_IT_number 12
_symmetry_cell_setting 'monoclinic'
loop_
_space_group_symop_operation_xyz
x,y,z
-x,y,-z
-x,-y,-z
x,-y,z
1/2+x,1/2+y,z
1/2-x,1/2+y,-z
1/2-x,1/2-y,-z
1/2+x,1/2-y,z
loop_
_atom_site_type_symbol
_atom_site_label
_atom_site_fract_x
_atom_site_fract_y
_atom_site_fract_z
Si Si1 0.315535 0.685247 0.975334
Si Si2 0.583317 0.182270 0.238186
Si Si3 0.822389 0.684162 0.484323
Si Si4 0.035987 0.815819 0.374480
Si Si5 0.634998 0.312820 0.657893
Si Si6 0.022150 0.819460 0.922664
Si Si7 0.224539 0.313851 0.199210
O O1 0.316526 0.500000 0.974502
O O2 0.304735 0.742340 0.887769
O O3 0.250000 0.750000 0.000000
O O4 0.392564 0.735267 0.043285
O O5 0.553837 0.277152 0.296458
O O6 0.530221 0.217972 0.148583
O O7 0.666724 0.226029 0.242943
O O8 0.582826 0.000000 0.255998
O O9 0.816206 0.500000 0.480598
O O10 0.750000 0.750000 0.500000
O O11 0.898956 0.734176 0.554245
O O12 0.830959 0.748970 0.404942
O O13 0.951313 0.764648 0.362669
O O14 0.040458 0.000000 0.389120
O O15 0.635571 0.500000 0.654549
O O16 0.691652 0.267148 0.745323
O O17 0.016958 0.000000 0.896699
O O18 0.000000 0.814880 0.000000
O O19 0.222827 0.500000 0.190368
#
# Coordination Sequence:
#
# PCOD9211365 Si02
#       7
#     8   8   8   8   8   8   8
#     4  11  24  40  61  87 120 161 206 260 316 375
#     4  11  23  38  62  93 126 163 210 266 313 366
#     4  12  25  43  69  98 129 166 209 257 308 369
#     4  11  24  42  66  95 130 170 208 253 311 374
#     4  10  23  43  66  93 129 169 207 254 313 373
#     4  10  21  40  62  85 118 163 211 259 314 374
#     4  10  22  41  62  88 123 163 206 256 312 369
#
# _framework density 20.039103000000001
#
# number of rings (size 3 to 8) (size 9 to 14) (size 15 to 20)
#    0.000    1.286    1.429    3.857    2.000    6.571 
#    0.000    0.000    0.000    0.000    0.000    0.000 
#    0.000    0.000    0.000    0.000    0.000    0.000 
#
# Total GULP energy -156536.901032 kJ/mol
# GULP energy per Si atom -5590.603608 kJ/mol
# Density = 1.999349 g / cm^3
# Si number density = 20.039103 Si / 1000 Ang^3
#
#
#
# Elastic Constant Matrix: (Units=GPa)
#
#
# Indices 1 2 3 4 5 6 
#
# 1 120.9527 23.4437 11.0638 0.0000 18.0180 0.0000
# 2 23.4437 22.8202 7.7572 0.0000 5.5289 0.0000
# 3 11.0638 7.7572 62.2064 0.0000 12.0335 0.0000
# 4 0.0000 0.0000 0.0000 37.7414 0.0000 -1.2828
# 5 18.0180 5.5289 12.0335 0.0000 38.1365 0.0000
# 6 0.0000 0.0000 0.0000 -1.2828 0.0000 26.5551
#
#
#
# Elastic Compliance Matrix: (Units=1/GPa)
#
#
# Indices 1 2 3 4 5 6 
#
# 1 0.010784 -0.010219 0.000059 0.000000 -0.003632 0.000000
# 2 -0.010219 0.056413 -0.004866 0.000000 -0.001815 0.000000
# 3 0.000059 -0.004866 0.017616 0.000000 -0.004881 0.000000
# 4 0.000000 0.000000 0.000000 0.026540 0.000000 0.001282
# 5 -0.003632 -0.001815 -0.004881 0.000000 0.029741 0.000000
# 6 0.000000 0.000000 0.000000 0.001282 0.000000 0.037719
#
#
# Mechanical properties :
#
#
# Convention : Reuss Voigt Hill
#
# Bulk Modulus (GPa) = 18.26119 32.27875 25.26997
# Shear Modulus (GPa) = 22.01494 31.40089 26.70792
#
# Velocity S-wave (km/s) = 3.31811 3.96281 3.65470
# Velocity P-wave (km/s) = 4.87979 6.08944 5.51786
#
# Compressibility (1/GPa) = 0.05476093
#
# Stress axis : x y z
#
# Youngs Moduli (GPa) = 92.72985 17.72648 56.76641
#
# Poissons Ratio (x) = 0.18114 -0.00334
# Poissons Ratio (y) = 0.94758 0.27623
# Poissons Ratio (z) = -0.00546 0.08626
#
# Static dielectric constant tensor:
#      x y z
#    x -5.267870 0.000000 -3.311360 
#    y 0.000000 1.679700 0.000000 
#    z -3.311360 0.000000 0.104450 
# 
# From -- ./inp_files/275543.got.cif
#   From: 2010.05.17/outbox.cif.g08.bks.cpg/sg12_138_cif.got.tgz:275543.got - 2010.06.03 13:09:07.
