data_PCOD9211640
_publ_section_title
;
Structure prediction by ZEFSAII (Michael W. Deem and Ramdas Pophale) SiO2 
 PCOD9211640
Probable space group: C 2/M
;
_chemical_formula_sum "Si O2"
_cell_formula_units_Z 36
_cell_length_a 26.311331
_cell_length_b 8.860678
_cell_length_c 8.188884
_cell_angle_alpha 90.000000
_cell_angle_beta 122.766715
_cell_angle_gamma 90.000000
_cell_volume 1605.347709
_symmetry_space_group_name_H-M "C 2/M"
_symmetry_group_IT_number 12
_symmetry_cell_setting 'monoclinic'
loop_
_space_group_symop_operation_xyz
x,y,z
-x,y,-z
-x,-y,-z
x,-y,z
1/2+x,1/2+y,z
1/2-x,1/2+y,-z
1/2-x,1/2-y,-z
1/2+x,1/2-y,z
loop_
_atom_site_type_symbol
_atom_site_label
_atom_site_fract_x
_atom_site_fract_y
_atom_site_fract_z
Si Si1 0.327271 0.821066 0.457932
Si Si2 0.718338 0.178176 0.100382
Si Si3 0.868437 0.831888 0.846826
Si Si4 0.455023 0.825336 0.561018
Si Si5 0.500000 0.253057 0.000000
O O1 0.267554 0.725309 0.321579
O O2 0.346388 0.789229 0.676042
O O3 0.386164 0.764986 0.457254
O O4 0.317598 0.000000 0.412581
O O5 0.655914 0.263626 0.027899
O O6 0.710129 0.000000 0.073226
O O7 0.750000 0.250000 0.000000
O O8 0.843248 0.000000 0.776714
O O9 0.939831 0.838694 0.948679
O O10 0.500000 0.759022 0.500000
O O11 0.481668 0.823334 0.793508
O O12 0.446689 0.000000 0.500632
#
# Coordination Sequence:
#
# PCOD9211640 Si02
#       5
#     8   8   8   8   4
#     4  10  21  40  64  93 126 166 215 264 322 385
#     4  12  26  43  64  93 128 168 214 267 324 386
#     4  11  23  42  66  93 129 170 213 265 323 385
#     4   9  19  35  59  92 130 170 214 268 324 387
#     4  10  22  38  64  94 131 172 219 266 325 386
#
# _framework density 22.425049999999999
#
# number of rings (size 3 to 8) (size 9 to 14) (size 15 to 20)
#    0.000    1.556    0.000    4.667    3.111    2.667 
#    0.000    0.000    0.000    4.000    0.000    0.000 
#    0.000    0.000    0.000    0.000    0.000    0.000 
#
# Total GULP energy -100363.185530 kJ/mol
# GULP energy per Si atom -5575.732529 kJ/mol
# Density = 2.237401 g / cm^3
# Si number density = 22.425050 Si / 1000 Ang^3
#
#
#
# Elastic Constant Matrix: (Units=GPa)
#
#
# Indices 1 2 3 4 5 6 
#
# 1 204.1599 42.9754 19.7569 0.0000 -13.2263 0.0000
# 2 42.9754 89.9500 0.1045 0.0000 2.4416 0.0000
# 3 19.7569 0.1045 39.2374 0.0000 -1.7311 0.0000
# 4 0.0000 0.0000 0.0000 16.5713 0.0000 -1.1118
# 5 -13.2263 2.4416 -1.7311 0.0000 32.7850 0.0000
# 6 0.0000 0.0000 0.0000 -1.1118 0.0000 16.5266
#
#
#
# Elastic Compliance Matrix: (Units=1/GPa)
#
#
# Indices 1 2 3 4 5 6 
#
# 1 0.005948 -0.002905 -0.002878 0.000000 0.002464 0.000000
# 2 -0.002905 0.012559 0.001340 0.000000 -0.002037 0.000000
# 3 -0.002878 0.001340 0.026939 0.000000 0.000161 0.000000
# 4 0.000000 0.000000 0.000000 0.060619 0.000000 0.004078
# 5 0.002464 -0.002037 0.000161 0.000000 0.031656 0.000000
# 6 0.000000 0.000000 0.000000 0.004078 0.000000 0.060783
#
#
# Mechanical properties :
#
#
# Convention : Reuss Voigt Hill
#
# Bulk Modulus (GPa) = 27.35417 51.00230 39.17824
# Shear Modulus (GPa) = 22.77103 31.21062 26.99082
#
# Velocity S-wave (km/s) = 3.19004 3.73470 3.47306
# Velocity P-wave (km/s) = 5.07868 6.43351 5.79582
#
# Compressibility (1/GPa) = 0.03655750
#
# Stress axis : x y z
#
# Youngs Moduli (GPa) = 168.12818 79.62382 37.12114
#
# Poissons Ratio (x) = 0.23133 0.10685
# Poissons Ratio (y) = 0.48845 -0.04973
# Poissons Ratio (z) = 0.48395 -0.10666
#
# Static dielectric constant tensor:
#      x y z
#    x 2.047730 0.000000 -0.259090 
#    y 0.000000 1.772370 0.000000 
#    z -0.259090 0.000000 2.291200 
# 
# From -- ./inp_files/101314.got.cif
#   From: 2010.05.17/outbox.cif.g08.bks.cpg/sg12_51_cif.got.tgz:101314.got - 2010.06.03 13:09:07.
