data_PCOD9211071
_publ_section_title
;
Structure prediction by ZEFSAII (Michael W. Deem and Ramdas Pophale) SiO2 
 PCOD9211071
Probable space group: C 2/M
;
_chemical_formula_sum "Si O2"
_cell_formula_units_Z 56
_cell_length_a 18.782710
_cell_length_b 14.212575
_cell_length_c 20.074739
_cell_angle_alpha 90.000000
_cell_angle_beta 150.643816
_cell_angle_gamma 90.000000
_cell_volume 2627.164932
_symmetry_space_group_name_H-M "C 2/M"
_symmetry_group_IT_number 12
_symmetry_cell_setting 'monoclinic'
loop_
_space_group_symop_operation_xyz
x,y,z
-x,y,-z
-x,-y,-z
x,-y,z
1/2+x,1/2+y,z
1/2-x,1/2+y,-z
1/2-x,1/2-y,-z
1/2+x,1/2-y,z
loop_
_atom_site_type_symbol
_atom_site_label
_atom_site_fract_x
_atom_site_fract_y
_atom_site_fract_z
Si Si1 0.863647 0.610791 0.555944
Si Si2 0.779063 0.892038 0.419809
Si Si3 0.897329 0.887903 0.142019
Si Si4 0.885181 0.889887 0.289786
Si Si5 0.833212 0.229210 0.856735
Si Si6 0.309474 0.887237 0.142448
Si Si7 0.670605 0.703706 0.292435
O O1 0.866644 0.500000 0.542060
O O2 0.754673 0.622342 0.529140
O O3 0.805954 0.667455 0.446197
O O4 0.023198 0.640028 0.710083
O O5 0.681535 0.816437 0.303096
O O6 0.950611 0.878072 0.549824
O O7 0.742244 0.000000 0.373899
O O8 0.884455 0.869043 0.209759
O O9 0.028545 0.833754 0.213719
O O10 0.927545 0.000000 0.160559
O O11 0.752632 0.866605 0.981579
O O12 0.774669 0.817724 0.232187
O O13 0.846679 0.000000 0.267444
O O14 0.786456 0.164952 0.880721
O O15 0.821445 0.173659 0.777510
O O16 0.000000 0.259143 0.000000
O O17 0.299924 0.000000 0.143657
#
# Coordination Sequence:
#
# PCOD9211071 Si02
#       7
#     8   8   8   8   8   8   8
#     4  10  21  39  66 100 130 158 214 276 324 377
#     4  10  22  40  65  98 128 164 213 274 332 375
#     4  10  21  41  70  98 124 170 223 267 324 380
#     4  10  23  44  69  94 129 171 220 273 321 381
#     4  12  27  43  59  96 134 175 219 261 326 390
#     4  10  23  41  63  95 135 171 208 266 327 385
#     4  12  23  39  67  96 126 175 215 266 319 388
#
# _framework density 21.315753999999998
#
# number of rings (size 3 to 8) (size 9 to 14) (size 15 to 20)
#    0.000    1.429    2.857    1.714    2.000    6.286 
#    0.000    4.286    0.000    0.000    0.000    0.000 
#    0.000    0.000    0.000    0.000    0.000    0.000 
#
# Total GULP energy -156675.983322 kJ/mol
# GULP energy per Si atom -5595.570833 kJ/mol
# Density = 2.126724 g / cm^3
# Si number density = 21.315754 Si / 1000 Ang^3
#
#
#
# Elastic Constant Matrix: (Units=GPa)
#
#
# Indices 1 2 3 4 5 6 
#
# 1 61.1049 20.8106 11.3785 -0.0002 10.5200 0.0001
# 2 20.8106 58.8311 22.3004 0.0011 9.4124 0.0003
# 3 11.3785 22.3004 79.1673 0.0023 19.3915 0.0008
# 4 -0.0002 0.0011 0.0023 24.7982 0.0005 7.2495
# 5 10.5200 9.4124 19.3915 0.0005 32.1417 0.0001
# 6 0.0001 0.0003 0.0008 7.2495 0.0001 8.8591
#
#
#
# Elastic Compliance Matrix: (Units=1/GPa)
#
#
# Indices 1 2 3 4 5 6 
#
# 1 0.019210 -0.006094 0.000069 0.000001 -0.004544 0.000000
# 2 -0.006094 0.021172 -0.004761 -0.000001 -0.001333 0.000000
# 3 0.000069 -0.004761 0.015990 -0.000001 -0.008275 0.000000
# 4 0.000001 -0.000001 -0.000001 0.053006 0.000000 -0.043375
# 5 -0.004544 -0.001333 -0.008275 0.000000 0.037982 0.000000
# 6 0.000000 0.000000 0.000000 -0.043375 0.000000 0.148372
#
#
# Mechanical properties :
#
#
# Convention : Reuss Voigt Hill
#
# Bulk Modulus (GPa) = 28.73754 34.23136 31.48445
# Shear Modulus (GPa) = 15.20193 22.80070 19.00131
#
# Velocity S-wave (km/s) = 2.67344 3.27412 2.98891
# Velocity P-wave (km/s) = 4.80008 5.51246 5.16856
#
# Compressibility (1/GPa) = 0.03479769
#
# Stress axis : x y z
#
# Youngs Moduli (GPa) = 52.05500 47.23290 62.54013
#
# Poissons Ratio (x) = 0.28786 -0.00430
# Poissons Ratio (y) = 0.31724 0.29778
# Poissons Ratio (z) = -0.00358 0.22490
#
# Static dielectric constant tensor:
#      x y z
#    x 1.743440 0.000000 -0.017870 
#    y 0.000000 1.794450 0.000000 
#    z -0.017870 0.000000 1.763470 
# 
# From -- ./inp_files/316764.got.cif
#   From: 2010.05.17/outbox.cif.g08.bks.cpg/sg12_159_cif.got.tgz:316764.got - 2010.06.03 13:09:07.
