data_PCOD9211258
_publ_section_title
;
Structure prediction by ZEFSAII (Michael W. Deem and Ramdas Pophale) SiO2 
 PCOD9211258
Probable space group: C 2/M
;
_chemical_formula_sum "Si O2"
_cell_formula_units_Z 48
_cell_length_a 11.006906
_cell_length_b 13.903410
_cell_length_c 19.142200
_cell_angle_alpha 90.000000
_cell_angle_beta 40.937570
_cell_angle_gamma 90.000000
_cell_volume 1919.448159
_symmetry_space_group_name_H-M "C 2/M"
_symmetry_group_IT_number 12
_symmetry_cell_setting 'monoclinic'
loop_
_space_group_symop_operation_xyz
x,y,z
-x,y,-z
-x,-y,-z
x,-y,z
1/2+x,1/2+y,z
1/2-x,1/2+y,-z
1/2-x,1/2-y,-z
1/2+x,1/2-y,z
loop_
_atom_site_type_symbol
_atom_site_label
_atom_site_fract_x
_atom_site_fract_y
_atom_site_fract_z
Si Si1 0.263221 0.115836 0.252036
Si Si2 0.433366 0.277985 0.380249
Si Si3 0.799298 0.616301 0.929625
Si Si4 0.679728 0.884770 0.229028
Si Si5 0.724117 0.890407 0.908567
Si Si6 0.304366 0.886383 0.620411
O O1 0.479158 0.135235 0.172593
O O2 0.230315 0.152125 0.186225
O O3 0.094493 0.174532 0.358968
O O4 0.241082 0.000000 0.267139
O O5 0.250000 0.250000 0.500000
O O6 0.497108 0.179880 0.314827
O O7 0.359477 0.355844 0.358039
O O8 0.780133 0.500000 0.944526
O O9 0.719452 0.641613 0.887822
O O10 0.729513 0.652887 0.035707
O O11 0.757337 0.863228 0.272690
O O12 0.645688 0.000000 0.239738
O O13 0.796709 0.000000 0.876115
O O14 0.500000 0.896726 0.000000
O O15 0.500000 0.851579 0.500000
O O16 0.325058 0.000000 0.612870
#
# Coordination Sequence:
#
# PCOD9211258 Si02
#       6
#     8   8   8   8   8   8
#     4   9  18  33  56  88 118 144 185 239 289 334
#     4  12  24  35  56  81 110 145 198 246 281 326
#     4   8  15  31  57  86 114 144 180 227 288 347
#     4  10  22  38  57  80 110 151 191 229 282 347
#     4   7  11  25  52  83 114 145 175 219 285 350
#     4  10  21  40  59  75 106 154 197 228 279 350
#
# _framework density 25.007187999999999
#
# number of rings (size 3 to 8) (size 9 to 14) (size 15 to 20)
#    0.000    2.667    1.667    2.500    2.333    0.667 
#    0.000    0.833    0.000    4.500    0.000    5.833 
#    0.000    0.000    0.000    0.000    0.000    0.000 
#
# Total GULP energy -133718.033994 kJ/mol
# GULP energy per Si atom -5571.584750 kJ/mol
# Density = 2.495027 g / cm^3
# Si number density = 25.007188 Si / 1000 Ang^3
#
#
#
# Elastic Constant Matrix: (Units=GPa)
#
#
# Indices 1 2 3 4 5 6 
#
# 1 44.4825 -2.2591 21.6511 -0.0001 26.7949 0.0000
# 2 -2.2591 41.7516 -4.4326 -0.0001 1.0901 0.0000
# 3 21.6511 -4.4326 74.9190 -0.0004 2.1703 0.0001
# 4 -0.0001 -0.0001 -0.0004 -5.1456 0.0001 -4.1315
# 5 26.7949 1.0901 2.1703 0.0001 48.8260 0.0000
# 6 0.0000 0.0000 0.0001 -4.1315 0.0000 21.7886
#
#
#
# Elastic Compliance Matrix: (Units=1/GPa)
#
#
# Indices 1 2 3 4 5 6 
#
# 1 0.041461 0.001632 -0.011240 0.000000 -0.022290 0.000000
# 2 0.001632 0.024185 0.001002 -0.000001 -0.001480 0.000000
# 3 -0.011240 0.001002 0.016498 -0.000001 0.005412 0.000000
# 4 0.000000 -0.000001 -0.000001 -0.168663 0.000000 -0.031981
# 5 -0.022290 -0.001480 0.005412 0.000000 0.032506 0.000000
# 6 0.000000 0.000000 0.000000 -0.031981 0.000000 0.039831
#
#
# Mechanical properties :
#
#
# Convention : Reuss Voigt Hill
#
# Bulk Modulus (GPa) = 15.40041 21.23018 18.31530
# Shear Modulus (GPa) = 202.64660 22.84005 112.74333
#
# Velocity S-wave (km/s) = 9.01173 3.02543 6.72177
# Velocity P-wave (km/s) = 10.69829 4.55108 8.22088
#
# Compressibility (1/GPa) = 0.06493333
#
# Stress axis : x y z
#
# Youngs Moduli (GPa) = 24.11886 41.34870 60.61172
#
# Poissons Ratio (x) = -0.06749 0.68126
# Poissons Ratio (y) = -0.03937 -0.06074
# Poissons Ratio (z) = 0.27109 -0.04143
#
# Static dielectric constant tensor:
#      x y z
#    x 2.094130 0.000000 -0.004970 
#    y 0.000000 1.992810 0.000000 
#    z -0.004970 0.000000 2.126990 
# 
# From -- ./inp_files/305624.got.cif
#   From: 2010.05.17/outbox.cif.g08.bks.cpg/sg12_153_cif.got.tgz:305624.got - 2010.06.03 13:09:07.
