data_PCOD9211961
_publ_section_title
;
Structure prediction by ZEFSAII (Michael W. Deem and Ramdas Pophale) SiO2 
 PCOD9211961
Probable space group: C 2/M
;
_chemical_formula_sum "Si O2"
_cell_formula_units_Z 64
_cell_length_a 9.390439
_cell_length_b 24.651236
_cell_length_c 13.966852
_cell_angle_alpha 90.000000
_cell_angle_beta 108.539934
_cell_angle_gamma 90.000000
_cell_volume 3065.337603
_symmetry_space_group_name_H-M "C 2/M"
_symmetry_group_IT_number 12
_symmetry_cell_setting 'monoclinic'
loop_
_space_group_symop_operation_xyz
x,y,z
-x,y,-z
-x,-y,-z
x,-y,z
1/2+x,1/2+y,z
1/2-x,1/2+y,-z
1/2-x,1/2-y,-z
1/2+x,1/2-y,z
loop_
_atom_site_type_symbol
_atom_site_label
_atom_site_fract_x
_atom_site_fract_y
_atom_site_fract_z
Si Si1 0.892373 0.650382 0.885043
Si Si2 0.358453 0.912513 0.405246
Si Si3 0.386600 0.213134 0.395150
Si Si4 0.476844 0.561072 0.607681
Si Si5 0.053675 0.562024 0.795317
Si Si6 0.886519 0.939547 0.887996
Si Si7 0.581541 0.759850 0.263967
Si Si8 0.947416 0.140112 0.213325
O O1 0.906434 0.707421 0.831785
O O2 0.716862 0.641475 0.868791
O O3 0.943333 0.604202 0.820827
O O4 0.000000 0.649031 0.000000
O O5 0.500000 0.929324 0.500000
O O6 0.338402 0.847495 0.412855
O O7 0.403658 0.926100 0.305939
O O8 0.200276 0.937164 0.403784
O O9 0.500000 0.234760 0.500000
O O10 0.477332 0.208294 0.315783
O O11 0.244520 0.250920 0.345774
O O12 0.500000 0.570864 0.500000
O O13 0.533620 0.500000 0.641200
O O14 0.556662 0.607454 0.687525
O O15 0.000387 0.500000 0.791963
O O16 0.214953 0.567143 0.882564
O O17 0.936260 0.893849 0.825369
O O18 0.896934 0.000000 0.845578
O O19 0.000000 0.937786 0.000000
O O20 0.508896 0.700664 0.236930
#
# Coordination Sequence:
#
# PCOD9211961 Si02
#       8
#     8   8   8   8   8   8   8   8
#     4  12  29  48  68  99 137 176 228 291 350 407
#     4  11  23  42  69 102 137 180 223 271 330 399
#     4  11  23  42  71 100 137 178 224 279 331 411
#     4  11  25  43  67 102 143 182 223 271 333 403
#     4  11  23  43  71  98 136 178 224 279 333 406
#     4  10  21  40  68  97 125 168 224 277 332 398
#     4  12  24  46  67 101 131 176 229 277 346 402
#     4  12  25  43  69  97 136 177 223 283 341 410
#
# _framework density 20.878613000000001
#
# number of rings (size 3 to 8) (size 9 to 14) (size 15 to 20)
#    0.000    0.750    5.000    1.875    1.750    3.750 
#    0.000    0.000    0.000    0.000    0.000    0.000 
#    0.000    0.000    0.000    0.000    0.000    0.000 
#
# Total GULP energy -178987.895935 kJ/mol
# GULP energy per Si atom -5593.371748 kJ/mol
# Density = 2.083109 g / cm^3
# Si number density = 20.878613 Si / 1000 Ang^3
#
#
#
# Elastic Constant Matrix: (Units=GPa)
#
#
# Indices 1 2 3 4 5 6 
#
# 1 66.7492 26.9074 13.7239 0.0000 14.5910 0.0000
# 2 26.9074 114.4436 32.5408 0.0000 -0.4011 0.0000
# 3 13.7239 32.5408 71.6914 0.0000 17.4134 0.0000
# 4 0.0000 0.0000 0.0000 15.2929 0.0000 -8.1930
# 5 14.5910 -0.4011 17.4134 0.0000 35.8341 0.0000
# 6 0.0000 0.0000 0.0000 -8.1930 0.0000 -5.1161
#
#
#
# Elastic Compliance Matrix: (Units=1/GPa)
#
#
# Indices 1 2 3 4 5 6 
#
# 1 0.018389 -0.004458 0.000379 0.000000 -0.007722 0.000000
# 2 -0.004458 0.011338 -0.005402 0.000000 0.004568 0.000000
# 3 0.000379 -0.005402 0.018573 0.000000 -0.009240 0.000000
# 4 0.000000 0.000000 0.000000 0.035195 0.000000 -0.056362
# 5 -0.007722 0.004568 -0.009240 0.000000 0.035592 0.000000
# 6 0.000000 0.000000 0.000000 -0.056362 0.000000 -0.105203
#
#
# Mechanical properties :
#
#
# Convention : Reuss Voigt Hill
#
# Bulk Modulus (GPa) = 34.08762 44.35872 39.22317
# Shear Modulus (GPa) = 117.30151 21.18298 69.24224
#
# Velocity S-wave (km/s) = 7.50364 3.18870 5.76508
# Velocity P-wave (km/s) = 9.56215 5.90332 7.94619
#
# Compressibility (1/GPa) = 0.02933617
#
# Stress axis : x y z
#
# Youngs Moduli (GPa) = 54.38150 88.19686 53.84256
#
# Poissons Ratio (x) = 0.39321 -0.02041
# Poissons Ratio (y) = 0.24245 0.29088
# Poissons Ratio (z) = -0.02061 0.47648
#
# Static dielectric constant tensor:
#      x y z
#    x 1.726510 0.000000 0.011400 
#    y 0.000000 1.756830 0.000000 
#    z 0.011400 0.000000 1.752500 
# 
# From -- ./inp_files/199894.got.cif
#   From: 2010.05.17/outbox.cif.g08.bks.cpg/sg12_100_cif.got.tgz:199894.got - 2010.06.03 13:09:07.
