data_PCOD9211207
_publ_section_title
;
Structure prediction by ZEFSAII (Michael W. Deem and Ramdas Pophale) SiO2 
 PCOD9211207
Probable space group: C 2/M
;
_chemical_formula_sum "Si O2"
_cell_formula_units_Z 40
_cell_length_a 12.589841
_cell_length_b 14.622748
_cell_length_c 17.563917
_cell_angle_alpha 90.000000
_cell_angle_beta 33.121731
_cell_angle_gamma 90.000000
_cell_volume 1766.838791
_symmetry_space_group_name_H-M "C 2/M"
_symmetry_group_IT_number 12
_symmetry_cell_setting 'monoclinic'
loop_
_space_group_symop_operation_xyz
x,y,z
-x,y,-z
-x,-y,-z
x,-y,z
1/2+x,1/2+y,z
1/2-x,1/2+y,-z
1/2-x,1/2-y,-z
1/2+x,1/2-y,z
loop_
_atom_site_type_symbol
_atom_site_label
_atom_site_fract_x
_atom_site_fract_y
_atom_site_fract_z
Si Si1 0.668089 0.197750 0.342654
Si Si2 0.205911 0.000000 0.958936
Si Si3 0.401021 0.671517 0.887369
Si Si4 0.145991 0.862460 0.255722
Si Si5 0.820773 0.000000 0.504655
Si Si6 0.125427 0.500000 0.785413
Si Si7 0.399166 0.000000 0.680932
O O1 0.500000 0.230560 0.500000
O O2 0.881593 0.210847 0.249016
O O3 0.649996 0.256972 0.277053
O O4 0.636881 0.091402 0.344621
O O5 0.099379 0.091798 0.049452
O O6 0.260347 0.000000 0.838082
O O7 0.409679 0.000000 0.883055
O O8 0.250000 0.750000 0.000000
O O9 0.344851 0.628627 0.839964
O O10 0.319916 0.913349 0.195463
O O11 0.952287 0.913233 0.402263
O O12 0.764585 0.000000 0.627319
O O13 0.620343 0.000000 0.578580
#
# Coordination Sequence:
#
# PCOD9211207 Si02
#       7
#     8   4   8   8   4   4   4
#     4  12  26  44  67  95 129 171 217 265 320 380
#     4  11  24  43  64  92 132 170 212 267 320 375
#     4  12  27  43  64  97 131 170 220 262 314 389
#     4  11  23  41  67  94 129 168 211 270 325 374
#     4  10  21  42  68 101 128 161 216 267 321 388
#     4  10  21  39  68  99 125 164 214 266 326 385
#     4  11  25  42  67  95 132 175 214 260 318 382
#
# _framework density 22.639303999999999
#
# number of rings (size 3 to 8) (size 9 to 14) (size 15 to 20)
#    0.000    0.800    0.000    8.100    0.000   13.600 
#    0.000    0.000    0.000    0.000    0.000    0.000 
#    0.000    0.000    0.000    0.000    0.000    0.000 
#
# Total GULP energy -112090.229133 kJ/mol
# GULP energy per Si atom -5604.511457 kJ/mol
# Density = 2.258778 g / cm^3
# Si number density = 22.639304 Si / 1000 Ang^3
#
#
#
# Elastic Constant Matrix: (Units=GPa)
#
#
# Indices 1 2 3 4 5 6 
#
# 1 95.3469 1.1583 36.3656 -0.0017 -11.6577 0.0012
# 2 1.1583 100.6440 6.1326 -0.0005 -3.4465 0.0007
# 3 36.3656 6.1326 99.5296 0.0000 -3.2908 0.0019
# 4 -0.0017 -0.0005 0.0000 30.4985 0.0015 9.7290
# 5 -11.6577 -3.4465 -3.2908 0.0015 42.0885 -0.0017
# 6 0.0012 0.0007 0.0019 9.7290 -0.0017 24.9009
#
#
#
# Elastic Compliance Matrix: (Units=1/GPa)
#
#
# Indices 1 2 3 4 5 6 
#
# 1 0.012591 0.000238 -0.004511 0.000001 0.003154 0.000000
# 2 0.000238 0.010003 -0.000676 0.000000 0.000832 0.000000
# 3 -0.004511 -0.000676 0.011724 0.000000 -0.000388 -0.000001
# 4 0.000001 0.000000 0.000000 0.037457 -0.000002 -0.014635
# 5 0.003154 0.000832 -0.000388 -0.000002 0.024671 0.000002
# 6 0.000000 0.000000 -0.000001 -0.014635 0.000002 0.045877
#
#
# Mechanical properties :
#
#
# Convention : Reuss Voigt Hill
#
# Bulk Modulus (GPa) = 40.94829 42.53705 41.74267
# Shear Modulus (GPa) = 31.17958 36.28851 33.73405
#
# Velocity S-wave (km/s) = 3.71513 4.00797 3.86432
# Velocity P-wave (km/s) = 6.04396 6.34415 6.19587
#
# Compressibility (1/GPa) = 0.02442105
#
# Stress axis : x y z
#
# Youngs Moduli (GPa) = 79.42020 99.97048 85.29343
#
# Poissons Ratio (x) = -0.02379 0.38475
# Poissons Ratio (y) = -0.01890 0.05764
# Poissons Ratio (z) = 0.35826 0.06756
#
# Static dielectric constant tensor:
#      x y z
#    x 1.819920 0.000000 -0.041340 
#    y 0.000000 1.813310 0.000000 
#    z -0.041340 0.000000 1.807820 
# 
# From -- ./inp_files/214625.got.cif
#   From: 2010.05.17/outbox.cif.g08.bks.cpg/sg12_108_cif.got.tgz:214625.got - 2010.06.03 13:09:07.
