data_PCOD9211534
_publ_section_title
;
Structure prediction by ZEFSAII (Michael W. Deem and Ramdas Pophale) SiO2 
 PCOD9211534
Probable space group: C 2/M
;
_chemical_formula_sum "Si O2"
_cell_formula_units_Z 56
_cell_length_a 18.209591
_cell_length_b 29.273461
_cell_length_c 5.335943
_cell_angle_alpha 90.000000
_cell_angle_beta 119.765892
_cell_angle_gamma 90.000000
_cell_volume 2469.083421
_symmetry_space_group_name_H-M "C 2/M"
_symmetry_group_IT_number 12
_symmetry_cell_setting 'monoclinic'
loop_
_space_group_symop_operation_xyz
x,y,z
-x,y,-z
-x,-y,-z
x,-y,z
1/2+x,1/2+y,z
1/2-x,1/2+y,-z
1/2-x,1/2-y,-z
1/2+x,1/2-y,z
loop_
_atom_site_type_symbol
_atom_site_label
_atom_site_fract_x
_atom_site_fract_y
_atom_site_fract_z
Si Si1 0.549139 0.673941 0.839286
Si Si2 0.057794 0.000000 0.847546
Si Si3 0.661296 0.406862 0.031068
Si Si4 0.444422 0.000000 0.655661
Si Si5 0.406650 0.817347 0.453766
Si Si6 0.152188 0.592603 0.411928
Si Si7 0.266849 0.143183 0.838704
Si Si8 0.176465 0.771359 0.710350
O O1 0.500000 0.659080 0.500000
O O2 0.613716 0.708934 0.818001
O O3 0.500000 0.693061 0.000000
O O4 0.596753 0.629870 0.031855
O O5 0.000000 0.000000 0.500000
O O6 0.117692 0.044462 0.948353
O O7 0.000000 0.000000 0.000000
O O8 0.752677 0.405728 0.316962
O O9 0.687129 0.384456 0.811002
O O10 0.500000 0.000000 0.500000
O O11 0.389766 0.953974 0.578515
O O12 0.500000 0.000000 0.000000
O O13 0.500000 0.811097 0.500000
O O14 0.403203 0.862663 0.617133
O O15 0.373174 0.769534 0.512273
O O16 0.333848 0.831433 0.131703
O O17 0.174075 0.602319 0.162786
O O18 0.219310 0.186775 0.627181
O O19 0.250000 0.750000 0.000000
#
# Coordination Sequence:
#
# PCOD9211534 Si02
#       8
#     8   4   8   4   8   8   8   8
#     4  11  24  43  68  99 141 185 237 290 355 414
#     4  12  27  43  68 104 138 173 226 289 353 411
#     4  10  24  43  67  95 138 180 233 283 349 428
#     4  12  31  51  78 108 146 183 240 307 373 433
#     4  10  21  40  63  98 143 176 240 291 360 411
#     4  11  25  44  73  99 135 189 236 293 358 435
#     4   9  22  40  67  96 134 186 238 285 351 425
#     4   9  20  44  62 100 140 189 240 288 352 429
#
# _framework density 22.680478999999998
#
# number of rings (size 3 to 8) (size 9 to 14) (size 15 to 20)
#    0.000    1.714    0.000    3.000   12.000    1.143 
#   10.286    0.000    0.000    0.000    0.000    0.000 
#    0.000    0.000    0.000    0.000    0.000    0.000 
#
# Total GULP energy -155969.939272 kJ/mol
# GULP energy per Si atom -5570.354974 kJ/mol
# Density = 2.262886 g / cm^3
# Si number density = 22.680479 Si / 1000 Ang^3
#
#
#
# Elastic Constant Matrix: (Units=GPa)
#
#
# Indices 1 2 3 4 5 6 
#
# 1 118.0976 52.0045 19.3853 0.0000 7.6747 0.0000
# 2 52.0045 145.7231 12.3220 0.0000 8.8171 0.0000
# 3 19.3853 12.3220 59.6987 0.0000 7.8801 0.0000
# 4 0.0000 0.0000 0.0000 -108.4916 0.0000 152.6805
# 5 7.6747 8.8171 7.8801 0.0000 29.8196 0.0000
# 6 0.0000 0.0000 0.0000 152.6805 0.0000 -93.7041
#
#
#
# Elastic Compliance Matrix: (Units=1/GPa)
#
#
# Indices 1 2 3 4 5 6 
#
# 1 0.010477 -0.003462 -0.002556 0.000000 -0.000997 0.000000
# 2 -0.003462 0.008217 -0.000382 0.000000 -0.001438 0.000000
# 3 -0.002556 -0.000382 0.018192 0.000000 -0.004037 0.000000
# 4 0.000000 0.000000 0.000000 0.007128 0.000000 0.011615
# 5 -0.000997 -0.001438 -0.004037 0.000000 0.035283 0.000000
# 6 0.000000 0.000000 0.000000 0.011615 0.000000 0.008253
#
#
# Mechanical properties :
#
#
# Convention : Reuss Voigt Hill
#
# Bulk Modulus (GPa) = 41.51771 54.54920 48.03345
# Shear Modulus (GPa) = 46.13399 -18.48804 13.82298
#
# Velocity S-wave (km/s) = 4.51497 -2.85818 2.47141
# Velocity P-wave (km/s) = 6.74724 3.63471 5.41924
#
# Compressibility (1/GPa) = 0.02408611
#
# Stress axis : x y z
#
# Youngs Moduli (GPa) = 95.45146 121.69549 54.96817
#
# Poissons Ratio (x) = 0.42135 0.14048
# Poissons Ratio (y) = 0.33049 0.02100
# Poissons Ratio (z) = 0.24394 0.04649
#
# Static dielectric constant tensor:
#      x y z
#    x 1.929710 0.000000 -0.110490 
#    y 0.000000 1.844230 0.000000 
#    z -0.110490 0.000000 2.088340 
# 
# From -- ./inp_files/18414.got.cif
#   From: 2010.05.17/outbox.cif.g08.bks.cpg/sg12_10_cif.got.tgz:18414.got - 2010.06.03 13:09:07.
