data_PCOD9211166
_publ_section_title
;
Structure prediction by ZEFSAII (Michael W. Deem and Ramdas Pophale) SiO2 
 PCOD9211166
Probable space group: C 2/M
;
_chemical_formula_sum "Si O2"
_cell_formula_units_Z 64
_cell_length_a 9.700624
_cell_length_b 18.008052
_cell_length_c 18.966855
_cell_angle_alpha 90.000000
_cell_angle_beta 124.041647
_cell_angle_gamma 90.000000
_cell_volume 2745.508864
_symmetry_space_group_name_H-M "C 2/M"
_symmetry_group_IT_number 12
_symmetry_cell_setting 'monoclinic'
loop_
_space_group_symop_operation_xyz
x,y,z
-x,y,-z
-x,-y,-z
x,-y,z
1/2+x,1/2+y,z
1/2-x,1/2+y,-z
1/2-x,1/2-y,-z
1/2+x,1/2-y,z
loop_
_atom_site_type_symbol
_atom_site_label
_atom_site_fract_x
_atom_site_fract_y
_atom_site_fract_z
Si Si1 0.366010 0.126292 0.154420
Si Si2 0.837829 0.357346 0.342462
Si Si3 0.789372 0.411837 0.589879
Si Si4 0.802617 0.819903 0.560648
Si Si5 0.886716 0.230236 0.256298
Si Si6 0.919758 0.081073 0.821461
Si Si7 0.740092 0.915200 0.258958
Si Si8 0.139516 0.822014 0.979443
O O1 0.393795 0.211498 0.192829
O O2 0.238671 0.088228 0.171631
O O3 0.541006 0.086955 0.200650
O O4 0.271375 0.123348 0.053399
O O5 0.836725 0.345656 0.424649
O O6 0.794799 0.281702 0.288077
O O7 0.678181 0.408512 0.279546
O O8 0.019374 0.383051 0.366855
O O9 0.797124 0.500000 0.590550
O O10 0.677684 0.382078 0.493676
O O11 0.723613 0.391280 0.649125
O O12 0.750000 0.750000 0.500000
O O13 0.946654 0.792241 0.654178
O O14 0.799314 0.150264 0.223695
O O15 0.046270 0.143153 0.885880
O O16 0.996806 0.000000 0.848460
O O17 0.799205 0.000000 0.263181
O O18 0.250000 0.750000 0.000000
O O19 0.000000 0.807878 0.000000
#
# Coordination Sequence:
#
# PCOD9211166 Si02
#       8
#     8   8   8   8   8   8   8   8
#     4  10  21  39  67  95 125 170 215 268 316 395
#     4  11  22  38  64  89 124 162 214 272 322 389
#     4  11  23  40  61  89 122 167 217 274 332 383
#     4  12  24  39  58  89 123 169 217 270 321 393
#     4  11  23  38  64  91 125 168 217 263 330 391
#     4  10  21  40  65  98 129 163 213 272 330 387
#     4  11  23  41  64  93 131 171 216 269 332 394
#     4  10  24  40  67  99 132 168 214 268 326 393
#
# _framework density 23.310797000000001
#
# number of rings (size 3 to 8) (size 9 to 14) (size 15 to 20)
#    0.000    1.250    3.750    2.625    7.000    6.250 
#    0.000    1.250    0.000    0.375    0.000    0.000 
#    0.000    0.000    0.000    0.000    0.000    0.000 
#
# Total GULP energy -178661.308193 kJ/mol
# GULP energy per Si atom -5583.165881 kJ/mol
# Density = 2.325774 g / cm^3
# Si number density = 23.310797 Si / 1000 Ang^3
#
#
#
# Elastic Constant Matrix: (Units=GPa)
#
#
# Indices 1 2 3 4 5 6 
#
# 1 43.0245 26.7831 29.0725 0.0000 3.0404 0.0000
# 2 26.7831 126.5177 11.9841 0.0000 -1.7502 0.0000
# 3 29.0725 11.9841 103.3744 0.0000 17.7978 0.0000
# 4 0.0000 0.0000 0.0000 26.3614 0.0000 8.2186
# 5 3.0404 -1.7502 17.7978 0.0000 32.3908 0.0000
# 6 0.0000 0.0000 0.0000 8.2186 0.0000 23.8581
#
#
#
# Elastic Compliance Matrix: (Units=1/GPa)
#
#
# Indices 1 2 3 4 5 6 
#
# 1 0.032880 -0.006109 -0.008781 0.000000 0.001409 0.000000
# 2 -0.006109 0.009159 0.000522 0.000000 0.000782 0.000000
# 3 -0.008781 0.000522 0.013183 0.000000 -0.006391 0.000000
# 4 0.000000 0.000000 0.000000 0.042499 0.000000 -0.014640
# 5 0.001409 0.000782 -0.006391 0.000000 0.034295 0.000000
# 6 0.000000 0.000000 0.000000 -0.014640 0.000000 0.046958
#
#
# Mechanical properties :
#
#
# Convention : Reuss Voigt Hill
#
# Bulk Modulus (GPa) = 37.75838 45.39959 41.57898
# Shear Modulus (GPa) = 23.09068 30.19384 26.64226
#
# Velocity S-wave (km/s) = 3.15073 3.60289 3.38437
# Velocity P-wave (km/s) = 5.42854 6.06843 5.75738
#
# Compressibility (1/GPa) = 0.02648419
#
# Stress axis : x y z
#
# Youngs Moduli (GPa) = 30.41396 109.18581 75.85508
#
# Poissons Ratio (x) = 0.66704 0.66610
# Poissons Ratio (y) = 0.18580 -0.03958
# Poissons Ratio (z) = 0.26707 -0.05697
#
# Static dielectric constant tensor:
#      x y z
#    x 1.936760 0.000000 -0.031110 
#    y 0.000000 1.968940 0.000000 
#    z -0.031110 0.000000 1.974950 
# 
# From -- ./inp_files/306214.got.cif
#   From: 2010.05.17/outbox.cif.g08.bks.cpg/sg12_154_cif.got.tgz:306214.got - 2010.06.03 13:09:07.
