data_PCOD9211441
_publ_section_title
;
Structure prediction by ZEFSAII (Michael W. Deem and Ramdas Pophale) SiO2 
 PCOD9211441
Probable space group: C 2/M
;
_chemical_formula_sum "Si O2"
_cell_formula_units_Z 64
_cell_length_a 29.124876
_cell_length_b 9.711368
_cell_length_c 13.567041
_cell_angle_alpha 90.000000
_cell_angle_beta 125.695530
_cell_angle_gamma 90.000000
_cell_volume 3116.410648
_symmetry_space_group_name_H-M "C 2/M"
_symmetry_group_IT_number 12
_symmetry_cell_setting 'monoclinic'
loop_
_space_group_symop_operation_xyz
x,y,z
-x,y,-z
-x,-y,-z
x,-y,z
1/2+x,1/2+y,z
1/2-x,1/2+y,-z
1/2-x,1/2-y,-z
1/2+x,1/2-y,z
loop_
_atom_site_type_symbol
_atom_site_label
_atom_site_fract_x
_atom_site_fract_y
_atom_site_fract_z
Si Si1 0.129655 0.658606 0.410891
Si Si2 0.553339 0.659316 0.998688
Si Si3 0.241244 0.339900 0.086122
Si Si4 0.278704 0.154795 0.301537
Si Si5 0.080417 0.841493 0.689856
Si Si6 0.162403 0.153152 0.276188
Si Si7 0.553146 0.657539 0.433253
Si Si8 0.610192 0.160862 0.906246
O O1 0.117286 0.500000 0.374903
O O2 0.172843 0.667137 0.556480
O O3 0.157359 0.731890 0.352433
O O4 0.074645 0.741528 0.376381
O O5 0.544456 0.500000 0.954093
O O6 0.608513 0.661643 0.137226
O O7 0.500000 0.698742 0.000000
O O8 0.567851 0.757374 0.925367
O O9 0.254882 0.500000 0.087706
O O10 0.277808 0.271472 0.218145
O O11 0.250000 0.250000 0.000000
O O12 0.174292 0.330720 0.027496
O O13 0.219336 0.164869 0.284849
O O14 0.282015 0.000000 0.261246
O O15 0.080931 0.808199 0.574387
O O16 0.110175 0.736015 0.800276
O O17 0.013943 0.837104 0.635296
O O18 0.099640 0.000000 0.727903
O O19 0.162214 0.000000 0.322238
O O20 0.568537 0.500000 0.428523
O O21 0.595245 0.000000 0.878501
#
# Coordination Sequence:
#
# PCOD9211441 Si02
#       8
#     8   8   8   8   8   8   8   8
#     4  11  24  37  58  90 122 152 191 248 304 353
#     4  10  22  40  64  91 119 159 206 248 295 357
#     4  11  25  42  63  91 124 161 202 249 301 360
#     4  10  22  42  63  86 118 157 200 245 298 355
#     4   9  20  39  63  85 115 157 201 243 286 348
#     4  10  21  40  63  85 116 157 199 245 293 354
#     4   9  20  40  61  86 116 154 202 245 287 348
#     4  11  24  40  61  93 126 157 195 248 309 362
#
# _framework density 20.536445000000001
#
# number of rings (size 3 to 8) (size 9 to 14) (size 15 to 20)
#    0.000    1.875    1.250    2.250    3.500    4.750 
#    0.000    1.250    0.000    0.000    0.000    0.000 
#    0.000    0.000    0.000    0.000    0.000    0.000 
#
# Total GULP energy -178895.927030 kJ/mol
# GULP energy per Si atom -5590.497720 kJ/mol
# Density = 2.048970 g / cm^3
# Si number density = 20.536445 Si / 1000 Ang^3
#
#
#
# Elastic Constant Matrix: (Units=GPa)
#
#
# Indices 1 2 3 4 5 6 
#
# 1 64.3295 32.8387 -7.8598 0.0000 2.7307 0.0000
# 2 32.8387 131.6308 32.4065 0.0000 -28.4078 0.0000
# 3 -7.8598 32.4065 36.8864 0.0000 -5.8025 0.0000
# 4 0.0000 0.0000 0.0000 29.7370 0.0000 -9.9335
# 5 2.7307 -28.4078 -5.8025 0.0000 28.2611 0.0000
# 6 0.0000 0.0000 0.0000 -9.9335 0.0000 20.9839
#
#
#
# Elastic Compliance Matrix: (Units=1/GPa)
#
#
# Indices 1 2 3 4 5 6 
#
# 1 0.023600 -0.011622 0.013478 0.000000 -0.011195 0.000000
# 2 -0.011622 0.017729 -0.015575 0.000000 0.015746 0.000000
# 3 0.013478 -0.015575 0.042366 0.000000 -0.008260 0.000000
# 4 0.000000 0.000000 0.000000 0.039945 0.000000 0.018909
# 5 -0.011195 0.015746 -0.008260 0.000000 0.050598 0.000000
# 6 0.000000 0.000000 0.000000 0.018909 0.000000 0.056607
#
#
# Mechanical properties :
#
#
# Convention : Reuss Voigt Hill
#
# Bulk Modulus (GPa) = 17.77565 38.62416 28.19990
# Shear Modulus (GPa) = 18.04825 27.49381 22.77103
#
# Velocity S-wave (km/s) = 2.96774 3.66291 3.33349
# Velocity P-wave (km/s) = 4.51860 6.06116 5.34581
#
# Compressibility (1/GPa) = 0.05625673
#
# Stress axis : x y z
#
# Youngs Moduli (GPa) = 42.37377 56.40448 23.60359
#
# Poissons Ratio (x) = 0.65551 -0.31812
# Poissons Ratio (y) = 0.49245 0.36763
# Poissons Ratio (z) = -0.57110 0.87851
#
# Static dielectric constant tensor:
#      x y z
#    x 1.722970 0.000000 0.019970 
#    y 0.000000 1.708570 0.000000 
#    z 0.019970 0.000000 1.726810 
# 
# From -- ./inp_files/249909.got.cif
#   From: 2010.05.17/outbox.cif.g08.bks.cpg/sg12_125_cif.got.tgz:249909.got - 2010.06.03 13:09:07.
