data_PCOD9211662
_publ_section_title
;
Structure prediction by ZEFSAII (Michael W. Deem and Ramdas Pophale) SiO2 
 PCOD9211662
Probable space group: C 2/M
;
_chemical_formula_sum "Si O2"
_cell_formula_units_Z 56
_cell_length_a 15.310710
_cell_length_b 21.781739
_cell_length_c 9.381945
_cell_angle_alpha 90.000000
_cell_angle_beta 119.333920
_cell_angle_gamma 90.000000
_cell_volume 2727.641970
_symmetry_space_group_name_H-M "C 2/M"
_symmetry_group_IT_number 12
_symmetry_cell_setting 'monoclinic'
loop_
_space_group_symop_operation_xyz
x,y,z
-x,y,-z
-x,-y,-z
x,-y,z
1/2+x,1/2+y,z
1/2-x,1/2+y,-z
1/2-x,1/2-y,-z
1/2+x,1/2-y,z
loop_
_atom_site_type_symbol
_atom_site_label
_atom_site_fract_x
_atom_site_fract_y
_atom_site_fract_z
Si Si1 0.745640 0.072503 0.032680
Si Si2 0.812553 0.070041 0.764959
Si Si3 0.097684 0.864030 0.659932
Si Si4 0.968272 0.176074 0.814637
Si Si5 0.857247 0.250168 0.511691
Si Si6 0.021016 0.428490 0.850265
Si Si7 0.400751 0.886749 0.504932
O O1 0.805026 0.097537 0.217500
O O2 0.733338 0.000000 0.045717
O O3 0.803400 0.079751 0.928251
O O4 0.633189 0.097717 0.918685
O O5 0.884554 0.121804 0.755845
O O6 0.700242 0.077665 0.614218
O O7 0.848085 0.000000 0.767931
O O8 0.127392 0.805446 0.587404
O O9 0.000000 0.892583 0.500000
O O10 0.055866 0.845406 0.780712
O O11 0.928697 0.235611 0.701677
O O12 0.000000 0.188449 0.000000
O O13 0.750000 0.250000 0.500000
O O14 0.879796 0.315148 0.458636
O O15 0.019641 0.500000 0.801452
O O16 0.934535 0.394598 0.694578
O O17 0.000000 0.427063 0.000000
O O18 0.500000 0.907664 0.500000
#
# Coordination Sequence:
#
# PCOD9211662 Si02
#       7
#     8   8   8   8   8   8   8
#     4  10  21  40  64  97 133 165 213 269 324 390
#     4  11  23  39  67 101 129 169 218 266 324 394
#     4  10  23  42  66  92 132 167 215 269 321 382
#     4  11  22  43  65  94 129 167 214 267 321 383
#     4  11  25  45  65  91 129 170 220 274 324 383
#     4  10  23  39  61  95 133 165 205 266 326 387
#     4  12  23  42  66  92 127 174 217 264 324 383
#
# _framework density 20.530553999999999
#
# number of rings (size 3 to 8) (size 9 to 14) (size 15 to 20)
#    0.000    1.286    4.286    1.714    2.000    2.286 
#    0.000    5.000    0.000    0.000    0.000    0.000 
#    0.000    0.000    0.000    0.000    0.000    0.000 
#
# Total GULP energy -156262.760382 kJ/mol
# GULP energy per Si atom -5580.812871 kJ/mol
# Density = 2.048383 g / cm^3
# Si number density = 20.530554 Si / 1000 Ang^3
#
#
#
# Elastic Constant Matrix: (Units=GPa)
#
#
# Indices 1 2 3 4 5 6 
#
# 1 65.3406 3.3716 2.6516 0.0000 -6.1784 0.0000
# 2 3.3716 48.2160 20.0506 0.0000 2.0300 0.0000
# 3 2.6516 20.0506 123.7689 0.0000 3.4136 0.0000
# 4 0.0000 0.0000 0.0000 26.2949 0.0000 5.4290
# 5 -6.1784 2.0300 3.4136 0.0000 30.9101 0.0000
# 6 0.0000 0.0000 0.0000 5.4290 0.0000 17.1084
#
#
#
# Elastic Compliance Matrix: (Units=1/GPa)
#
#
# Indices 1 2 3 4 5 6 
#
# 1 0.015679 -0.001132 -0.000242 0.000000 0.003235 0.000000
# 2 -0.001132 0.022355 -0.003561 0.000000 -0.001301 0.000000
# 3 -0.000242 -0.003561 0.008683 0.000000 -0.000773 0.000000
# 4 0.000000 0.000000 0.000000 0.040696 0.000000 -0.012914
# 5 0.003235 -0.001301 -0.000773 0.000000 0.033169 0.000000
# 6 0.000000 0.000000 0.000000 -0.012914 0.000000 0.062549
#
#
# Mechanical properties :
#
#
# Convention : Reuss Voigt Hill
#
# Bulk Modulus (GPa) = 27.13979 32.16365 29.65172
# Shear Modulus (GPa) = 24.35657 28.94613 26.65135
#
# Velocity S-wave (km/s) = 3.44809 3.75894 3.60687
# Velocity P-wave (km/s) = 5.39447 5.87706 5.64093
#
# Compressibility (1/GPa) = 0.03684627
#
# Stress axis : x y z
#
# Youngs Moduli (GPa) = 63.78153 44.73288 115.16723
#
# Poissons Ratio (x) = 0.05064 0.02784
# Poissons Ratio (y) = 0.07220 0.41015
# Poissons Ratio (z) = 0.01542 0.15931
#
# Static dielectric constant tensor:
#      x y z
#    x 1.800910 0.000000 0.054850 
#    y 0.000000 1.760880 0.000000 
#    z 0.054850 0.000000 1.772470 
# 
# From -- ./inp_files/65943.got.cif
#   From: 2010.05.17/outbox.cif.g08.bks.cpg/sg12_33_cif.got.tgz:65943.got - 2010.06.03 13:09:07.
