data_PCOD9211771
_publ_section_title
;
Structure prediction by ZEFSAII (Michael W. Deem and Ramdas Pophale) SiO2 
 PCOD9211771
Probable space group: C 2/M
;
_chemical_formula_sum "Si O2"
_cell_formula_units_Z 56
_cell_length_a 33.489701
_cell_length_b 18.336873
_cell_length_c 10.373694
_cell_angle_alpha 90.000000
_cell_angle_beta 153.602347
_cell_angle_gamma 90.000000
_cell_volume 2832.291583
_symmetry_space_group_name_H-M "C 2/M"
_symmetry_group_IT_number 12
_symmetry_cell_setting 'monoclinic'
loop_
_space_group_symop_operation_xyz
x,y,z
-x,y,-z
-x,-y,-z
x,-y,z
1/2+x,1/2+y,z
1/2-x,1/2+y,-z
1/2-x,1/2-y,-z
1/2+x,1/2-y,z
loop_
_atom_site_type_symbol
_atom_site_label
_atom_site_fract_x
_atom_site_fract_y
_atom_site_fract_z
Si Si1 0.542271 0.000000 0.402415
Si Si2 0.926815 0.284990 0.176365
Si Si3 0.861119 0.500000 0.042156
Si Si4 0.071042 0.916513 0.098567
Si Si5 0.989432 0.870310 0.606013
Si Si6 0.339475 0.286338 0.310221
Si Si7 0.756963 0.856368 0.314322
Si Si8 0.528066 0.154044 0.231208
O O1 0.558802 0.926410 0.367679
O O2 0.440727 0.000000 0.166765
O O3 0.599802 0.000000 0.699964
O O4 0.000000 0.310745 0.500000
O O5 0.946088 0.200099 0.217406
O O6 0.950872 0.324713 0.111784
O O7 0.822483 0.297594 0.903694
O O8 0.800111 0.429710 0.850383
O O9 0.160348 0.867325 0.348845
O O10 0.095497 0.000000 0.204722
O O11 0.000000 0.888804 0.000000
O O12 0.019770 0.915514 0.815830
O O13 0.894233 0.832366 0.362826
O O14 0.000000 0.908736 0.500000
O O15 0.309479 0.341055 0.334760
O O16 0.401164 0.219945 0.541406
O O17 0.250000 0.250000 0.000000
O O18 0.500000 0.152513 0.000000
#
# Coordination Sequence:
#
# PCOD9211771 Si02
#       8
#     4   8   4   8   8   8   8   8
#     4  11  21  42  66  90 140 164 212 265 329 403
#     4  10  21  40  65  96 126 162 212 264 316 390
#     4  11  22  38  69 102 116 174 221 269 320 379
#     4  11  24  43  63  91 124 166 220 267 306 372
#     4  10  22  41  63  91 129 163 205 263 328 383
#     4  11  23  40  65  95 129 168 217 266 315 386
#     4  12  22  39  68  96 124 167 222 270 310 374
#     4  11  24  40  63  96 135 169 206 261 335 386
#
# _framework density 19.771975999999999
#
# number of rings (size 3 to 8) (size 9 to 14) (size 15 to 20)
#    0.000    1.143    3.571    4.500    4.000    0.857 
#    2.571    0.000    0.000    0.000    0.000    0.000 
#    0.000    0.000    0.000    0.000    0.000    0.000 
#
# Total GULP energy -156212.206409 kJ/mol
# GULP energy per Si atom -5579.007372 kJ/mol
# Density = 1.972697 g / cm^3
# Si number density = 19.771976 Si / 1000 Ang^3
#
#
#
# Elastic Constant Matrix: (Units=GPa)
#
#
# Indices 1 2 3 4 5 6 
#
# 1 115.1246 3.4342 49.6656 0.0000 -4.8706 0.0000
# 2 3.4342 23.9415 -1.9252 0.0000 7.4848 0.0000
# 3 49.6656 -1.9252 105.3806 0.0000 4.7821 0.0000
# 4 0.0000 0.0000 0.0000 21.3815 0.0000 2.3613
# 5 -4.8706 7.4848 4.7821 0.0000 43.3070 0.0000
# 6 0.0000 0.0000 0.0000 2.3613 0.0000 28.3418
#
#
#
# Elastic Compliance Matrix: (Units=1/GPa)
#
#
# Indices 1 2 3 4 5 6 
#
# 1 0.011217 -0.002779 -0.005443 0.000000 0.002343 0.000000
# 2 -0.002779 0.044984 0.002511 0.000000 -0.008364 0.000000
# 3 -0.005443 0.002511 0.012209 0.000000 -0.002394 0.000000
# 4 0.000000 0.000000 0.000000 0.047204 0.000000 -0.003933
# 5 0.002343 -0.008364 -0.002394 0.000000 0.025064 0.000000
# 6 0.000000 0.000000 0.000000 -0.003933 0.000000 0.035611
#
#
# Mechanical properties :
#
#
# Convention : Reuss Voigt Hill
#
# Bulk Modulus (GPa) = 17.54780 38.53289 28.04035
# Shear Modulus (GPa) = 24.18872 31.49087 27.83980
#
# Velocity S-wave (km/s) = 3.50149 3.99520 3.75646
# Velocity P-wave (km/s) = 5.02410 6.38851 5.74694
#
# Compressibility (1/GPa) = 0.05698718
#
# Stress axis : x y z
#
# Youngs Moduli (GPa) = 89.15352 22.23016 81.90389
#
# Poissons Ratio (x) = 0.06178 0.44584
# Poissons Ratio (y) = 0.24777 -0.20567
# Poissons Ratio (z) = 0.48530 -0.05582
#
# Static dielectric constant tensor:
#      x y z
#    x 1.714960 0.000000 -0.021180 
#    y 0.000000 1.709830 0.000000 
#    z -0.021180 0.000000 1.727150 
# 
# From -- ./inp_files/113433.got.cif
#   From: 2010.05.17/outbox.cif.g08.bks.cpg/sg12_57_cif.got.tgz:113433.got - 2010.06.03 13:09:07.
