data_PCOD9211728
_publ_section_title
;
Structure prediction by ZEFSAII (Michael W. Deem and Ramdas Pophale) SiO2 
 PCOD9211728
Probable space group: C 2/M
;
_chemical_formula_sum "Si O2"
_cell_formula_units_Z 64
_cell_length_a 12.070603
_cell_length_b 15.469294
_cell_length_c 28.140457
_cell_angle_alpha 90.000000
_cell_angle_beta 36.864950
_cell_angle_gamma 90.000000
_cell_volume 3152.331258
_symmetry_space_group_name_H-M "C 2/M"
_symmetry_group_IT_number 12
_symmetry_cell_setting 'monoclinic'
loop_
_space_group_symop_operation_xyz
x,y,z
-x,y,-z
-x,-y,-z
x,-y,z
1/2+x,1/2+y,z
1/2-x,1/2+y,-z
1/2-x,1/2-y,-z
1/2+x,1/2-y,z
loop_
_atom_site_type_symbol
_atom_site_label
_atom_site_fract_x
_atom_site_fract_y
_atom_site_fract_z
Si Si1 0.005320 0.678353 0.350386
Si Si2 0.641475 0.395198 0.044610
Si Si3 0.515742 0.379272 0.360458
Si Si4 0.333966 0.597768 0.793544
Si Si5 0.389829 0.598648 0.221868
Si Si6 0.912486 0.404294 0.483378
Si Si7 0.503976 0.213833 0.941968
Si Si8 0.174812 0.099849 0.409872
O O1 0.953318 0.637707 0.419037
O O2 0.861168 0.647532 0.360365
O O3 0.990442 0.778467 0.362875
O O4 0.216257 0.655207 0.267099
O O5 0.641302 0.500000 0.029977
O O6 0.553658 0.395212 0.127398
O O7 0.525783 0.317038 0.058185
O O8 0.841962 0.349357 0.977271
O O9 0.624861 0.407323 0.276251
O O10 0.306594 0.411901 0.435267
O O11 0.622727 0.397341 0.372518
O O12 0.276753 0.500000 0.829319
O O13 0.523121 0.618644 0.756850
O O14 0.188811 0.671797 0.856902
O O15 0.323155 0.500000 0.245190
O O16 0.998126 0.500000 0.451743
O O17 0.000000 0.360129 0.500000
O O18 0.500000 0.203688 0.000000
O O19 0.000000 0.134188 0.500000
O O20 0.199873 0.000000 0.416016
#
# Coordination Sequence:
#
# PCOD9211728 Si02
#       8
#     8   8   8   8   8   8   8   8
#     4  12  25  39  63  91 127 169 217 268 328 396
#     4  10  22  41  66 100 138 174 216 269 327 393
#     4  12  26  40  62  92 131 165 217 275 327 387
#     4  11  23  41  68  97 131 173 221 281 334 387
#     4  10  21  40  65  92 127 169 217 269 328 392
#     4  11  23  40  64  89 122 164 214 271 329 394
#     4  11  22  41  69 101 133 174 223 267 324 399
#     4  11  24  43  65  86 121 171 217 263 323 396
#
# _framework density 20.302434999999999
#
# number of rings (size 3 to 8) (size 9 to 14) (size 15 to 20)
#    0.000    1.000    2.500    4.500    3.500    2.750 
#    0.000    0.000    0.000    3.000    0.000    0.000 
#    0.000    0.000    0.000    0.000    0.000    0.000 
#
# Total GULP energy -178581.712859 kJ/mol
# GULP energy per Si atom -5580.678527 kJ/mol
# Density = 2.025623 g / cm^3
# Si number density = 20.302435 Si / 1000 Ang^3
#
#
#
# Elastic Constant Matrix: (Units=GPa)
#
#
# Indices 1 2 3 4 5 6 
#
# 1 97.7110 20.0113 14.2338 0.0002 3.2450 -0.0001
# 2 20.0113 123.6198 10.1029 -0.0002 -10.0541 0.0000
# 3 14.2338 10.1029 53.5837 -0.0006 10.6415 0.0001
# 4 0.0002 -0.0002 -0.0006 28.0689 0.0003 -1.4788
# 5 3.2450 -10.0541 10.6415 0.0003 31.5221 0.0000
# 6 -0.0001 0.0000 0.0001 -1.4788 0.0000 24.5965
#
#
#
# Elastic Compliance Matrix: (Units=1/GPa)
#
#
# Indices 1 2 3 4 5 6 
#
# 1 0.010953 -0.001641 -0.002435 0.000000 -0.000829 0.000000
# 2 -0.001641 0.008810 -0.001947 0.000000 0.003636 0.000000
# 3 -0.002435 -0.001947 0.021169 0.000001 -0.007517 0.000000
# 4 0.000000 0.000000 0.000001 0.035740 -0.000001 0.002149
# 5 -0.000829 0.003636 -0.007517 -0.000001 0.035506 0.000000
# 6 0.000000 0.000000 0.000000 0.002149 0.000000 0.040785
#
#
# Mechanical properties :
#
#
# Convention : Reuss Voigt Hill
#
# Bulk Modulus (GPa) = 34.62126 40.40117 37.51122
# Shear Modulus (GPa) = 28.63041 32.20860 30.41951
#
# Velocity S-wave (km/s) = 3.75933 3.98734 3.87501
# Velocity P-wave (km/s) = 5.99443 6.41415 6.20784
#
# Compressibility (1/GPa) = 0.02888399
#
# Stress axis : x y z
#
# Youngs Moduli (GPa) = 91.30157 113.50867 47.23833
#
# Poissons Ratio (x) = 0.18631 0.11504
# Poissons Ratio (y) = 0.14986 0.09198
# Poissons Ratio (z) = 0.22235 0.22102
#
# Static dielectric constant tensor:
#      x y z
#    x 1.736710 0.000000 -0.003460 
#    y 0.000000 1.742900 0.000000 
#    z -0.003460 0.000000 1.702570 
# 
# From -- ./inp_files/358413.got.cif
#   From: 2010.05.17/outbox.cif.g08.bks.cpg/sg12_180_cif.got.tgz:358413.got - 2010.06.03 13:09:07.
