data_PCOD9211833
_publ_section_title
;
Structure prediction by ZEFSAII (Michael W. Deem and Ramdas Pophale) SiO2 
 PCOD9211833
Probable space group: C 2/M
;
_chemical_formula_sum "Si O2"
_cell_formula_units_Z 64
_cell_length_a 18.990318
_cell_length_b 8.800602
_cell_length_c 32.838769
_cell_angle_alpha 90.000000
_cell_angle_beta 141.212126
_cell_angle_gamma 90.000000
_cell_volume 3438.034076
_symmetry_space_group_name_H-M "C 2/M"
_symmetry_group_IT_number 12
_symmetry_cell_setting 'monoclinic'
loop_
_space_group_symop_operation_xyz
x,y,z
-x,y,-z
-x,-y,-z
x,-y,z
1/2+x,1/2+y,z
1/2-x,1/2+y,-z
1/2-x,1/2-y,-z
1/2+x,1/2-y,z
loop_
_atom_site_type_symbol
_atom_site_label
_atom_site_fract_x
_atom_site_fract_y
_atom_site_fract_z
Si Si1 0.165909 0.817613 0.429105
Si Si2 0.013846 0.182599 0.134798
Si Si3 0.543714 0.183681 0.974683
Si Si4 0.417288 0.180213 0.316368
Si Si5 0.801800 0.184660 0.092473
Si Si6 0.600835 0.677307 0.777123
Si Si7 0.719646 0.821078 0.278135
Si Si8 0.330601 0.675691 0.661582
O O1 0.250000 0.750000 0.500000
O O2 0.203866 0.782852 0.399836
O O3 0.041648 0.748637 0.377742
O O4 0.159133 0.000000 0.429294
O O5 0.114068 0.242145 0.208258
O O6 0.022839 0.246361 0.093214
O O7 0.895406 0.233846 0.102024
O O8 0.016018 0.000000 0.135238
O O9 0.537721 0.000000 0.969592
O O10 0.500000 0.226789 0.000000
O O11 0.673856 0.232342 0.027801
O O12 0.375600 0.226769 0.252401
O O13 0.332075 0.253305 0.309646
O O14 0.420530 0.000000 0.321873
O O15 0.839641 0.230757 0.154908
O O16 0.803381 0.000000 0.092939
O O17 0.631015 0.500000 0.783325
O O18 0.466621 0.682208 0.723746
O O19 0.714491 0.781497 0.323410
O O20 0.713684 0.000000 0.268595
O O21 0.298978 0.500000 0.655411
#
# Coordination Sequence:
#
# PCOD9211833 Si02
#       8
#     8   8   8   8   8   8   8   8
#     4  10  21  40  66  94 126 164 201 239 285 341
#     4  11  22  39  59  80 111 153 197 245 301 358
#     4  10  22  38  56  82 113 150 196 245 299 361
#     4  11  23  38  58  88 124 158 196 243 293 347
#     4   9  18  35  58  80 111 152 191 236 295 355
#     4   9  17  34  58  83 114 154 195 237 293 353
#     4  12  24  38  59  87 119 154 197 250 303 355
#     4   9  18  36  60  87 120 155 192 238 291 344
#
# _framework density 18.615289000000001
#
# number of rings (size 3 to 8) (size 9 to 14) (size 15 to 20)
#    0.000    1.875    1.250    4.125    1.750    2.750 
#    0.000    1.875    0.000    3.750    0.000    0.000 
#    0.000    0.000    0.000    0.000    0.000    0.000 
#
# Total GULP energy -178745.173973 kJ/mol
# GULP energy per Si atom -5585.786687 kJ/mol
# Density = 1.857292 g / cm^3
# Si number density = 18.615289 Si / 1000 Ang^3
#
#
#
# Elastic Constant Matrix: (Units=GPa)
#
#
# Indices 1 2 3 4 5 6 
#
# 1 109.3130 54.1903 43.4116 0.0000 -9.7138 0.0000
# 2 54.1903 71.5649 29.8732 -0.0001 -11.6920 0.0002
# 3 43.4116 29.8732 94.7702 0.0000 -24.6425 0.0000
# 4 0.0000 -0.0001 0.0000 30.1796 0.0000 -5.1807
# 5 -9.7138 -11.6920 -24.6425 0.0000 22.2874 0.0000
# 6 0.0000 0.0002 0.0000 -5.1807 0.0000 28.4129
#
#
#
# Elastic Compliance Matrix: (Units=1/GPa)
#
#
# Indices 1 2 3 4 5 6 
#
# 1 0.016146 -0.010793 -0.005104 0.000000 -0.004268 0.000000
# 2 -0.010793 0.023560 -0.000690 0.000000 0.006892 0.000000
# 3 -0.005104 -0.000690 0.017452 0.000000 0.016710 0.000000
# 4 0.000000 0.000000 0.000000 0.034206 0.000000 0.006237
# 5 -0.004268 0.006892 0.016710 0.000000 0.065100 0.000000
# 6 0.000000 0.000000 0.000000 0.006237 0.000000 0.036332
#
#
# Mechanical properties :
#
#
# Convention : Reuss Voigt Hill
#
# Bulk Modulus (GPa) = 41.69386 58.95538 50.32462
# Shear Modulus (GPa) = 21.37068 26.05419 23.71244
#
# Velocity S-wave (km/s) = 3.39192 3.74520 3.57293
# Velocity P-wave (km/s) = 6.14706 7.10219 6.64182
#
# Compressibility (1/GPa) = 0.02398434
#
# Stress axis : x y z
#
# Youngs Moduli (GPa) = 61.93454 42.44447 57.29897
#
# Poissons Ratio (x) = 0.45810 0.29244
# Poissons Ratio (y) = 0.66846 0.03956
# Poissons Ratio (z) = 0.31609 0.02931
#
# Static dielectric constant tensor:
#      x y z
#    x 1.646400 0.000000 -0.001850 
#    y 0.000000 1.621300 0.000000 
#    z -0.001850 0.000000 1.627100 
# 
# From -- ./inp_files/378388.got.cif
#   From: 2010.05.17/outbox.cif.g08.bks.cpg/sg12_190_cif.got.tgz:378388.got - 2010.06.03 13:09:07.
