data_PCOD9211454
_publ_section_title
;
Structure prediction by ZEFSAII (Michael W. Deem and Ramdas Pophale) SiO2 
 PCOD9211454
Probable space group: C 2/M
;
_chemical_formula_sum "Si O2"
_cell_formula_units_Z 64
_cell_length_a 9.429363
_cell_length_b 30.189746
_cell_length_c 15.048683
_cell_angle_alpha 90.000000
_cell_angle_beta 49.542349
_cell_angle_gamma 90.000000
_cell_volume 3259.565992
_symmetry_space_group_name_H-M "C 2/M"
_symmetry_group_IT_number 12
_symmetry_cell_setting 'monoclinic'
loop_
_space_group_symop_operation_xyz
x,y,z
-x,y,-z
-x,-y,-z
x,-y,z
1/2+x,1/2+y,z
1/2-x,1/2+y,-z
1/2-x,1/2-y,-z
1/2+x,1/2-y,z
loop_
_atom_site_type_symbol
_atom_site_label
_atom_site_fract_x
_atom_site_fract_y
_atom_site_fract_z
Si Si1 0.679003 0.206940 0.376487
Si Si2 0.082617 0.949212 0.828593
Si Si3 0.284517 0.894911 0.598655
Si Si4 0.506844 0.448025 0.390190
Si Si5 0.046023 0.264779 0.245155
Si Si6 0.212759 0.550647 0.066421
Si Si7 0.871330 0.408293 0.143462
Si Si8 0.379358 0.194736 0.136550
O O1 0.500000 0.225138 0.500000
O O2 0.725193 0.157948 0.391756
O O3 0.610607 0.204666 0.301448
O O4 0.850453 0.238715 0.329282
O O5 0.195688 0.916325 0.722185
O O6 0.180040 0.950454 0.884459
O O7 0.082184 0.000000 0.795590
O O8 0.868194 0.935120 0.931105
O O9 0.500000 0.907287 0.500000
O O10 0.158832 0.916435 0.574346
O O11 0.500000 0.443385 0.500000
O O12 0.472902 0.500000 0.386210
O O13 0.691179 0.434499 0.256230
O O14 0.204499 0.226936 0.189842
O O15 0.008765 0.291297 0.168333
O O16 0.155130 0.500000 0.068112
O O17 0.035700 0.581377 0.146157
O O18 0.820401 0.356619 0.165437
O O19 0.000000 0.418275 0.000000
O O20 0.500000 0.199233 0.000000
#
# Coordination Sequence:
#
# PCOD9211454 Si02
#       8
#     8   8   8   8   8   8   8   8
#     4  10  22  39  62  91 118 153 205 253 307 371
#     4   9  19  36  57  85 119 153 198 250 300 353
#     4  11  24  39  61  89 122 161 208 253 299 365
#     4  11  26  44  62  91 131 171 209 254 313 371
#     4  10  21  40  63  86 121 162 194 251 318 374
#     4   9  19  35  58  85 115 153 199 253 301 353
#     4  11  23  38  63  91 123 162 210 259 309 366
#     4  10  22  39  62  90 125 158 206 251 311 377
#
# _framework density 19.634515
#
# number of rings (size 3 to 8) (size 9 to 14) (size 15 to 20)
#    0.000    1.875    0.000    3.750    3.500    5.000 
#    0.000    3.125    0.000    0.000    0.000    0.000 
#    0.000    0.000    0.000    0.000    0.000    0.000 
#
# Total GULP energy -178231.509531 kJ/mol
# GULP energy per Si atom -5569.734673 kJ/mol
# Density = 1.958983 g / cm^3
# Si number density = 19.634515 Si / 1000 Ang^3
#
#
#
# Elastic Constant Matrix: (Units=GPa)
#
#
# Indices 1 2 3 4 5 6 
#
# 1 108.1075 41.0627 34.1078 0.0000 2.3139 0.0000
# 2 41.0627 65.2359 30.1713 0.0000 -4.1442 0.0000
# 3 34.1078 30.1713 62.5756 0.0000 5.9698 0.0000
# 4 0.0000 0.0000 0.0000 -15.2052 0.0000 28.0273
# 5 2.3139 -4.1442 5.9698 0.0000 31.4085 0.0000
# 6 0.0000 0.0000 0.0000 28.0273 0.0000 17.3628
#
#
#
# Elastic Compliance Matrix: (Units=1/GPa)
#
#
# Indices 1 2 3 4 5 6 
#
# 1 0.012927 -0.006426 -0.003846 0.000000 -0.001069 0.000000
# 2 -0.006426 0.023566 -0.008353 0.000000 0.005170 0.000000
# 3 -0.003846 -0.008353 0.022592 0.000000 -0.005113 0.000000
# 4 0.000000 0.000000 0.000000 -0.016543 0.000000 0.026705
# 5 -0.001069 0.005170 -0.005113 0.000000 0.033571 0.000000
# 6 0.000000 0.000000 0.000000 0.026705 0.000000 0.014488
#
#
# Mechanical properties :
#
#
# Convention : Reuss Voigt Hill
#
# Bulk Modulus (GPa) = 45.79774 49.62250 47.71012
# Shear Modulus (GPa) = 37.00190 15.41837 26.21014
#
# Velocity S-wave (km/s) = 4.34583 2.80531 3.65759
# Velocity P-wave (km/s) = 6.96831 5.98506 6.49532
#
# Compressibility (1/GPa) = 0.02183514
#
# Stress axis : x y z
#
# Youngs Moduli (GPa) = 77.35653 42.43469 44.26358
#
# Poissons Ratio (x) = 0.27270 0.17022
# Poissons Ratio (y) = 0.49712 0.36973
# Poissons Ratio (z) = 0.29748 0.35445
#
# Static dielectric constant tensor:
#      x y z
#    x 1.729970 0.000000 0.038890 
#    y 0.000000 1.730100 0.000000 
#    z 0.038890 0.000000 1.720950 
# 
# From -- ./inp_files/201261.got.cif
#   From: 2010.05.17/outbox.cif.g08.bks.cpg/sg12_101_cif.got.tgz:201261.got - 2010.06.03 13:09:07.
