data_PCOD9211703
_publ_section_title
;
Structure prediction by ZEFSAII (Michael W. Deem and Ramdas Pophale) SiO2 
 PCOD9211703
Probable space group: C 2/M
;
_chemical_formula_sum "Si O2"
_cell_formula_units_Z 48
_cell_length_a 13.246429
_cell_length_b 21.997146
_cell_length_c 8.993563
_cell_angle_alpha 90.000000
_cell_angle_beta 73.171829
_cell_angle_gamma 90.000000
_cell_volume 2508.356798
_symmetry_space_group_name_H-M "C 2/M"
_symmetry_group_IT_number 12
_symmetry_cell_setting 'monoclinic'
loop_
_space_group_symop_operation_xyz
x,y,z
-x,y,-z
-x,-y,-z
x,-y,z
1/2+x,1/2+y,z
1/2-x,1/2+y,-z
1/2-x,1/2-y,-z
1/2+x,1/2-y,z
loop_
_atom_site_type_symbol
_atom_site_label
_atom_site_fract_x
_atom_site_fract_y
_atom_site_fract_z
Si Si1 0.600392 0.570384 0.564791
Si Si2 0.318832 0.892462 0.936909
Si Si3 0.395815 0.352719 0.137788
Si Si4 0.010156 0.570159 0.664057
Si Si5 0.215777 0.389000 0.729391
Si Si6 0.672856 0.222792 0.909187
O O1 0.500000 0.577831 0.500000
O O2 0.603346 0.500000 0.615473
O O3 0.596978 0.616367 0.704521
O O4 0.701944 0.584232 0.420436
O O5 0.211924 0.875868 0.895150
O O6 0.399835 0.926335 0.797387
O O7 0.379837 0.831566 0.971930
O O8 0.285432 0.921761 0.108683
O O9 0.387798 0.278870 0.137677
O O10 0.500000 0.369436 0.000000
O O11 0.045175 0.500000 0.642770
O O12 0.099837 0.606244 0.711408
O O13 0.000000 0.592700 0.500000
O O14 0.235672 0.318152 0.762240
O O15 0.750000 0.250000 0.000000
#
# Coordination Sequence:
#
# PCOD9211703 Si02
#       6
#     8   8   8   8   8   8
#     4  11  25  43  61  90 127 164 210 258 302 362
#     4   9  21  39  60  93 122 159 206 249 308 362
#     4  11  22  40  69  89 123 164 205 255 310 368
#     4  11  23  38  59  89 129 167 203 252 306 365
#     4  10  21  40  65  91 122 163 203 253 313 365
#     4   8  20  39  64  89 124 151 201 253 309 364
#
# _framework density 19.136033999999999
#
# number of rings (size 3 to 8) (size 9 to 14) (size 15 to 20)
#    1.000    1.000    0.000    3.000    2.333    5.000 
#    0.000    0.833    0.000    0.000    0.000    0.000 
#    0.000    0.000    0.000    0.000    0.000    0.000 
#
# Total GULP energy -133618.827591 kJ/mol
# GULP energy per Si atom -5567.451150 kJ/mol
# Density = 1.909248 g / cm^3
# Si number density = 19.136034 Si / 1000 Ang^3
#
#
#
# Elastic Constant Matrix: (Units=GPa)
#
#
# Indices 1 2 3 4 5 6 
#
# 1 86.9096 28.3487 34.6992 0.0000 -2.1969 0.0000
# 2 28.3487 80.7567 37.2493 0.0000 15.9076 0.0000
# 3 34.6992 37.2493 122.3601 0.0000 0.7237 0.0000
# 4 0.0000 0.0000 0.0000 24.7060 0.0000 4.2893
# 5 -2.1969 15.9076 0.7237 0.0000 35.3667 0.0000
# 6 0.0000 0.0000 0.0000 4.2893 0.0000 31.9636
#
#
#
# Elastic Compliance Matrix: (Units=1/GPa)
#
#
# Indices 1 2 3 4 5 6 
#
# 1 0.014042 -0.004238 -0.002709 0.000000 0.002834 0.000000
# 2 -0.004238 0.017290 -0.004015 0.000000 -0.007958 0.000000
# 3 -0.002709 -0.004015 0.010154 0.000000 0.001430 0.000000
# 4 0.000000 0.000000 0.000000 0.041441 0.000000 -0.005561
# 5 0.002834 -0.007958 0.001430 0.000000 0.032001 0.000000
# 6 0.000000 0.000000 0.000000 -0.005561 0.000000 0.032032
#
#
# Mechanical properties :
#
#
# Convention : Reuss Voigt Hill
#
# Bulk Modulus (GPa) = 51.11541 54.51343 52.81442
# Shear Modulus (GPa) = 28.50561 31.05587 29.78074
#
# Velocity S-wave (km/s) = 3.86376 4.03289 3.94923
# Velocity P-wave (km/s) = 6.83187 7.08765 6.96094
#
# Compressibility (1/GPa) = 0.01956357
#
# Stress axis : x y z
#
# Youngs Moduli (GPa) = 71.21669 57.83726 98.47974
#
# Poissons Ratio (x) = 0.24512 0.26674
# Poissons Ratio (y) = 0.30182 0.39535
# Poissons Ratio (z) = 0.19289 0.23219
#
# Static dielectric constant tensor:
#      x y z
#    x 1.660550 0.000000 0.007980 
#    y 0.000000 1.708420 0.000000 
#    z 0.007980 0.000000 1.657700 
# 
# From -- ./inp_files/64695.got.cif
#   From: 2010.05.17/outbox.cif.g08.bks.cpg/sg12_33_cif.got.tgz:64695.got - 2010.06.03 13:09:07.
