data_PCOD9211546
_publ_section_title
;
Structure prediction by ZEFSAII (Michael W. Deem and Ramdas Pophale) SiO2 
 PCOD9211546
Probable space group: C 2/M
;
_chemical_formula_sum "Si O2"
_cell_formula_units_Z 64
_cell_length_a 9.351481
_cell_length_b 25.835410
_cell_length_c 12.913141
_cell_angle_alpha 90.000000
_cell_angle_beta 93.584866
_cell_angle_gamma 90.000000
_cell_volume 3113.701826
_symmetry_space_group_name_H-M "C 2/M"
_symmetry_group_IT_number 12
_symmetry_cell_setting 'monoclinic'
loop_
_space_group_symop_operation_xyz
x,y,z
-x,y,-z
-x,-y,-z
x,-y,z
1/2+x,1/2+y,z
1/2-x,1/2+y,-z
1/2-x,1/2-y,-z
1/2+x,1/2-y,z
loop_
_atom_site_type_symbol
_atom_site_label
_atom_site_fract_x
_atom_site_fract_y
_atom_site_fract_z
Si Si1 0.501483 0.440847 0.699683
Si Si2 0.431226 0.337212 0.598550
Si Si3 0.406601 0.157919 0.393809
Si Si4 0.061115 0.807154 0.166528
Si Si5 0.817957 0.374498 0.083427
Si Si6 0.338530 0.057205 0.269587
Si Si7 0.805079 0.126306 0.141627
Si Si8 0.051086 0.308978 0.193910
O O1 0.542281 0.500000 0.673351
O O2 0.494923 0.395763 0.613003
O O3 0.334403 0.442601 0.725847
O O4 0.603763 0.417599 0.794761
O O5 0.500000 0.312730 0.500000
O O6 0.259618 0.333459 0.586154
O O7 0.465816 0.313578 0.711714
O O8 0.500000 0.164310 0.500000
O O9 0.406902 0.099417 0.348524
O O10 0.466053 0.191406 0.299576
O O11 0.185582 0.845466 0.134780
O O12 0.915169 0.828529 0.111217
O O13 0.095386 0.747264 0.155417
O O14 0.863167 0.423301 0.154557
O O15 0.944976 0.333911 0.105329
O O16 0.773812 0.390262 0.966792
O O17 0.392824 0.000000 0.291772
O O18 0.687786 0.153447 0.209426
#
# Coordination Sequence:
#
# PCOD9211546 Si02
#       8
#     8   8   8   8   8   8   8   8
#     4   9  19  38  61  89 118 149 194 246 290 343
#     4  10  21  40  64  87 117 153 193 244 295 343
#     4  10  22  40  61  87 122 151 193 241 292 358
#     4  11  22  40  60  86 118 156 202 245 282 343
#     4  11  21  41  57  88 123 153 199 243 288 345
#     4   9  18  38  64  85 116 155 192 241 296 342
#     4  11  23  35  63  89 117 157 198 241 288 347
#     4  11  24  40  58  84 124 159 191 241 298 342
#
# _framework density 20.554313
#
# number of rings (size 3 to 8) (size 9 to 14) (size 15 to 20)
#    0.000    1.750    5.000    1.500    3.500    4.500 
#    0.000    5.000    0.000    3.750    0.000    0.000 
#    0.000    0.000    0.000    0.000    0.000    0.000 
#
# Total GULP energy -178485.339446 kJ/mol
# GULP energy per Si atom -5577.666858 kJ/mol
# Density = 2.050753 g / cm^3
# Si number density = 20.554313 Si / 1000 Ang^3
#
#
#
# Elastic Constant Matrix: (Units=GPa)
#
#
# Indices 1 2 3 4 5 6 
#
# 1 45.2896 0.9618 6.2689 0.0000 -6.7631 0.0000
# 2 0.9618 44.9484 -24.8785 0.0000 -1.6461 0.0000
# 3 6.2689 -24.8785 80.8949 0.0000 4.4570 0.0000
# 4 0.0000 0.0000 0.0000 1.1652 0.0000 1.0156
# 5 -6.7631 -1.6461 4.4570 0.0000 29.9567 0.0000
# 6 0.0000 0.0000 0.0000 1.0156 0.0000 8.8267
#
#
#
# Elastic Compliance Matrix: (Units=1/GPa)
#
#
# Indices 1 2 3 4 5 6 
#
# 1 0.023316 -0.001765 -0.002656 0.000000 0.005562 0.000000
# 2 -0.001765 0.026947 0.008434 0.000000 -0.000173 0.000000
# 3 -0.002656 0.008434 0.015294 0.000000 -0.002412 0.000000
# 4 0.000000 0.000000 0.000000 0.953885 0.000000 -0.109756
# 5 0.005562 -0.000173 -0.002412 0.000000 0.034987 0.000000
# 6 0.000000 0.000000 0.000000 -0.109756 0.000000 0.125922
#
#
# Mechanical properties :
#
#
# Convention : Reuss Voigt Hill
#
# Bulk Modulus (GPa) = 13.59041 15.09302 14.34172
# Shear Modulus (GPa) = 4.17762 20.57510 12.37636
#
# Velocity S-wave (km/s) = 1.42720 3.16731 2.45649
# Velocity P-wave (km/s) = 3.05649 4.55354 3.87794
#
# Compressibility (1/GPa) = 0.07358129
#
# Stress axis : x y z
#
# Youngs Moduli (GPa) = 42.88927 37.10964 65.38447
#
# Poissons Ratio (x) = 0.06551 0.17368
# Poissons Ratio (y) = 0.07572 -0.55143
# Poissons Ratio (z) = 0.11392 -0.31297
#
# Static dielectric constant tensor:
#      x y z
#    x 1.770900 0.000000 -0.012920 
#    y 0.000000 1.751100 0.000000 
#    z -0.012920 0.000000 1.724480 
# 
# From -- ./inp_files/199864.got.cif
#   From: 2010.05.17/outbox.cif.g08.bks.cpg/sg12_100_cif.got.tgz:199864.got - 2010.06.03 13:09:07.
