data_PCOD9211466
_publ_section_title
;
Structure prediction by ZEFSAII (Michael W. Deem and Ramdas Pophale) SiO2 
 PCOD9211466
Probable space group: C 2/M
;
_chemical_formula_sum "Si O2"
_cell_formula_units_Z 40
_cell_length_a 23.885301
_cell_length_b 7.724805
_cell_length_c 17.122881
_cell_angle_alpha 90.000000
_cell_angle_beta 33.967398
_cell_angle_gamma 90.000000
_cell_volume 1765.184640
_symmetry_space_group_name_H-M "C 2/M"
_symmetry_group_IT_number 12
_symmetry_cell_setting 'monoclinic'
loop_
_space_group_symop_operation_xyz
x,y,z
-x,y,-z
-x,-y,-z
x,-y,z
1/2+x,1/2+y,z
1/2-x,1/2+y,-z
1/2-x,1/2-y,-z
1/2+x,1/2-y,z
loop_
_atom_site_type_symbol
_atom_site_label
_atom_site_fract_x
_atom_site_fract_y
_atom_site_fract_z
Si Si1 0.612514 0.298661 0.885135
Si Si2 0.280618 0.200135 0.082778
Si Si3 0.058161 0.793080 0.357277
Si Si4 0.026743 0.709295 0.223920
Si Si5 0.840226 0.293471 0.337850
O O1 0.603803 0.500000 0.917342
O O2 0.668311 0.206253 0.891120
O O3 0.669618 0.283003 0.737017
O O4 0.500000 0.229858 0.000000
O O5 0.170527 0.280207 0.216616
O O6 0.267603 0.000000 0.074392
O O7 0.363526 0.276484 0.928313
O O8 0.002584 0.761307 0.340032
O O9 0.000000 0.723800 0.500000
O O10 0.067987 0.000000 0.357367
O O11 0.028312 0.500000 0.218126
O O12 0.942941 0.769462 0.259792
O O13 0.846165 0.500000 0.322270
O O14 0.750000 0.250000 0.500000
#
# Coordination Sequence:
#
# PCOD9211466 Si02
#       5
#     8   8   8   8   8
#     4  11  23  39  62  94 125 158 203 249 300 359
#     4  10  21  40  63  87 120 162 203 245 300 359
#     4  10  23  40  60  89 120 154 199 250 305 359
#     4  10  22  40  62  87 117 158 204 247 297 358
#     4  11  24  41  62  90 126 163 202 249 304 361
#
# _framework density 22.660519000000001
#
# number of rings (size 3 to 8) (size 9 to 14) (size 15 to 20)
#    0.000    1.600    2.000    1.800    2.800    4.400 
#    0.000    0.000    0.000    0.000    0.000    0.000 
#    0.000    0.000    0.000    0.000    0.000    0.000 
#
# Total GULP energy -111852.520600 kJ/mol
# GULP energy per Si atom -5592.626030 kJ/mol
# Density = 2.260894 g / cm^3
# Si number density = 22.660519 Si / 1000 Ang^3
#
#
#
# Elastic Constant Matrix: (Units=GPa)
#
#
# Indices 1 2 3 4 5 6 
#
# 1 84.2261 -9.4326 19.5633 0.0015 24.1165 -0.0025
# 2 -9.4326 46.3333 4.0385 0.0071 -7.4863 -0.0028
# 3 19.5633 4.0385 107.1158 0.0038 24.8171 -0.0051
# 4 0.0015 0.0071 0.0038 23.9909 -0.0015 -8.0691
# 5 24.1165 -7.4863 24.8171 -0.0015 43.2489 0.0012
# 6 -0.0025 -0.0028 -0.0051 -8.0691 0.0012 31.7354
#
#
#
# Elastic Compliance Matrix: (Units=1/GPa)
#
#
# Indices 1 2 3 4 5 6 
#
# 1 0.014353 0.001870 -0.001053 -0.000001 -0.007076 0.000001
# 2 0.001870 0.022822 -0.002163 -0.000006 0.004149 0.000000
# 3 -0.001053 -0.002163 0.011026 -0.000001 -0.006115 0.000002
# 4 -0.000001 -0.000006 -0.000001 0.045580 0.000002 0.011589
# 5 -0.007076 0.004149 -0.006115 0.000002 0.031294 -0.000002
# 6 0.000001 0.000000 0.000002 0.011589 -0.000002 0.034457
#
#
# Mechanical properties :
#
#
# Convention : Reuss Voigt Hill
#
# Bulk Modulus (GPa) = 21.97295 29.55708 25.76502
# Shear Modulus (GPa) = 28.18580 34.69545 31.44063
#
# Velocity S-wave (km/s) = 3.53062 3.91717 3.72891
# Velocity P-wave (km/s) = 5.13206 5.79057 5.47123
#
# Compressibility (1/GPa) = 0.04551049
#
# Stress axis : x y z
#
# Youngs Moduli (GPa) = 69.67316 43.81650 90.69355
#
# Poissons Ratio (x) = -0.08196 0.09546
# Poissons Ratio (y) = -0.13032 0.19620
# Poissons Ratio (z) = 0.07333 0.09479
#
# Static dielectric constant tensor:
#      x y z
#    x 1.801550 0.000000 -0.018170 
#    y 0.000000 1.849320 0.000000 
#    z -0.018170 0.000000 1.856680 
# 
# From -- ./inp_files/221219.got.cif
#   From: 2010.05.17/outbox.cif.g08.bks.cpg/sg12_111_cif.got.tgz:221219.got - 2010.06.03 13:09:07.
