data_PCOD9211531
_publ_section_title
;
Structure prediction by ZEFSAII (Michael W. Deem and Ramdas Pophale) SiO2 
 PCOD9211531
Probable space group: C 2/M
;
_chemical_formula_sum "Si O2"
_cell_formula_units_Z 56
_cell_length_a 28.372550
_cell_length_b 11.522123
_cell_length_c 23.020154
_cell_angle_alpha 90.000000
_cell_angle_beta 159.349569
_cell_angle_gamma 90.000000
_cell_volume 2654.006479
_symmetry_space_group_name_H-M "C 2/M"
_symmetry_group_IT_number 12
_symmetry_cell_setting 'monoclinic'
loop_
_space_group_symop_operation_xyz
x,y,z
-x,y,-z
-x,-y,-z
x,-y,z
1/2+x,1/2+y,z
1/2-x,1/2+y,-z
1/2-x,1/2-y,-z
1/2+x,1/2-y,z
loop_
_atom_site_type_symbol
_atom_site_label
_atom_site_fract_x
_atom_site_fract_y
_atom_site_fract_z
Si Si1 0.581221 0.701437 0.539141
Si Si2 0.208477 0.870537 0.158848
Si Si3 0.402919 0.369012 0.792805
Si Si4 0.832574 0.298397 0.185340
Si Si5 0.630076 0.129694 0.901669
Si Si6 0.761314 0.874874 0.384873
Si Si7 0.892148 0.808243 0.650915
O O1 0.500000 0.648986 0.500000
O O2 0.695701 0.781267 0.698931
O O3 0.474435 0.776586 0.379107
O O4 0.655193 0.623518 0.577902
O O5 0.240067 0.858223 0.126750
O O6 0.244187 0.000000 0.218456
O O7 0.051876 0.852282 0.989491
O O8 0.353050 0.500000 0.753142
O O9 0.319068 0.249606 0.707792
O O10 0.419987 0.374707 0.742529
O O11 0.845290 0.364145 0.139097
O O12 0.760632 0.177976 0.084767
O O13 0.508405 0.215019 0.775647
O O14 0.597648 0.000000 0.882260
O O15 0.863940 0.870264 0.557495
O O16 0.686104 0.000000 0.303428
O O17 0.750000 0.750000 0.500000
#
# Coordination Sequence:
#
# PCOD9211531 Si02
#       7
#     8   8   8   8   8   8   8
#     4  10  23  42  64  91 130 169 225 270 325 380
#     4  10  21  40  66  92 127 171 222 275 326 380
#     4  10  22  42  68  99 132 168 215 274 332 391
#     4  10  21  41  58  95 131 166 221 264 330 382
#     4  11  22  37  65  96 131 172 215 267 331 399
#     4  11  24  43  67  97 133 174 218 269 333 398
#     4  10  21  40  63  97 130 165 210 261 326 392
#
# _framework density 21.100173999999999
#
# number of rings (size 3 to 8) (size 9 to 14) (size 15 to 20)
#    0.000    1.714    2.857    0.857    0.000    9.714 
#    0.000    5.000    0.000    0.000    0.000    0.000 
#    0.000    0.000    0.000    0.000    0.000    0.000 
#
# Total GULP energy -156142.556637 kJ/mol
# GULP energy per Si atom -5576.519880 kJ/mol
# Density = 2.105215 g / cm^3
# Si number density = 21.100174 Si / 1000 Ang^3
#
#
#
# Elastic Constant Matrix: (Units=GPa)
#
#
# Indices 1 2 3 4 5 6 
#
# 1 119.1274 42.2077 19.6617 0.0000 -8.8125 0.0000
# 2 42.2077 151.7745 35.9936 0.0000 10.8503 0.0000
# 3 19.6617 35.9936 87.4022 -0.0001 -5.2781 -0.0001
# 4 0.0000 0.0000 -0.0001 -1.6709 0.0000 16.5775
# 5 -8.8125 10.8503 -5.2781 0.0000 20.8770 0.0000
# 6 0.0000 0.0000 -0.0001 16.5775 0.0000 -0.6201
#
#
#
# Elastic Compliance Matrix: (Units=1/GPa)
#
#
# Indices 1 2 3 4 5 6 
#
# 1 0.009991 -0.003023 -0.000663 0.000000 0.005621 0.000000
# 2 -0.003023 0.008685 -0.003296 0.000000 -0.006623 0.000000
# 3 -0.000663 -0.003296 0.013237 0.000000 0.004780 0.000000
# 4 0.000000 0.000000 0.000000 0.002265 0.000000 0.060551
# 5 0.005621 -0.006623 0.004780 0.000000 0.054923 0.000000
# 6 0.000000 0.000000 0.000000 0.060551 0.000000 0.006103
#
#
# Mechanical properties :
#
#
# Convention : Reuss Voigt Hill
#
# Bulk Modulus (GPa) = 55.71950 61.55889 58.63919
# Shear Modulus (GPa) = 43.42167 21.07995 32.25081
#
# Velocity S-wave (km/s) = 4.54131 3.16419 3.91380
# Velocity P-wave (km/s) = 7.34591 6.52590 6.94802
#
# Compressibility (1/GPa) = 0.01794704
#
# Stress axis : x y z
#
# Youngs Moduli (GPa) = 100.09359 115.14646 75.54768
#
# Poissons Ratio (x) = 0.34808 0.05010
# Poissons Ratio (y) = 0.30257 0.24903
# Poissons Ratio (z) = 0.06638 0.37957
#
# Static dielectric constant tensor:
#      x y z
#    x 1.793210 0.000000 -0.010320 
#    y 0.000000 1.770110 0.000000 
#    z -0.010320 0.000000 1.732810 
# 
# From -- ./inp_files/354001.got.cif
#   From: 2010.05.17/outbox.cif.g08.bks.cpg/sg12_178_cif.got.tgz:354001.got - 2010.06.03 13:09:07.
