data_PCOD9211525
_publ_section_title
;
Structure prediction by ZEFSAII (Michael W. Deem and Ramdas Pophale) SiO2 
 PCOD9211525
Probable space group: C 2/M
;
_chemical_formula_sum "Si O2"
_cell_formula_units_Z 40
_cell_length_a 24.952574
_cell_length_b 9.746560
_cell_length_c 23.786901
_cell_angle_alpha 90.000000
_cell_angle_beta 159.051094
_cell_angle_gamma 90.000000
_cell_volume 2068.347373
_symmetry_space_group_name_H-M "C 2/M"
_symmetry_group_IT_number 12
_symmetry_cell_setting 'monoclinic'
loop_
_space_group_symop_operation_xyz
x,y,z
-x,y,-z
-x,-y,-z
x,-y,z
1/2+x,1/2+y,z
1/2-x,1/2+y,-z
1/2-x,1/2-y,-z
1/2+x,1/2-y,z
loop_
_atom_site_type_symbol
_atom_site_label
_atom_site_fract_x
_atom_site_fract_y
_atom_site_fract_z
Si Si1 0.166871 0.500000 0.137990
Si Si2 0.840644 0.238352 0.369905
Si Si3 0.096965 0.000000 0.937310
Si Si4 0.525097 0.000000 0.881385
Si Si5 0.622804 0.500000 0.171833
Si Si6 0.177970 0.000000 0.561110
Si Si7 0.040130 0.000000 0.745164
Si Si8 0.226119 0.722777 0.041403
O O1 0.255651 0.634272 0.244305
O O2 0.137181 0.500000 0.043557
O O3 0.000000 0.500000 0.000000
O O4 0.729568 0.365458 0.272752
O O5 0.868991 0.137190 0.451029
O O6 0.000000 0.281698 0.500000
O O7 0.048021 0.000000 0.821897
O O8 0.197447 0.864463 0.044514
O O9 0.965910 0.000000 0.855343
O O10 0.357197 0.000000 0.736699
O O11 0.573743 0.864982 0.896401
O O12 0.500000 0.500000 0.000000
O O13 0.120521 0.000000 0.441083
O O14 0.130572 0.128473 0.807093
O O15 0.250000 0.750000 0.000000
#
# Coordination Sequence:
#
# PCOD9211525 Si02
#       8
#     4   8   4   4   4   4   4   8
#     4  11  21  39  66  93 118 162 219 261 300 363
#     4  11  25  41  61  95 129 161 207 263 316 366
#     4  10  21  40  63  94 126 163 211 256 301 378
#     4  11  21  36  67  89 122 156 218 254 299 364
#     4  12  27  42  64  88 132 173 207 247 315 381
#     4  11  22  40  67  94 121 160 208 263 311 363
#     4   9  21  40  66  93 124 161 205 259 316 358
#     4   9  20  38  62  90 121 158 207 254 299 366
#
# _framework density 19.339113000000001
#
# number of rings (size 3 to 8) (size 9 to 14) (size 15 to 20)
#    0.000    1.600    2.000    3.900    8.400    0.000 
#    0.000   10.000    0.000    0.000    0.000    0.000 
#    0.000    0.000    0.000    0.000    0.000    0.000 
#
# Total GULP energy -111460.361093 kJ/mol
# GULP energy per Si atom -5573.018055 kJ/mol
# Density = 1.929510 g / cm^3
# Si number density = 19.339113 Si / 1000 Ang^3
#
#
#
# Elastic Constant Matrix: (Units=GPa)
#
#
# Indices 1 2 3 4 5 6 
#
# 1 114.9973 41.0085 48.7045 0.0000 20.2798 0.0000
# 2 41.0085 151.6885 35.5307 0.0003 17.2809 0.0002
# 3 48.7045 35.5307 84.7491 0.0002 -0.5158 0.0002
# 4 0.0000 0.0003 0.0002 18.4352 0.0001 17.9508
# 5 20.2798 17.2809 -0.5158 0.0001 38.1573 0.0000
# 6 0.0000 0.0002 0.0002 17.9508 0.0000 30.9466
#
#
#
# Elastic Compliance Matrix: (Units=1/GPa)
#
#
# Indices 1 2 3 4 5 6 
#
# 1 0.013343 -0.001156 -0.007224 0.000000 -0.006666 0.000000
# 2 -0.001156 0.007866 -0.002652 0.000000 -0.002984 0.000000
# 3 -0.007224 -0.002652 0.017095 0.000000 0.005272 0.000000
# 4 0.000000 0.000000 0.000000 0.124646 0.000000 -0.072302
# 5 -0.006666 -0.002984 0.005272 0.000000 0.031173 0.000000
# 6 0.000000 0.000000 0.000000 -0.072302 0.000000 0.074253
#
#
# Mechanical properties :
#
#
# Convention : Reuss Voigt Hill
#
# Bulk Modulus (GPa) = 61.57339 66.88026 64.22682
# Shear Modulus (GPa) = 16.90027 32.58725 24.74376
#
# Velocity S-wave (km/s) = 2.95937 4.10938 3.58084
# Velocity P-wave (km/s) = 6.60190 7.56135 7.09785
#
# Compressibility (1/GPa) = 0.01624078
#
# Stress axis : x y z
#
# Youngs Moduli (GPa) = 74.94468 127.12969 58.49651
#
# Poissons Ratio (x) = 0.14693 0.42259
# Poissons Ratio (y) = 0.08662 0.15512
# Poissons Ratio (z) = 0.54142 0.33712
#
# Static dielectric constant tensor:
#      x y z
#    x 1.688130 0.000000 -0.018210 
#    y 0.000000 1.728650 0.000000 
#    z -0.018210 0.000000 1.663590 
# 
# From -- ./inp_files/368961.got.cif
#   From: 2010.05.17/outbox.cif.g08.bks.cpg/sg12_185_cif.got.tgz:368961.got - 2010.06.03 13:09:07.
