data_PCOD9211515
_publ_section_title
;
Structure prediction by ZEFSAII (Michael W. Deem and Ramdas Pophale) SiO2 
 PCOD9211515
Probable space group: C 2/M
;
_chemical_formula_sum "Si O2"
_cell_formula_units_Z 40
_cell_length_a 19.323623
_cell_length_b 9.098841
_cell_length_c 12.030804
_cell_angle_alpha 90.000000
_cell_angle_beta 76.241093
_cell_angle_gamma 90.000000
_cell_volume 2054.588988
_symmetry_space_group_name_H-M "C 2/M"
_symmetry_group_IT_number 12
_symmetry_cell_setting 'monoclinic'
loop_
_space_group_symop_operation_xyz
x,y,z
-x,y,-z
-x,-y,-z
x,-y,z
1/2+x,1/2+y,z
1/2-x,1/2+y,-z
1/2-x,1/2-y,-z
1/2+x,1/2-y,z
loop_
_atom_site_type_symbol
_atom_site_label
_atom_site_fract_x
_atom_site_fract_y
_atom_site_fract_z
Si Si1 0.320987 0.324794 0.020022
Si Si2 0.046336 0.673888 0.151951
Si Si3 0.927405 0.670093 0.596365
Si Si4 0.603070 0.675373 0.786847
Si Si5 0.173768 0.825330 0.526760
O O1 0.317142 0.500000 0.004487
O O2 0.390239 0.258236 0.933416
O O3 0.250000 0.250000 0.000000
O O4 0.335538 0.297838 0.145426
O O5 0.048770 0.500000 0.126149
O O6 0.058236 0.693873 0.279597
O O7 0.968868 0.739508 0.154420
O O8 0.905042 0.500000 0.589704
O O9 0.868774 0.774208 0.565385
O O10 0.000000 0.691883 0.500000
O O11 0.588126 0.500000 0.792979
O O12 0.629433 0.718601 0.654138
O O13 0.250000 0.750000 0.500000
O O14 0.181533 0.000000 0.526474
#
# Coordination Sequence:
#
# PCOD9211515 Si02
#       5
#     8   8   8   8   8
#     4  11  25  44  64  90 124 162 205 254 310 364
#     4  11  23  40  66  94 123 160 205 254 303 362
#     4  10  21  40  63  91 126 162 200 248 304 362
#     4  10  23  43  64  88 123 163 203 252 306 365
#     4  11  24  40  62  92 126 164 205 251 306 365
#
# _framework density 19.468613000000001
#
# number of rings (size 3 to 8) (size 9 to 14) (size 15 to 20)
#    0.000    1.400    2.000    2.400    2.800    6.800 
#    0.000    0.000    0.000    0.000    0.000    0.000 
#    0.000    0.000    0.000    0.000    0.000    0.000 
#
# Total GULP energy -111832.982404 kJ/mol
# GULP energy per Si atom -5591.649120 kJ/mol
# Density = 1.942430 g / cm^3
# Si number density = 19.468613 Si / 1000 Ang^3
#
#
#
# Elastic Constant Matrix: (Units=GPa)
#
#
# Indices 1 2 3 4 5 6 
#
# 1 125.0545 64.3587 22.8795 0.0000 10.3888 0.0000
# 2 64.3587 65.7999 23.5692 0.0000 9.0280 0.0000
# 3 22.8795 23.5692 38.5644 0.0000 8.5559 0.0000
# 4 0.0000 0.0000 0.0000 30.3604 0.0000 0.7612
# 5 10.3888 9.0280 8.5559 0.0000 28.1336 0.0000
# 6 0.0000 0.0000 0.0000 0.7612 0.0000 44.7412
#
#
#
# Elastic Compliance Matrix: (Units=1/GPa)
#
#
# Indices 1 2 3 4 5 6 
#
# 1 0.016127 -0.015734 0.000267 0.000000 -0.000987 0.000000
# 2 -0.015734 0.035018 -0.011649 0.000000 -0.001885 0.000000
# 3 0.000267 -0.011649 0.034405 0.000000 -0.006824 0.000000
# 4 0.000000 0.000000 0.000000 0.032952 0.000000 -0.000561
# 5 -0.000987 -0.001885 -0.006824 0.000000 0.038589 0.000000
# 6 0.000000 0.000000 0.000000 -0.000561 0.000000 0.022360
#
#
# Mechanical properties :
#
#
# Convention : Reuss Voigt Hill
#
# Bulk Modulus (GPa) = 31.92938 50.11482 41.02210
# Shear Modulus (GPa) = 20.48140 28.55447 24.51794
#
# Velocity S-wave (km/s) = 3.24701 3.83390 3.55259
# Velocity P-wave (km/s) = 5.52209 6.73762 6.15991
#
# Compressibility (1/GPa) = 0.03131912
#
# Stress axis : x y z
#
# Youngs Moduli (GPa) = 62.00719 28.55647 29.06513
#
# Poissons Ratio (x) = 0.44931 -0.00777
# Poissons Ratio (y) = 0.97563 0.33858
# Poissons Ratio (z) = -0.01658 0.33266
#
# Static dielectric constant tensor:
#      x y z
#    x 1.644630 0.000000 0.014280 
#    y 0.000000 1.652390 0.000000 
#    z 0.014280 0.000000 1.685470 
# 
# From -- ./inp_files/151665.got.cif
#   From: 2010.05.17/outbox.cif.g08.bks.cpg/sg12_76_cif.got.tgz:151665.got - 2010.06.03 13:09:07.
