data_PCOD9211841
_publ_section_title
;
Structure prediction by ZEFSAII (Michael W. Deem and Ramdas Pophale) SiO2 
 PCOD9211841
Probable space group: C 2/M
;
_chemical_formula_sum "Si O2"
_cell_formula_units_Z 64
_cell_length_a 25.271325
_cell_length_b 8.483781
_cell_length_c 14.470316
_cell_angle_alpha 90.000000
_cell_angle_beta 90.643426
_cell_angle_gamma 90.000000
_cell_volume 3102.187848
_symmetry_space_group_name_H-M "C 2/M"
_symmetry_group_IT_number 12
_symmetry_cell_setting 'monoclinic'
loop_
_space_group_symop_operation_xyz
x,y,z
-x,y,-z
-x,-y,-z
x,-y,z
1/2+x,1/2+y,z
1/2-x,1/2+y,-z
1/2-x,1/2-y,-z
1/2+x,1/2-y,z
loop_
_atom_site_type_symbol
_atom_site_label
_atom_site_fract_x
_atom_site_fract_y
_atom_site_fract_z
Si Si1 0.306300 0.685725 0.038130
Si Si2 0.056979 0.813767 0.684498
Si Si3 0.806776 0.181265 0.527404
Si Si4 0.332288 0.814869 0.239160
Si Si5 0.723933 0.180405 0.293906
Si Si6 0.554960 0.190480 0.283475
Si Si7 0.082704 0.314524 0.492519
Si Si8 0.641888 0.814439 0.134654
O O1 0.301511 0.500000 0.057201
O O2 0.323994 0.773947 0.131298
O O3 0.250000 0.750000 0.000000
O O4 0.348784 0.718491 0.958079
O O5 0.109998 0.735206 0.725404
O O6 0.053155 0.770194 0.575634
O O7 0.004427 0.749234 0.732399
O O8 0.060942 0.000000 0.695067
O O9 0.750000 0.250000 0.500000
O O10 0.805720 0.203064 0.637751
O O11 0.855145 0.282179 0.490142
O O12 0.812653 0.000000 0.500532
O O13 0.285551 0.719994 0.289608
O O14 0.324137 0.000000 0.254897
O O15 0.696292 0.194901 0.194427
O O16 0.715240 0.000000 0.325649
O O17 0.571037 0.241960 0.387955
O O18 0.595683 0.239158 0.203877
O O19 0.556650 0.000000 0.285040
O O20 0.071079 0.500000 0.497740
O O21 0.633381 0.000000 0.112791
#
# Coordination Sequence:
#
# PCOD9211841 Si02
#       8
#     8   8   8   8   8   8   8   8
#     4  12  24  40  65  98 133 167 207 257 315 380
#     4  12  26  43  63  93 129 167 212 267 320 374
#     4  12  24  37  55  84 125 167 211 258 314 377
#     4  12  25  43  66  93 126 169 214 262 318 379
#     4  11  21  38  62  90 126 164 203 254 314 376
#     4  10  22  43  68  93 125 169 215 261 311 371
#     4  11  22  41  65  91 124 167 217 264 313 373
#     4  10  21  40  66  95 127 163 206 256 311 371
#
# _framework density 20.630600000000001
#
# number of rings (size 3 to 8) (size 9 to 14) (size 15 to 20)
#    0.000    0.750    2.500    6.375    0.000    3.500 
#    0.000    0.625    0.000    3.750    0.000    0.000 
#    0.000    0.000    0.000    0.000    0.000    0.000 
#
# Total GULP energy -179050.462296 kJ/mol
# GULP energy per Si atom -5595.326947 kJ/mol
# Density = 2.058364 g / cm^3
# Si number density = 20.630600 Si / 1000 Ang^3
#
#
#
# Elastic Constant Matrix: (Units=GPa)
#
#
# Indices 1 2 3 4 5 6 
#
# 1 114.9376 6.5345 18.0140 0.0000 -13.5187 0.0000
# 2 6.5345 49.8920 6.7509 0.0000 -1.5225 0.0000
# 3 18.0140 6.7509 70.1257 0.0000 -10.6549 0.0000
# 4 0.0000 0.0000 0.0000 32.0346 0.0000 -4.4157
# 5 -13.5187 -1.5225 -10.6549 0.0000 28.2930 0.0000
# 6 0.0000 0.0000 0.0000 -4.4157 0.0000 29.0141
#
#
#
# Elastic Compliance Matrix: (Units=1/GPa)
#
#
# Indices 1 2 3 4 5 6 
#
# 1 0.009477 -0.000885 -0.001770 0.000000 0.003814 0.000000
# 2 -0.000885 0.020394 -0.001733 0.000000 0.000022 0.000000
# 3 -0.001770 -0.001733 0.015633 0.000000 0.004949 0.000000
# 4 0.000000 0.000000 0.000000 0.031885 0.000000 0.004853
# 5 0.003814 0.000022 0.004949 0.000000 0.039032 0.000000
# 6 0.000000 0.000000 0.000000 0.004853 0.000000 0.035205
#
#
# Mechanical properties :
#
#
# Convention : Reuss Voigt Hill
#
# Bulk Modulus (GPa) = 27.22623 33.06155 30.14389
# Shear Modulus (GPa) = 28.96136 31.44541 30.20339
#
# Velocity S-wave (km/s) = 3.75080 3.90835 3.83039
# Velocity P-wave (km/s) = 5.65541 6.03550 5.84854
#
# Compressibility (1/GPa) = 0.03672929
#
# Stress axis : x y z
#
# Youngs Moduli (GPa) = 105.52255 49.03320 63.96569
#
# Poissons Ratio (x) = 0.04341 0.11320
# Poissons Ratio (y) = 0.09342 0.11082
# Poissons Ratio (z) = 0.18674 0.08495
#
# Static dielectric constant tensor:
#      x y z
#    x 1.741010 0.000000 0.005610 
#    y 0.000000 1.694790 0.000000 
#    z 0.005610 0.000000 1.773940 
# 
# From -- ./inp_files/238680.got.cif
#   From: 2010.05.17/outbox.cif.g08.bks.cpg/sg12_120_cif.got.tgz:238680.got - 2010.06.03 13:09:07.
