data_PCOD9211471
_publ_section_title
;
Structure prediction by ZEFSAII (Michael W. Deem and Ramdas Pophale) SiO2 
 PCOD9211471
Probable space group: C 2/M
;
_chemical_formula_sum "Si O2"
_cell_formula_units_Z 42
_cell_length_a 16.463441
_cell_length_b 16.390505
_cell_length_c 13.102843
_cell_angle_alpha 90.000000
_cell_angle_beta 28.154252
_cell_angle_gamma 90.000000
_cell_volume 1668.321020
_symmetry_space_group_name_H-M "C 2/M"
_symmetry_group_IT_number 12
_symmetry_cell_setting 'monoclinic'
loop_
_space_group_symop_operation_xyz
x,y,z
-x,y,-z
-x,-y,-z
x,-y,z
1/2+x,1/2+y,z
1/2-x,1/2+y,-z
1/2-x,1/2-y,-z
1/2+x,1/2-y,z
loop_
_atom_site_type_symbol
_atom_site_label
_atom_site_fract_x
_atom_site_fract_y
_atom_site_fract_z
Si Si1 0.765678 0.000000 0.451227
Si Si2 0.560459 0.326347 0.280432
Si Si3 0.500000 0.000000 0.000000
Si Si4 0.824513 0.641005 0.303895
Si Si5 0.878249 0.000000 0.809262
Si Si6 0.271472 0.165282 0.834164
Si Si7 0.549056 0.000000 0.312489
Si Si8 0.000000 0.224549 0.000000
O O1 0.680686 0.917589 0.592554
O O2 0.966520 0.000000 0.271231
O O3 0.659184 0.000000 0.463889
O O4 0.358081 0.316269 0.496548
O O5 0.592694 0.417489 0.284620
O O6 0.632163 0.251194 0.263441
O O7 0.650463 0.333227 0.069554
O O8 0.641004 0.072628 0.819772
O O9 0.959324 0.713579 0.138412
O O10 0.678091 0.000000 0.068150
O O11 0.385901 0.084981 0.712727
O O12 0.155890 0.169024 0.861894
#
# Coordination Sequence:
#
# PCOD9211471 Si02
#       8
#     4   8   2   8   4   8   4   4
#     4   9  18  35  64  95 121 161 210 272 341 409
#     4   9  19  39  65  94 126 167 233 273 333 411
#     4   8  16  36  60 102 138 170 194 256 364 426
#     4   9  19  36  63  94 132 168 208 273 348 423
#     4   8  17  35  59  99 122 151 207 275 333 401
#     4  10  23  40  61  95 125 179 228 286 338 395
#     4  10  21  40  63  87 125 167 224 293 318 382
#     4  11  24  38  58  89 136 170 216 276 350 412
#
# _framework density 25.175008999999999
#
# number of rings (size 3 to 8) (size 9 to 14) (size 15 to 20)
#    0.000    2.667    0.000    0.571    8.000    1.905 
#    6.857    0.952    0.000    8.000    0.000    0.000 
#    0.000    0.000    0.000    0.000    0.000    0.000 
#
# Total GULP energy -116906.004747 kJ/mol
# GULP energy per Si atom -5566.952607 kJ/mol
# Density = 2.511771 g / cm^3
# Si number density = 25.175009 Si / 1000 Ang^3
#
#
#
# Elastic Constant Matrix: (Units=GPa)
#
#
# Indices 1 2 3 4 5 6 
#
# 1 61.5772 46.4906 19.9488 -0.0010 -20.9307 -0.0014
# 2 46.4906 162.8832 18.5992 -0.0067 -34.1555 -0.0050
# 3 19.9488 18.5992 105.4015 -0.0052 -7.1308 -0.0037
# 4 -0.0010 -0.0067 -0.0052 -21.0473 -0.0003 -44.0075
# 5 -20.9307 -34.1555 -7.1308 -0.0003 39.3476 0.0012
# 6 -0.0014 -0.0050 -0.0037 -44.0075 0.0012 -15.5774
#
#
#
# Elastic Compliance Matrix: (Units=1/GPa)
#
#
# Indices 1 2 3 4 5 6 
#
# 1 0.023448 -0.004698 -0.003079 0.000000 0.007837 0.000000
# 2 -0.004698 0.008531 -0.000288 0.000000 0.004854 -0.000001
# 3 -0.003079 -0.000288 0.010117 0.000000 -0.000054 -0.000001
# 4 0.000000 0.000000 0.000000 0.009683 0.000001 -0.027354
# 5 0.007837 0.004854 -0.000054 0.000001 0.033787 -0.000001
# 6 0.000000 -0.000001 -0.000001 -0.027354 -0.000001 0.013083
#
#
# Mechanical properties :
#
#
# Convention : Reuss Voigt Hill
#
# Bulk Modulus (GPa) = 38.50925 55.54879 47.02902
# Shear Modulus (GPa) = 40.50785 16.86613 28.68699
#
# Velocity S-wave (km/s) = 4.01565 2.59116 3.37931
# Velocity P-wave (km/s) = 6.06881 5.57361 5.82647
#
# Compressibility (1/GPa) = 0.02596778
#
# Stress axis : x y z
#
# Youngs Moduli (GPa) = 42.64797 117.22056 98.83994
#
# Poissons Ratio (x) = 0.55065 0.30430
# Poissons Ratio (y) = 0.20034 0.02845
# Poissons Ratio (z) = 0.13130 0.03375
#
# Static dielectric constant tensor:
#      x y z
#    x 2.439470 -0.000010 0.139850 
#    y -0.000010 1.956220 0.000000 
#    z 0.139850 0.000000 2.050500 
# 
# From -- ./inp_files/285161.got.cif
#   From: 2010.05.17/outbox.cif.g08.bks.cpg/sg12_143_cif.got.tgz:285161.got - 2010.06.03 13:09:07.
