data_PCOD9211325
_publ_section_title
;
Structure prediction by ZEFSAII (Michael W. Deem and Ramdas Pophale) SiO2 
 PCOD9211325
Probable space group: C 2/M
;
_chemical_formula_sum "Si O2"
_cell_formula_units_Z 48
_cell_length_a 22.897616
_cell_length_b 24.774449
_cell_length_c 6.964418
_cell_angle_alpha 90.000000
_cell_angle_beta 141.130125
_cell_angle_gamma 90.000000
_cell_volume 2479.305566
_symmetry_space_group_name_H-M "C 2/M"
_symmetry_group_IT_number 12
_symmetry_cell_setting 'monoclinic'
loop_
_space_group_symop_operation_xyz
x,y,z
-x,y,-z
-x,-y,-z
x,-y,z
1/2+x,1/2+y,z
1/2-x,1/2+y,-z
1/2-x,1/2-y,-z
1/2+x,1/2-y,z
loop_
_atom_site_type_symbol
_atom_site_label
_atom_site_fract_x
_atom_site_fract_y
_atom_site_fract_z
Si Si1 0.603806 0.635698 0.709917
Si Si2 0.598860 0.938092 0.652354
Si Si3 0.896764 0.347161 0.653113
Si Si4 0.097209 0.775061 0.365246
Si Si5 0.708870 0.652634 0.375638
Si Si6 0.796432 0.062113 0.339104
O O1 0.500000 0.618658 0.500000
O O2 0.596255 0.686614 0.547136
O O3 0.656000 0.589050 0.725058
O O4 0.659204 0.652131 0.042531
O O5 0.500000 0.927112 0.500000
O O6 0.617561 0.894561 0.535761
O O7 0.595896 0.000000 0.569946
O O8 0.685310 0.935436 0.019530
O O9 0.888301 0.287161 0.543248
O O10 0.818527 0.349104 0.616661
O O11 0.000000 0.352679 0.000000
O O12 0.175918 0.797516 0.422198
O O13 0.000000 0.779623 0.000000
O O14 0.679354 0.599428 0.418312
O O15 0.823559 0.000000 0.432559
#
# Coordination Sequence:
#
# PCOD9211325 Si02
#       6
#     8   8   8   8   8   8
#     4  11  22  40  66  90 120 163 203 245 306 361
#     4  10  21  40  61  87 125 162 201 251 303 355
#     4  11  23  39  61  94 123 158 206 247 298 365
#     4  10  22  40  61  91 127 158 199 251 298 358
#     4  11  22  41  63  89 124 162 199 250 306 355
#     4  10  23  41  62  91 123 157 204 254 298 357
#
# _framework density 19.360258999999999
#
# number of rings (size 3 to 8) (size 9 to 14) (size 15 to 20)
#    0.000    1.500    3.333    1.500    0.000    3.333 
#    3.000    0.833    0.000    0.000    0.000    0.000 
#    0.000    0.000    0.000    0.000    0.000    0.000 
#
# Total GULP energy -134084.778960 kJ/mol
# GULP energy per Si atom -5586.865790 kJ/mol
# Density = 1.931619 g / cm^3
# Si number density = 19.360259 Si / 1000 Ang^3
#
#
#
# Elastic Constant Matrix: (Units=GPa)
#
#
# Indices 1 2 3 4 5 6 
#
# 1 114.8004 29.3430 32.1342 0.0000 11.5590 0.0000
# 2 29.3430 122.6787 26.6878 0.0000 -16.5918 0.0000
# 3 32.1342 26.6878 64.4406 0.0000 -7.9941 0.0000
# 4 0.0000 0.0000 0.0000 37.8249 0.0000 -4.5912
# 5 11.5590 -16.5918 -7.9941 0.0000 29.5186 0.0000
# 6 0.0000 0.0000 0.0000 -4.5912 0.0000 28.3209
#
#
#
# Elastic Compliance Matrix: (Units=1/GPa)
#
#
# Indices 1 2 3 4 5 6 
#
# 1 0.011741 -0.002591 -0.005725 0.000000 -0.007605 0.000000
# 2 -0.002591 0.010056 -0.002116 0.000000 0.006094 0.000000
# 3 -0.005725 -0.002116 0.020054 0.000000 0.006483 0.000000
# 4 0.000000 0.000000 0.000000 0.026968 0.000000 0.004372
# 5 -0.007605 0.006094 0.006483 0.000000 0.042036 0.000000
# 6 0.000000 0.000000 0.000000 0.004372 0.000000 0.036018
#
#
# Mechanical properties :
#
#
# Convention : Reuss Voigt Hill
#
# Bulk Modulus (GPa) = 47.65283 53.13884 50.39584
# Shear Modulus (GPa) = 28.61484 33.38318 30.99901
#
# Velocity S-wave (km/s) = 3.84867 4.15699 4.00580
# Velocity P-wave (km/s) = 6.66460 7.10969 6.89074
#
# Compressibility (1/GPa) = 0.02098511
#
# Stress axis : x y z
#
# Youngs Moduli (GPa) = 85.16869 99.44557 49.86575
#
# Poissons Ratio (x) = 0.25771 0.28549
# Poissons Ratio (y) = 0.22071 0.10553
# Poissons Ratio (z) = 0.48761 0.21046
#
# Static dielectric constant tensor:
#      x y z
#    x 1.667770 0.000000 0.022800 
#    y 0.000000 1.663420 0.000000 
#    z 0.022800 0.000000 1.660960 
# 
# From -- ./inp_files/12382.got.cif
#   From: 2010.05.17/outbox.cif.g08.bks.cpg/sg12_7_cif.got.tgz:12382.got - 2010.06.03 13:09:07.
