data_PCOD9211340
_publ_section_title
;
Structure prediction by ZEFSAII (Michael W. Deem and Ramdas Pophale) SiO2 
 PCOD9211340
Probable space group: C 2/M
;
_chemical_formula_sum "Si O2"
_cell_formula_units_Z 64
_cell_length_a 9.088276
_cell_length_b 28.301731
_cell_length_c 24.587396
_cell_angle_alpha 90.000000
_cell_angle_beta 31.226012
_cell_angle_gamma 90.000000
_cell_volume 3278.572878
_symmetry_space_group_name_H-M "C 2/M"
_symmetry_group_IT_number 12
_symmetry_cell_setting 'monoclinic'
loop_
_space_group_symop_operation_xyz
x,y,z
-x,y,-z
-x,-y,-z
x,-y,z
1/2+x,1/2+y,z
1/2-x,1/2+y,-z
1/2-x,1/2-y,-z
1/2+x,1/2-y,z
loop_
_atom_site_type_symbol
_atom_site_label
_atom_site_fract_x
_atom_site_fract_y
_atom_site_fract_z
Si Si1 0.830560 0.709428 0.609724
Si Si2 0.727392 0.719593 0.280113
Si Si3 0.147356 0.620845 0.704074
Si Si4 0.306741 0.719425 0.929255
Si Si5 0.167699 0.886857 0.092217
Si Si6 0.877532 0.381757 0.669714
Si Si7 0.637982 0.446525 0.516732
Si Si8 0.141402 0.945993 0.896565
O O1 0.502646 0.712997 0.694665
O O2 0.899043 0.752776 0.628023
O O3 0.888846 0.662314 0.625648
O O4 0.000000 0.710050 0.500000
O O5 0.828543 0.669266 0.270593
O O6 0.976290 0.752758 0.177955
O O7 0.443038 0.591999 0.608822
O O8 0.039332 0.629433 0.675953
O O9 0.914730 0.586934 0.804493
O O10 0.403404 0.665615 0.908844
O O11 0.250000 0.750000 0.000000
O O12 0.000000 0.714646 0.000000
O O13 0.949378 0.891898 0.211518
O O14 0.081142 0.926323 0.076668
O O15 0.500000 0.889515 0.000000
O O16 0.047679 0.425543 0.590224
O O17 0.500000 0.448948 0.500000
O O18 0.632834 0.500000 0.540639
O O19 0.219843 0.000000 0.859580
O O20 0.000000 0.943361 0.000000
#
# Coordination Sequence:
#
# PCOD9211340 Si02
#       8
#     8   8   8   8   8   8   8   8
#     4  12  25  41  60  86 129 167 212 253 318 375
#     4  12  25  40  63  91 125 170 211 261 313 387
#     4  10  22  38  66  92 126 164 210 261 326 373
#     4  11  25  39  62  91 126 167 215 263 313 381
#     4  10  23  41  63  89 129 167 212 266 314 384
#     4  10  21  40  61  90 128 157 214 260 311 382
#     4   9  18  36  64  93 118 155 209 265 316 368
#     4  10  23  41  64  95 130 165 213 267 319 378
#
# _framework density 19.520689000000001
#
# number of rings (size 3 to 8) (size 9 to 14) (size 15 to 20)
#    0.000    1.500    1.250    3.000    8.750    4.750 
#    0.000    0.000    0.000    4.125    0.000    0.000 
#    0.000    0.000    0.000    0.000    0.000    0.000 
#
# Total GULP energy -178768.378075 kJ/mol
# GULP energy per Si atom -5586.511815 kJ/mol
# Density = 1.947626 g / cm^3
# Si number density = 19.520689 Si / 1000 Ang^3
#
#
#
# Elastic Constant Matrix: (Units=GPa)
#
#
# Indices 1 2 3 4 5 6 
#
# 1 43.7776 40.9249 19.7359 -0.0006 3.6362 0.0007
# 2 40.9249 121.5280 40.5128 -0.0028 5.5616 0.0014
# 3 19.7359 40.5128 105.5882 0.0031 -5.4208 0.0119
# 4 -0.0006 -0.0028 0.0031 29.1146 -0.0001 -1.9154
# 5 3.6362 5.5616 -5.4208 -0.0001 30.6814 -0.0016
# 6 0.0007 0.0014 0.0119 -1.9154 -0.0016 25.1702
#
#
#
# Elastic Compliance Matrix: (Units=1/GPa)
#
#
# Indices 1 2 3 4 5 6 
#
# 1 0.033986 -0.010511 -0.002451 0.000000 -0.002556 0.000001
# 2 -0.010511 0.012860 -0.003053 0.000001 -0.001625 0.000001
# 3 -0.002451 -0.003053 0.011246 -0.000002 0.002831 -0.000005
# 4 0.000000 0.000001 -0.000002 0.034520 0.000000 0.002627
# 5 -0.002556 -0.001625 0.002831 0.000000 0.033691 0.000001
# 6 0.000001 0.000001 -0.000005 0.002627 0.000001 0.039929
#
#
# Mechanical properties :
#
#
# Convention : Reuss Voigt Hill
#
# Bulk Modulus (GPa) = 38.36969 52.58235 45.47602
# Shear Modulus (GPa) = 24.16061 28.30792 26.23426
#
# Velocity S-wave (km/s) = 3.52190 3.81221 3.66993
# Velocity P-wave (km/s) = 6.01972 6.80974 6.42688
#
# Compressibility (1/GPa) = 0.02606224
#
# Stress axis : x y z
#
# Youngs Moduli (GPa) = 29.42405 77.75878 88.92368
#
# Poissons Ratio (x) = 0.81731 0.21793
# Poissons Ratio (y) = 0.30927 0.27149
# Poissons Ratio (z) = 0.07211 0.23741
#
# Static dielectric constant tensor:
#      x y z
#    x 1.667990 0.000000 -0.002330 
#    y 0.000000 1.671010 0.000000 
#    z -0.002330 0.000000 1.732820 
# 
# From -- ./inp_files/334340.got.cif
#   From: 2010.05.17/outbox.cif.g08.bks.cpg/sg12_168_cif.got.tgz:334340.got - 2010.06.03 13:09:07.
