data_PCOD9211424
_publ_section_title
;
Structure prediction by ZEFSAII (Michael W. Deem and Ramdas Pophale) SiO2 
 PCOD9211424
Probable space group: C 2/M
;
_chemical_formula_sum "Si O2"
_cell_formula_units_Z 44
_cell_length_a 13.546931
_cell_length_b 11.182284
_cell_length_c 21.027168
_cell_angle_alpha 90.000000
_cell_angle_beta 143.907851
_cell_angle_gamma 90.000000
_cell_volume 1876.422599
_symmetry_space_group_name_H-M "C 2/M"
_symmetry_group_IT_number 12
_symmetry_cell_setting 'monoclinic'
loop_
_space_group_symop_operation_xyz
x,y,z
-x,y,-z
-x,-y,-z
x,-y,z
1/2+x,1/2+y,z
1/2-x,1/2+y,-z
1/2-x,1/2-y,-z
1/2+x,1/2-y,z
loop_
_atom_site_type_symbol
_atom_site_label
_atom_site_fract_x
_atom_site_fract_y
_atom_site_fract_z
Si Si1 0.953431 0.000000 0.670839
Si Si2 0.338325 0.500000 0.461438
Si Si3 0.796412 0.365615 0.246975
Si Si4 0.273807 0.364774 0.932444
Si Si5 0.859572 0.738622 0.619810
Si Si6 0.850238 0.500000 0.869404
Si Si7 0.026938 0.717459 0.149423
O O1 0.877724 0.125974 0.656330
O O2 0.155694 0.000000 0.789636
O O3 0.909741 0.000000 0.571679
O O4 0.500000 0.500000 0.500000
O O5 0.225173 0.620571 0.391450
O O6 0.846395 0.500000 0.288024
O O7 0.698028 0.365576 0.128018
O O8 0.673847 0.311963 0.235176
O O9 0.958614 0.291769 0.314169
O O10 0.297323 0.500000 0.969084
O O11 0.082318 0.326680 0.848235
O O12 0.391266 0.275305 0.031121
O O13 0.750000 0.750000 0.500000
O O14 0.883720 0.612345 0.841956
O O15 0.000000 0.500000 0.000000
#
# Coordination Sequence:
#
# PCOD9211424 Si02
#       7
#     4   4   8   8   8   4   8
#     4  10  22  40  67  90 127 162 205 266 313 378
#     4  10  22  42  70  96 122 157 212 267 324 380
#     4  11  21  38  65  86 115 160 208 250 309 370
#     4  10  22  39  58  86 121 158 210 261 298 364
#     4  10  21  40  62  93 120 155 203 253 313 381
#     4  12  22  34  58  88 123 165 209 238 313 377
#     4  11  22  37  58  87 122 160 204 255 306 361
#
# _framework density 23.448875000000001
#
# number of rings (size 3 to 8) (size 9 to 14) (size 15 to 20)
#    0.000    1.455    3.636    2.182    0.000    2.909 
#    0.000    0.455    0.000    0.000    0.000    0.000 
#    0.000    0.000    0.000    0.000    0.000    0.000 
#
# Total GULP energy -122924.505066 kJ/mol
# GULP energy per Si atom -5587.477503 kJ/mol
# Density = 2.339550 g / cm^3
# Si number density = 23.448875 Si / 1000 Ang^3
#
#
#
# Elastic Constant Matrix: (Units=GPa)
#
#
# Indices 1 2 3 4 5 6 
#
# 1 95.8002 42.1696 20.2823 0.0000 8.6082 0.0000
# 2 42.1696 177.4069 30.5803 0.0000 15.1500 0.0000
# 3 20.2823 30.5803 98.9524 0.0000 11.5575 0.0000
# 4 0.0000 0.0000 0.0000 39.6313 0.0000 12.7506
# 5 8.6082 15.1500 11.5575 0.0000 29.3571 0.0000
# 6 0.0000 0.0000 0.0000 12.7506 0.0000 19.0705
#
#
#
# Elastic Compliance Matrix: (Units=1/GPa)
#
#
# Indices 1 2 3 4 5 6 
#
# 1 0.011984 -0.002447 -0.001506 0.000000 -0.001658 0.000000
# 2 -0.002447 0.006628 -0.001290 0.000000 -0.002195 0.000000
# 3 -0.001506 -0.001290 0.011199 0.000000 -0.003301 0.000000
# 4 0.000000 0.000000 0.000000 0.032148 0.000000 -0.021494
# 5 -0.001658 -0.002195 -0.003301 0.000000 0.036982 0.000000
# 6 0.000000 0.000000 0.000000 -0.021494 0.000000 0.066808
#
#
# Mechanical properties :
#
#
# Convention : Reuss Voigt Hill
#
# Bulk Modulus (GPa) = 51.75223 62.02488 56.88856
# Shear Modulus (GPa) = 27.37065 36.22028 31.79547
#
# Velocity S-wave (km/s) = 3.42021 3.93447 3.68632
# Velocity P-wave (km/s) = 6.14127 6.86648 6.51398
#
# Compressibility (1/GPa) = 0.01932284
#
# Stress axis : x y z
#
# Youngs Moduli (GPa) = 83.44803 150.86699 89.29367
#
# Poissons Ratio (x) = 0.36921 0.13450
# Poissons Ratio (y) = 0.20422 0.11523
# Poissons Ratio (z) = 0.12570 0.19469
#
# Static dielectric constant tensor:
#      x y z
#    x 1.837400 0.000000 -0.018740 
#    y 0.000000 1.942860 0.000000 
#    z -0.018740 0.000000 1.879680 
# 
# From -- ./inp_files/245571.got.cif
#   From: 2010.05.17/outbox.cif.g08.bks.cpg/sg12_123_cif.got.tgz:245571.got - 2010.06.03 13:09:07.
