data_PCOD9211943
_publ_section_title
;
Structure prediction by ZEFSAII (Michael W. Deem and Ramdas Pophale) SiO2 
 PCOD9211943
Probable space group: C 2/M
;
_chemical_formula_sum "Si O2"
_cell_formula_units_Z 60
_cell_length_a 20.177859
_cell_length_b 27.062398
_cell_length_c 11.701708
_cell_angle_alpha 90.000000
_cell_angle_beta 32.316532
_cell_angle_gamma 90.000000
_cell_volume 3415.989269
_symmetry_space_group_name_H-M "C 2/M"
_symmetry_group_IT_number 12
_symmetry_cell_setting 'monoclinic'
loop_
_space_group_symop_operation_xyz
x,y,z
-x,y,-z
-x,-y,-z
x,-y,z
1/2+x,1/2+y,z
1/2-x,1/2+y,-z
1/2-x,1/2-y,-z
1/2+x,1/2-y,z
loop_
_atom_site_type_symbol
_atom_site_label
_atom_site_fract_x
_atom_site_fract_y
_atom_site_fract_z
Si Si1 0.373204 0.808850 0.121949
Si Si2 0.061696 0.182624 0.287211
Si Si3 0.846349 0.144981 0.438283
Si Si4 0.997993 0.057436 0.865548
Si Si5 0.760553 0.797113 0.337958
Si Si6 0.000000 0.627836 0.500000
Si Si7 0.226111 0.875221 0.889245
Si Si8 0.028267 0.709246 0.266242
O O1 0.269105 0.847518 0.310130
O O2 0.331706 0.754311 0.222631
O O3 0.500000 0.821923 0.000000
O O4 0.393165 0.804078 0.958630
O O5 0.079997 0.241604 0.251953
O O6 0.000000 0.170957 0.500000
O O7 0.962004 0.170198 0.333497
O O8 0.180380 0.150788 0.073973
O O9 0.888409 0.089651 0.348652
O O10 0.811600 0.172832 0.371712
O O11 0.003615 0.000000 0.826269
O O12 0.000000 0.061644 0.000000
O O13 0.873920 0.083773 0.000094
O O14 0.776090 0.831356 0.202963
O O15 0.615409 0.783723 0.562147
O O16 0.865504 0.602887 0.684712
O O17 0.978723 0.664085 0.637416
#
# Coordination Sequence:
#
# PCOD9211943 Si02
#       8
#     8   8   8   8   8   4   8   8
#     4  12  22  30  52  82 119 161 196 225 284 348
#     4  11  22  34  52  77 114 165 204 235 271 329
#     4  11  22  36  53  82 118 145 187 245 290 341
#     4  10  21  40  68  91 107 136 190 257 308 337
#     4  11  20  34  51  83 117 155 191 236 283 333
#     4  10  24  36  53  78 122 162 185 236 280 346
#     4  10  22  37  58  83 118 150 195 241 290 344
#     4  11  21  34  49  77 117 162 202 227 268 333
#
# _framework density 17.564457999999998
#
# number of rings (size 3 to 8) (size 9 to 14) (size 15 to 20)
#    0.000    1.200    6.000    1.200    3.733    0.533 
#    0.000    0.333    0.000    6.800    0.000    0.933 
#    0.000    0.000    0.000    0.000    0.000    0.000 
#
# Total GULP energy -167535.524826 kJ/mol
# GULP energy per Si atom -5584.517494 kJ/mol
# Density = 1.752448 g / cm^3
# Si number density = 17.564458 Si / 1000 Ang^3
#
#
#
# Elastic Constant Matrix: (Units=GPa)
#
#
# Indices 1 2 3 4 5 6 
#
# 1 46.9795 10.5198 28.9324 0.0013 2.4438 -0.0001
# 2 10.5198 90.7634 48.5376 0.0007 -0.4090 0.0000
# 3 28.9324 48.5376 134.0917 0.0004 4.3790 0.0016
# 4 0.0013 0.0007 0.0004 19.4058 -0.0006 3.4308
# 5 2.4438 -0.4090 4.3790 -0.0006 40.6006 -0.0003
# 6 -0.0001 0.0000 0.0016 3.4308 -0.0003 15.1052
#
#
#
# Elastic Compliance Matrix: (Units=1/GPa)
#
#
# Indices 1 2 3 4 5 6 
#
# 1 0.024581 -0.000041 -0.005259 -0.000002 -0.000913 0.000001
# 2 -0.000041 0.013681 -0.004965 0.000000 0.000676 0.000001
# 3 -0.005259 -0.004965 0.010418 0.000001 -0.000857 -0.000001
# 4 -0.000002 0.000000 0.000001 0.053687 0.000001 -0.012194
# 5 -0.000913 0.000676 -0.000857 0.000001 0.024784 0.000000
# 6 0.000001 0.000001 -0.000001 -0.012194 0.000000 0.068972
#
#
# Mechanical properties :
#
#
# Convention : Reuss Voigt Hill
#
# Bulk Modulus (GPa) = 35.52501 49.75715 42.64108
# Shear Modulus (GPa) = 22.12033 27.27865 24.69949
#
# Velocity S-wave (km/s) = 3.55262 3.94516 3.75403
# Velocity P-wave (km/s) = 6.09078 7.01015 6.56658
#
# Compressibility (1/GPa) = 0.02814919
#
# Stress axis : x y z
#
# Youngs Moduli (GPa) = 40.68114 73.09548 95.99071
#
# Poissons Ratio (x) = 0.00297 0.50484
# Poissons Ratio (y) = 0.00165 0.47663
# Poissons Ratio (z) = 0.21395 0.36295
#
# Static dielectric constant tensor:
#      x y z
#    x 1.666880 0.000000 -0.012440 
#    y 0.000000 1.553450 0.000000 
#    z -0.012440 0.000000 1.654860 
# 
# From -- ./inp_files/136973.got.cif
#   From: 2010.05.17/outbox.cif.g08.bks.cpg/sg12_69_cif.got.tgz:136973.got - 2010.06.03 13:09:07.
