data_PCOD9211700
_publ_section_title
;
Structure prediction by ZEFSAII (Michael W. Deem and Ramdas Pophale) SiO2 
 PCOD9211700
Probable space group: C 2/M
;
_chemical_formula_sum "Si O2"
_cell_formula_units_Z 56
_cell_length_a 30.504585
_cell_length_b 8.690356
_cell_length_c 12.075781
_cell_angle_alpha 90.000000
_cell_angle_beta 115.853279
_cell_angle_gamma 90.000000
_cell_volume 2880.837507
_symmetry_space_group_name_H-M "C 2/M"
_symmetry_group_IT_number 12
_symmetry_cell_setting 'monoclinic'
loop_
_space_group_symop_operation_xyz
x,y,z
-x,y,-z
-x,-y,-z
x,-y,z
1/2+x,1/2+y,z
1/2-x,1/2+y,-z
1/2-x,1/2-y,-z
1/2+x,1/2-y,z
loop_
_atom_site_type_symbol
_atom_site_label
_atom_site_fract_x
_atom_site_fract_y
_atom_site_fract_z
Si Si1 0.841709 0.683792 0.055032
Si Si2 0.267974 0.316546 0.806976
Si Si3 0.202325 0.684288 0.386835
Si Si4 0.160164 0.816358 0.704914
Si Si5 0.433517 0.182999 0.999080
Si Si6 0.109309 0.315989 0.438802
Si Si7 0.465652 0.317198 0.808256
O O1 0.835796 0.500000 0.059367
O O2 0.851169 0.756687 0.184705
O O3 0.886630 0.715141 0.021984
O O4 0.793997 0.755169 0.945686
O O5 0.265060 0.500000 0.804499
O O6 0.298717 0.258294 0.735508
O O7 0.214030 0.247417 0.736325
O O8 0.206233 0.500000 0.380638
O O9 0.250000 0.750000 0.500000
O O10 0.155131 0.719209 0.408522
O O11 0.123063 0.750702 0.573254
O O12 0.160695 0.000000 0.701795
O O13 0.482226 0.236864 0.115935
O O14 0.435674 0.000000 0.980441
O O15 0.434510 0.268170 0.882326
O O16 0.104249 0.500000 0.438777
O O17 0.062216 0.242099 0.330314
O O18 0.471664 0.500000 0.813415
#
# Coordination Sequence:
#
# PCOD9211700 Si02
#       7
#     8   8   8   8   8   8   8
#     4  11  24  42  63  87 117 156 203 249 298 353
#     4  12  24  39  60  87 121 160 202 248 298 353
#     4  11  22  36  58  86 119 156 196 244 295 350
#     4  12  25  41  61  85 119 159 202 249 297 354
#     4  10  21  40  65  91 121 156 196 244 297 356
#     4  11  23  40  61  87 122 161 200 242 297 358
#     4  11  22  37  63  95 125 155 192 244 299 353
#
# _framework density 19.438790999999998
#
# number of rings (size 3 to 8) (size 9 to 14) (size 15 to 20)
#    0.000    0.857    1.429    7.714    0.000    7.429 
#    0.000    0.714    0.000    4.286    0.000    0.000 
#    0.000    0.000    0.000    0.000    0.000    0.000 
#
# Total GULP energy -156735.519284 kJ/mol
# GULP energy per Si atom -5597.697117 kJ/mol
# Density = 1.939455 g / cm^3
# Si number density = 19.438791 Si / 1000 Ang^3
#
#
#
# Elastic Constant Matrix: (Units=GPa)
#
#
# Indices 1 2 3 4 5 6 
#
# 1 18.9599 9.9255 12.7357 0.0000 -3.6461 0.0000
# 2 9.9255 63.3778 14.6617 0.0000 -3.8227 0.0000
# 3 12.7357 14.6617 142.0269 0.0000 1.3843 0.0000
# 4 0.0000 0.0000 0.0000 37.0946 0.0000 -4.4163
# 5 -3.6461 -3.8227 1.3843 0.0000 23.9897 0.0000
# 6 0.0000 0.0000 0.0000 -4.4163 0.0000 22.4241
#
#
#
# Elastic Compliance Matrix: (Units=1/GPa)
#
#
# Indices 1 2 3 4 5 6 
#
# 1 0.061794 -0.008064 -0.004790 0.000000 0.008383 0.000000
# 2 -0.008064 0.017390 -0.001088 0.000000 0.001608 0.000000
# 3 -0.004790 -0.001088 0.007596 0.000000 -0.001340 0.000000
# 4 0.000000 0.000000 0.000000 0.027605 0.000000 0.005437
# 5 0.008383 0.001608 -0.001340 0.000000 0.043292 0.000000
# 6 0.000000 0.000000 0.000000 0.005437 0.000000 0.045666
#
#
# Mechanical properties :
#
#
# Convention : Reuss Voigt Hill
#
# Bulk Modulus (GPa) = 16.97900 33.22337 25.10118
# Shear Modulus (GPa) = 19.93151 29.17112 24.55132
#
# Velocity S-wave (km/s) = 3.20558 3.87804 3.55774
# Velocity P-wave (km/s) = 4.73862 6.09760 5.46055
#
# Compressibility (1/GPa) = 0.05889629
#
# Stress axis : x y z
#
# Youngs Moduli (GPa) = 16.18273 57.50470 131.65096
#
# Poissons Ratio (x) = 0.46369 0.63067
# Poissons Ratio (y) = 0.13049 0.14321
# Poissons Ratio (z) = 0.07752 0.06255
#
# Static dielectric constant tensor:
#      x y z
#    x 1.671870 0.000000 0.001940 
#    y 0.000000 1.643300 0.000000 
#    z 0.001940 0.000000 1.651800 
# 
# From -- ./inp_files/187779.got.cif
#   From: 2010.05.17/outbox.cif.g08.bks.cpg/sg12_94_cif.got.tgz:187779.got - 2010.06.03 13:09:07.
