data_PCOD9211477
_publ_section_title
;
Structure prediction by ZEFSAII (Michael W. Deem and Ramdas Pophale) SiO2 
 PCOD9211477
Probable space group: C 2/M
;
_chemical_formula_sum "Si O2"
_cell_formula_units_Z 64
_cell_length_a 28.227815
_cell_length_b 8.583508
_cell_length_c 14.608256
_cell_angle_alpha 90.000000
_cell_angle_beta 65.234307
_cell_angle_gamma 90.000000
_cell_volume 3213.955918
_symmetry_space_group_name_H-M "C 2/M"
_symmetry_group_IT_number 12
_symmetry_cell_setting 'monoclinic'
loop_
_space_group_symop_operation_xyz
x,y,z
-x,y,-z
-x,-y,-z
x,-y,z
1/2+x,1/2+y,z
1/2-x,1/2+y,-z
1/2-x,1/2-y,-z
1/2+x,1/2-y,z
loop_
_atom_site_type_symbol
_atom_site_label
_atom_site_fract_x
_atom_site_fract_y
_atom_site_fract_z
Si Si1 0.117276 0.687207 0.453430
Si Si2 0.887624 0.812948 0.743221
Si Si3 0.234925 0.686105 0.412153
Si Si4 0.337337 0.184481 0.258024
Si Si5 0.971622 0.188802 0.830121
Si Si6 0.918138 0.187245 0.332449
Si Si7 0.113487 0.186959 0.964340
Si Si8 0.808235 0.313811 0.945216
O O1 0.114569 0.500000 0.455397
O O2 0.102918 0.753402 0.366208
O O3 0.177123 0.734917 0.428137
O O4 0.082104 0.754761 0.563336
O O5 0.934589 0.769508 0.774348
O O6 0.835785 0.736580 0.828258
O O7 0.882454 0.000000 0.748923
O O8 0.235696 0.500000 0.415852
O O9 0.250000 0.750000 0.500000
O O10 0.279627 0.743374 0.306813
O O11 0.367930 0.243983 0.322460
O O12 0.370449 0.238780 0.144069
O O13 0.332996 0.000000 0.263915
O O14 0.030120 0.241432 0.763346
O O15 0.973069 0.000000 0.832190
O O16 0.941618 0.238726 0.946448
O O17 0.915771 0.000000 0.332071
O O18 0.112766 0.000000 0.955200
O O19 0.156776 0.235822 0.003794
O O20 0.809108 0.500000 0.953780
O O21 0.750000 0.250000 0.000000
#
# Coordination Sequence:
#
# PCOD9211477 Si02
#       8
#     8   8   8   8   8   8   8   8
#     4  11  24  40  59  90 125 157 199 249 302 360
#     4  10  21  40  63  88 120 159 202 247 298 356
#     4  11  23  40  62  85 120 161 200 246 300 356
#     4  12  25  40  59  90 126 159 202 248 301 362
#     4   8  19  40  65  90 117 155 203 252 297 355
#     4  11  22  40  65  89 117 158 206 251 301 357
#     4  10  21  41  64  88 120 158 202 248 298 355
#     4  11  22  38  59  87 121 158 199 246 299 356
#
# _framework density 19.913153999999999
#
# number of rings (size 3 to 8) (size 9 to 14) (size 15 to 20)
#    0.000    1.500    1.250    4.875    1.750    2.500 
#    0.000   12.500    0.000    0.000    0.000    0.000 
#    0.000    0.000    0.000    0.000    0.000    0.000 
#
# Total GULP energy -178888.361342 kJ/mol
# GULP energy per Si atom -5590.261292 kJ/mol
# Density = 1.986783 g / cm^3
# Si number density = 19.913154 Si / 1000 Ang^3
#
#
#
# Elastic Constant Matrix: (Units=GPa)
#
#
# Indices 1 2 3 4 5 6 
#
# 1 22.9534 1.5806 1.4956 0.0000 -20.0771 0.0000
# 2 1.5806 51.8324 3.1065 0.0000 -6.2305 0.0000
# 3 1.4956 3.1065 101.3501 0.0000 -5.7530 0.0000
# 4 0.0000 0.0000 0.0000 36.7190 0.0000 4.9778
# 5 -20.0771 -6.2305 -5.7530 0.0000 37.9106 0.0000
# 6 0.0000 0.0000 0.0000 4.9778 0.0000 20.2987
#
#
#
# Elastic Compliance Matrix: (Units=1/GPa)
#
#
# Indices 1 2 3 4 5 6 
#
# 1 0.081694 0.002713 0.001203 0.000000 0.043893 0.000000
# 2 0.002713 0.019790 -0.000384 0.000000 0.004631 0.000000
# 3 0.001203 -0.000384 0.009979 0.000000 0.002088 0.000000
# 4 0.000000 0.000000 0.000000 0.028170 0.000000 -0.006908
# 5 0.043893 0.004631 0.002088 0.000000 0.050701 0.000000
# 6 0.000000 0.000000 0.000000 -0.006908 0.000000 0.050958
#
#
# Mechanical properties :
#
#
# Convention : Reuss Voigt Hill
#
# Bulk Modulus (GPa) = 8.43693 20.94458 14.69076
# Shear Modulus (GPa) = 18.26568 30.31587 24.29078
#
# Velocity S-wave (km/s) = 3.03193 3.90603 3.49640
# Velocity P-wave (km/s) = 4.06237 5.55730 4.86757
#
# Compressibility (1/GPa) = 0.11852654
#
# Stress axis : x y z
#
# Youngs Moduli (GPa) = 12.24087 50.53087 100.20695
#
# Poissons Ratio (x) = -0.13708 -0.12053
# Poissons Ratio (y) = -0.03321 0.03845
# Poissons Ratio (z) = -0.01472 0.01939
#
# Static dielectric constant tensor:
#      x y z
#    x 1.724270 0.000000 0.002290 
#    y 0.000000 1.666050 0.000000 
#    z 0.002290 0.000000 1.753290 
# 
# From -- ./inp_files/249056.got.cif
#   From: 2010.05.17/outbox.cif.g08.bks.cpg/sg12_125_cif.got.tgz:249056.got - 2010.06.03 13:09:07.
