data_PCOD9211158
_publ_section_title
;
Structure prediction by ZEFSAII (Michael W. Deem and Ramdas Pophale) SiO2 
 PCOD9211158
Probable space group: C 2/M
;
_chemical_formula_sum "Si O2"
_cell_formula_units_Z 32
_cell_length_a 14.463390
_cell_length_b 13.520941
_cell_length_c 19.757458
_cell_angle_alpha 90.000000
_cell_angle_beta 25.696172
_cell_angle_gamma 90.000000
_cell_volume 1675.314068
_symmetry_space_group_name_H-M "C 2/M"
_symmetry_group_IT_number 12
_symmetry_cell_setting 'monoclinic'
loop_
_space_group_symop_operation_xyz
x,y,z
-x,y,-z
-x,-y,-z
x,-y,z
1/2+x,1/2+y,z
1/2-x,1/2+y,-z
1/2-x,1/2-y,-z
1/2+x,1/2-y,z
loop_
_atom_site_type_symbol
_atom_site_label
_atom_site_fract_x
_atom_site_fract_y
_atom_site_fract_z
Si Si1 0.100151 0.161154 0.124899
Si Si2 0.255534 0.000000 0.132109
Si Si3 0.320041 0.388936 0.073569
Si Si4 0.644919 0.801079 0.633023
Si Si5 0.912157 0.000000 0.481956
O O1 0.200573 0.094220 0.118980
O O2 0.088570 0.103084 0.062519
O O3 0.885283 0.215553 0.290747
O O4 0.250000 0.250000 0.000000
O O5 0.093300 0.000000 0.303428
O O6 0.500000 0.000000 0.000000
O O7 0.281421 0.500000 0.125143
O O8 0.500000 0.338260 0.000000
O O9 0.097180 0.333055 0.223111
O O10 0.750000 0.750000 0.500000
O O11 0.771330 0.900396 0.568044
O O12 0.000000 0.000000 0.500000
#
# Coordination Sequence:
#
# PCOD9211158 Si02
#       5
#     8   4   8   8   4
#     4  10  23  40  67  92 134 172 216 274 329 393
#     4  12  26  44  70 103 135 179 233 272 332 411
#     4  10  21  39  67  92 123 169 218 265 328 395
#     4  11  23  44  65  94 135 173 217 279 338 399
#     4  12  28  44  68  99 137 179 221 284 344 397
#
# _framework density 19.100895999999999
#
# number of rings (size 3 to 8) (size 9 to 14) (size 15 to 20)
#    0.000    1.250    5.000    0.000    7.000    6.000 
#    0.000    0.000    0.000    4.500    0.000    0.000 
#    0.000    0.000    0.000    0.000    0.000    0.000 
#
# Total GULP energy -89100.408955 kJ/mol
# GULP energy per Si atom -5568.775560 kJ/mol
# Density = 1.905742 g / cm^3
# Si number density = 19.100896 Si / 1000 Ang^3
#
#
#
# Elastic Constant Matrix: (Units=GPa)
#
#
# Indices 1 2 3 4 5 6 
#
# 1 145.2768 57.2174 82.6076 0.0002 2.6054 -0.0003
# 2 57.2174 130.1821 55.5787 -0.0014 1.4065 0.0016
# 3 82.6076 55.5787 148.9960 -0.0038 13.7920 -0.0014
# 4 0.0002 -0.0014 -0.0038 26.4913 0.0017 9.0777
# 5 2.6054 1.4065 13.7920 0.0017 35.9586 0.0014
# 6 -0.0003 0.0016 -0.0014 9.0777 0.0014 -4.3065
#
#
#
# Elastic Compliance Matrix: (Units=1/GPa)
#
#
# Indices 1 2 3 4 5 6 
#
# 1 0.010798 -0.002561 -0.005151 -0.000001 0.001294 -0.000001
# 2 -0.002561 0.009778 -0.002291 -0.000001 0.000682 0.000003
# 3 -0.005151 -0.002291 0.010761 0.000002 -0.003665 -0.000001
# 4 -0.000001 -0.000001 0.000002 0.021917 -0.000004 0.046200
# 5 0.001294 0.000682 -0.003665 -0.000004 0.029095 0.000003
# 6 -0.000001 0.000003 -0.000001 0.046200 0.000003 -0.134823
#
#
# Mechanical properties :
#
#
# Convention : Reuss Voigt Hill
#
# Bulk Modulus (GPa) = 88.24809 90.58471 89.41640
# Shear Modulus (GPa) = -174.26269 26.89876 -73.68197
#
# Velocity S-wave (km/s) = -9.56194 3.75673 -6.21763
# Velocity P-wave (km/s) = 8.69519 8.14522 2.15195
#
# Compressibility (1/GPa) = 0.01133169
#
# Stress axis : x y z
#
# Youngs Moduli (GPa) = 92.61166 102.27491 92.92598
#
# Poissons Ratio (x) = 0.26188 0.47868
# Poissons Ratio (y) = 0.23714 0.21286
# Poissons Ratio (z) = 0.47706 0.23428
#
# Static dielectric constant tensor:
#      x y z
#    x 1.726880 0.000000 0.011860 
#    y 0.000000 1.879260 0.000000 
#    z 0.011860 0.000000 1.704140 
# 
# From -- ./inp_files/58286.got.cif
#   From: 2010.05.17/outbox.cif.g08.bks.cpg/sg12_30_cif.got.tgz:58286.got - 2010.06.03 13:09:07.
