data_PCOD9211136
_publ_section_title
;
Structure prediction by ZEFSAII (Michael W. Deem and Ramdas Pophale) SiO2 
 PCOD9211136
Probable space group: C 2/M
;
_chemical_formula_sum "Si O2"
_cell_formula_units_Z 28
_cell_length_a 8.251996
_cell_length_b 22.048930
_cell_length_c 10.019970
_cell_angle_alpha 90.000000
_cell_angle_beta 45.844893
_cell_angle_gamma 90.000000
_cell_volume 1308.002598
_symmetry_space_group_name_H-M "C 2/M"
_symmetry_group_IT_number 12
_symmetry_cell_setting 'monoclinic'
loop_
_space_group_symop_operation_xyz
x,y,z
-x,y,-z
-x,-y,-z
x,-y,z
1/2+x,1/2+y,z
1/2-x,1/2+y,-z
1/2-x,1/2-y,-z
1/2+x,1/2-y,z
loop_
_atom_site_type_symbol
_atom_site_label
_atom_site_fract_x
_atom_site_fract_y
_atom_site_fract_z
Si Si1 0.500000 0.264725 0.000000
Si Si2 0.072897 0.932337 0.113310
Si Si3 0.278174 0.569670 0.533066
Si Si4 0.591932 0.837705 0.152548
O O1 0.500573 0.219745 0.124854
O O2 0.282011 0.307389 0.136449
O O3 0.864676 0.922968 0.332096
O O4 0.161653 0.000000 0.091853
O O5 0.261238 0.881658 0.027704
O O6 0.000000 0.931343 0.000000
O O7 0.500000 0.575875 0.500000
O O8 0.193614 0.500000 0.597692
O O9 0.093791 0.619663 0.675139
#
# Coordination Sequence:
#
# PCOD9211136 Si02
#       4
#     4   8   8   8
#     4  10  24  40  66  90 128 174 228 246 320 368
#     4  10  21  39  66  97 126 161 205 260 329 381
#     4  10  22  40  67 100 127 162 210 262 327 385
#     4  11  21  44  63  92 129 170 211 274 301 382
#
# _framework density 21.406686000000001
#
# number of rings (size 3 to 8) (size 9 to 14) (size 15 to 20)
#    0.000    1.714    1.429    2.571    0.000    1.143 
#    0.000   25.714    0.000    0.000    0.000    0.000 
#    0.000    0.000    0.000    0.000    0.000    0.000 
#
# Total GULP energy -78224.512288 kJ/mol
# GULP energy per Si atom -5587.465163 kJ/mol
# Density = 2.135796 g / cm^3
# Si number density = 21.406686 Si / 1000 Ang^3
#
#
#
# Elastic Constant Matrix: (Units=GPa)
#
#
# Indices 1 2 3 4 5 6 
#
# 1 84.3500 68.0460 46.2727 0.0000 -12.6434 0.0000
# 2 68.0460 193.3723 74.8181 0.0000 -35.3601 0.0000
# 3 46.2727 74.8181 116.3068 0.0000 -13.6177 0.0000
# 4 0.0000 0.0000 0.0000 19.7840 0.0000 -25.7395
# 5 -12.6434 -35.3601 -13.6177 0.0000 26.8038 0.0000
# 6 0.0000 0.0000 0.0000 -25.7395 0.0000 23.9511
#
#
#
# Elastic Compliance Matrix: (Units=1/GPa)
#
#
# Indices 1 2 3 4 5 6 
#
# 1 0.017905 -0.004684 -0.004088 0.000000 0.000189 0.000000
# 2 -0.004684 0.009760 -0.003366 0.000000 0.008955 0.000000
# 3 -0.004088 -0.003366 0.012380 0.000000 -0.000079 0.000000
# 4 0.000000 0.000000 0.000000 -0.126946 0.000000 -0.136425
# 5 0.000189 0.008955 -0.000079 0.000000 0.049171 0.000000
# 6 0.000000 0.000000 0.000000 -0.136425 0.000000 -0.104860
#
#
# Mechanical properties :
#
#
# Convention : Reuss Voigt Hill
#
# Bulk Modulus (GPa) = 63.41764 85.81141 74.61453
# Shear Modulus (GPa) = -44.22581 27.76729 -8.22926
#
# Velocity S-wave (km/s) = -4.55024 3.60548 -1.96280
# Velocity P-wave (km/s) = 1.44335 7.58327 5.45844
#
# Compressibility (1/GPa) = 0.01576848
#
# Stress axis : x y z
#
# Youngs Moduli (GPa) = 55.84933 102.46203 80.77242
#
# Poissons Ratio (x) = 0.47997 0.33021
# Poissons Ratio (y) = 0.26162 0.27188
# Poissons Ratio (z) = 0.22832 0.34489
#
# Static dielectric constant tensor:
#      x y z
#    x 1.854720 0.000000 0.029870 
#    y 0.000000 1.762000 0.000000 
#    z 0.029870 0.000000 1.740930 
# 
# From -- ./inp_files/37920.got.cif
#   From: 2010.05.17/outbox.cif.g08.bks.cpg/sg12_19_cif.got.tgz:37920.got - 2010.06.03 13:09:07.
