data_PCOD9211081
_publ_section_title
;
Structure prediction by ZEFSAII (Michael W. Deem and Ramdas Pophale) SiO2 
 PCOD9211081
Probable space group: C 2/M
;
_chemical_formula_sum "Si O2"
_cell_formula_units_Z 56
_cell_length_a 20.381518
_cell_length_b 8.900289
_cell_length_c 16.525531
_cell_angle_alpha 90.000000
_cell_angle_beta 92.048936
_cell_angle_gamma 90.000000
_cell_volume 2995.837868
_symmetry_space_group_name_H-M "C 2/M"
_symmetry_group_IT_number 12
_symmetry_cell_setting 'monoclinic'
loop_
_space_group_symop_operation_xyz
x,y,z
-x,y,-z
-x,-y,-z
x,-y,z
1/2+x,1/2+y,z
1/2-x,1/2+y,-z
1/2-x,1/2-y,-z
1/2+x,1/2-y,z
loop_
_atom_site_type_symbol
_atom_site_label
_atom_site_fract_x
_atom_site_fract_y
_atom_site_fract_z
Si Si1 0.320899 0.320847 0.523110
Si Si2 0.745014 0.178475 0.762235
Si Si3 0.006835 0.819290 0.751606
Si Si4 0.869748 0.679047 0.692337
Si Si5 0.946585 0.180852 0.065000
Si Si6 0.633040 0.678648 0.650226
Si Si7 0.304778 0.179071 0.059673
O O1 0.313853 0.500000 0.534888
O O2 0.250000 0.250000 0.500000
O O3 0.350996 0.246856 0.604057
O O4 0.365695 0.295796 0.445705
O O5 0.813277 0.261969 0.750076
O O6 0.692961 0.232900 0.693283
O O7 0.714755 0.213222 0.848441
O O8 0.755298 0.000000 0.756344
O O9 0.940105 0.738840 0.723742
O O10 0.028884 0.779356 0.843697
O O11 0.065754 0.781282 0.692462
O O12 0.997108 0.000000 0.748354
O O13 0.868731 0.500000 0.688647
O O14 0.876412 0.254549 0.045868
O O15 0.939143 0.000000 0.062033
O O16 0.000000 0.224094 0.000000
O O17 0.644339 0.500000 0.663925
O O18 0.305591 0.000000 0.049840
O O19 0.250000 0.250000 0.000000
#
# Coordination Sequence:
#
# PCOD9211081 Si02
#       7
#     8   8   8   8   8   8   8
#     4  11  22  38  62  94 126 160 208 259 312 368
#     4  11  23  40  64  91 123 162 208 259 308 365
#     4  10  22  42  64  89 126 166 206 254 309 370
#     4  12  26  41  61  91 127 167 210 256 310 367
#     4  10  22  41  66  94 126 165 205 251 309 372
#     4  10  21  39  66  92 120 162 206 253 310 372
#     4  11  25  42  64  95 127 163 207 257 310 365
#
# _framework density 18.692599999999999
#
# number of rings (size 3 to 8) (size 9 to 14) (size 15 to 20)
#    0.000    1.286    2.857    2.571    2.000    4.286 
#    0.000    2.857    0.000    0.000    0.000    0.000 
#    0.000    0.000    0.000    0.000    0.000    0.000 
#
# Total GULP energy -156568.200847 kJ/mol
# GULP energy per Si atom -5591.721459 kJ/mol
# Density = 1.865006 g / cm^3
# Si number density = 18.692600 Si / 1000 Ang^3
#
#
#
# Elastic Constant Matrix: (Units=GPa)
#
#
# Indices 1 2 3 4 5 6 
#
# 1 166.5351 62.2609 74.1848 0.0000 -7.8872 0.0000
# 2 62.2609 56.7461 45.4179 0.0000 -6.6914 0.0000
# 3 74.1848 45.4179 103.6900 0.0000 -13.0232 0.0000
# 4 0.0000 0.0000 0.0000 24.9874 0.0000 5.7763
# 5 -7.8872 -6.6914 -13.0232 0.0000 37.0770 0.0000
# 6 0.0000 0.0000 0.0000 5.7763 0.0000 39.0155
#
#
#
# Elastic Compliance Matrix: (Units=1/GPa)
#
#
# Indices 1 2 3 4 5 6 
#
# 1 0.011201 -0.009066 -0.004131 0.000000 -0.000705 0.000000
# 2 -0.009066 0.034494 -0.008456 0.000000 0.001327 0.000000
# 3 -0.004131 -0.008456 0.016740 0.000000 0.003475 0.000000
# 4 0.000000 0.000000 0.000000 0.041438 0.000000 -0.006135
# 5 -0.000705 0.001327 0.003475 0.000000 0.028281 0.000000
# 6 0.000000 0.000000 0.000000 -0.006135 0.000000 0.026539
#
#
# Mechanical properties :
#
#
# Convention : Reuss Voigt Hill
#
# Bulk Modulus (GPa) = 52.27788 76.74427 64.51107
# Shear Modulus (GPa) = 23.99500 29.88982 26.94241
#
# Velocity S-wave (km/s) = 3.58671 4.00311 3.80062
# Velocity P-wave (km/s) = 6.72165 7.90643 7.33799
#
# Compressibility (1/GPa) = 0.01912855
#
# Stress axis : x y z
#
# Youngs Moduli (GPa) = 89.27614 28.99049 59.73729
#
# Poissons Ratio (x) = 0.26284 0.24678
# Poissons Ratio (y) = 0.80942 0.50513
# Poissons Ratio (z) = 0.36881 0.24514
#
# Static dielectric constant tensor:
#      x y z
#    x 1.605830 0.000000 -0.022390 
#    y 0.000000 1.624160 0.000000 
#    z -0.022390 0.000000 1.642800 
# 
# From -- ./inp_files/231055.got.cif
#   From: 2010.05.17/outbox.cif.g08.bks.cpg/sg12_116_cif.got.tgz:231055.got - 2010.06.03 13:09:07.
