data_PCOD9211970
_publ_section_title
;
Structure prediction by ZEFSAII (Michael W. Deem and Ramdas Pophale) SiO2 
 PCOD9211970
Probable space group: C 2/M
;
_chemical_formula_sum "Si O2"
_cell_formula_units_Z 56
_cell_length_a 22.791571
_cell_length_b 27.023307
_cell_length_c 10.653447
_cell_angle_alpha 90.000000
_cell_angle_beta 21.712575
_cell_angle_gamma 90.000000
_cell_volume 2427.430053
_symmetry_space_group_name_H-M "C 2/M"
_symmetry_group_IT_number 12
_symmetry_cell_setting 'monoclinic'
loop_
_space_group_symop_operation_xyz
x,y,z
-x,y,-z
-x,-y,-z
x,-y,z
1/2+x,1/2+y,z
1/2-x,1/2+y,-z
1/2-x,1/2-y,-z
1/2+x,1/2-y,z
loop_
_atom_site_type_symbol
_atom_site_label
_atom_site_fract_x
_atom_site_fract_y
_atom_site_fract_z
Si Si1 0.193080 0.946088 0.608805
Si Si2 0.170369 0.589308 0.194072
Si Si3 0.806680 0.837308 0.393762
Si Si4 0.343972 0.819836 0.579104
Si Si5 0.905331 0.864776 0.557617
Si Si6 0.796930 0.282563 0.163022
Si Si7 0.614280 0.447230 0.034543
O O1 0.236157 0.892631 0.467906
O O2 0.247641 0.000000 0.451641
O O3 0.228383 0.944336 0.687639
O O4 0.000000 0.946780 0.000000
O O5 0.162152 0.637652 0.302847
O O6 0.000000 0.569716 0.500000
O O7 0.252710 0.604296 0.901754
O O8 0.283757 0.553204 0.043060
O O9 0.719987 0.835192 0.431501
O O10 0.741255 0.794651 0.615140
O O11 0.000000 0.833271 0.000000
O O12 0.229711 0.773022 0.831289
O O13 0.524851 0.800799 0.214582
O O14 0.838534 0.814870 0.634996
O O15 0.000000 0.857692 0.500000
O O16 0.006777 0.898639 0.261889
O O17 0.526448 0.500000 0.200694
#
# Coordination Sequence:
#
# PCOD9211970 Si02
#       7
#     8   8   8   8   8   8   8
#     4   9  17  32  62  97 127 162 205 256 320 379
#     4  11  23  43  62  91 133 170 214 271 324 382
#     4  11  22  41  67  94 132 165 210 272 322 387
#     4  12  26  43  64  93 127 172 222 267 330 388
#     4  10  23  39  64  92 128 166 215 265 322 374
#     4  12  26  42  65  92 127 172 220 272 327 388
#     4  10  21  40  68  98 131 170 220 268 319 392
#
# _framework density 23.069665000000001
#
# number of rings (size 3 to 8) (size 9 to 14) (size 15 to 20)
#    0.000    1.286    2.857    3.429    6.000    4.000 
#    0.000    0.000    0.000    3.429    0.000    0.000 
#    0.000    0.000    0.000    0.000    0.000    0.000 
#
# Total GULP energy -156331.743605 kJ/mol
# GULP energy per Si atom -5583.276557 kJ/mol
# Density = 2.301716 g / cm^3
# Si number density = 23.069665 Si / 1000 Ang^3
#
#
#
# Elastic Constant Matrix: (Units=GPa)
#
#
# Indices 1 2 3 4 5 6 
#
# 1 55.8051 14.0809 -0.4771 -0.0013 -9.4997 0.0026
# 2 14.0809 92.8277 4.2689 0.0010 -10.1202 0.0132
# 3 -0.4771 4.2689 73.9649 -0.0256 -7.3367 0.0206
# 4 -0.0013 0.0010 -0.0256 8.9336 0.0059 -3.0394
# 5 -9.4997 -10.1202 -7.3367 0.0059 27.3047 -0.0037
# 6 0.0026 0.0132 0.0206 -3.0394 -0.0037 21.0461
#
#
#
# Elastic Compliance Matrix: (Units=1/GPa)
#
#
# Indices 1 2 3 4 5 6 
#
# 1 0.019568 -0.002335 0.000874 0.000001 0.006177 -0.000001
# 2 -0.002335 0.011509 -0.000346 -0.000007 0.003360 -0.000007
# 3 0.000874 -0.000346 0.013934 0.000035 0.003920 -0.000008
# 4 0.000001 -0.000007 0.000035 0.117721 -0.000016 0.017001
# 5 0.006177 0.003360 0.003920 -0.000016 0.041072 -0.000002
# 6 -0.000001 -0.000007 -0.000008 0.017001 -0.000002 0.049970
#
#
# Mechanical properties :
#
#
# Convention : Reuss Voigt Hill
#
# Bulk Modulus (GPa) = 24.15648 28.70476 26.43062
# Shear Modulus (GPa) = 18.43744 25.10522 21.77133
#
# Velocity S-wave (km/s) = 2.83009 3.30242 3.07534
# Velocity P-wave (km/s) = 4.60142 5.19721 4.90836
#
# Compressibility (1/GPa) = 0.04139676
#
# Stress axis : x y z
#
# Youngs Moduli (GPa) = 51.10466 86.88784 71.76504
#
# Poissons Ratio (x) = 0.20288 -0.06270
# Poissons Ratio (y) = 0.11933 0.02483
# Poissons Ratio (z) = -0.04465 0.03006
#
# Static dielectric constant tensor:
#      x y z
#    x 1.946740 0.000030 -0.000940 
#    y 0.000030 1.920520 0.000030 
#    z -0.000940 0.000030 1.845120 
# 
# From -- ./inp_files/178672.got.cif
#   From: 2010.05.17/outbox.cif.g08.bks.cpg/sg12_90_cif.got.tgz:178672.got - 2010.06.03 13:09:07.
