data_PCOD9211832
_publ_section_title
;
Structure prediction by ZEFSAII (Michael W. Deem and Ramdas Pophale) SiO2 
 PCOD9211832
Probable space group: C 2/M
;
_chemical_formula_sum "Si O2"
_cell_formula_units_Z 56
_cell_length_a 18.873104
_cell_length_b 8.382482
_cell_length_c 18.045960
_cell_angle_alpha 90.000000
_cell_angle_beta 111.214923
_cell_angle_gamma 90.000000
_cell_volume 2661.453197
_symmetry_space_group_name_H-M "C 2/M"
_symmetry_group_IT_number 12
_symmetry_cell_setting 'monoclinic'
loop_
_space_group_symop_operation_xyz
x,y,z
-x,y,-z
-x,-y,-z
x,-y,z
1/2+x,1/2+y,z
1/2-x,1/2+y,-z
1/2-x,1/2-y,-z
1/2+x,1/2-y,z
loop_
_atom_site_type_symbol
_atom_site_label
_atom_site_fract_x
_atom_site_fract_y
_atom_site_fract_z
Si Si1 0.767878 0.314833 0.424914
Si Si2 0.429559 0.190544 0.022641
Si Si3 0.922608 0.813209 0.515834
Si Si4 0.663774 0.184869 0.257399
Si Si5 0.787090 0.812845 0.879436
Si Si6 0.971320 0.809386 0.699176
Si Si7 0.887476 0.693314 0.169575
O O1 0.746533 0.500000 0.410852
O O2 0.750000 0.250000 0.500000
O O3 0.857672 0.288808 0.452428
O O4 0.722247 0.218342 0.346079
O O5 0.422490 0.249555 0.104295
O O6 0.439701 0.000000 0.031231
O O7 0.500000 0.254303 0.000000
O O8 0.349765 0.226007 0.952841
O O9 0.938922 0.761831 0.606444
O O10 0.000000 0.803850 0.500000
O O11 0.898317 0.000000 0.508000
O O12 0.688308 0.286483 0.196015
O O13 0.581733 0.231975 0.258353
O O14 0.663900 0.000000 0.236005
O O15 0.700373 0.755713 0.857382
O O16 0.789033 0.000000 0.898669
O O17 0.057723 0.757170 0.745513
O O18 0.965969 0.000000 0.701674
O O19 0.888536 0.500000 0.172165
#
# Coordination Sequence:
#
# PCOD9211832 Si02
#       7
#     8   8   8   8   8   8   8
#     4  12  24  41  65  94 125 164 212 262 316 373
#     4  10  21  40  66  94 125 167 212 254 309 374
#     4  10  23  42  63  91 128 166 210 261 316 377
#     4  12  25  42  65  90 124 167 211 262 317 373
#     4  11  24  41  63  95 130 165 209 261 309 367
#     4  11  23  40  64  93 126 164 210 261 313 376
#     4  10  23  41  62  92 133 170 206 255 311 372
#
# _framework density 21.041136999999999
#
# number of rings (size 3 to 8) (size 9 to 14) (size 15 to 20)
#    0.000    1.143    1.429    4.714    2.000    4.000 
#    0.000    0.000    0.000    0.000    0.000    0.000 
#    0.000    0.000    0.000    0.000    0.000    0.000 
#
# Total GULP energy -156641.686022 kJ/mol
# GULP energy per Si atom -5594.345929 kJ/mol
# Density = 2.099325 g / cm^3
# Si number density = 21.041137 Si / 1000 Ang^3
#
#
#
# Elastic Constant Matrix: (Units=GPa)
#
#
# Indices 1 2 3 4 5 6 
#
# 1 95.5394 6.2375 2.4860 0.0000 13.5943 0.0000
# 2 6.2375 18.7510 -18.3677 0.0000 -0.6558 0.0000
# 3 2.4860 -18.3677 56.7204 0.0000 11.5490 0.0000
# 4 0.0000 0.0000 0.0000 23.8793 0.0000 14.2094
# 5 13.5943 -0.6558 11.5490 0.0000 38.0114 0.0000
# 6 0.0000 0.0000 0.0000 14.2094 0.0000 23.8287
#
#
#
# Elastic Compliance Matrix: (Units=1/GPa)
#
#
# Indices 1 2 3 4 5 6 
#
# 1 0.011384 -0.005367 -0.001481 0.000000 -0.003714 0.000000
# 2 -0.005367 0.082299 0.027934 0.000000 -0.005148 0.000000
# 3 -0.001481 0.027934 0.028285 0.000000 -0.007582 0.000000
# 4 0.000000 0.000000 0.000000 0.064909 0.000000 -0.038706
# 5 -0.003714 -0.005148 -0.007582 0.000000 0.029851 0.000000
# 6 0.000000 0.000000 0.000000 -0.038706 0.000000 0.065048
#
#
# Mechanical properties :
#
#
# Convention : Reuss Voigt Hill
#
# Bulk Modulus (GPa) = 6.09234 16.85806 11.47520
# Shear Modulus (GPa) = 16.98840 29.18753 23.08797
#
# Velocity S-wave (km/s) = 2.84454 3.72851 3.31611
# Velocity P-wave (km/s) = 3.70004 5.15413 4.48639
#
# Compressibility (1/GPa) = 0.16414042
#
# Stress axis : x y z
#
# Youngs Moduli (GPa) = 87.84003 12.15077 35.35445
#
# Poissons Ratio (x) = 0.06522 0.05236
# Poissons Ratio (y) = 0.47148 -0.98760
# Poissons Ratio (z) = 0.13008 -0.33942
#
# Static dielectric constant tensor:
#      x y z
#    x 1.773000 0.000000 -0.002940 
#    y 0.000000 1.730160 0.000000 
#    z -0.002940 0.000000 1.732300 
# 
# From -- ./inp_files/275306.got.cif
#   From: 2010.05.17/outbox.cif.g08.bks.cpg/sg12_138_cif.got.tgz:275306.got - 2010.06.03 13:09:07.
