data_PCOD9211870
_publ_section_title
;
Structure prediction by ZEFSAII (Michael W. Deem and Ramdas Pophale) SiO2 
 PCOD9211870
Probable space group: C 2/M
;
_chemical_formula_sum "Si O2"
_cell_formula_units_Z 48
_cell_length_a 14.338336
_cell_length_b 25.728611
_cell_length_c 11.123125
_cell_angle_alpha 90.000000
_cell_angle_beta 31.897985
_cell_angle_gamma 90.000000
_cell_volume 2168.261649
_symmetry_space_group_name_H-M "C 2/M"
_symmetry_group_IT_number 12
_symmetry_cell_setting 'monoclinic'
loop_
_space_group_symop_operation_xyz
x,y,z
-x,y,-z
-x,-y,-z
x,-y,z
1/2+x,1/2+y,z
1/2-x,1/2+y,-z
1/2-x,1/2-y,-z
1/2+x,1/2-y,z
loop_
_atom_site_type_symbol
_atom_site_label
_atom_site_fract_x
_atom_site_fract_y
_atom_site_fract_z
Si Si1 0.962848 0.158148 0.663926
Si Si2 0.918683 0.207191 0.956009
Si Si3 0.070481 0.057783 0.648012
Si Si4 0.564646 0.830070 0.065551
Si Si5 0.249727 0.603570 0.151769
Si Si6 0.889894 0.594330 0.431054
O O1 0.015416 0.188744 0.727259
O O2 0.000000 0.188132 0.500000
O O3 0.062073 0.103403 0.559800
O O4 0.755304 0.145337 0.883506
O O5 0.898278 0.268485 0.964385
O O6 0.756303 0.166605 0.129330
O O7 0.000000 0.198511 0.000000
O O8 0.268238 0.058434 0.482811
O O9 0.020987 0.000000 0.664114
O O10 0.928936 0.078625 0.903359
O O11 0.427513 0.853669 0.311474
O O12 0.500000 0.839911 0.000000
O O13 0.219984 0.598517 0.325758
O O14 0.084109 0.578588 0.264080
#
# Coordination Sequence:
#
# PCOD9211870 Si02
#       6
#     8   8   8   8   8   8
#     4  11  23  43  66  95 137 178 222 274 334 396
#     4  10  21  40  67 101 139 179 225 271 327 394
#     4  11  24  44  68  96 131 170 223 282 342 402
#     4  11  23  41  65  98 139 179 228 271 324 402
#     4  10  22  41  67  95 139 172 218 275 332 403
#     4  11  22  40  66  98 133 176 216 277 338 391
#
# _framework density 22.137550999999998
#
# number of rings (size 3 to 8) (size 9 to 14) (size 15 to 20)
#    0.000    1.333    3.333    4.000    0.000    3.667 
#    0.000   10.000    0.000    2.000    0.000    0.000 
#    0.000    0.000    0.000    0.000    0.000    0.000 
#
# Total GULP energy -133726.142952 kJ/mol
# GULP energy per Si atom -5571.922623 kJ/mol
# Density = 2.208716 g / cm^3
# Si number density = 22.137551 Si / 1000 Ang^3
#
#
#
# Elastic Constant Matrix: (Units=GPa)
#
#
# Indices 1 2 3 4 5 6 
#
# 1 136.4230 33.1841 26.2838 0.0000 8.3397 0.0000
# 2 33.1841 81.9724 -3.6047 0.0000 -11.5959 0.0000
# 3 26.2838 -3.6047 47.7220 -0.0002 -1.5827 0.0000
# 4 0.0000 0.0000 -0.0002 -0.0977 0.0001 -6.4275
# 5 8.3397 -11.5959 -1.5827 0.0001 48.6473 0.0000
# 6 0.0000 0.0000 0.0000 -6.4275 0.0000 3.9034
#
#
#
# Elastic Compliance Matrix: (Units=1/GPa)
#
#
# Indices 1 2 3 4 5 6 
#
# 1 0.009758 -0.004626 -0.005822 0.000000 -0.002965 0.000000
# 2 -0.004626 0.014871 0.003819 0.000000 0.004462 0.000000
# 3 -0.005822 0.003819 0.024540 0.000000 0.002707 -0.000001
# 4 0.000000 0.000000 0.000000 -0.093620 0.000000 -0.154158
# 5 -0.002965 0.004462 0.002707 0.000000 0.022216 0.000000
# 6 0.000000 0.000000 -0.000001 -0.154158 0.000000 0.002343
#
#
# Mechanical properties :
#
#
# Convention : Reuss Voigt Hill
#
# Bulk Modulus (GPa) = 27.84676 41.98264 34.91470
# Shear Modulus (GPa) = 936.87726 24.50754 480.69240
#
# Velocity S-wave (km/s) = 20.59432 3.33086 14.75162
# Velocity P-wave (km/s) = 24.04387 5.81364 17.49151
#
# Compressibility (1/GPa) = 0.03591082
#
# Stress axis : x y z
#
# Youngs Moduli (GPa) = 102.47616 67.24486 40.75022
#
# Poissons Ratio (x) = 0.31107 0.23726
# Poissons Ratio (y) = 0.47404 -0.15563
# Poissons Ratio (z) = 0.59665 -0.25681
#
# Static dielectric constant tensor:
#      x y z
#    x 1.872890 0.000000 0.045530 
#    y 0.000000 1.777560 0.000000 
#    z 0.045530 0.000000 1.897190 
# 
# From -- ./inp_files/150214.got.cif
#   From: 2010.05.17/outbox.cif.g08.bks.cpg/sg12_76_cif.got.tgz:150214.got - 2010.06.03 13:09:07.
