data_PCOD9211629
_publ_section_title
;
Structure prediction by ZEFSAII (Michael W. Deem and Ramdas Pophale) SiO2 
 PCOD9211629
Probable space group: C 2/M
;
_chemical_formula_sum "Si O2"
_cell_formula_units_Z 56
_cell_length_a 19.884031
_cell_length_b 26.285821
_cell_length_c 8.652151
_cell_angle_alpha 90.000000
_cell_angle_beta 142.513981
_cell_angle_gamma 90.000000
_cell_volume 2752.067317
_symmetry_space_group_name_H-M "C 2/M"
_symmetry_group_IT_number 12
_symmetry_cell_setting 'monoclinic'
loop_
_space_group_symop_operation_xyz
x,y,z
-x,y,-z
-x,-y,-z
x,-y,z
1/2+x,1/2+y,z
1/2-x,1/2+y,-z
1/2-x,1/2-y,-z
1/2+x,1/2-y,z
loop_
_atom_site_type_symbol
_atom_site_label
_atom_site_fract_x
_atom_site_fract_y
_atom_site_fract_z
Si Si1 0.096000 0.944912 0.302610
Si Si2 0.226276 0.174568 0.078136
Si Si3 0.929979 0.604387 0.512435
Si Si4 0.581183 0.841954 0.019075
Si Si5 0.704787 0.282243 0.693875
Si Si6 0.510039 0.658557 0.203127
Si Si7 0.845366 0.557270 0.668684
O O1 0.071211 0.894747 0.355160
O O2 0.212636 0.939027 0.429060
O O3 0.097576 0.000000 0.387091
O O4 0.000000 0.946645 0.000000
O O5 0.317956 0.130708 0.248508
O O6 0.274817 0.222337 0.261382
O O7 0.204447 0.195075 0.866476
O O8 0.110449 0.159128 0.942316
O O9 0.894433 0.568345 0.589090
O O10 0.000000 0.580914 0.500000
O O11 0.010728 0.647162 0.736348
O O12 0.690275 0.808994 0.195474
O O13 0.614916 0.897689 0.146716
O O14 0.500000 0.819006 0.000000
O O15 0.589516 0.296976 0.406401
O O16 0.500000 0.661700 0.000000
O O17 0.873515 0.500000 0.771174
#
# Coordination Sequence:
#
# PCOD9211629 Si02
#       7
#     8   8   8   8   8   8   8
#     4   9  17  33  61  90 123 160 204 257 319 376
#     4  11  26  41  65  88 128 174 211 257 323 386
#     4  11  22  39  61  89 128 165 214 262 309 378
#     4  10  22  39  64  90 123 166 207 265 315 374
#     4  11  24  44  62  90 126 172 213 254 326 381
#     4  11  23  40  65  97 128 161 214 269 313 375
#     4  10  21  40  64  92 125 167 213 264 328 383
#
# _framework density 20.348337999999998
#
# number of rings (size 3 to 8) (size 9 to 14) (size 15 to 20)
#    0.000    1.571    2.857    2.143    4.000    4.000 
#    0.000    0.000    0.000    3.429    0.000    0.000 
#    0.000    0.000    0.000    0.000    0.000    0.000 
#
# Total GULP energy -156416.952526 kJ/mol
# GULP energy per Si atom -5586.319733 kJ/mol
# Density = 2.030202 g / cm^3
# Si number density = 20.348338 Si / 1000 Ang^3
#
#
#
# Elastic Constant Matrix: (Units=GPa)
#
#
# Indices 1 2 3 4 5 6 
#
# 1 124.7122 33.2155 31.0387 0.0000 34.2769 0.0000
# 2 33.2155 78.6909 5.2054 0.0000 12.2593 0.0000
# 3 31.0387 5.2054 84.6741 0.0000 29.1088 0.0000
# 4 0.0000 0.0000 0.0000 336.1570 0.0000 106.6824
# 5 34.2769 12.2593 29.1088 0.0000 36.2036 0.0000
# 6 0.0000 0.0000 0.0000 106.6824 0.0000 43.4153
#
#
#
# Elastic Compliance Matrix: (Units=1/GPa)
#
#
# Indices 1 2 3 4 5 6 
#
# 1 0.011680 -0.003444 -0.000925 0.000000 -0.009149 0.000000
# 2 -0.003444 0.014495 0.001296 0.000000 -0.002690 0.000000
# 3 -0.000925 0.001296 0.016472 0.000000 -0.012808 0.000000
# 4 0.000000 0.000000 0.000000 0.013511 0.000000 -0.033201
# 5 -0.009149 -0.002690 -0.012808 0.000000 0.047492 0.000000
# 6 0.000000 0.000000 0.000000 -0.033201 0.000000 0.104617
#
#
# Mechanical properties :
#
#
# Convention : Reuss Voigt Hill
#
# Bulk Modulus (GPa) = 27.39539 47.44406 37.41973
# Shear Modulus (GPa) = 22.06717 97.72968 59.89842
#
# Velocity S-wave (km/s) = 3.29670 6.93777 5.43143
# Velocity P-wave (km/s) = 5.28994 9.35646 7.60022
#
# Compressibility (1/GPa) = 0.03650249
#
# Stress axis : x y z
#
# Youngs Moduli (GPa) = 85.61304 68.98985 60.70839
#
# Poissons Ratio (x) = 0.23759 0.05614
# Poissons Ratio (y) = 0.29483 -0.07868
# Poissons Ratio (z) = 0.07916 -0.08941
#
# Static dielectric constant tensor:
#      x y z
#    x 1.704030 0.000000 -0.006140 
#    y 0.000000 1.756190 0.000000 
#    z -0.006140 0.000000 1.730180 
# 
# From -- ./inp_files/80499.got.cif
#   From: 2010.05.17/outbox.cif.g08.bks.cpg/sg12_41_cif.got.tgz:80499.got - 2010.06.03 13:09:07.
