data_PCOD9211602
_publ_section_title
;
Structure prediction by ZEFSAII (Michael W. Deem and Ramdas Pophale) SiO2 
 PCOD9211602
Probable space group: C 2/M
;
_chemical_formula_sum "Si O2"
_cell_formula_units_Z 32
_cell_length_a 13.866030
_cell_length_b 8.541603
_cell_length_c 11.926929
_cell_angle_alpha 90.000000
_cell_angle_beta 94.140805
_cell_angle_gamma 90.000000
_cell_volume 1408.915645
_symmetry_space_group_name_H-M "C 2/M"
_symmetry_group_IT_number 12
_symmetry_cell_setting 'monoclinic'
loop_
_space_group_symop_operation_xyz
x,y,z
-x,y,-z
-x,-y,-z
x,-y,z
1/2+x,1/2+y,z
1/2-x,1/2+y,-z
1/2-x,1/2-y,-z
1/2+x,1/2-y,z
loop_
_atom_site_type_symbol
_atom_site_label
_atom_site_fract_x
_atom_site_fract_y
_atom_site_fract_z
Si Si1 0.195690 0.818999 0.102507
Si Si2 0.384853 0.821681 0.518061
Si Si3 0.457529 0.814414 0.760426
Si Si4 0.337402 0.680066 0.287170
O O1 0.098924 0.728828 0.131799
O O2 0.270145 0.794128 0.210788
O O3 0.173400 0.000000 0.083038
O O4 0.250000 0.750000 0.000000
O O5 0.500000 0.820880 0.500000
O O6 0.386242 0.779850 0.648845
O O7 0.336683 0.714360 0.420216
O O8 0.350865 0.000000 0.500470
O O9 0.553977 0.715554 0.747341
O O10 0.479721 0.000000 0.756960
O O11 0.310276 0.500000 0.263271
#
# Coordination Sequence:
#
# PCOD9211602 Si02
#       4
#     8   8   8   8
#     4  12  26  44  63  86 117 155 203 252 298 351
#     4   8  16  33  58  88 122 157 194 239 292 350
#     4  10  21  40  64  91 123 158 197 244 298 352
#     4  11  22  38  62  92 124 159 198 241 295 355
#
# _framework density 22.712502000000001
#
# number of rings (size 3 to 8) (size 9 to 14) (size 15 to 20)
#    0.000    1.750    0.000    6.750    0.000    7.500 
#    0.000    5.000    0.000    0.000    0.000    0.000 
#    0.000    0.000    0.000    0.000    0.000    0.000 
#
# Total GULP energy -89520.511827 kJ/mol
# GULP energy per Si atom -5595.031989 kJ/mol
# Density = 2.266081 g / cm^3
# Si number density = 22.712502 Si / 1000 Ang^3
#
#
#
# Elastic Constant Matrix: (Units=GPa)
#
#
# Indices 1 2 3 4 5 6 
#
# 1 43.4692 0.0221 9.8378 0.0000 -18.3047 0.0000
# 2 0.0221 62.7746 14.0125 0.0000 -9.1000 0.0000
# 3 9.8378 14.0125 72.3722 0.0000 -40.5545 0.0000
# 4 0.0000 0.0000 0.0000 33.7422 0.0000 -1.2212
# 5 -18.3047 -9.1000 -40.5545 0.0000 40.4562 0.0000
# 6 0.0000 0.0000 0.0000 -1.2212 0.0000 30.0482
#
#
#
# Elastic Compliance Matrix: (Units=1/GPa)
#
#
# Indices 1 2 3 4 5 6 
#
# 1 0.030512 0.001416 0.007969 0.000000 0.022112 0.000000
# 2 0.001416 0.016740 -0.002201 0.000000 0.002200 0.000000
# 3 0.007969 -0.002201 0.034004 0.000000 0.037198 0.000000
# 4 0.000000 0.000000 0.000000 0.029680 0.000000 0.001206
# 5 0.022112 0.002200 0.037198 0.000000 0.072506 0.000000
# 6 0.000000 0.000000 0.000000 0.001206 0.000000 0.033329
#
#
# Mechanical properties :
#
#
# Convention : Reuss Voigt Hill
#
# Bulk Modulus (GPa) = 10.45761 25.15120 17.80441
# Shear Modulus (GPa) = 21.34220 31.16555 26.25388
#
# Velocity S-wave (km/s) = 3.06873 3.70831 3.40357
# Velocity P-wave (km/s) = 4.14372 5.42523 4.82719
#
# Compressibility (1/GPa) = 0.09562412
#
# Stress axis : x y z
#
# Youngs Moduli (GPa) = 32.77404 59.73829 29.40794
#
# Poissons Ratio (x) = -0.08458 -0.23436
# Poissons Ratio (y) = -0.04640 0.06473
# Poissons Ratio (z) = -0.26118 0.13148
#
# Static dielectric constant tensor:
#      x y z
#    x 1.892980 0.000000 -0.024160 
#    y 0.000000 1.759300 0.000000 
#    z -0.024160 0.000000 1.868260 
# 
# From -- ./inp_files/138343.got.cif
#   From: 2010.05.17/outbox.cif.g08.bks.cpg/sg12_70_cif.got.tgz:138343.got - 2010.06.03 13:09:07.
