data_PCOD9211589
_publ_section_title
;
Structure prediction by ZEFSAII (Michael W. Deem and Ramdas Pophale) SiO2 
 PCOD9211589
Probable space group: C 2/M
;
_chemical_formula_sum "Si O2"
_cell_formula_units_Z 64
_cell_length_a 11.434669
_cell_length_b 17.284132
_cell_length_c 16.415460
_cell_angle_alpha 90.000000
_cell_angle_beta 93.016993
_cell_angle_gamma 90.000000
_cell_volume 3239.827340
_symmetry_space_group_name_H-M "C 2/M"
_symmetry_group_IT_number 12
_symmetry_cell_setting 'monoclinic'
loop_
_space_group_symop_operation_xyz
x,y,z
-x,y,-z
-x,-y,-z
x,-y,z
1/2+x,1/2+y,z
1/2-x,1/2+y,-z
1/2-x,1/2-y,-z
1/2+x,1/2-y,z
loop_
_atom_site_type_symbol
_atom_site_label
_atom_site_fract_x
_atom_site_fract_y
_atom_site_fract_z
Si Si1 0.937105 0.673411 0.681567
Si Si2 0.050829 0.859992 0.911550
Si Si3 0.134335 0.587792 0.472037
Si Si4 0.183745 0.591693 0.651736
Si Si5 0.325401 0.801265 0.112423
Si Si6 0.868689 0.825096 0.769779
Si Si7 0.717007 0.914456 0.031784
Si Si8 0.533134 0.089427 0.164304
O O1 0.862349 0.650640 0.599349
O O2 0.928332 0.760859 0.713872
O O3 0.069287 0.643678 0.667546
O O4 0.896623 0.621254 0.756170
O O5 0.098126 0.772148 0.908821
O O6 0.166989 0.911254 0.909342
O O7 0.959113 0.866871 0.834465
O O8 0.000000 0.875384 0.000000
O O9 0.157582 0.500000 0.442785
O O10 0.208650 0.602896 0.556207
O O11 0.000000 0.587176 0.500000
O O12 0.156696 0.500000 0.661583
O O13 0.290804 0.617970 0.712001
O O14 0.222477 0.782762 0.171767
O O15 0.415085 0.862046 0.154525
O O16 0.274071 0.846469 0.033241
O O17 0.605135 0.900691 0.084052
O O18 0.706535 0.000000 0.993354
O O19 0.507382 0.000000 0.174076
#
# Coordination Sequence:
#
# PCOD9211589 Si02
#       8
#     8   8   8   8   8   8   8   8
#     4  11  20  35  58  91 126 155 200 256 310 366
#     4  12  24  40  58  79 117 165 198 246 306 367
#     4   8  16  33  60  90 122 161 200 248 312 371
#     4  10  21  40  64  90 124 166 209 252 306 373
#     4  12  23  40  60  82 117 156 204 255 308 363
#     4  12  24  37  58  93 122 165 206 252 306 371
#     4  11  25  41  59  84 114 155 213 260 303 360
#     4  11  21  36  61  89 116 155 203 260 310 356
#
# _framework density 19.754138999999999
#
# number of rings (size 3 to 8) (size 9 to 14) (size 15 to 20)
#    0.000    1.125    3.750    4.500    0.000    2.750 
#    0.000    0.000    0.000    0.000    0.000    0.000 
#    0.000   20.500    0.000    0.000    0.000    0.000 
#
# Total GULP energy -178657.441689 kJ/mol
# GULP energy per Si atom -5583.045053 kJ/mol
# Density = 1.970918 g / cm^3
# Si number density = 19.754139 Si / 1000 Ang^3
#
#
#
# Elastic Constant Matrix: (Units=GPa)
#
#
# Indices 1 2 3 4 5 6 
#
# 1 60.3878 12.8486 29.3892 0.0000 16.2067 0.0000
# 2 12.8486 53.8839 25.3721 0.0000 3.0672 0.0000
# 3 29.3892 25.3721 109.2333 0.0000 30.1499 0.0000
# 4 0.0000 0.0000 0.0000 28.9189 0.0000 4.5888
# 5 16.2067 3.0672 30.1499 0.0000 29.1225 0.0000
# 6 0.0000 0.0000 0.0000 4.5888 0.0000 19.9744
#
#
#
# Elastic Compliance Matrix: (Units=1/GPa)
#
#
# Indices 1 2 3 4 5 6 
#
# 1 0.020780 -0.003322 -0.002414 0.000000 -0.008716 0.000000
# 2 -0.003322 0.021697 -0.005636 0.000000 0.005398 0.000000
# 3 -0.002414 -0.005636 0.014811 0.000000 -0.013397 0.000000
# 4 0.000000 0.000000 0.000000 0.035888 0.000000 -0.008245
# 5 -0.008716 0.005398 -0.013397 0.000000 0.052489 0.000000
# 6 0.000000 0.000000 0.000000 -0.008245 0.000000 0.051958
#
#
# Mechanical properties :
#
#
# Convention : Reuss Voigt Hill
#
# Bulk Modulus (GPa) = 28.94824 39.85832 34.40328
# Shear Modulus (GPa) = 21.56278 25.99617 23.77947
#
# Velocity S-wave (km/s) = 3.30746 3.63159 3.47331
# Velocity P-wave (km/s) = 5.41034 6.14862 5.79126
#
# Compressibility (1/GPa) = 0.03454441
#
# Stress axis : x y z
#
# Youngs Moduli (GPa) = 48.12262 46.08912 67.51838
#
# Poissons Ratio (x) = 0.15313 0.16296
# Poissons Ratio (y) = 0.15989 0.38052
# Poissons Ratio (z) = 0.11615 0.25975
#
# Static dielectric constant tensor:
#      x y z
#    x 1.709330 0.000000 0.039870 
#    y 0.000000 1.693300 0.000000 
#    z 0.039870 0.000000 1.760000 
# 
# From -- ./inp_files/263901.got.cif
#   From: 2010.05.17/outbox.cif.g08.bks.cpg/sg12_132_cif.got.tgz:263901.got - 2010.06.03 13:09:07.
