data_PCOD9211401
_publ_section_title
;
Structure prediction by ZEFSAII (Michael W. Deem and Ramdas Pophale) SiO2 
 PCOD9211401
Probable space group: C 2/M
;
_chemical_formula_sum "Si O2"
_cell_formula_units_Z 64
_cell_length_a 21.291295
_cell_length_b 17.162292
_cell_length_c 20.024658
_cell_angle_alpha 90.000000
_cell_angle_beta 26.158299
_cell_angle_gamma 90.000000
_cell_volume 3225.789101
_symmetry_space_group_name_H-M "C 2/M"
_symmetry_group_IT_number 12
_symmetry_cell_setting 'monoclinic'
loop_
_space_group_symop_operation_xyz
x,y,z
-x,y,-z
-x,-y,-z
x,-y,z
1/2+x,1/2+y,z
1/2-x,1/2+y,-z
1/2-x,1/2-y,-z
1/2+x,1/2-y,z
loop_
_atom_site_type_symbol
_atom_site_label
_atom_site_fract_x
_atom_site_fract_y
_atom_site_fract_z
Si Si1 0.359494 0.910293 0.230163
Si Si2 0.172382 0.636196 0.890214
Si Si3 0.345277 0.911477 0.615782
Si Si4 0.622301 0.664638 0.191721
Si Si5 0.358878 0.678341 0.095715
Si Si6 0.723443 0.154535 0.089436
Si Si7 0.218773 0.169821 0.488400
Si Si8 0.089507 0.409781 0.590091
O O1 0.308485 0.897649 0.202285
O O2 0.290524 0.847872 0.347460
O O3 0.329948 0.000000 0.278800
O O4 0.530444 0.898008 0.060692
O O5 0.306751 0.627002 0.810642
O O6 0.142990 0.728472 0.909753
O O7 0.500000 0.919219 0.500000
O O8 0.264814 0.852091 0.739329
O O9 0.358821 0.874596 0.529318
O O10 0.281937 0.000000 0.675765
O O11 0.677268 0.754363 0.136817
O O12 0.451586 0.661750 0.354274
O O13 0.692423 0.631658 0.057360
O O14 0.326830 0.642216 0.053883
O O15 0.500000 0.654393 0.000000
O O16 0.570528 0.114029 0.239534
O O17 0.250000 0.250000 0.500000
O O18 0.298785 0.108050 0.459080
O O19 0.084231 0.500000 0.580278
#
# Coordination Sequence:
#
# PCOD9211401 Si02
#       8
#     8   8   8   8   8   8   8   8
#     4  11  24  47  72  98 134 181 222 264 337 412
#     4  10  22  42  70 101 128 169 222 281 324 407
#     4  10  22  40  60  86 128 175 220 264 324 396
#     4  10  23  40  63  97 129 163 218 272 336 380
#     4  11  22  35  63  99 130 163 221 280 332 383
#     4  10  21  40  62  89 129 173 214 269 322 398
#     4  12  26  40  67 100 134 170 216 278 330 387
#     4  11  23  42  63  89 126 177 221 261 322 399
#
# _framework density 19.840105999999999
#
# number of rings (size 3 to 8) (size 9 to 14) (size 15 to 20)
#    0.000    1.375    3.750    1.875    7.000    0.750 
#    0.000    5.000    0.000    0.000    0.000    0.000 
#    0.000    0.000    0.000    0.000    0.000    0.000 
#
# Total GULP energy -178505.332737 kJ/mol
# GULP energy per Si atom -5578.291648 kJ/mol
# Density = 1.979495 g / cm^3
# Si number density = 19.840106 Si / 1000 Ang^3
#
#
#
# Elastic Constant Matrix: (Units=GPa)
#
#
# Indices 1 2 3 4 5 6 
#
# 1 157.1942 15.0613 37.3066 -0.0042 -3.4319 0.0024
# 2 15.0613 29.7978 49.3027 0.0007 -1.6939 -0.0007
# 3 37.3066 49.3027 -1.4672 -0.0116 25.4746 0.0065
# 4 -0.0042 0.0007 -0.0116 32.6433 0.0028 3.1341
# 5 -3.4319 -1.6939 25.4746 0.0028 34.1766 -0.0011
# 6 0.0024 -0.0007 0.0065 3.1341 -0.0011 24.3408
#
#
#
# Elastic Compliance Matrix: (Units=1/GPa)
#
#
# Indices 1 2 3 4 5 6 
#
# 1 0.006606 -0.004844 0.000901 0.000001 -0.000248 -0.000001
# 2 -0.004844 0.010015 0.015318 0.000006 -0.011407 -0.000005
# 3 0.000901 0.015318 -0.009266 -0.000005 0.007757 0.000004
# 4 0.000001 0.000006 -0.000005 0.031018 0.000001 -0.003994
# 5 -0.000248 -0.011407 0.007757 0.000001 0.022888 -0.000002
# 6 -0.000001 -0.000005 0.000004 -0.003994 -0.000002 0.041598
#
#
# Mechanical properties :
#
#
# Convention : Reuss Voigt Hill
#
# Bulk Modulus (GPa) = 33.21769 43.20734 38.21252
# Shear Modulus (GPa) = 55.46669 23.82242 39.64455
#
# Velocity S-wave (km/s) = 5.29316 3.46890 4.47498
# Velocity P-wave (km/s) = 7.35770 6.15381 6.78252
#
# Compressibility (1/GPa) = 0.03010444
#
# Stress axis : x y z
#
# Youngs Moduli (GPa) = 151.36729 99.84647 -107.91675
#
# Poissons Ratio (x) = 0.48365 0.09722
# Poissons Ratio (y) = 0.73321 1.65302
# Poissons Ratio (z) = -0.13637 -1.52940
#
# Static dielectric constant tensor:
#      x y z
#    x 1.701010 0.000000 0.054430 
#    y 0.000000 1.702760 0.000000 
#    z 0.054430 0.000000 1.678320 
# 
# From -- ./inp_files/285202.got.cif
#   From: 2010.05.17/outbox.cif.g08.bks.cpg/sg12_143_cif.got.tgz:285202.got - 2010.06.03 13:09:07.
