data_PCOD9211711
_publ_section_title
;
Structure prediction by ZEFSAII (Michael W. Deem and Ramdas Pophale) SiO2 
 PCOD9211711
Probable space group: C 2/M
;
_chemical_formula_sum "Si O2"
_cell_formula_units_Z 48
_cell_length_a 8.555350
_cell_length_b 12.858834
_cell_length_c 21.653675
_cell_angle_alpha 90.000000
_cell_angle_beta 106.427725
_cell_angle_gamma 90.000000
_cell_volume 2284.913954
_symmetry_space_group_name_H-M "C 2/M"
_symmetry_group_IT_number 12
_symmetry_cell_setting 'monoclinic'
loop_
_space_group_symop_operation_xyz
x,y,z
-x,y,-z
-x,-y,-z
x,-y,z
1/2+x,1/2+y,z
1/2-x,1/2+y,-z
1/2-x,1/2-y,-z
1/2+x,1/2-y,z
loop_
_atom_site_type_symbol
_atom_site_label
_atom_site_fract_x
_atom_site_fract_y
_atom_site_fract_z
Si Si1 0.097521 0.188046 0.454651
Si Si2 0.156727 0.297830 0.047938
Si Si3 0.267363 0.000000 0.438172
Si Si4 0.991928 0.308790 0.335624
Si Si5 0.003448 0.881625 0.884314
Si Si6 0.610746 0.000000 0.407204
Si Si7 0.869498 0.879643 0.730419
O O1 0.250000 0.250000 0.500000
O O2 0.000000 0.139813 0.500000
O O3 0.977684 0.260977 0.402929
O O4 0.166170 0.102736 0.416726
O O5 0.301146 0.361446 0.096668
O O6 0.084451 0.205277 0.082791
O O7 0.250000 0.250000 0.000000
O O8 0.000000 0.354673 0.000000
O O9 0.427443 0.000000 0.415246
O O10 0.298129 0.000000 0.516578
O O11 0.124613 0.399320 0.365095
O O12 0.824567 0.358949 0.294580
O O13 0.047510 0.216224 0.297085
O O14 0.930085 0.872905 0.807739
O O15 0.975644 0.000000 0.904223
O O16 0.902767 0.000000 0.714383
#
# Coordination Sequence:
#
# PCOD9211711 Si02
#       7
#     8   8   4   8   8   4   8
#     4  12  24  39  60  89 121 158 201 264 332 391
#     4   9  19  36  63 100 134 166 206 255 301 359
#     4  11  23  40  60  90 120 154 202 254 336 408
#     4  12  24  42  66  89 124 161 215 263 323 387
#     4  10  21  40  65  91 130 174 213 255 307 359
#     4  11  22  40  66  88 120 160 197 266 334 389
#     4  11  25  45  66  92 125 173 217 263 309 371
#
# _framework density 21.007356000000001
#
# number of rings (size 3 to 8) (size 9 to 14) (size 15 to 20)
#    0.000    1.167    2.500    4.250    1.167    3.333 
#    1.500    2.500    1.833    0.000    0.000    0.000 
#    0.000    0.000    0.000    0.000    0.000    0.000 
#
# Total GULP energy -133933.736180 kJ/mol
# GULP energy per Si atom -5580.572341 kJ/mol
# Density = 2.095954 g / cm^3
# Si number density = 21.007356 Si / 1000 Ang^3
#
#
#
# Elastic Constant Matrix: (Units=GPa)
#
#
# Indices 1 2 3 4 5 6 
#
# 1 70.5909 26.2058 31.0204 0.0000 8.4565 0.0000
# 2 26.2058 127.3034 43.0903 0.0000 -6.9052 0.0000
# 3 31.0204 43.0903 123.6408 0.0000 24.5778 0.0000
# 4 0.0000 0.0000 0.0000 19.9189 0.0000 -4.4457
# 5 8.4565 -6.9052 24.5778 0.0000 39.3726 0.0000
# 6 0.0000 0.0000 0.0000 -4.4457 0.0000 37.0188
#
#
#
# Elastic Compliance Matrix: (Units=1/GPa)
#
#
# Indices 1 2 3 4 5 6 
#
# 1 0.016640 -0.002594 -0.002820 0.000000 -0.002269 0.000000
# 2 -0.002594 0.009897 -0.003715 0.000000 0.004612 0.000000
# 3 -0.002820 -0.003715 0.011530 0.000000 -0.007243 0.000000
# 4 0.000000 0.000000 0.000000 0.051586 0.000000 0.006195
# 5 -0.002269 0.004612 -0.007243 0.000000 0.031216 0.000000
# 6 0.000000 0.000000 0.000000 0.006195 0.000000 0.027757
#
#
# Mechanical properties :
#
#
# Convention : Reuss Voigt Hill
#
# Bulk Modulus (GPa) = 50.48205 58.01868 54.25037
# Shear Modulus (GPa) = 28.82048 34.00997 31.41523
#
# Velocity S-wave (km/s) = 3.70797 4.02799 3.87129
# Velocity P-wave (km/s) = 6.51267 7.02219 6.77222
#
# Compressibility (1/GPa) = 0.01980902
#
# Stress axis : x y z
#
# Youngs Moduli (GPa) = 60.09606 101.04146 86.72971
#
# Poissons Ratio (x) = 0.26210 0.24456
# Poissons Ratio (y) = 0.15589 0.32222
# Poissons Ratio (z) = 0.16946 0.37539
#
# Static dielectric constant tensor:
#      x y z
#    x 1.747060 0.000000 0.027030 
#    y 0.000000 1.814270 0.000000 
#    z 0.027030 0.000000 1.765220 
# 
# From -- ./inp_files/332289.got.cif
#   From: 2010.05.17/outbox.cif.g08.bks.cpg/sg12_167_cif.got.tgz:332289.got - 2010.06.03 13:09:07.
