data_PCOD9211014
_publ_section_title
;
Structure prediction by ZEFSAII (Michael W. Deem and Ramdas Pophale) SiO2 
 PCOD9211014
Probable space group: C 2/M
;
_chemical_formula_sum "Si O2"
_cell_formula_units_Z 32
_cell_length_a 20.089647
_cell_length_b 8.444671
_cell_length_c 10.011521
_cell_angle_alpha 90.000000
_cell_angle_beta 77.860132
_cell_angle_gamma 90.000000
_cell_volume 1660.476736
_symmetry_space_group_name_H-M "C 2/M"
_symmetry_group_IT_number 12
_symmetry_cell_setting 'monoclinic'
loop_
_space_group_symop_operation_xyz
x,y,z
-x,y,-z
-x,-y,-z
x,-y,z
1/2+x,1/2+y,z
1/2-x,1/2+y,-z
1/2-x,1/2-y,-z
1/2+x,1/2-y,z
loop_
_atom_site_type_symbol
_atom_site_label
_atom_site_fract_x
_atom_site_fract_y
_atom_site_fract_z
Si Si1 0.690199 0.188397 0.121973
Si Si2 0.539905 0.308722 0.119591
Si Si3 0.691845 0.308793 0.425156
Si Si4 0.449139 0.317563 0.397455
O O1 0.615810 0.241476 0.100438
O O2 0.699013 0.250939 0.269910
O O3 0.693172 0.000000 0.123510
O O4 0.750000 0.250000 0.000000
O O5 0.546628 0.500000 0.131479
O O6 0.491075 0.245424 0.258026
O O7 0.500000 0.276547 0.000000
O O8 0.690292 0.500000 0.421613
O O9 0.750000 0.250000 0.500000
O O10 0.621043 0.248053 0.519553
O O11 0.500000 0.322197 0.500000
O O12 0.433543 0.500000 0.363805
#
# Coordination Sequence:
#
# PCOD9211014 Si02
#       4
#     8   8   8   8
#     4  12  26  44  64  90 127 170 215 268 323 378
#     4  10  21  39  65  94 125 165 208 255 315 383
#     4  11  23  41  65  95 129 168 212 260 315 378
#     4   9  17  35  62  89 120 160 204 250 306 372
#
# _framework density 19.271574999999999
#
# number of rings (size 3 to 8) (size 9 to 14) (size 15 to 20)
#    0.000    1.500    2.500    3.000    3.500    0.500 
#    0.000    3.750    0.000    0.000    0.000    0.000 
#    0.000    0.000    0.000    0.000    0.000    0.000 
#
# Total GULP energy -89326.030821 kJ/mol
# GULP energy per Si atom -5582.876926 kJ/mol
# Density = 1.922771 g / cm^3
# Si number density = 19.271575 Si / 1000 Ang^3
#
#
#
# Elastic Constant Matrix: (Units=GPa)
#
#
# Indices 1 2 3 4 5 6 
#
# 1 192.7607 52.0406 111.6686 0.0000 -21.5339 0.0000
# 2 52.0406 78.9759 58.9265 0.0000 2.1573 0.0000
# 3 111.6686 58.9265 177.1139 0.0000 -27.0023 0.0000
# 4 0.0000 0.0000 0.0000 23.6037 0.0000 -1.8894
# 5 -21.5339 2.1573 -27.0023 0.0000 38.6711 0.0000
# 6 0.0000 0.0000 0.0000 -1.8894 0.0000 21.2721
#
#
#
# Elastic Compliance Matrix: (Units=1/GPa)
#
#
# Indices 1 2 3 4 5 6 
#
# 1 0.008549 -0.002505 -0.004263 0.000000 0.001923 0.000000
# 2 -0.002505 0.018662 -0.005597 0.000000 -0.006344 0.000000
# 3 -0.004263 -0.005597 0.011059 0.000000 0.005660 0.000000
# 4 0.000000 0.000000 0.000000 0.042670 0.000000 0.003790
# 5 0.001923 -0.006344 0.005660 0.000000 0.031236 0.000000
# 6 0.000000 0.000000 0.000000 0.003790 0.000000 0.047347
#
#
# Mechanical properties :
#
#
# Convention : Reuss Voigt Hill
#
# Bulk Modulus (GPa) = 73.85569 99.34687 86.60128
# Shear Modulus (GPa) = 26.48800 31.79037 29.13918
#
# Velocity S-wave (km/s) = 3.71139 4.06593 3.89270
# Velocity P-wave (km/s) = 7.53477 8.58518 8.07707
#
# Compressibility (1/GPa) = 0.01353992
#
# Stress axis : x y z
#
# Youngs Moduli (GPa) = 116.97857 53.58549 90.42289
#
# Poissons Ratio (x) = 0.13421 0.38550
# Poissons Ratio (y) = 0.29298 0.50609
# Poissons Ratio (z) = 0.49872 0.29991
#
# Static dielectric constant tensor:
#      x y z
#    x 1.661940 0.000000 -0.011930 
#    y 0.000000 1.685570 0.000000 
#    z -0.011930 0.000000 1.676860 
# 
# From -- ./inp_files/81689.got.cif
#   From: 2010.05.17/outbox.cif.g08.bks.cpg/sg12_41_cif.got.tgz:81689.got - 2010.06.03 13:09:07.
