data_PCOD9211603
_publ_section_title
;
Structure prediction by ZEFSAII (Michael W. Deem and Ramdas Pophale) SiO2 
 PCOD9211603
Probable space group: C 2/M
;
_chemical_formula_sum "Si O2"
_cell_formula_units_Z 48
_cell_length_a 30.019281
_cell_length_b 8.539818
_cell_length_c 18.853632
_cell_angle_alpha 90.000000
_cell_angle_beta 30.635057
_cell_angle_gamma 90.000000
_cell_volume 2462.895881
_symmetry_space_group_name_H-M "C 2/M"
_symmetry_group_IT_number 12
_symmetry_cell_setting 'monoclinic'
loop_
_space_group_symop_operation_xyz
x,y,z
-x,y,-z
-x,-y,-z
x,-y,z
1/2+x,1/2+y,z
1/2-x,1/2+y,-z
1/2-x,1/2-y,-z
1/2+x,1/2-y,z
loop_
_atom_site_type_symbol
_atom_site_label
_atom_site_fract_x
_atom_site_fract_y
_atom_site_fract_z
Si Si1 0.154210 0.313233 0.612839
Si Si2 0.515909 0.822383 0.395057
Si Si3 0.156423 0.310885 0.443670
Si Si4 0.710338 0.189603 0.127099
Si Si5 0.804839 0.313566 0.139345
Si Si6 0.993205 0.187930 0.926686
O O1 0.152466 0.500000 0.624374
O O2 0.250000 0.250000 0.500000
O O3 0.143613 0.278308 0.543920
O O4 0.077289 0.242647 0.766501
O O5 0.500000 0.834838 0.500000
O O6 0.430495 0.750474 0.476823
O O7 0.610775 0.748743 0.259790
O O8 0.522181 0.000000 0.356232
O O9 0.163075 0.500000 0.424642
O O10 0.242244 0.239312 0.289981
O O11 0.761547 0.248415 0.126309
O O12 0.708797 0.000000 0.132873
O O13 0.750000 0.250000 0.000000
O O14 0.807205 0.500000 0.132313
O O15 0.902770 0.251067 0.017749
O O16 0.990527 0.000000 0.929434
O O17 0.000000 0.238911 0.000000
#
# Coordination Sequence:
#
# PCOD9211603 Si02
#       6
#     8   8   8   8   8   8
#     4  11  24  41  66  96 129 164 205 258 315 380
#     4   9  17  35  63  88 116 160 208 250 304 366
#     4  10  21  40  64  91 123 164 208 257 314 372
#     4  11  23  40  63  91 127 169 213 265 318 374
#     4  12  25  41  63  93 128 168 212 260 316 379
#     4  11  25  45  68  93 125 165 210 263 322 380
#
# _framework density 19.489252
#
# number of rings (size 3 to 8) (size 9 to 14) (size 15 to 20)
#    0.000    1.333    1.667    4.000    2.333    6.667 
#    0.000    2.500    0.000    0.000    0.000    0.000 
#    0.000    0.000    0.000    0.000    0.000    0.000 
#
# Total GULP energy -134049.885396 kJ/mol
# GULP energy per Si atom -5585.411891 kJ/mol
# Density = 1.944489 g / cm^3
# Si number density = 19.489252 Si / 1000 Ang^3
#
#
#
# Elastic Constant Matrix: (Units=GPa)
#
#
# Indices 1 2 3 4 5 6 
#
# 1 114.9286 48.7605 79.4300 0.0000 -17.5860 0.0002
# 2 48.7605 67.5820 49.6870 -0.0044 3.5161 0.0033
# 3 79.4300 49.6870 196.5420 -0.0033 -14.7805 0.0020
# 4 0.0000 -0.0044 -0.0033 25.5526 0.0015 8.3265
# 5 -17.5860 3.5161 -14.7805 0.0015 40.3348 -0.0006
# 6 0.0002 0.0033 0.0020 8.3265 -0.0006 22.0526
#
#
#
# Elastic Compliance Matrix: (Units=1/GPa)
#
#
# Indices 1 2 3 4 5 6 
#
# 1 0.016211 -0.009310 -0.003708 -0.000004 0.006521 0.000003
# 2 -0.009310 0.023975 -0.002839 0.000006 -0.007190 -0.000006
# 3 -0.003708 -0.002839 0.007405 0.000001 0.001345 0.000000
# 4 -0.000004 0.000006 0.000001 0.044626 -0.000004 -0.016849
# 5 0.006521 -0.007190 0.001345 -0.000004 0.028755 0.000003
# 6 0.000003 -0.000006 0.000000 -0.016849 0.000003 0.051708
#
#
# Mechanical properties :
#
#
# Convention : Reuss Voigt Hill
#
# Bulk Modulus (GPa) = 62.97863 81.64529 72.31196
# Shear Modulus (GPa) = 23.84509 30.99966 27.42237
#
# Velocity S-wave (km/s) = 3.50165 3.99256 3.75514
# Velocity P-wave (km/s) = 6.98093 7.95220 7.48234
#
# Compressibility (1/GPa) = 0.01587840
#
# Stress axis : x y z
#
# Youngs Moduli (GPa) = 61.68618 41.70940 135.03904
#
# Poissons Ratio (x) = 0.38830 0.50066
# Poissons Ratio (y) = 0.57428 0.38343
# Poissons Ratio (z) = 0.22870 0.11843
#
# Static dielectric constant tensor:
#      x y z
#    x 1.657890 0.000000 -0.017880 
#    y 0.000000 1.686720 0.000000 
#    z -0.017880 0.000000 1.672930 
# 
# From -- ./inp_files/295360.got.cif
#   From: 2010.05.17/outbox.cif.g08.bks.cpg/sg12_148_cif.got.tgz:295360.got - 2010.06.03 13:09:07.
