data_PCOD9211042
_publ_section_title
;
Structure prediction by ZEFSAII (Michael W. Deem and Ramdas Pophale) SiO2 
 PCOD9211042
Probable space group: C 2/M
;
_chemical_formula_sum "Si O2"
_cell_formula_units_Z 40
_cell_length_a 9.418981
_cell_length_b 10.261234
_cell_length_c 20.529032
_cell_angle_alpha 90.000000
_cell_angle_beta 77.732145
_cell_angle_gamma 90.000000
_cell_volume 1938.830574
_symmetry_space_group_name_H-M "C 2/M"
_symmetry_group_IT_number 12
_symmetry_cell_setting 'monoclinic'
loop_
_space_group_symop_operation_xyz
x,y,z
-x,y,-z
-x,-y,-z
x,-y,z
1/2+x,1/2+y,z
1/2-x,1/2+y,-z
1/2-x,1/2-y,-z
1/2+x,1/2-y,z
loop_
_atom_site_type_symbol
_atom_site_label
_atom_site_fract_x
_atom_site_fract_y
_atom_site_fract_z
Si Si1 0.317350 0.786709 0.629877
Si Si2 0.668181 0.000000 0.476630
Si Si3 0.978730 0.712820 0.279125
Si Si4 0.741715 0.853765 0.808887
Si Si5 0.877290 0.000000 0.569712
Si Si6 0.666693 0.848919 0.962065
O O1 0.158982 0.791970 0.678830
O O2 0.442074 0.846780 0.664665
O O3 0.369041 0.636014 0.611059
O O4 0.295440 0.869853 0.567018
O O5 0.500000 0.000000 0.500000
O O6 0.733678 0.000000 0.541053
O O7 0.892096 0.643364 0.229050
O O8 0.119114 0.778967 0.232581
O O9 0.687533 0.807663 0.884697
O O10 0.794218 0.000000 0.812361
O O11 0.000000 0.000000 0.500000
O O12 0.716293 0.000000 0.964082
O O13 0.500000 0.846204 0.000000
O O14 0.750000 0.750000 0.000000
#
# Coordination Sequence:
#
# PCOD9211042 Si02
#       6
#     8   4   8   8   4   8
#     4  11  24  39  65  90 122 168 207 261 321 377
#     4  12  24  40  60  90 122 156 212 260 314 380
#     4  10  23  39  61  88 123 163 213 257 309 379
#     4  10  22  40  64  90 128 170 212 263 316 371
#     4  12  24  42  64  88 126 164 206 258 324 384
#     4  10  21  39  65  95 131 170 215 261 316 372
#
# _framework density 20.630993
#
# number of rings (size 3 to 8) (size 9 to 14) (size 15 to 20)
#    0.000    1.400    0.000    4.800    8.400    0.400 
#    0.000    1.000    0.000    0.000    0.000    0.000 
#    0.000    0.000    0.000    0.000    0.000    0.000 
#
# Total GULP energy -111437.596006 kJ/mol
# GULP energy per Si atom -5571.879800 kJ/mol
# Density = 2.058404 g / cm^3
# Si number density = 20.630993 Si / 1000 Ang^3
#
#
#
# Elastic Constant Matrix: (Units=GPa)
#
#
# Indices 1 2 3 4 5 6 
#
# 1 125.5393 28.2004 35.5620 0.0000 -0.6721 0.0000
# 2 28.2004 98.3118 42.5897 0.0000 2.3882 0.0000
# 3 35.5620 42.5897 113.7169 0.0000 -2.0248 0.0000
# 4 0.0000 0.0000 0.0000 34.6381 0.0000 8.8378
# 5 -0.6721 2.3882 -2.0248 0.0000 45.5934 0.0000
# 6 0.0000 0.0000 0.0000 8.8378 0.0000 18.1331
#
#
#
# Elastic Compliance Matrix: (Units=1/GPa)
#
#
# Indices 1 2 3 4 5 6 
#
# 1 0.008951 -0.001622 -0.002190 0.000000 0.000120 0.000000
# 2 -0.001622 0.012468 -0.004178 0.000000 -0.000863 0.000000
# 3 -0.002190 -0.004178 0.011055 0.000000 0.000678 0.000000
# 4 0.000000 0.000000 0.000000 0.032970 0.000000 -0.016069
# 5 0.000120 -0.000863 0.000678 0.000000 0.022010 0.000000
# 6 0.000000 0.000000 0.000000 -0.016069 0.000000 0.062980
#
#
# Mechanical properties :
#
#
# Convention : Reuss Voigt Hill
#
# Bulk Modulus (GPa) = 60.62230 61.14138 60.88184
# Shear Modulus (GPa) = 29.08501 35.08731 32.08616
#
# Velocity S-wave (km/s) = 3.75877 4.12844 3.94793
# Velocity P-wave (km/s) = 6.94879 7.24054 7.09616
#
# Compressibility (1/GPa) = 0.01649558
#
# Stress axis : x y z
#
# Youngs Moduli (GPa) = 111.72122 80.20737 90.45531
#
# Poissons Ratio (x) = 0.13009 0.19806
# Poissons Ratio (y) = 0.18120 0.37789
# Poissons Ratio (z) = 0.24462 0.33507
#
# Static dielectric constant tensor:
#      x y z
#    x 1.683170 0.000000 -0.023130 
#    y 0.000000 1.732380 0.000000 
#    z -0.023130 0.000000 1.736450 
# 
# From -- ./inp_files/254661.got.cif
#   From: 2010.05.17/outbox.cif.g08.bks.cpg/sg12_128_cif.got.tgz:254661.got - 2010.06.03 13:09:07.
