data_PCOD9211347
_publ_section_title
;
Structure prediction by ZEFSAII (Michael W. Deem and Ramdas Pophale) SiO2 
 PCOD9211347
Probable space group: C 2/M
;
_chemical_formula_sum "Si O2"
_cell_formula_units_Z 44
_cell_length_a 10.029661
_cell_length_b 22.814941
_cell_length_c 8.451330
_cell_angle_alpha 90.000000
_cell_angle_beta 81.763320
_cell_angle_gamma 90.000000
_cell_volume 1913.936518
_symmetry_space_group_name_H-M "C 2/M"
_symmetry_group_IT_number 12
_symmetry_cell_setting 'monoclinic'
loop_
_space_group_symop_operation_xyz
x,y,z
-x,y,-z
-x,-y,-z
x,-y,z
1/2+x,1/2+y,z
1/2-x,1/2+y,-z
1/2-x,1/2-y,-z
1/2+x,1/2-y,z
loop_
_atom_site_type_symbol
_atom_site_label
_atom_site_fract_x
_atom_site_fract_y
_atom_site_fract_z
Si Si1 0.312838 0.799356 0.705943
Si Si2 0.124671 0.597459 0.086147
Si Si3 0.267765 0.500000 0.859020
Si Si4 0.394182 0.628368 0.374660
Si Si5 0.442440 0.500000 0.331829
Si Si6 0.453386 0.261046 0.186262
Si Si7 0.519360 0.000000 0.681875
O O1 0.245159 0.835325 0.572556
O O2 0.460389 0.773794 0.697982
O O3 0.794817 0.749050 0.234355
O O4 0.000000 0.751576 0.000000
O O5 0.053954 0.555948 0.228346
O O6 0.221295 0.556552 0.966128
O O7 0.194029 0.652166 0.154390
O O8 0.000000 0.617843 0.000000
O O9 0.424817 0.500000 0.798563
O O10 0.174406 0.500000 0.716619
O O11 0.500000 0.626931 0.500000
O O12 0.366834 0.561749 0.326066
O O13 0.462855 0.670141 0.231645
O O14 0.500000 0.500000 0.500000
O O15 0.500000 0.000000 0.500000
#
# Coordination Sequence:
#
# PCOD9211347 Si02
#       7
#     8   8   4   8   4   8   4
#     4  10  22  39  64  91 123 165 211 266 318 370
#     4   9  19  37  61  90 130 164 213 266 313 386
#     4   9  20  36  59  92 123 171 208 261 327 376
#     4   9  23  40  61  91 124 166 208 260 317 376
#     4  10  21  40  61  92 127 164 210 264 313 388
#     4  10  22  40  62  93 120 162 216 259 316 374
#     4   9  19  36  57  92 128 167 214 255 323 388
#
# _framework density 22.989269
#
# number of rings (size 3 to 8) (size 9 to 14) (size 15 to 20)
#    1.091    1.455    0.000    2.182    2.545    5.091 
#    3.273    2.273    0.000    0.000    0.000    0.000 
#    0.000    0.000    0.000    0.000    0.000    0.000 
#
# Total GULP energy -122699.933733 kJ/mol
# GULP energy per Si atom -5577.269715 kJ/mol
# Density = 2.293694 g / cm^3
# Si number density = 22.989269 Si / 1000 Ang^3
#
#
#
# Elastic Constant Matrix: (Units=GPa)
#
#
# Indices 1 2 3 4 5 6 
#
# 1 107.4543 30.5801 14.3472 0.0000 23.2711 0.0000
# 2 30.5801 107.3668 22.1429 0.0000 11.5883 0.0000
# 3 14.3472 22.1429 73.6623 0.0000 18.7538 0.0000
# 4 0.0000 0.0000 0.0000 16.7562 0.0000 19.2410
# 5 23.2711 11.5883 18.7538 0.0000 26.9754 0.0000
# 6 0.0000 0.0000 0.0000 19.2410 0.0000 39.1183
#
#
#
# Elastic Compliance Matrix: (Units=1/GPa)
#
#
# Indices 1 2 3 4 5 6 
#
# 1 0.012067 -0.002558 0.000959 0.000000 -0.009978 0.000000
# 2 -0.002558 0.010631 -0.002548 0.000000 -0.000590 0.000000
# 3 0.000959 -0.002548 0.017116 0.000000 -0.011632 0.000000
# 4 0.000000 0.000000 0.000000 0.137133 0.000000 -0.067451
# 5 -0.009978 -0.000590 -0.011632 0.000000 0.054018 0.000000
# 6 0.000000 0.000000 0.000000 -0.067451 0.000000 0.058740
#
#
# Mechanical properties :
#
#
# Convention : Reuss Voigt Hill
#
# Bulk Modulus (GPa) = 31.72450 46.95821 39.34135
# Shear Modulus (GPa) = 16.20712 31.33086 23.76899
#
# Velocity S-wave (km/s) = 2.65804 3.69568 3.21895
# Velocity P-wave (km/s) = 4.82181 6.21942 5.56467
#
# Compressibility (1/GPa) = 0.03152138
#
# Stress axis : x y z
#
# Youngs Moduli (GPa) = 82.87053 94.06120 58.42516
#
# Poissons Ratio (x) = 0.24058 -0.05602
# Poissons Ratio (y) = 0.21196 0.14884
# Poissons Ratio (z) = -0.07946 0.23962
#
# Static dielectric constant tensor:
#      x y z
#    x 1.897260 0.000000 0.011800 
#    y 0.000000 1.869630 0.000000 
#    z 0.011800 0.000000 1.844120 
# 
# From -- ./inp_files/49316.got.cif
#   From: 2010.05.17/outbox.cif.g08.bks.cpg/sg12_25_cif.got.tgz:49316.got - 2010.06.03 13:09:07.
