data_PCOD9211043
_publ_section_title
;
Structure prediction by ZEFSAII (Michael W. Deem and Ramdas Pophale) SiO2 
 PCOD9211043
Probable space group: C 2/M
;
_chemical_formula_sum "Si O2"
_cell_formula_units_Z 56
_cell_length_a 5.685117
_cell_length_b 29.681863
_cell_length_c 14.973421
_cell_angle_alpha 90.000000
_cell_angle_beta 63.852127
_cell_angle_gamma 90.000000
_cell_volume 2268.105829
_symmetry_space_group_name_H-M "C 2/M"
_symmetry_group_IT_number 12
_symmetry_cell_setting 'monoclinic'
loop_
_space_group_symop_operation_xyz
x,y,z
-x,y,-z
-x,-y,-z
x,-y,z
1/2+x,1/2+y,z
1/2-x,1/2+y,-z
1/2-x,1/2-y,-z
1/2+x,1/2-y,z
loop_
_atom_site_type_symbol
_atom_site_label
_atom_site_fract_x
_atom_site_fract_y
_atom_site_fract_z
Si Si1 0.847514 0.266436 0.385538
Si Si2 0.484476 0.593913 0.258363
Si Si3 0.487036 0.865075 0.896030
Si Si4 0.959697 0.363276 0.403481
Si Si5 0.763329 0.450840 0.850980
Si Si6 0.260404 0.549596 0.633091
Si Si7 0.440211 0.236641 0.114606
O O1 0.750000 0.250000 0.500000
O O2 0.656041 0.245247 0.343498
O O3 0.821736 0.320322 0.383166
O O4 0.742941 0.622345 0.198262
O O5 0.468007 0.558881 0.179581
O O6 0.498407 0.564512 0.345771
O O7 0.233586 0.626014 0.308634
O O8 0.291012 0.905330 0.902537
O O9 0.443920 0.812961 0.881298
O O10 0.500000 0.866431 0.000000
O O11 0.800183 0.409474 0.421969
O O12 0.000000 0.351804 0.500000
O O13 0.745707 0.500000 0.897926
O O14 0.019151 0.451916 0.744052
O O15 0.276873 0.500000 0.591230
O O16 0.620662 0.265739 0.153560
O O17 0.500000 0.248524 0.000000
#
# Coordination Sequence:
#
# PCOD9211043 Si02
#       7
#     8   8   8   8   8   8   8
#     4  10  21  39  65  95 131 173 219 265 334 393
#     4  10  22  39  62  89 128 168 215 263 329 388
#     4  10  22  39  63  92 126 165 215 273 328 391
#     4  11  23  39  65  93 126 167 214 270 324 393
#     4   9  19  38  62  90 126 167 211 264 329 393
#     4   9  20  39  63  90 127 167 213 266 326 389
#     4   9  19  36  61  90 124 167 212 263 327 390
#
# _framework density 24.690204999999999
#
# number of rings (size 3 to 8) (size 9 to 14) (size 15 to 20)
#    0.000    2.286    1.429    0.429    4.000    2.857 
#    0.000    2.857    0.000    0.000    0.000    0.000 
#    0.000    0.000    0.000    0.000    0.000    0.000 
#
# Total GULP energy -156301.310362 kJ/mol
# GULP energy per Si atom -5582.189656 kJ/mol
# Density = 2.463401 g / cm^3
# Si number density = 24.690205 Si / 1000 Ang^3
#
#
#
# Elastic Constant Matrix: (Units=GPa)
#
#
# Indices 1 2 3 4 5 6 
#
# 1 89.0138 27.6996 12.5567 0.0000 4.9156 0.0000
# 2 27.6996 176.0536 6.8470 0.0000 6.8714 0.0000
# 3 12.5567 6.8470 55.3555 0.0000 -12.6731 0.0000
# 4 0.0000 0.0000 0.0000 21.5309 0.0000 3.6145
# 5 4.9156 6.8714 -12.6731 0.0000 39.1559 0.0000
# 6 0.0000 0.0000 0.0000 3.6145 0.0000 -78.1356
#
#
#
# Elastic Compliance Matrix: (Units=1/GPa)
#
#
# Indices 1 2 3 4 5 6 
#
# 1 0.012334 -0.001732 -0.003098 0.000000 -0.002247 0.000000
# 2 -0.001732 0.006016 -0.000586 0.000000 -0.001028 0.000000
# 3 -0.003098 -0.000586 0.020470 0.000000 0.007117 0.000000
# 4 0.000000 0.000000 0.000000 0.046087 0.000000 0.002132
# 5 -0.002247 -0.001028 0.007117 0.000000 0.028305 0.000000
# 6 0.000000 0.000000 0.000000 0.002132 0.000000 -0.012700
#
#
# Mechanical properties :
#
#
# Convention : Reuss Voigt Hill
#
# Bulk Modulus (GPa) = 35.73240 46.06994 40.90117
# Shear Modulus (GPa) = 41.43377 14.73157 28.08267
#
# Velocity S-wave (km/s) = 4.10096 2.44530 3.37620
# Velocity P-wave (km/s) = 6.07681 5.16453 5.63915
#
# Compressibility (1/GPa) = 0.02798581
#
# Stress axis : x y z
#
# Youngs Moduli (GPa) = 81.07378 166.23455 48.85265
#
# Poissons Ratio (x) = 0.28799 0.15135
# Poissons Ratio (y) = 0.14046 0.02865
# Poissons Ratio (z) = 0.25117 0.09749
#
# Static dielectric constant tensor:
#      x y z
#    x 1.080800 0.000000 0.116240 
#    y 0.000000 1.969650 0.000000 
#    z 0.116240 0.000000 1.981460 
# 
# From -- ./inp_files/253584.got.cif
#   From: 2010.05.17/outbox.cif.g08.bks.cpg/sg12_127_cif.got.tgz:253584.got - 2010.06.03 13:09:07.
