data_PCOD9211261
_publ_section_title
;
Structure prediction by ZEFSAII (Michael W. Deem and Ramdas Pophale) SiO2 
 PCOD9211261
Probable space group: C 2/M
;
_chemical_formula_sum "Si O2"
_cell_formula_units_Z 40
_cell_length_a 9.265993
_cell_length_b 31.040631
_cell_length_c 7.302988
_cell_angle_alpha 90.000000
_cell_angle_beta 70.535762
_cell_angle_gamma 90.000000
_cell_volume 1980.457576
_symmetry_space_group_name_H-M "C 2/M"
_symmetry_group_IT_number 12
_symmetry_cell_setting 'monoclinic'
loop_
_space_group_symop_operation_xyz
x,y,z
-x,y,-z
-x,-y,-z
x,-y,z
1/2+x,1/2+y,z
1/2-x,1/2+y,-z
1/2-x,1/2-y,-z
1/2+x,1/2-y,z
loop_
_atom_site_type_symbol
_atom_site_label
_atom_site_fract_x
_atom_site_fract_y
_atom_site_fract_z
Si Si1 0.646628 0.695867 0.205986
Si Si2 0.159031 0.548886 0.543222
Si Si3 0.320084 0.550034 0.111031
Si Si4 0.330373 0.112204 0.122165
Si Si5 0.633807 0.732512 0.828052
O O1 0.711385 0.649695 0.225361
O O2 0.535295 0.706001 0.721813
O O3 0.735898 0.733863 0.274042
O O4 0.689404 0.701550 0.969284
O O5 0.183653 0.500000 0.598719
O O6 0.285630 0.559513 0.337591
O O7 0.154430 0.580889 0.712122
O O8 0.000000 0.550192 0.500000
O O9 0.270118 0.500000 0.099836
O O10 0.500000 0.552729 0.000000
O O11 0.233015 0.583420 0.018302
O O12 0.500000 0.129103 0.000000
O O13 0.500000 0.757695 0.000000
#
# Coordination Sequence:
#
# PCOD9211261 Si02
#       5
#     8   8   8   8   8
#     4   8  16  27  48  82 113 148 199 231 290 351
#     4  10  21  40  59  84 121 158 198 247 295 350
#     4  10  23  41  61  87 120 157 197 245 303 352
#     4  12  22  32  59  92 117 157 203 244 289 356
#     4   7  13  28  46  71 112 152 187 235 287 351
#
# _framework density 20.197353
#
# number of rings (size 3 to 8) (size 9 to 14) (size 15 to 20)
#    1.200    1.200    2.000    1.200    2.800    1.600 
#    0.000    3.000    0.000    0.000    0.000   15.400 
#    0.000    0.000    0.000    0.000    0.000    0.000 
#
# Total GULP energy -111377.131538 kJ/mol
# GULP energy per Si atom -5568.856577 kJ/mol
# Density = 2.015138 g / cm^3
# Si number density = 20.197353 Si / 1000 Ang^3
#
#
#
# Elastic Constant Matrix: (Units=GPa)
#
#
# Indices 1 2 3 4 5 6 
#
# 1 79.2458 32.2685 17.1397 0.0000 6.4577 0.0000
# 2 32.2685 78.4591 26.2241 0.0000 20.2839 0.0000
# 3 17.1397 26.2241 53.9489 0.0000 -7.2397 0.0000
# 4 0.0000 0.0000 0.0000 25.4755 0.0000 10.5807
# 5 6.4577 20.2839 -7.2397 0.0000 26.3872 0.0000
# 6 0.0000 0.0000 0.0000 10.5807 0.0000 25.3619
#
#
#
# Elastic Compliance Matrix: (Units=1/GPa)
#
#
# Indices 1 2 3 4 5 6 
#
# 1 0.015366 -0.005568 -0.002186 0.000000 -0.000080 0.000000
# 2 -0.005568 0.025049 -0.013298 0.000000 -0.021541 0.000000
# 3 -0.002186 -0.013298 0.028175 0.000000 0.018487 0.000000
# 4 0.000000 0.000000 0.000000 0.047480 0.000000 -0.019808
# 5 -0.000080 -0.021541 0.018487 0.000000 0.059548 0.000000
# 6 0.000000 0.000000 0.000000 -0.019808 0.000000 0.047693
#
#
# Mechanical properties :
#
#
# Convention : Reuss Voigt Hill
#
# Bulk Modulus (GPa) = 37.75521 40.32426 39.03974
# Shear Modulus (GPa) = 18.23192 24.51301 21.37246
#
# Velocity S-wave (km/s) = 3.00774 3.48756 3.25650
# Velocity P-wave (km/s) = 5.54939 6.01880 5.78885
#
# Compressibility (1/GPa) = 0.02648641
#
# Stress axis : x y z
#
# Youngs Moduli (GPa) = 65.08048 39.92118 35.49194
#
# Poissons Ratio (x) = 0.22230 0.07757
# Poissons Ratio (y) = 0.36240 0.47197
# Poissons Ratio (z) = 0.14224 0.53087
#
# Static dielectric constant tensor:
#      x y z
#    x 1.764580 0.000000 -0.031620 
#    y 0.000000 1.693840 0.000000 
#    z -0.031620 0.000000 1.755420 
# 
# From -- ./inp_files/8337.got.cif
#   From: 2010.05.17/outbox.cif.g08.bks.cpg/sg12_5_cif.got.tgz:8337.got - 2010.06.03 13:09:07.
