data_PCOD9211556
_publ_section_title
;
Structure prediction by ZEFSAII (Michael W. Deem and Ramdas Pophale) SiO2 
 PCOD9211556
Probable space group: C 2/M
;
_chemical_formula_sum "Si O2"
_cell_formula_units_Z 48
_cell_length_a 8.428080
_cell_length_b 20.826629
_cell_length_c 17.635921
_cell_angle_alpha 90.000000
_cell_angle_beta 49.864749
_cell_angle_gamma 90.000000
_cell_volume 2366.668576
_symmetry_space_group_name_H-M "C 2/M"
_symmetry_group_IT_number 12
_symmetry_cell_setting 'monoclinic'
loop_
_space_group_symop_operation_xyz
x,y,z
-x,y,-z
-x,-y,-z
x,-y,z
1/2+x,1/2+y,z
1/2-x,1/2+y,-z
1/2-x,1/2-y,-z
1/2+x,1/2-y,z
loop_
_atom_site_type_symbol
_atom_site_label
_atom_site_fract_x
_atom_site_fract_y
_atom_site_fract_z
Si Si1 0.436270 0.428967 0.607198
Si Si2 0.687318 0.654846 0.897054
Si Si3 0.450961 0.794081 0.101882
Si Si4 0.437366 0.811910 0.606669
Si Si5 0.003355 0.189337 0.308840
Si Si6 0.474480 0.925944 0.700178
O O1 0.500000 0.423401 0.500000
O O2 0.499568 0.500000 0.614544
O O3 0.525554 0.371474 0.627994
O O4 0.186689 0.424593 0.683164
O O5 0.576641 0.716909 0.893615
O O6 0.796959 0.607988 0.804227
O O7 0.867657 0.682913 0.897299
O O8 0.500000 0.621652 0.000000
O O9 0.226193 0.816614 0.200561
O O10 0.500000 0.814499 0.000000
O O11 0.500000 0.802657 0.500000
O O12 0.512974 0.754191 0.636550
O O13 0.509193 0.880069 0.617240
O O14 0.188601 0.809139 0.688191
O O15 0.431260 0.000000 0.694244
#
# Coordination Sequence:
#
# PCOD9211556 Si02
#       6
#     8   8   8   8   8   8
#     4  10  21  40  64  88 121 165 206 248 304 371
#     4  11  22  39  65  91 125 158 204 255 313 371
#     4  11  22  37  64  97 120 157 201 253 314 365
#     4  12  25  39  62  94 126 162 206 259 308 368
#     4  12  22  39  65  90 127 157 203 258 315 360
#     4  11  24  42  62  89 125 168 210 253 311 372
#
# _framework density 20.281672
#
# number of rings (size 3 to 8) (size 9 to 14) (size 15 to 20)
#    0.000    0.833    3.333    6.000    2.333    1.333 
#    0.000    0.000    0.000    1.000    0.000    0.000 
#    0.000    0.000    0.000    0.000    0.000    0.000 
#
# Total GULP energy -134197.937056 kJ/mol
# GULP energy per Si atom -5591.580711 kJ/mol
# Density = 2.023551 g / cm^3
# Si number density = 20.281672 Si / 1000 Ang^3
#
#
#
# Elastic Constant Matrix: (Units=GPa)
#
#
# Indices 1 2 3 4 5 6 
#
# 1 64.2852 32.5983 2.6856 0.0000 -2.1393 0.0000
# 2 32.5983 131.2520 21.1237 0.0000 17.3209 0.0000
# 3 2.6856 21.1237 104.0605 0.0000 -4.0230 0.0000
# 4 0.0000 0.0000 0.0000 11.5873 0.0000 15.2675
# 5 -2.1393 17.3209 -4.0230 0.0000 34.4448 0.0000
# 6 0.0000 0.0000 0.0000 15.2675 0.0000 12.6855
#
#
#
# Elastic Compliance Matrix: (Units=1/GPa)
#
#
# Indices 1 2 3 4 5 6 
#
# 1 0.018267 -0.005156 0.000723 0.000000 0.003812 0.000000
# 2 -0.005156 0.009975 -0.002108 0.000000 -0.005583 0.000000
# 3 0.000723 -0.002108 0.010107 0.000000 0.002285 0.000000
# 4 0.000000 0.000000 0.000000 -0.147323 0.000000 0.177309
# 5 0.003812 -0.005583 0.002285 0.000000 0.032343 0.000000
# 6 0.000000 0.000000 0.000000 0.177309 0.000000 -0.134569
#
#
# Mechanical properties :
#
#
# Convention : Reuss Voigt Hill
#
# Bulk Modulus (GPa) = 39.57698 45.82366 42.70032
# Shear Modulus (GPa) = -26.35823 27.95618 0.79898
#
# Velocity S-wave (km/s) = -3.60892 3.71670 0.62833
# Velocity P-wave (km/s) = 1.47997 6.40790 4.65035
#
# Compressibility (1/GPa) = 0.02526722
#
# Stress axis : x y z
#
# Youngs Moduli (GPa) = 54.74351 100.24572 98.93792
#
# Poissons Ratio (x) = 0.51689 -0.07149
# Poissons Ratio (y) = 0.28227 0.20853
# Poissons Ratio (z) = -0.03956 0.21129
#
# Static dielectric constant tensor:
#      x y z
#    x 1.711130 0.000000 -0.011700 
#    y 0.000000 1.695510 0.000000 
#    z -0.011700 0.000000 1.786930 
# 
# From -- ./inp_files/257904.got.cif
#   From: 2010.05.17/outbox.cif.g08.bks.cpg/sg12_129_cif.got.tgz:257904.got - 2010.06.03 13:09:07.
