data_PCOD9211400
_publ_section_title
;
Structure prediction by ZEFSAII (Michael W. Deem and Ramdas Pophale) SiO2 
 PCOD9211400
Probable space group: C 2/M
;
_chemical_formula_sum "Si O2"
_cell_formula_units_Z 64
_cell_length_a 14.021947
_cell_length_b 15.418300
_cell_length_c 17.825328
_cell_angle_alpha 90.000000
_cell_angle_beta 55.313981
_cell_angle_gamma 90.000000
_cell_volume 3168.864119
_symmetry_space_group_name_H-M "C 2/M"
_symmetry_group_IT_number 12
_symmetry_cell_setting 'monoclinic'
loop_
_space_group_symop_operation_xyz
x,y,z
-x,y,-z
-x,-y,-z
x,-y,z
1/2+x,1/2+y,z
1/2-x,1/2+y,-z
1/2-x,1/2-y,-z
1/2+x,1/2-y,z
loop_
_atom_site_type_symbol
_atom_site_label
_atom_site_fract_x
_atom_site_fract_y
_atom_site_fract_z
Si Si1 0.074384 0.225873 0.393431
Si Si2 0.485784 0.899883 0.665023
Si Si3 0.948564 0.155833 0.184208
Si Si4 0.234776 0.094609 0.844230
Si Si5 0.154067 0.672329 0.712579
Si Si6 0.576279 0.593858 0.264713
Si Si7 0.641698 0.742156 0.992802
Si Si8 0.149050 0.599647 0.879446
O O1 0.047059 0.325711 0.381260
O O2 0.208042 0.194911 0.348527
O O3 0.037573 0.168454 0.338436
O O4 0.000000 0.206567 0.500000
O O5 0.371297 0.897927 0.769161
O O6 0.597868 0.875316 0.665839
O O7 0.496402 0.000000 0.632814
O O8 0.839661 0.106074 0.197997
O O9 0.904431 0.234760 0.253913
O O10 0.018362 0.097268 0.209854
O O11 0.032547 0.199439 0.084252
O O12 0.187755 0.172944 0.913098
O O13 0.209597 0.000000 0.888876
O O14 0.117574 0.624906 0.807429
O O15 0.557714 0.500000 0.309173
O O16 0.711756 0.604994 0.187501
O O17 0.618229 0.831939 0.958968
O O18 0.750000 0.750000 0.000000
O O19 0.116447 0.500000 0.909645
#
# Coordination Sequence:
#
# PCOD9211400 Si02
#       8
#     8   8   8   8   8   8   8   8
#     4  11  24  44  73 101 134 167 211 271 337 405
#     4  11  23  44  70  99 136 179 220 269 331 397
#     4  12  21  38  66  88 128 175 219 268 328 381
#     4  11  24  41  62  92 129 174 224 274 323 382
#     4  11  22  42  70  94 127 177 218 265 328 398
#     4  10  21  40  66  94 127 167 214 269 332 394
#     4  12  23  37  59  90 131 170 222 277 321 378
#     4  10  21  40  62  89 127 172 218 269 322 380
#
# _framework density 20.196511000000001
#
# number of rings (size 3 to 8) (size 9 to 14) (size 15 to 20)
#    0.000    1.000    5.000    2.625    0.000    3.500 
#    0.000    1.875    0.000    0.000    0.000    0.000 
#    0.000    0.000    0.000    0.000    0.000    0.000 
#
# Total GULP energy -178522.179203 kJ/mol
# GULP energy per Si atom -5578.818100 kJ/mol
# Density = 2.015054 g / cm^3
# Si number density = 20.196511 Si / 1000 Ang^3
#
#
#
# Elastic Constant Matrix: (Units=GPa)
#
#
# Indices 1 2 3 4 5 6 
#
# 1 120.1777 34.4288 25.0496 0.0000 2.7173 0.0000
# 2 34.4288 135.9180 38.3446 0.0000 1.4969 0.0000
# 3 25.0496 38.3446 73.4376 0.0000 1.7778 0.0000
# 4 0.0000 0.0000 0.0000 42.4306 0.0000 -30.0825
# 5 2.7173 1.4969 1.7778 0.0000 10.4266 0.0000
# 6 0.0000 0.0000 0.0000 -30.0825 0.0000 26.9643
#
#
#
# Elastic Compliance Matrix: (Units=1/GPa)
#
#
# Indices 1 2 3 4 5 6 
#
# 1 0.009319 -0.001708 -0.002243 0.000000 -0.001801 0.000000
# 2 -0.001708 0.008944 -0.004084 0.000000 -0.000143 0.000000
# 3 -0.002243 -0.004084 0.016555 0.000000 -0.001652 0.000000
# 4 0.000000 0.000000 0.000000 0.112749 0.000000 0.125787
# 5 -0.001801 -0.000143 -0.001652 0.000000 0.096680 0.000000
# 6 0.000000 0.000000 0.000000 0.125787 0.000000 0.177420
#
#
# Mechanical properties :
#
#
# Convention : Reuss Voigt Hill
#
# Bulk Modulus (GPa) = 53.34205 58.35326 55.84765
# Shear Modulus (GPa) = 11.26166 31.41164 21.33665
#
# Velocity S-wave (km/s) = 2.36393 3.94801 3.25384
# Velocity P-wave (km/s) = 5.82406 7.05250 6.46752
#
# Compressibility (1/GPa) = 0.01874694
#
# Stress axis : x y z
#
# Youngs Moduli (GPa) = 107.31271 111.81115 60.40643
#
# Poissons Ratio (x) = 0.19094 0.13551
# Poissons Ratio (y) = 0.18326 0.24669
# Poissons Ratio (z) = 0.24073 0.45662
#
# Static dielectric constant tensor:
#      x y z
#    x 1.829130 0.000000 0.042930 
#    y 0.000000 1.760460 0.000000 
#    z 0.042930 0.000000 1.710070 
# 
# From -- ./inp_files/270641.got.cif
#   From: 2010.05.17/outbox.cif.g08.bks.cpg/sg12_136_cif.got.tgz:270641.got - 2010.06.03 13:09:07.
