data_PCOD9211067
_publ_section_title
;
Structure prediction by ZEFSAII (Michael W. Deem and Ramdas Pophale) SiO2 
 PCOD9211067
Probable space group: C 2/M
;
_chemical_formula_sum "Si O2"
_cell_formula_units_Z 64
_cell_length_a 20.381703
_cell_length_b 20.551454
_cell_length_c 8.269271
_cell_angle_alpha 90.000000
_cell_angle_beta 121.763595
_cell_angle_gamma 90.000000
_cell_volume 2945.000102
_symmetry_space_group_name_H-M "C 2/M"
_symmetry_group_IT_number 12
_symmetry_cell_setting 'monoclinic'
loop_
_space_group_symop_operation_xyz
x,y,z
-x,y,-z
-x,-y,-z
x,-y,z
1/2+x,1/2+y,z
1/2-x,1/2+y,-z
1/2-x,1/2-y,-z
1/2+x,1/2-y,z
loop_
_atom_site_type_symbol
_atom_site_label
_atom_site_fract_x
_atom_site_fract_y
_atom_site_fract_z
Si Si1 0.108207 0.861443 0.889379
Si Si2 0.116575 0.864121 0.548040
Si Si3 0.000662 0.749086 0.318672
Si Si4 0.877201 0.574327 0.166942
Si Si5 0.028068 0.383965 0.208908
Si Si6 0.641761 0.424118 0.248933
Si Si7 0.184100 0.423991 0.547409
Si Si8 0.753920 0.323835 0.934915
O O1 0.085390 0.890176 0.682444
O O2 0.076017 0.788363 0.829374
O O3 0.200522 0.862817 0.993690
O O4 0.091205 0.890775 0.041562
O O5 0.115808 0.913474 0.399321
O O6 0.200606 0.834397 0.706290
O O7 0.065123 0.804497 0.418706
O O8 0.016967 0.692824 0.216310
O O9 0.000000 0.720323 0.500000
O O10 0.855119 0.500000 0.087016
O O11 0.968408 0.583064 0.257131
O O12 0.851383 0.581538 0.319047
O O13 0.832848 0.635339 0.024072
O O14 0.117762 0.396277 0.348770
O O15 0.000000 0.407635 0.000000
O O16 0.643004 0.500000 0.209197
O O17 0.729777 0.397230 0.360487
O O18 0.190783 0.500000 0.517798
O O19 0.750000 0.250000 0.000000
#
# Coordination Sequence:
#
# PCOD9211067 Si02
#       8
#     8   8   8   8   8   8   8   8
#     4   9  21  40  65  91 126 168 215 265 326 385
#     4   9  23  39  64  96 126 171 212 273 331 386
#     4  10  21  44  67  87 129 173 211 267 325 388
#     4  11  23  42  67  90 127 178 217 264 327 389
#     4  12  27  38  59  97 125 171 212 266 327 388
#     4  11  23  42  68  96 129 171 217 271 332 393
#     4  10  22  42  63  88 122 167 216 260 315 390
#     4  10  21  39  65  98 127 168 224 274 322 385
#
# _framework density 21.731749000000001
#
# number of rings (size 3 to 8) (size 9 to 14) (size 15 to 20)
#    0.750    1.000    1.250    2.250    5.250    3.000 
#    0.000    2.500    0.000    2.250    0.000    0.000 
#    0.000    0.000    0.000    0.000    0.000    0.000 
#
# Total GULP energy -178168.159320 kJ/mol
# GULP energy per Si atom -5567.754979 kJ/mol
# Density = 2.168229 g / cm^3
# Si number density = 21.731749 Si / 1000 Ang^3
#
#
#
# Elastic Constant Matrix: (Units=GPa)
#
#
# Indices 1 2 3 4 5 6 
#
# 1 28.1553 10.2319 30.2943 0.0000 -6.0712 0.0000
# 2 10.2319 43.4255 39.3674 0.0000 -4.9283 0.0000
# 3 30.2943 39.3674 99.9830 0.0000 -8.7704 0.0000
# 4 0.0000 0.0000 0.0000 17.1254 0.0000 4.8603
# 5 -6.0712 -4.9283 -8.7704 0.0000 25.0197 0.0000
# 6 0.0000 0.0000 0.0000 4.8603 0.0000 11.3033
#
#
#
# Elastic Compliance Matrix: (Units=1/GPa)
#
#
# Indices 1 2 3 4 5 6 
#
# 1 0.054450 0.003724 -0.017272 0.000000 0.007892 0.000000
# 2 0.003724 0.036180 -0.015135 0.000000 0.002725 0.000000
# 3 -0.017272 -0.015135 0.021218 0.000000 0.000265 0.000000
# 4 0.000000 0.000000 0.000000 0.066509 0.000000 -0.028599
# 5 0.007892 0.002725 0.000265 0.000000 0.042513 0.000000
# 6 0.000000 0.000000 0.000000 -0.028599 0.000000 0.100767
#
#
# Mechanical properties :
#
#
# Convention : Reuss Voigt Hill
#
# Bulk Modulus (GPa) = 18.35470 36.81677 27.58574
# Shear Modulus (GPa) = 12.58925 16.80103 14.69514
#
# Velocity S-wave (km/s) = 2.40948 2.78350 2.60322
# Velocity P-wave (km/s) = 4.02556 5.22578 4.66444
#
# Compressibility (1/GPa) = 0.05448195
#
# Stress axis : x y z
#
# Youngs Moduli (GPa) = 18.36552 27.63925 47.13054
#
# Poissons Ratio (x) = -0.10294 0.81405
# Poissons Ratio (y) = -0.06840 0.71333
# Poissons Ratio (z) = 0.31721 0.41832
#
# Static dielectric constant tensor:
#      x y z
#    x 1.853240 0.000000 0.000120 
#    y 0.000000 1.762990 0.000000 
#    z 0.000120 0.000000 1.831400 
# 
# From -- ./inp_files/99143.got.cif
#   From: 2010.05.17/outbox.cif.g08.bks.cpg/sg12_50_cif.got.tgz:99143.got - 2010.06.03 13:09:07.
