data_PCOD9211115
_publ_section_title
;
Structure prediction by ZEFSAII (Michael W. Deem and Ramdas Pophale) SiO2 
 PCOD9211115
Probable space group: C 2/M
;
_chemical_formula_sum "Si O2"
_cell_formula_units_Z 56
_cell_length_a 12.318535
_cell_length_b 14.255441
_cell_length_c 16.223022
_cell_angle_alpha 90.000000
_cell_angle_beta 64.983692
_cell_angle_gamma 90.000000
_cell_volume 2581.603401
_symmetry_space_group_name_H-M "C 2/M"
_symmetry_group_IT_number 12
_symmetry_cell_setting 'monoclinic'
loop_
_space_group_symop_operation_xyz
x,y,z
-x,y,-z
-x,-y,-z
x,-y,z
1/2+x,1/2+y,z
1/2-x,1/2+y,-z
1/2-x,1/2-y,-z
1/2+x,1/2-y,z
loop_
_atom_site_type_symbol
_atom_site_label
_atom_site_fract_x
_atom_site_fract_y
_atom_site_fract_z
Si Si1 0.659258 0.888914 0.042268
Si Si2 0.568120 0.702328 0.313840
Si Si3 0.773266 0.398640 0.339486
Si Si4 0.307805 0.650414 0.458971
Si Si5 0.039175 0.278733 0.798337
Si Si6 0.864258 0.217510 0.070199
Si Si7 0.606018 0.104292 0.397797
O O1 0.538220 0.855444 0.127772
O O2 0.769400 0.855994 0.065066
O O3 0.660032 0.000000 0.025353
O O4 0.664041 0.819301 0.961685
O O5 0.673837 0.635059 0.307612
O O6 0.445764 0.662510 0.392348
O O7 0.550554 0.711122 0.221577
O O8 0.594862 0.806035 0.342444
O O9 0.821479 0.500000 0.302128
O O10 0.714790 0.401748 0.448105
O O11 0.880669 0.325418 0.298001
O O12 0.250000 0.750000 0.500000
O O13 0.229957 0.610437 0.408791
O O14 0.126130 0.227845 0.834864
O O15 0.000000 0.192510 0.000000
O O16 0.500000 0.112242 0.500000
O O17 0.594840 0.000000 0.362877
#
# Coordination Sequence:
#
# PCOD9211115 Si02
#       7
#     8   8   8   8   8   8   8
#     4  10  21  39  66  95 124 159 199 242 292 354
#     4  12  23  40  59  81 118 157 199 251 306 357
#     4  12  25  39  60  88 118 158 208 258 308 360
#     4  12  21  39  59  81 112 154 200 254 309 357
#     4  11  22  40  61  87 125 162 199 248 299 359
#     4   9  21  41  64  94 127 160 197 239 295 358
#     4  11  21  35  55  79 104 140 189 242 296 354
#
# _framework density 21.691943999999999
#
# number of rings (size 3 to 8) (size 9 to 14) (size 15 to 20)
#    0.000    1.000    4.286    2.143    0.000    7.429 
#    0.000    0.714    0.000    0.000    0.000    0.000 
#    0.000    0.000    0.000    0.000    0.000    0.000 
#
# Total GULP energy -156550.238904 kJ/mol
# GULP energy per Si atom -5591.079961 kJ/mol
# Density = 2.164257 g / cm^3
# Si number density = 21.691944 Si / 1000 Ang^3
#
#
#
# Elastic Constant Matrix: (Units=GPa)
#
#
# Indices 1 2 3 4 5 6 
#
# 1 107.4981 -0.0826 5.1606 0.0000 17.3076 0.0000
# 2 -0.0826 42.5097 1.8868 0.0000 10.5909 0.0000
# 3 5.1606 1.8868 49.4705 0.0000 10.8428 0.0000
# 4 0.0000 0.0000 0.0000 0.6054 0.0000 -23.6101
# 5 17.3076 10.5909 10.8428 0.0000 44.4158 0.0000
# 6 0.0000 0.0000 0.0000 -23.6101 0.0000 -9.8331
#
#
#
# Elastic Compliance Matrix: (Units=1/GPa)
#
#
# Indices 1 2 3 4 5 6 
#
# 1 0.009971 0.001047 -0.000184 0.000000 -0.004090 0.000000
# 2 0.001047 0.025126 0.000354 0.000000 -0.006486 0.000000
# 3 -0.000184 0.000354 0.021366 0.000000 -0.005229 0.000000
# 4 0.000000 0.000000 0.000000 0.017453 0.000000 -0.041907
# 5 -0.004090 -0.006486 -0.005229 0.000000 0.026931 0.000000
# 6 0.000000 0.000000 0.000000 -0.041907 0.000000 -0.001075
#
#
# Mechanical properties :
#
#
# Convention : Reuss Voigt Hill
#
# Bulk Modulus (GPa) = 16.97898 23.71198 20.34548
# Shear Modulus (GPa) = 42.74567 19.87184 31.30876
#
# Velocity S-wave (km/s) = 4.44394 3.02999 3.80325
# Velocity P-wave (km/s) = 5.84600 4.81623 5.35592
#
# Compressibility (1/GPa) = 0.05889636
#
# Stress axis : x y z
#
# Youngs Moduli (GPa) = 100.29467 39.79909 46.80397
#
# Poissons Ratio (x) = -0.04165 0.00859
# Poissons Ratio (y) = -0.10496 -0.01657
# Poissons Ratio (z) = 0.01841 -0.01409
#
# Static dielectric constant tensor:
#      x y z
#    x 1.796960 0.000000 0.011660 
#    y 0.000000 1.778010 0.000000 
#    z 0.011660 0.000000 1.822560 
# 
# From -- ./inp_files/263244.got.cif
#   From: 2010.05.17/outbox.cif.g08.bks.cpg/sg12_132_cif.got.tgz:263244.got - 2010.06.03 13:09:07.
