data_PCOD9211755
_publ_section_title
;
Structure prediction by ZEFSAII (Michael W. Deem and Ramdas Pophale) SiO2 
 PCOD9211755
Probable space group: C 2/M
;
_chemical_formula_sum "Si O2"
_cell_formula_units_Z 60
_cell_length_a 27.261885
_cell_length_b 17.292234
_cell_length_c 17.488226
_cell_angle_alpha 90.000000
_cell_angle_beta 21.407603
_cell_angle_gamma 90.000000
_cell_volume 3009.164981
_symmetry_space_group_name_H-M "C 2/M"
_symmetry_group_IT_number 12
_symmetry_cell_setting 'monoclinic'
loop_
_space_group_symop_operation_xyz
x,y,z
-x,y,-z
-x,-y,-z
x,-y,z
1/2+x,1/2+y,z
1/2-x,1/2+y,-z
1/2-x,1/2-y,-z
1/2+x,1/2-y,z
loop_
_atom_site_type_symbol
_atom_site_label
_atom_site_fract_x
_atom_site_fract_y
_atom_site_fract_z
Si Si1 0.369024 0.850225 0.016812
Si Si2 0.636202 0.590407 0.257450
Si Si3 0.025341 0.883471 0.652421
Si Si4 0.880340 0.227373 0.126693
Si Si5 0.588623 0.909811 0.445017
Si Si6 0.593779 0.585560 0.011626
Si Si7 0.259656 0.000000 0.248975
Si Si8 0.910805 0.704417 0.414969
O O1 0.258315 0.859517 0.110375
O O2 0.332148 0.782410 0.128508
O O3 0.362239 0.931107 0.070767
O O4 0.507517 0.826015 0.776158
O O5 0.500000 0.612046 0.500000
O O6 0.663997 0.500000 0.240059
O O7 0.599576 0.597030 0.222293
O O8 0.047034 0.791421 0.623560
O O9 0.150173 0.932094 0.437149
O O10 0.991568 0.907395 0.787556
O O11 0.939412 0.151163 0.000974
O O12 0.749402 0.206278 0.365212
O O13 0.000000 0.266050 0.000000
O O14 0.500000 0.889417 0.500000
O O15 0.748146 0.904068 0.197048
O O16 0.560875 0.853702 0.556030
O O17 0.559763 0.000000 0.506123
O O18 0.577971 0.500000 0.001839
#
# Coordination Sequence:
#
# PCOD9211755 Si02
#       8
#     8   8   8   8   8   8   4   8
#     4  12  24  41  66 100 137 176 225 276 334 396
#     4  11  19  35  60  95 140 187 220 256 318 400
#     4  12  21  38  67  99 138 184 222 260 322 402
#     4  11  25  48  71  92 126 173 228 290 351 403
#     4   9  21  40  59  90 136 179 216 266 327 397
#     4  10  21  40  65  94 126 169 228 272 319 402
#     4  12  22  43  69  98 144 182 219 278 327 399
#     4  11  25  41  65  98 135 175 223 286 340 396
#
# _framework density 19.939086
#
# number of rings (size 3 to 8) (size 9 to 14) (size 15 to 20)
#    0.000    1.067    6.000    0.000    2.800    4.000 
#    0.000    0.333    0.000    0.000    0.000    0.000 
#    0.000    0.000    0.000    0.000    0.000    0.000 
#
# Total GULP energy -167061.152735 kJ/mol
# GULP energy per Si atom -5568.705091 kJ/mol
# Density = 1.989370 g / cm^3
# Si number density = 19.939086 Si / 1000 Ang^3
#
#
#
# Elastic Constant Matrix: (Units=GPa)
#
#
# Indices 1 2 3 4 5 6 
#
# 1 21.5221 9.1595 18.1139 -0.0001 -4.8218 0.0001
# 2 9.1595 118.5765 39.5015 0.0000 10.7792 0.0001
# 3 18.1139 39.5015 110.8028 0.0000 15.6962 0.0001
# 4 -0.0001 0.0000 0.0000 33.5248 0.0000 3.5902
# 5 -4.8218 10.7792 15.6962 0.0000 17.3219 -0.0001
# 6 0.0001 0.0001 0.0001 3.5902 -0.0001 -9.2926
#
#
#
# Elastic Compliance Matrix: (Units=1/GPa)
#
#
# Indices 1 2 3 4 5 6 
#
# 1 0.068125 -0.003474 -0.014790 0.000000 0.034527 0.000000
# 2 -0.003474 0.009913 -0.002243 0.000000 -0.005103 0.000000
# 3 -0.014790 -0.002243 0.014488 0.000000 -0.015849 0.000000
# 4 0.000000 0.000000 0.000000 0.028644 0.000000 0.011066
# 5 0.034527 -0.005103 -0.015849 0.000000 0.084879 -0.000001
# 6 0.000000 0.000000 0.000000 0.011066 -0.000001 -0.103336
#
#
# Mechanical properties :
#
#
# Convention : Reuss Voigt Hill
#
# Bulk Modulus (GPa) = 19.41289 42.71677 31.06483
# Shear Modulus (GPa) = 31.07591 20.58590 25.83091
#
# Velocity S-wave (km/s) = 3.95212 3.21665 3.60320
# Velocity P-wave (km/s) = 5.53018 5.93851 5.73798
#
# Compressibility (1/GPa) = 0.05151217
#
# Stress axis : x y z
#
# Youngs Moduli (GPa) = 14.67882 100.87871 69.02428
#
# Poissons Ratio (x) = 0.35047 1.02084
# Poissons Ratio (y) = 0.05100 0.15483
# Poissons Ratio (z) = 0.21709 0.22628
#
# Static dielectric constant tensor:
#      x y z
#    x 1.770360 0.000000 0.002430 
#    y 0.000000 1.704880 0.000000 
#    z 0.002430 0.000000 1.709890 
# 
# From -- ./inp_files/296996.got.cif
#   From: 2010.05.17/outbox.cif.g08.bks.cpg/sg12_149_cif.got.tgz:296996.got - 2010.06.03 13:09:07.
