data_PCOD9211112
_publ_section_title
;
Structure prediction by ZEFSAII (Michael W. Deem and Ramdas Pophale) SiO2 
 PCOD9211112
Probable space group: C 2/M
;
_chemical_formula_sum "Si O2"
_cell_formula_units_Z 58
_cell_length_a 14.307417
_cell_length_b 21.846141
_cell_length_c 7.509458
_cell_angle_alpha 90.000000
_cell_angle_beta 88.894053
_cell_angle_gamma 90.000000
_cell_volume 2346.732834
_symmetry_space_group_name_H-M "C 2/M"
_symmetry_group_IT_number 12
_symmetry_cell_setting 'monoclinic'
loop_
_space_group_symop_operation_xyz
x,y,z
-x,y,-z
-x,-y,-z
x,-y,z
1/2+x,1/2+y,z
1/2-x,1/2+y,-z
1/2-x,1/2-y,-z
1/2+x,1/2-y,z
loop_
_atom_site_type_symbol
_atom_site_label
_atom_site_fract_x
_atom_site_fract_y
_atom_site_fract_z
Si Si1 0.072320 0.890723 0.871334
Si Si2 0.338926 0.907754 0.364166
Si Si3 0.271332 0.781076 0.255895
Si Si4 0.442481 0.311389 0.664201
Si Si5 0.866221 0.064909 0.506978
Si Si6 0.893571 0.569955 0.961278
Si Si7 0.000000 0.500000 0.500000
Si Si8 0.742235 0.162774 0.114185
O O1 0.107848 0.927127 0.699531
O O2 0.167907 0.872584 0.964527
O O3 0.017062 0.828738 0.812640
O O4 0.000000 0.924330 0.000000
O O5 0.327309 0.832741 0.364298
O O6 0.243789 0.929803 0.458013
O O7 0.341628 0.926045 0.153378
O O8 0.425064 0.945410 0.440801
O O9 0.158369 0.783927 0.286613
O O10 0.283379 0.707664 0.264511
O O11 0.297232 0.799116 0.051403
O O12 0.500000 0.280707 0.500000
O O13 0.413608 0.379080 0.602069
O O14 0.898852 0.000000 0.576402
O O15 0.896883 0.500000 0.892409
O O16 0.838430 0.615186 0.832810
O O17 0.000000 0.588453 0.000000
#
# Coordination Sequence:
#
# PCOD9211112 Si02
#       8
#     8   8   8   8   8   8   2   8
#     4  11  22  38  60  96 127 165 222 293 335 407
#     4  10  21  40  65  95 135 180 227 283 347 421
#     4   9  19  41  64  91 128 175 224 273 349 422
#     4   9  19  37  63  85 125 171 219 273 343 412
#     4  10  21  40  63  86 127 183 214 264 348 417
#     4  10  21  41  66  99 138 179 226 291 352 424
#     4  12  20  36  74 100 136 186 238 284 342 432
#     4  10  21  39  66  94 132 174 219 287 353 412
#
# _framework density 24.715212000000001
#
# number of rings (size 3 to 8) (size 9 to 14) (size 15 to 20)
#    0.000    2.069    2.759    0.000    0.000    4.414 
#    7.448    6.207    4.552    0.000    0.000    0.000 
#    0.000    0.000    0.000    0.000    0.000    0.000 
#
# Total GULP energy -161649.501446 kJ/mol
# GULP energy per Si atom -5574.120740 kJ/mol
# Density = 2.465896 g / cm^3
# Si number density = 24.715212 Si / 1000 Ang^3
#
#
#
# Elastic Constant Matrix: (Units=GPa)
#
#
# Indices 1 2 3 4 5 6 
#
# 1 148.2304 68.4514 18.7140 0.0000 8.5480 0.0000
# 2 68.4514 120.2327 10.7271 0.0000 1.7237 0.0000
# 3 18.7140 10.7271 69.6884 0.0000 -13.7529 0.0000
# 4 0.0000 0.0000 0.0000 18.7730 0.0000 7.9955
# 5 8.5480 1.7237 -13.7529 0.0000 29.9174 0.0000
# 6 0.0000 0.0000 0.0000 7.9955 0.0000 33.1217
#
#
#
# Elastic Compliance Matrix: (Units=1/GPa)
#
#
# Indices 1 2 3 4 5 6 
#
# 1 0.009693 -0.005243 -0.002511 0.000000 -0.003622 0.000000
# 2 -0.005243 0.011307 -0.000182 0.000000 0.000763 0.000000
# 3 -0.002511 -0.000182 0.016712 0.000000 0.008410 0.000000
# 4 0.000000 0.000000 0.000000 0.059372 0.000000 -0.014332
# 5 -0.003622 0.000763 0.008410 0.000000 0.038282 0.000000
# 6 0.000000 0.000000 0.000000 -0.014332 0.000000 0.033651
#
#
# Mechanical properties :
#
#
# Convention : Reuss Voigt Hill
#
# Bulk Modulus (GPa) = 45.78540 59.32627 52.55584
# Shear Modulus (GPa) = 26.01876 32.37968 29.19922
#
# Velocity S-wave (km/s) = 3.24812 3.62347 3.44092
# Velocity P-wave (km/s) = 5.71248 6.44687 6.09075
#
# Compressibility (1/GPa) = 0.02184102
#
# Stress axis : x y z
#
# Youngs Moduli (GPa) = 103.16669 88.43885 59.83872
#
# Poissons Ratio (x) = 0.46365 0.15024
# Poissons Ratio (y) = 0.54086 0.01090
# Poissons Ratio (z) = 0.25902 0.01611
#
# Static dielectric constant tensor:
#      x y z
#    x 1.958080 0.000000 -0.011770 
#    y 0.000000 1.989620 0.000000 
#    z -0.011770 0.000000 2.039130 
# 
# From -- ./inp_files/65365.got.cif
#   From: 2010.05.17/outbox.cif.g08.bks.cpg/sg12_33_cif.got.tgz:65365.got - 2010.06.03 13:09:07.
