data_PCOD9211709
_publ_section_title
;
Structure prediction by ZEFSAII (Michael W. Deem and Ramdas Pophale) SiO2 
 PCOD9211709
Probable space group: C 2/M
;
_chemical_formula_sum "Si O2"
_cell_formula_units_Z 56
_cell_length_a 9.286876
_cell_length_b 18.032979
_cell_length_c 17.518436
_cell_angle_alpha 90.000000
_cell_angle_beta 107.147065
_cell_angle_gamma 90.000000
_cell_volume 2803.408572
_symmetry_space_group_name_H-M "C 2/M"
_symmetry_group_IT_number 12
_symmetry_cell_setting 'monoclinic'
loop_
_space_group_symop_operation_xyz
x,y,z
-x,y,-z
-x,-y,-z
x,-y,z
1/2+x,1/2+y,z
1/2-x,1/2+y,-z
1/2-x,1/2-y,-z
1/2+x,1/2-y,z
loop_
_atom_site_type_symbol
_atom_site_label
_atom_site_fract_x
_atom_site_fract_y
_atom_site_fract_z
Si Si1 0.171724 0.307840 0.046628
Si Si2 0.977600 0.191875 0.690880
Si Si3 0.541469 0.910977 0.308148
Si Si4 0.679218 0.806097 0.219022
Si Si5 0.604283 0.204462 0.447497
Si Si6 0.454733 0.589104 0.079411
Si Si7 0.691416 0.587861 0.249450
O O1 0.150447 0.279161 0.129351
O O2 0.293850 0.373810 0.071056
O O3 0.250000 0.250000 0.000000
O O4 0.000000 0.329696 0.000000
O O5 0.144025 0.184263 0.746529
O O6 0.883516 0.246036 0.731588
O O7 0.984574 0.230987 0.611177
O O8 0.888360 0.115880 0.686043
O O9 0.606785 0.882771 0.237431
O O10 0.620099 0.863213 0.388792
O O11 0.365033 0.887190 0.277172
O O12 0.554145 0.000000 0.319894
O O13 0.500000 0.177077 0.500000
O O14 0.750000 0.250000 0.500000
O O15 0.441346 0.500000 0.079759
O O16 0.584631 0.610152 0.161105
O O17 0.500000 0.610675 0.000000
O O18 0.697255 0.500000 0.247879
#
# Coordination Sequence:
#
# PCOD9211709 Si02
#       7
#     8   8   8   8   8   8   8
#     4  12  26  40  60  92 126 167 214 270 321 370
#     4  11  21  39  63  89 122 164 209 251 312 381
#     4  10  23  42  67  97 125 166 216 260 312 381
#     4  11  23  39  61  89 123 166 213 267 310 369
#     4  11  22  40  64  95 130 161 198 252 319 382
#     4  10  23  42  62  88 126 169 211 265 326 375
#     4  10  21  40  65  91 125 169 217 264 310 374
#
# _framework density 19.975684000000001
#
# number of rings (size 3 to 8) (size 9 to 14) (size 15 to 20)
#    0.000    1.286    1.429    5.571    4.000    1.714 
#    0.000    0.714    0.000    1.714    0.000    0.000 
#    0.000    0.000    0.000    0.000    0.000    0.000 
#
# Total GULP energy -156168.514644 kJ/mol
# GULP energy per Si atom -5577.446952 kJ/mol
# Density = 1.993022 g / cm^3
# Si number density = 19.975684 Si / 1000 Ang^3
#
#
#
# Elastic Constant Matrix: (Units=GPa)
#
#
# Indices 1 2 3 4 5 6 
#
# 1 103.0700 38.7842 22.2729 0.0000 8.7147 0.0000
# 2 38.7842 64.2881 32.8747 0.0000 12.6471 0.0000
# 3 22.2729 32.8747 75.3681 0.0000 -1.3752 0.0000
# 4 0.0000 0.0000 0.0000 23.9924 0.0000 -2.6075
# 5 8.7147 12.6471 -1.3752 0.0000 39.2292 0.0000
# 6 0.0000 0.0000 0.0000 -2.6075 0.0000 33.7491
#
#
#
# Elastic Compliance Matrix: (Units=1/GPa)
#
#
# Indices 1 2 3 4 5 6 
#
# 1 0.012576 -0.007187 -0.000591 0.000000 -0.000497 0.000000
# 2 -0.007187 0.026099 -0.009390 0.000000 -0.007147 0.000000
# 3 -0.000591 -0.009390 0.017608 0.000000 0.003776 0.000000
# 4 0.000000 0.000000 0.000000 0.042033 0.000000 0.003248
# 5 -0.000497 -0.007147 0.003776 0.000000 0.028038 0.000000
# 6 0.000000 0.000000 0.000000 0.003248 0.000000 0.029881
#
#
# Mechanical properties :
#
#
# Convention : Reuss Voigt Hill
#
# Bulk Modulus (GPa) = 45.56609 47.84332 46.70470
# Shear Modulus (GPa) = 25.26694 29.31376 27.29035
#
# Velocity S-wave (km/s) = 3.56038 3.83492 3.70019
# Velocity P-wave (km/s) = 6.30571 6.60390 6.45653
#
# Compressibility (1/GPa) = 0.02194614
#
# Stress axis : x y z
#
# Youngs Moduli (GPa) = 79.51443 38.31589 56.79347
#
# Poissons Ratio (x) = 0.27539 0.03354
# Poissons Ratio (y) = 0.57149 0.53332
# Poissons Ratio (z) = 0.04697 0.35980
#
# Static dielectric constant tensor:
#      x y z
#    x -3.997240 0.000000 6.082070 
#    y 0.000000 1.748040 0.000000 
#    z 6.082070 0.000000 -4.694060 
# 
# From -- ./inp_files/257175.got.cif
#   From: 2010.05.17/outbox.cif.g08.bks.cpg/sg12_129_cif.got.tgz:257175.got - 2010.06.03 13:09:07.
