data_PCOD9211013
_publ_section_title
;
Structure prediction by ZEFSAII (Michael W. Deem and Ramdas Pophale) SiO2 
 PCOD9211013
Probable space group: C 2/M
;
_chemical_formula_sum "Si O2"
_cell_formula_units_Z 40
_cell_length_a 14.325159
_cell_length_b 13.835392
_cell_length_c 9.899218
_cell_angle_alpha 90.000000
_cell_angle_beta 71.690898
_cell_angle_gamma 90.000000
_cell_volume 1862.644038
_symmetry_space_group_name_H-M "C 2/M"
_symmetry_group_IT_number 12
_symmetry_cell_setting 'monoclinic'
loop_
_space_group_symop_operation_xyz
x,y,z
-x,y,-z
-x,-y,-z
x,-y,z
1/2+x,1/2+y,z
1/2-x,1/2+y,-z
1/2-x,1/2-y,-z
1/2+x,1/2-y,z
loop_
_atom_site_type_symbol
_atom_site_label
_atom_site_fract_x
_atom_site_fract_y
_atom_site_fract_z
Si Si1 0.746252 0.115203 0.540099
Si Si2 0.899238 0.607148 0.624885
Si Si3 0.099006 0.114808 0.745706
Si Si4 0.590723 0.250587 0.135711
Si Si5 0.297513 0.221304 0.161618
O O1 0.674852 0.150148 0.452400
O O2 0.855271 0.128796 0.426258
O O3 0.713554 0.164595 0.693286
O O4 0.732469 0.000000 0.560973
O O5 0.862393 0.500000 0.679051
O O6 0.921098 0.670824 0.744103
O O7 0.000000 0.597825 0.500000
O O8 0.176743 0.167165 0.810829
O O9 0.997581 0.172699 0.815509
O O10 0.089931 0.000000 0.773282
O O11 0.695637 0.297200 0.130229
O O12 0.613482 0.200433 0.981701
#
# Coordination Sequence:
#
# PCOD9211013 Si02
#       5
#     8   8   8   8   8
#     4  10  22  42  69  96 129 176 223 274 332 393
#     4  10  21  39  65  94 124 170 224 269 324 394
#     4  11  24  44  70  99 134 177 225 274 333 399
#     4  11  25  39  65  99 132 176 217 272 337 390
#     4  11  24  42  63  97 136 174 218 270 334 397
#
# _framework density 21.474848999999999
#
# number of rings (size 3 to 8) (size 9 to 14) (size 15 to 20)
#    0.000    1.400    2.000    2.400    2.800    3.200 
#    0.000    6.000    0.000    6.000    0.000    0.000 
#    0.000    0.000    0.000    0.000    0.000    0.000 
#
# Total GULP energy -111561.895242 kJ/mol
# GULP energy per Si atom -5578.094762 kJ/mol
# Density = 2.142597 g / cm^3
# Si number density = 21.474849 Si / 1000 Ang^3
#
#
#
# Elastic Constant Matrix: (Units=GPa)
#
#
# Indices 1 2 3 4 5 6 
#
# 1 117.1734 28.3039 40.4922 0.0000 -20.9297 0.0000
# 2 28.3039 88.8280 53.1786 0.0000 -7.4021 0.0000
# 3 40.4922 53.1786 159.2911 0.0000 -20.8582 0.0000
# 4 0.0000 0.0000 0.0000 -8.8302 0.0000 0.8249
# 5 -20.9297 -7.4021 -20.8582 0.0000 28.0203 0.0000
# 6 0.0000 0.0000 0.0000 0.8249 0.0000 25.7432
#
#
#
# Elastic Compliance Matrix: (Units=1/GPa)
#
#
# Indices 1 2 3 4 5 6 
#
# 1 0.010609 -0.002167 -0.001120 0.000000 0.006518 0.000000
# 2 -0.002167 0.014514 -0.004437 0.000000 -0.001087 0.000000
# 3 -0.001120 -0.004437 0.008621 0.000000 0.004409 0.000000
# 4 0.000000 0.000000 0.000000 -0.112910 0.000000 0.003618
# 5 0.006518 -0.001087 0.004409 0.000000 0.043552 0.000000
# 6 0.000000 0.000000 0.000000 0.003618 0.000000 0.038729
#
#
# Mechanical properties :
#
#
# Convention : Reuss Voigt Hill
#
# Bulk Modulus (GPa) = 54.65489 67.69355 61.17422
# Shear Modulus (GPa) = 202.74406 25.20786 113.97596
#
# Velocity S-wave (km/s) = 9.72702 3.42984 7.29310
# Velocity P-wave (km/s) = 12.31500 6.87574 9.97334
#
# Compressibility (1/GPa) = 0.01829662
#
# Stress axis : x y z
#
# Youngs Moduli (GPa) = 94.25861 68.90007 115.99502
#
# Poissons Ratio (x) = 0.14929 0.12991
# Poissons Ratio (y) = 0.20424 0.51466
# Poissons Ratio (z) = 0.10556 0.30570
#
# Static dielectric constant tensor:
#      x y z
#    x 1.821940 0.000000 -0.028840 
#    y 0.000000 1.795130 0.000000 
#    z -0.028840 0.000000 1.830860 
# 
# From -- ./inp_files/58937.got.cif
#   From: 2010.05.17/outbox.cif.g08.bks.cpg/sg12_30_cif.got.tgz:58937.got - 2010.06.03 13:09:07.
