data_PCOD9211979
_publ_section_title
;
Structure prediction by ZEFSAII (Michael W. Deem and Ramdas Pophale) SiO2 
 PCOD9211979
Probable space group: C 2/M
;
_chemical_formula_sum "Si O2"
_cell_formula_units_Z 48
_cell_length_a 14.825977
_cell_length_b 24.092281
_cell_length_c 11.292127
_cell_angle_alpha 90.000000
_cell_angle_beta 146.853016
_cell_angle_gamma 90.000000
_cell_volume 2205.446611
_symmetry_space_group_name_H-M "C 2/M"
_symmetry_group_IT_number 12
_symmetry_cell_setting 'monoclinic'
loop_
_space_group_symop_operation_xyz
x,y,z
-x,y,-z
-x,-y,-z
x,-y,z
1/2+x,1/2+y,z
1/2-x,1/2+y,-z
1/2-x,1/2-y,-z
1/2+x,1/2-y,z
loop_
_atom_site_type_symbol
_atom_site_label
_atom_site_fract_x
_atom_site_fract_y
_atom_site_fract_z
Si Si1 0.912511 0.224718 0.029692
Si Si2 0.815519 0.379682 0.248673
Si Si3 0.766664 0.344224 0.829959
Si Si4 0.436869 0.345356 0.620775
Si Si5 0.063654 0.437362 0.850686
Si Si6 0.310845 0.563831 0.656303
O O1 0.036063 0.209771 0.271713
O O2 0.769862 0.178163 0.878382
O O3 0.842266 0.286297 0.955995
O O4 0.000000 0.217548 0.000000
O O5 0.838950 0.418455 0.160417
O O6 0.713675 0.410442 0.240111
O O7 0.000000 0.368897 0.500000
O O8 0.598263 0.353439 0.718034
O O9 0.716094 0.341192 0.636941
O O10 0.887551 0.394003 0.995334
O O11 0.417699 0.395610 0.692146
O O12 0.106976 0.500000 0.931948
O O13 0.871745 0.435662 0.603527
O O14 0.367463 0.500000 0.723127
#
# Coordination Sequence:
#
# PCOD9211979 Si02
#       6
#     8   8   8   8   8   8
#     4  12  25  44  69  98 129 169 220 275 332 390
#     4  10  21  40  69 103 133 169 217 273 331 386
#     4  11  27  43  66  95 136 177 217 267 329 393
#     4  11  25  45  64  98 133 171 220 267 325 393
#     4  10  22  42  69  98 133 177 221 266 323 390
#     4  10  22  42  69 100 134 172 220 275 322 381
#
# _framework density 21.764299000000001
#
# number of rings (size 3 to 8) (size 9 to 14) (size 15 to 20)
#    0.000    1.333    3.333    1.000    4.667    5.333 
#    0.000    4.167    0.000    0.000    0.000    0.000 
#    0.000    0.000    0.000    0.000    0.000    0.000 
#
# Total GULP energy -134366.245130 kJ/mol
# GULP energy per Si atom -5598.593547 kJ/mol
# Density = 2.171476 g / cm^3
# Si number density = 21.764299 Si / 1000 Ang^3
#
#
#
# Elastic Constant Matrix: (Units=GPa)
#
#
# Indices 1 2 3 4 5 6 
#
# 1 100.4881 30.4787 26.4765 0.0000 -7.1867 0.0000
# 2 30.4787 178.2381 58.2310 0.0000 -9.5504 0.0000
# 3 26.4765 58.2310 86.7715 0.0000 -31.7051 0.0000
# 4 0.0000 0.0000 0.0000 30.4942 0.0000 -2.6859
# 5 -7.1867 -9.5504 -31.7051 0.0000 36.3738 0.0000
# 6 0.0000 0.0000 0.0000 -2.6859 0.0000 20.0326
#
#
#
# Elastic Compliance Matrix: (Units=1/GPa)
#
#
# Indices 1 2 3 4 5 6 
#
# 1 0.010969 -0.000947 -0.002950 0.000000 -0.000653 0.000000
# 2 -0.000947 0.007566 -0.006062 0.000000 -0.003484 0.000000
# 3 -0.002950 -0.006062 0.023034 0.000000 0.017903 0.000000
# 4 0.000000 0.000000 0.000000 0.033185 0.000000 0.004449
# 5 -0.000653 -0.003484 0.017903 0.000000 0.042054 0.000000
# 6 0.000000 0.000000 0.000000 0.004449 0.000000 0.050515
#
#
# Mechanical properties :
#
#
# Convention : Reuss Voigt Hill
#
# Bulk Modulus (GPa) = 46.18460 66.20779 56.19619
# Shear Modulus (GPa) = 25.71253 34.06757 29.89005
#
# Velocity S-wave (km/s) = 3.44089 3.96067 3.70990
# Velocity P-wave (km/s) = 6.08710 7.16954 6.65038
#
# Compressibility (1/GPa) = 0.02165224
#
# Stress axis : x y z
#
# Youngs Moduli (GPa) = 91.16411 132.16956 43.41397
#
# Poissons Ratio (x) = 0.12515 0.12807
# Poissons Ratio (y) = 0.08632 0.26316
# Poissons Ratio (z) = 0.26894 0.80115
#
# Static dielectric constant tensor:
#      x y z
#    x 1.790420 0.000000 0.001240 
#    y 0.000000 1.734250 0.000000 
#    z 0.001240 0.000000 1.827300 
# 
# From -- ./inp_files/147905.got.cif
#   From: 2010.05.17/outbox.cif.g08.bks.cpg/sg12_74_cif.got.tgz:147905.got - 2010.06.03 13:09:07.
