data_PCOD9211263
_publ_section_title
;
Structure prediction by ZEFSAII (Michael W. Deem and Ramdas Pophale) SiO2 
 PCOD9211263
Probable space group: C 2/M
;
_chemical_formula_sum "Si O2"
_cell_formula_units_Z 48
_cell_length_a 13.646668
_cell_length_b 30.270874
_cell_length_c 11.300160
_cell_angle_alpha 90.000000
_cell_angle_beta 147.693983
_cell_angle_gamma 90.000000
_cell_volume 2494.801743
_symmetry_space_group_name_H-M "C 2/M"
_symmetry_group_IT_number 12
_symmetry_cell_setting 'monoclinic'
loop_
_space_group_symop_operation_xyz
x,y,z
-x,y,-z
-x,-y,-z
x,-y,z
1/2+x,1/2+y,z
1/2-x,1/2+y,-z
1/2-x,1/2-y,-z
1/2+x,1/2-y,z
loop_
_atom_site_type_symbol
_atom_site_label
_atom_site_fract_x
_atom_site_fract_y
_atom_site_fract_z
Si Si1 0.720713 0.302954 0.979883
Si Si2 0.276182 0.000000 0.168017
Si Si3 0.641791 0.500000 0.304616
Si Si4 0.417600 0.926762 0.578051
Si Si5 0.705603 0.698851 0.450566
Si Si6 0.498029 0.859160 0.865344
Si Si7 0.280908 0.352193 0.773323
O O1 0.770539 0.327680 0.156039
O O2 0.832997 0.327374 0.993119
O O3 0.750000 0.250000 0.000000
O O4 0.506291 0.309949 0.746329
O O5 0.204050 0.000000 0.229227
O O6 0.413028 0.041154 0.284322
O O7 0.077376 0.000000 0.899637
O O8 0.748905 0.456400 0.455722
O O9 0.489345 0.896469 0.757063
O O10 0.328907 0.895287 0.385248
O O11 0.750000 0.750000 0.500000
O O12 0.822832 0.671720 0.663510
O O13 0.751265 0.682124 0.365464
O O14 0.500000 0.876213 0.000000
O O15 0.500000 0.362750 0.000000
#
# Coordination Sequence:
#
# PCOD9211263 Si02
#       7
#     8   4   4   8   8   8   8
#     4  11  23  38  61  90 119 170 218 268 313 363
#     4  10  23  39  67 100 133 154 192 259 320 405
#     4  10  23  39  66 101 134 150 190 265 322 393
#     4  10  22  42  65  94 126 167 204 247 331 383
#     4  10  21  40  59  86 120 163 213 269 316 360
#     4  11  26  42  61  88 129 172 219 265 308 371
#     4   9  22  37  62  92 128 162 208 263 316 378
#
# _framework density 19.240006000000001
#
# number of rings (size 3 to 8) (size 9 to 14) (size 15 to 20)
#    0.000    1.833    1.667    1.000    9.333    5.333 
#    0.000    1.667    0.000    1.000    0.000    0.000 
#    0.000    0.000    0.000    0.000    0.000    0.000 
#
# Total GULP energy -133905.332013 kJ/mol
# GULP energy per Si atom -5579.388834 kJ/mol
# Density = 1.919621 g / cm^3
# Si number density = 19.240006 Si / 1000 Ang^3
#
#
#
# Elastic Constant Matrix: (Units=GPa)
#
#
# Indices 1 2 3 4 5 6 
#
# 1 82.0003 50.1267 54.0651 0.0000 4.7017 0.0000
# 2 50.1267 144.8966 55.2466 0.0000 3.1957 0.0000
# 3 54.0651 55.2466 107.0683 0.0000 14.5079 0.0000
# 4 0.0000 0.0000 0.0000 19.3698 0.0000 0.6321
# 5 4.7017 3.1957 14.5079 0.0000 34.6452 0.0000
# 6 0.0000 0.0000 0.0000 0.6321 0.0000 16.1947
#
#
#
# Elastic Compliance Matrix: (Units=1/GPa)
#
#
# Indices 1 2 3 4 5 6 
#
# 1 0.019859 -0.003752 -0.008241 0.000000 0.001102 0.000000
# 2 -0.003752 0.009343 -0.003051 0.000000 0.000925 0.000000
# 3 -0.008241 -0.003051 0.015782 0.000000 -0.005209 0.000000
# 4 0.000000 0.000000 0.000000 0.051693 0.000000 -0.002018
# 5 0.001102 0.000925 -0.005209 0.000000 0.030810 0.000000
# 6 0.000000 0.000000 0.000000 -0.002018 0.000000 0.061827
#
#
# Mechanical properties :
#
#
# Convention : Reuss Voigt Hill
#
# Bulk Modulus (GPa) = 67.14272 72.53800 69.84036
# Shear Modulus (GPa) = 22.28478 25.67707 23.98093
#
# Velocity S-wave (km/s) = 3.40700 3.65714 3.53428
# Velocity P-wave (km/s) = 7.10282 7.45764 7.28239
#
# Compressibility (1/GPa) = 0.01489365
#
# Stress axis : x y z
#
# Youngs Moduli (GPa) = 50.35386 107.03656 63.36489
#
# Poissons Ratio (x) = 0.40164 0.52221
# Poissons Ratio (y) = 0.18895 0.19335
# Poissons Ratio (z) = 0.41498 0.32660
#
# Static dielectric constant tensor:
#      x y z
#    x 1.656420 0.000000 0.009450 
#    y 0.000000 1.685610 0.000000 
#    z 0.009450 0.000000 1.699030 
# 
# From -- ./inp_files/150358.got.cif
#   From: 2010.05.17/outbox.cif.g08.bks.cpg/sg12_76_cif.got.tgz:150358.got - 2010.06.03 13:09:07.
