data_PCOD9211999
_publ_section_title
;
Structure prediction by ZEFSAII (Michael W. Deem and Ramdas Pophale) SiO2 
 PCOD9211999
Probable space group: C 2/M
;
_chemical_formula_sum "Si O2"
_cell_formula_units_Z 40
_cell_length_a 23.644991
_cell_length_b 13.479385
_cell_length_c 19.530179
_cell_angle_alpha 90.000000
_cell_angle_beta 17.211929
_cell_angle_gamma 90.000000
_cell_volume 1841.919286
_symmetry_space_group_name_H-M "C 2/M"
_symmetry_group_IT_number 12
_symmetry_cell_setting 'monoclinic'
loop_
_space_group_symop_operation_xyz
x,y,z
-x,y,-z
-x,-y,-z
x,-y,z
1/2+x,1/2+y,z
1/2-x,1/2+y,-z
1/2-x,1/2-y,-z
1/2+x,1/2-y,z
loop_
_atom_site_type_symbol
_atom_site_label
_atom_site_fract_x
_atom_site_fract_y
_atom_site_fract_z
Si Si1 0.050144 0.761253 0.366839
Si Si2 0.687629 0.885997 0.737723
Si Si3 0.548001 0.611052 0.864970
Si Si4 0.501884 0.113480 0.685728
Si Si5 0.954861 0.305552 0.889293
O O1 0.000000 0.722386 0.500000
O O2 0.865918 0.817967 0.550534
O O3 0.100218 0.673596 0.256509
O O4 0.234281 0.832383 0.159808
O O5 0.612170 0.868838 0.748196
O O6 0.738263 0.000000 0.690757
O O7 0.500000 0.862364 0.000000
O O8 0.473385 0.500000 0.936319
O O9 0.776320 0.608968 0.592470
O O10 0.476906 0.695861 0.896034
O O11 0.500000 0.633111 0.000000
O O12 0.485606 0.176676 0.773883
O O13 0.434510 0.000000 0.773560
#
# Coordination Sequence:
#
# PCOD9211999 Si02
#       5
#     8   8   8   8   8
#     4  12  25  43  71 100 133 181 230 276 335 406
#     4  11  24  43  69 100 136 178 223 276 336 400
#     4  10  21  40  70 101 133 179 228 272 330 401
#     4  11  25  44  67 100 139 179 225 282 341 402
#     4  12  23  44  69 100 139 177 220 282 342 399
#
# _framework density 21.716479
#
# number of rings (size 3 to 8) (size 9 to 14) (size 15 to 20)
#    0.000    0.800    4.000    3.600    0.000    3.200 
#    0.000    0.000    0.000    0.000    0.000    0.000 
#    0.000    0.000    0.000    0.000    0.000    0.000 
#
# Total GULP energy -111827.344478 kJ/mol
# GULP energy per Si atom -5591.367224 kJ/mol
# Density = 2.166705 g / cm^3
# Si number density = 21.716479 Si / 1000 Ang^3
#
#
#
# Elastic Constant Matrix: (Units=GPa)
#
#
# Indices 1 2 3 4 5 6 
#
# 1 121.1180 37.4505 20.0471 0.0012 14.1676 -0.0003
# 2 37.4505 140.6354 16.3451 0.0011 1.6576 -0.0011
# 3 20.0471 16.3451 55.2693 0.0047 -4.7684 -0.0007
# 4 0.0012 0.0011 0.0047 16.0549 -0.0001 13.9699
# 5 14.1676 1.6576 -4.7684 -0.0001 49.1523 -0.0001
# 6 -0.0003 -0.0011 -0.0007 13.9699 -0.0001 10.9980
#
#
#
# Elastic Compliance Matrix: (Units=1/GPa)
#
#
# Indices 1 2 3 4 5 6 
#
# 1 0.009824 -0.002211 -0.003174 -0.000004 -0.003065 0.000005
# 2 -0.002211 0.007872 -0.001507 0.000004 0.000226 -0.000005
# 3 -0.003174 -0.001507 0.019940 0.000061 0.002900 -0.000076
# 4 -0.000004 0.000004 0.000061 -0.591754 0.000008 0.751657
# 5 -0.003065 0.000226 0.002900 0.000008 0.021502 -0.000009
# 6 0.000005 -0.000005 -0.000076 0.751657 -0.000009 -0.863844
#
#
# Mechanical properties :
#
#
# Convention : Reuss Voigt Hill
#
# Bulk Modulus (GPa) = 41.92333 51.63424 46.77879
# Shear Modulus (GPa) = -3.63709 31.45304 13.90797
#
# Velocity S-wave (km/s) = -1.29555 3.80985 2.53343
# Velocity P-wave (km/s) = 4.13628 6.57125 5.49046
#
# Compressibility (1/GPa) = 0.02385306
#
# Stress axis : x y z
#
# Youngs Moduli (GPa) = 101.79220 127.03557 50.14999
#
# Poissons Ratio (x) = 0.28088 0.15917
# Poissons Ratio (y) = 0.22507 0.07555
# Poissons Ratio (z) = 0.32307 0.19138
#
# Static dielectric constant tensor:
#      x y z
#    x 1.791060 0.000000 0.000270 
#    y 0.000000 1.812110 0.000000 
#    z 0.000270 0.000000 1.817040 
# 
# From -- ./inp_files/284429.got.cif
#   From: 2010.05.17/outbox.cif.g08.bks.cpg/sg12_143_cif.got.tgz:284429.got - 2010.06.03 13:09:07.
