data_PCOD9211505
_publ_section_title
;
Structure prediction by ZEFSAII (Michael W. Deem and Ramdas Pophale) SiO2 
 PCOD9211505
Probable space group: C 2/M
;
_chemical_formula_sum "Si O2"
_cell_formula_units_Z 52
_cell_length_a 9.041984
_cell_length_b 16.379670
_cell_length_c 18.303744
_cell_angle_alpha 90.000000
_cell_angle_beta 100.163379
_cell_angle_gamma 90.000000
_cell_volume 2668.333392
_symmetry_space_group_name_H-M "C 2/M"
_symmetry_group_IT_number 12
_symmetry_cell_setting 'monoclinic'
loop_
_space_group_symop_operation_xyz
x,y,z
-x,y,-z
-x,-y,-z
x,-y,z
1/2+x,1/2+y,z
1/2-x,1/2+y,-z
1/2-x,1/2-y,-z
1/2+x,1/2-y,z
loop_
_atom_site_type_symbol
_atom_site_label
_atom_site_fract_x
_atom_site_fract_y
_atom_site_fract_z
Si Si1 0.052129 0.136309 0.082473
Si Si2 0.674396 0.901151 0.517742
Si Si3 0.407277 0.500000 0.787131
Si Si4 0.884431 0.853769 0.665960
Si Si5 0.836781 0.737456 0.141054
Si Si6 0.805128 0.096567 0.372186
Si Si7 0.126097 0.688114 0.243444
O O1 0.214334 0.180275 0.092496
O O2 0.933486 0.206051 0.096157
O O3 0.061652 0.070883 0.147571
O O4 0.000000 0.103134 0.000000
O O5 0.500000 0.878774 0.500000
O O6 0.757606 0.863146 0.593806
O O7 0.751147 0.878424 0.447690
O O8 0.684844 0.000000 0.525096
O O9 0.380118 0.428144 0.722611
O O10 0.869471 0.769925 0.707981
O O11 0.045206 0.857932 0.639870
O O12 0.745390 0.795899 0.189003
O O13 0.959008 0.683539 0.196054
O O14 0.678901 0.115682 0.300429
O O15 0.837295 0.000000 0.376142
#
# Coordination Sequence:
#
# PCOD9211505 Si02
#       7
#     8   8   4   8   8   8   8
#     4  11  23  41  66  95 125 160 202 255 313 380
#     4  10  23  38  57  91 128 165 213 265 319 359
#     4  12  21  38  66  94 121 160 213 256 309 364
#     4  12  22  40  67  85 126 168 213 260 311 372
#     4  10  21  40  63  90 125 161 202 244 309 373
#     4  11  23  40  63  91 121 169 213 263 311 366
#     4  11  22  40  61  96 125 163 209 259 306 371
#
# _framework density 19.487818999999998
#
# number of rings (size 3 to 8) (size 9 to 14) (size 15 to 20)
#    0.000    1.077    6.154    1.154    2.154    1.846 
#    4.154    0.000    0.000    0.000    0.000    6.462 
#    0.000    0.000    0.000    0.000    0.000    0.000 
#
# Total GULP energy -144821.914061 kJ/mol
# GULP energy per Si atom -5570.073618 kJ/mol
# Density = 1.944346 g / cm^3
# Si number density = 19.487819 Si / 1000 Ang^3
#
#
#
# Elastic Constant Matrix: (Units=GPa)
#
#
# Indices 1 2 3 4 5 6 
#
# 1 98.5637 15.7513 40.1473 0.0000 13.2940 0.0000
# 2 15.7513 19.6968 -1.8077 0.0000 1.2265 0.0000
# 3 40.1473 -1.8077 110.4202 0.0000 23.1006 0.0000
# 4 0.0000 0.0000 0.0000 66.4382 0.0000 -0.5334
# 5 13.2940 1.2265 23.1006 0.0000 24.1466 0.0000
# 6 0.0000 0.0000 0.0000 -0.5334 0.0000 -1.5945
#
#
#
# Elastic Compliance Matrix: (Units=1/GPa)
#
#
# Indices 1 2 3 4 5 6 
#
# 1 0.014364 -0.011767 -0.004858 0.000000 -0.002663 0.000000
# 2 -0.011767 0.060832 0.005708 0.000000 -0.002072 0.000000
# 3 -0.004858 0.005708 0.013024 0.000000 -0.010075 0.000000
# 4 0.000000 0.000000 0.000000 0.015011 0.000000 -0.005021
# 5 -0.002663 -0.002072 -0.010075 0.000000 0.052623 0.000000
# 6 0.000000 0.000000 0.000000 -0.005021 0.000000 -0.625486
#
#
# Mechanical properties :
#
#
# Convention : Reuss Voigt Hill
#
# Bulk Modulus (GPa) = 15.06353 37.42919 26.24636
# Shear Modulus (GPa) = -11.74626 29.43739 8.84557
#
# Velocity S-wave (km/s) = -2.45776 3.89080 2.13281
# Velocity P-wave (km/s) = 0.55462 6.27954 4.42295
#
# Compressibility (1/GPa) = 0.06638552
#
# Stress axis : x y z
#
# Youngs Moduli (GPa) = 69.61759 16.43862 76.78219
#
# Poissons Ratio (x) = 0.19343 0.37302
# Poissons Ratio (y) = 0.81918 -0.43825
# Poissons Ratio (z) = 0.33821 -0.09383
#
# Static dielectric constant tensor:
#      x y z
#    x 1.697250 0.000000 0.002980 
#    y 0.000000 1.661520 0.000000 
#    z 0.002980 0.000000 1.673610 
# 
# From -- ./inp_files/256630.got.cif
#   From: 2010.05.17/outbox.cif.g08.bks.cpg/sg12_129_cif.got.tgz:256630.got - 2010.06.03 13:09:07.
