data_PCOD9211682
_publ_section_title
;
Structure prediction by ZEFSAII (Michael W. Deem and Ramdas Pophale) SiO2 
 PCOD9211682
Probable space group: C 2/M
;
_chemical_formula_sum "Si O2"
_cell_formula_units_Z 42
_cell_length_a 19.556144
_cell_length_b 12.523375
_cell_length_c 12.033200
_cell_angle_alpha 90.000000
_cell_angle_beta 55.699128
_cell_angle_gamma 90.000000
_cell_volume 2434.517852
_symmetry_space_group_name_H-M "C 2/M"
_symmetry_group_IT_number 12
_symmetry_cell_setting 'monoclinic'
loop_
_space_group_symop_operation_xyz
x,y,z
-x,y,-z
-x,-y,-z
x,-y,z
1/2+x,1/2+y,z
1/2-x,1/2+y,-z
1/2-x,1/2-y,-z
1/2+x,1/2-y,z
loop_
_atom_site_type_symbol
_atom_site_label
_atom_site_fract_x
_atom_site_fract_y
_atom_site_fract_z
Si Si1 0.510773 0.127143 0.806174
Si Si2 0.036062 0.776108 0.343995
Si Si3 0.184889 0.000000 0.918631
Si Si4 0.000000 0.000000 0.000000
Si Si5 0.271746 0.224157 0.851945
Si Si6 0.136045 0.626833 0.888187
Si Si7 0.048008 0.000000 0.209876
O O1 0.511374 0.195477 0.694988
O O2 0.586746 0.149559 0.819725
O O3 0.508538 0.000000 0.787660
O O4 0.428214 0.155009 0.953345
O O5 0.131501 0.738928 0.256309
O O6 0.031828 0.893624 0.294035
O O7 0.000000 0.775339 0.500000
O O8 0.239044 0.894331 0.856434
O O9 0.143658 0.000000 0.079920
O O10 0.103128 0.000000 0.915883
O O11 0.997817 0.000000 0.139560
O O12 0.218171 0.306252 0.828179
O O13 0.250000 0.250000 0.000000
O O14 0.150442 0.500000 0.881140
#
# Coordination Sequence:
#
# PCOD9211682 Si02
#       7
#     8   8   4   2   8   8   4
#     4   9  19  37  60  88 115 154 199 246 303 362
#     4  12  26  40  59  86 129 171 196 243 311 375
#     4  10  22  35  64 100 113 150 202 259 315 327
#     4   8  20  38  68  98 114 156 192 274 300 348
#     4  12  22  36  61  90 122 152 205 264 293 358
#     4   9  19  34  63  89 114 148 198 258 303 343
#     4  10  21  40  65  89 120 156 209 243 306 363
#
# _framework density 17.251877
#
# number of rings (size 3 to 8) (size 9 to 14) (size 15 to 20)
#    0.571    1.143    3.810    1.429    6.667    0.381 
#    0.000    0.952    0.000    0.000    0.000    0.000 
#    0.000    0.000    0.000    0.000    0.000    0.000 
#
# Total GULP energy -116914.261418 kJ/mol
# GULP energy per Si atom -5567.345782 kJ/mol
# Density = 1.721261 g / cm^3
# Si number density = 17.251877 Si / 1000 Ang^3
#
#
#
# Elastic Constant Matrix: (Units=GPa)
#
#
# Indices 1 2 3 4 5 6 
#
# 1 109.4138 73.6709 56.2911 0.0000 10.0384 0.0000
# 2 73.6709 77.7756 49.4444 0.0000 15.5571 0.0000
# 3 56.2911 49.4444 115.1603 0.0000 19.5049 0.0000
# 4 0.0000 0.0000 0.0000 8.5483 0.0000 4.4259
# 5 10.0384 15.5571 19.5049 0.0000 25.6710 0.0000
# 6 0.0000 0.0000 0.0000 4.4259 0.0000 17.8650
#
#
#
# Elastic Compliance Matrix: (Units=1/GPa)
#
#
# Indices 1 2 3 4 5 6 
#
# 1 0.027024 -0.024583 -0.003889 0.000000 0.007285 0.000000
# 2 -0.024583 0.040799 -0.003376 0.000000 -0.012547 0.000000
# 3 -0.003889 -0.003376 0.013118 0.000000 -0.006401 0.000000
# 4 0.000000 0.000000 0.000000 0.134194 0.000000 -0.033245
# 5 0.007285 -0.012547 -0.006401 0.000000 0.048573 0.000000
# 6 0.000000 0.000000 0.000000 -0.033245 0.000000 0.064211
#
#
# Mechanical properties :
#
#
# Convention : Reuss Voigt Hill
#
# Bulk Modulus (GPa) = 57.98379 73.46250 65.72314
# Shear Modulus (GPa) = 12.58297 18.61309 15.59803
#
# Velocity S-wave (km/s) = 2.70361 3.28823 3.01015
# Velocity P-wave (km/s) = 6.59008 7.55588 7.08945
#
# Compressibility (1/GPa) = 0.01724620
#
# Stress axis : x y z
#
# Youngs Moduli (GPa) = 37.00393 24.51056 76.23240
#
# Poissons Ratio (x) = 0.60254 0.29644
# Poissons Ratio (y) = 0.90966 0.25734
# Poissons Ratio (z) = 0.14390 0.08274
#
# Static dielectric constant tensor:
#      x y z
#    x 1.591360 0.000000 0.000170 
#    y 0.000000 1.605140 0.000000 
#    z 0.000170 0.000000 1.558240 
# 
# From -- ./inp_files/164653.got.cif
#   From: 2010.05.17/outbox.cif.g08.bks.cpg/sg12_83_cif.got.tgz:164653.got - 2010.06.03 13:09:07.
