data_PCOD9211237
_publ_section_title
;
Structure prediction by ZEFSAII (Michael W. Deem and Ramdas Pophale) SiO2 
 PCOD9211237
Probable space group: C 2/M
;
_chemical_formula_sum "Si O2"
_cell_formula_units_Z 52
_cell_length_a 13.776581
_cell_length_b 21.354090
_cell_length_c 9.483080
_cell_angle_alpha 90.000000
_cell_angle_beta 64.536977
_cell_angle_gamma 90.000000
_cell_volume 2518.800424
_symmetry_space_group_name_H-M "C 2/M"
_symmetry_group_IT_number 12
_symmetry_cell_setting 'monoclinic'
loop_
_space_group_symop_operation_xyz
x,y,z
-x,y,-z
-x,-y,-z
x,-y,z
1/2+x,1/2+y,z
1/2-x,1/2+y,-z
1/2-x,1/2-y,-z
1/2+x,1/2-y,z
loop_
_atom_site_type_symbol
_atom_site_label
_atom_site_fract_x
_atom_site_fract_y
_atom_site_fract_z
Si Si1 0.000000 0.161186 0.500000
Si Si2 0.829844 0.070439 0.082002
Si Si3 0.336530 0.756604 0.734654
Si Si4 0.884378 0.210236 0.015555
Si Si5 0.635256 0.426649 0.602063
Si Si6 0.099986 0.604278 0.291615
Si Si7 0.871976 0.429965 0.409177
O O1 0.100704 0.204844 0.393619
O O2 0.042047 0.116605 0.599140
O O3 0.878947 0.134897 0.994001
O O4 0.854365 0.074512 0.234759
O O5 0.701608 0.079909 0.139891
O O6 0.862523 0.000000 0.014417
O O7 0.207689 0.766696 0.817494
O O8 0.382272 0.824676 0.672090
O O9 0.363893 0.742604 0.879899
O O10 0.000000 0.226679 0.000000
O O11 0.620714 0.500000 0.572523
O O12 0.751538 0.404035 0.468027
O O13 0.110857 0.567434 0.431977
O O14 0.984000 0.600076 0.291401
O O15 0.869585 0.500000 0.353101
#
# Coordination Sequence:
#
# PCOD9211237 Si02
#       7
#     4   8   8   8   8   8   8
#     4  12  21  36  54  74 107 142 178 218 256 310
#     4   9  17  32  55  79  99 129 175 219 264 311
#     4  10  23  36  53  79 106 141 182 210 256 321
#     4  10  21  40  56  74 107 142 175 221 262 303
#     4   9  19  32  49  76 107 137 171 216 267 313
#     4   9  15  28  47  73 106 131 159 210 258 303
#     4   9  15  26  47  76 106 134 166 206 260 312
#
# _framework density 20.644746000000001
#
# number of rings (size 3 to 8) (size 9 to 14) (size 15 to 20)
#    0.000    2.462    0.000    4.846    0.000    1.538 
#    0.000   10.000    0.000    0.000    0.000    0.000 
#    0.000   20.308    0.000    0.000    0.000    0.000 
#
# Total GULP energy -144837.226297 kJ/mol
# GULP energy per Si atom -5570.662550 kJ/mol
# Density = 2.059776 g / cm^3
# Si number density = 20.644746 Si / 1000 Ang^3
#
#
#
# Elastic Constant Matrix: (Units=GPa)
#
#
# Indices 1 2 3 4 5 6 
#
# 1 85.6586 45.6390 15.2728 0.0000 -30.3874 0.0000
# 2 45.6390 98.3172 17.2687 0.0000 -7.7514 0.0000
# 3 15.2728 17.2687 32.8421 0.0000 -14.4443 0.0000
# 4 0.0000 0.0000 0.0000 -31.3270 0.0000 22.3695
# 5 -30.3874 -7.7514 -14.4443 0.0000 20.8676 0.0000
# 6 0.0000 0.0000 0.0000 22.3695 0.0000 -0.1396
#
#
#
# Elastic Compliance Matrix: (Units=1/GPa)
#
#
# Indices 1 2 3 4 5 6 
#
# 1 0.041119 -0.017212 0.019338 0.000000 0.066869 0.000000
# 2 -0.017212 0.018411 -0.013934 0.000000 -0.027870 0.000000
# 3 0.019338 -0.013934 0.055913 0.000000 0.061687 0.000000
# 4 0.000000 0.000000 0.000000 0.000281 0.000000 0.045098
# 5 0.066869 -0.027870 0.061687 0.000000 0.177642 0.000000
# 6 0.000000 0.000000 0.000000 0.045098 0.000000 0.063157
#
#
# Mechanical properties :
#
#
# Convention : Reuss Voigt Hill
#
# Bulk Modulus (GPa) = 10.89006 41.46434 26.17720
# Shear Modulus (GPa) = 12.17294 7.12270 9.64782
#
# Velocity S-wave (km/s) = 2.43088 1.85947 2.16412
# Velocity P-wave (km/s) = 3.62841 4.97378 4.35338
#
# Compressibility (1/GPa) = 0.09182684
#
# Stress axis : x y z
#
# Youngs Moduli (GPa) = 24.31987 54.31500 17.88499
#
# Poissons Ratio (x) = 0.93487 -0.34586
# Poissons Ratio (y) = 0.41859 0.24921
# Poissons Ratio (z) = -0.47030 0.75683
#
# Static dielectric constant tensor:
#      x y z
#    x 1.751750 0.000000 -0.083440 
#    y 0.000000 1.746100 0.000000 
#    z -0.083440 0.000000 1.776510 
# 
# From -- ./inp_files/146997.got.cif
#   From: 2010.05.17/outbox.cif.g08.bks.cpg/sg12_74_cif.got.tgz:146997.got - 2010.06.03 13:09:07.
