data_PCOD9211579
_publ_section_title
;
Structure prediction by ZEFSAII (Michael W. Deem and Ramdas Pophale) SiO2 
 PCOD9211579
Probable space group: C 2/M
;
_chemical_formula_sum "Si O2"
_cell_formula_units_Z 56
_cell_length_a 32.058642
_cell_length_b 8.588492
_cell_length_c 12.164722
_cell_angle_alpha 90.000000
_cell_angle_beta 124.011806
_cell_angle_gamma 90.000000
_cell_volume 2776.374618
_symmetry_space_group_name_H-M "C 2/M"
_symmetry_group_IT_number 12
_symmetry_cell_setting 'monoclinic'
loop_
_space_group_symop_operation_xyz
x,y,z
-x,y,-z
-x,-y,-z
x,-y,z
1/2+x,1/2+y,z
1/2-x,1/2+y,-z
1/2-x,1/2-y,-z
1/2+x,1/2-y,z
loop_
_atom_site_type_symbol
_atom_site_label
_atom_site_fract_x
_atom_site_fract_y
_atom_site_fract_z
Si Si1 0.693533 0.184603 0.413108
Si Si2 0.115131 0.810800 0.668237
Si Si3 0.490431 0.186196 0.861410
Si Si4 0.732310 0.687509 0.855897
Si Si5 0.897391 0.813546 0.591534
Si Si6 0.678428 0.686076 0.155647
Si Si7 0.916416 0.187995 0.139096
O O1 0.750000 0.250000 0.500000
O O2 0.657641 0.258758 0.451837
O O3 0.671168 0.231384 0.261406
O O4 0.694587 0.000000 0.427272
O O5 0.174090 0.768815 0.754920
O O6 0.092091 0.760493 0.518150
O O7 0.090110 0.757157 0.744774
O O8 0.113144 0.000000 0.667722
O O9 0.438579 0.248632 0.735471
O O10 0.535844 0.241767 0.851331
O O11 0.488661 0.000000 0.860497
O O12 0.500000 0.242508 0.000000
O O13 0.736029 0.500000 0.858507
O O14 0.769009 0.759307 0.819131
O O15 0.750000 0.750000 0.000000
O O16 0.898824 0.000000 0.596217
O O17 0.678829 0.500000 0.172145
O O18 0.634002 0.725008 0.004458
O O19 0.921178 0.000000 0.146774
#
# Coordination Sequence:
#
# PCOD9211579 Si02
#       7
#     8   8   8   8   8   8   8
#     4  12  25  42  63  91 128 166 209 258 310 371
#     4   9  20  39  61  89 125 163 204 253 307 370
#     4  11  25  44  64  89 123 160 204 260 318 374
#     4  11  20  35  58  88 128 170 210 254 308 371
#     4  11  23  42  68  93 123 165 208 255 315 375
#     4  11  22  38  62  92 125 163 211 263 315 375
#     4  10  21  40  64  90 121 159 206 255 308 376
#
# _framework density 20.170189000000001
#
# number of rings (size 3 to 8) (size 9 to 14) (size 15 to 20)
#    0.000    1.286    1.429    4.714    0.000    6.286 
#    0.000    6.429    0.000    0.000    0.000    0.000 
#    0.000    0.000    0.000    0.000    0.000    0.000 
#
# Total GULP energy -156619.285320 kJ/mol
# GULP energy per Si atom -5593.545904 kJ/mol
# Density = 2.012428 g / cm^3
# Si number density = 20.170189 Si / 1000 Ang^3
#
#
#
# Elastic Constant Matrix: (Units=GPa)
#
#
# Indices 1 2 3 4 5 6 
#
# 1 129.3809 20.1946 50.7063 0.0000 -7.8480 0.0000
# 2 20.1946 31.6616 26.5098 0.0000 5.2605 0.0000
# 3 50.7063 26.5098 134.1115 0.0000 -12.6355 0.0000
# 4 0.0000 0.0000 0.0000 25.7043 0.0000 -1.0723
# 5 -7.8480 5.2605 -12.6355 0.0000 35.1270 0.0000
# 6 0.0000 0.0000 0.0000 -1.0723 0.0000 36.7660
#
#
#
# Elastic Compliance Matrix: (Units=1/GPa)
#
#
# Indices 1 2 3 4 5 6 
#
# 1 0.009512 -0.004196 -0.002595 0.000000 0.001820 0.000000
# 2 -0.004196 0.042423 -0.007749 0.000000 -0.010078 0.000000
# 3 -0.002595 -0.007749 0.010376 0.000000 0.004313 0.000000
# 4 0.000000 0.000000 0.000000 0.038951 0.000000 0.001136
# 5 0.001820 -0.010078 0.004313 0.000000 0.031935 0.000000
# 6 0.000000 0.000000 0.000000 0.001136 0.000000 0.027232
#
#
# Mechanical properties :
#
#
# Convention : Reuss Voigt Hill
#
# Bulk Modulus (GPa) = 30.09342 54.44171 42.26756
# Shear Modulus (GPa) = 24.92699 32.70235 28.81467
#
# Velocity S-wave (km/s) = 3.51926 4.03093 3.78375
# Velocity P-wave (km/s) = 5.60943 6.97956 6.33167
#
# Compressibility (1/GPa) = 0.03322986
#
# Stress axis : x y z
#
# Youngs Moduli (GPa) = 105.13467 23.57227 96.37828
#
# Poissons Ratio (x) = 0.09891 0.25013
# Poissons Ratio (y) = 0.44115 0.74681
# Poissons Ratio (z) = 0.27286 0.18265
#
# Static dielectric constant tensor:
#      x y z
#    x 1.700630 0.000000 -0.031410 
#    y 0.000000 1.680020 0.000000 
#    z -0.031410 0.000000 1.747690 
# 
# From -- ./inp_files/187712.got.cif
#   From: 2010.05.17/outbox.cif.g08.bks.cpg/sg12_94_cif.got.tgz:187712.got - 2010.06.03 13:09:07.
