data_PCOD9211718
_publ_section_title
;
Structure prediction by ZEFSAII (Michael W. Deem and Ramdas Pophale) SiO2 
 PCOD9211718
Probable space group: C 2/M
;
_chemical_formula_sum "Si O2"
_cell_formula_units_Z 48
_cell_length_a 23.285335
_cell_length_b 11.079386
_cell_length_c 12.265832
_cell_angle_alpha 90.000000
_cell_angle_beta 134.929120
_cell_angle_gamma 90.000000
_cell_volume 2240.354763
_symmetry_space_group_name_H-M "C 2/M"
_symmetry_group_IT_number 12
_symmetry_cell_setting 'monoclinic'
loop_
_space_group_symop_operation_xyz
x,y,z
-x,y,-z
-x,-y,-z
x,-y,z
1/2+x,1/2+y,z
1/2-x,1/2+y,-z
1/2-x,1/2-y,-z
1/2+x,1/2-y,z
loop_
_atom_site_type_symbol
_atom_site_label
_atom_site_fract_x
_atom_site_fract_y
_atom_site_fract_z
Si Si1 0.167016 0.262411 0.956659
Si Si2 0.906793 0.627972 0.336301
Si Si3 0.125079 0.132836 0.583178
Si Si4 0.947311 0.361568 0.819079
Si Si5 0.012836 0.868080 0.774713
Si Si6 0.298418 0.859799 0.756721
O O1 0.112208 0.359968 0.817312
O O2 0.107912 0.147270 0.878606
O O3 0.250000 0.250000 0.000000
O O4 0.184082 0.295850 0.104687
O O5 0.870783 0.500000 0.326595
O O6 0.872130 0.750880 0.338168
O O7 0.000000 0.626775 0.500000
O O8 0.202324 0.146560 0.606791
O O9 0.040464 0.133356 0.406447
O O10 0.134471 0.000000 0.648843
O O11 0.946578 0.500000 0.771418
O O12 0.857071 0.323967 0.737250
O O13 0.984059 0.251660 0.799488
O O14 0.000000 0.367725 0.000000
O O15 0.997627 0.000000 0.806633
O O16 0.318890 0.000000 0.803112
#
# Coordination Sequence:
#
# PCOD9211718 Si02
#       6
#     8   8   8   8   8   8
#     4  12  23  39  62  92 128 165 203 258 315 375
#     4  11  23  38  59  90 125 163 208 257 307 364
#     4  10  22  42  64  88 125 168 208 254 311 375
#     4  10  21  40  67  95 124 165 210 255 312 372
#     4  11  25  42  64  95 127 165 210 258 317 374
#     4  10  21  40  65  92 122 164 214 257 303 372
#
# _framework density 21.425177999999999
#
# number of rings (size 3 to 8) (size 9 to 14) (size 15 to 20)
#    0.000    1.333    5.000    0.500    0.000    4.667 
#    0.000    0.833    0.000    0.000    0.000    0.000 
#    0.000    0.000    0.000    0.000    0.000    0.000 
#
# Total GULP energy -133801.238751 kJ/mol
# GULP energy per Si atom -5575.051615 kJ/mol
# Density = 2.137641 g / cm^3
# Si number density = 21.425178 Si / 1000 Ang^3
#
#
#
# Elastic Constant Matrix: (Units=GPa)
#
#
# Indices 1 2 3 4 5 6 
#
# 1 100.9337 65.5178 9.8390 0.0000 16.8104 0.0000
# 2 65.5178 174.2954 12.7158 0.0000 -8.8146 0.0000
# 3 9.8390 12.7158 64.6918 0.0000 14.6399 0.0000
# 4 0.0000 0.0000 0.0000 15.6748 0.0000 -4.4755
# 5 16.8104 -8.8146 14.6399 0.0000 25.5316 0.0000
# 6 0.0000 0.0000 0.0000 -4.4755 0.0000 27.6799
#
#
#
# Elastic Compliance Matrix: (Units=1/GPa)
#
#
# Indices 1 2 3 4 5 6 
#
# 1 0.016889 -0.007266 0.002233 0.000000 -0.014909 0.000000
# 2 -0.007266 0.009163 -0.002866 0.000000 0.009591 0.000000
# 3 0.002233 -0.002866 0.018660 0.000000 -0.013160 0.000000
# 4 0.000000 0.000000 0.000000 0.066884 0.000000 0.010814
# 5 -0.014909 0.009591 -0.013160 0.000000 0.059840 0.000000
# 6 0.000000 0.000000 0.000000 0.010814 0.000000 0.037876
#
#
# Mechanical properties :
#
#
# Convention : Reuss Voigt Hill
#
# Bulk Modulus (GPa) = 34.58489 57.34069 45.96279
# Shear Modulus (GPa) = 21.29952 30.56716 25.93334
#
# Velocity S-wave (km/s) = 3.15641 3.78126 3.48288
# Velocity P-wave (km/s) = 5.42781 6.77386 6.13785
#
# Compressibility (1/GPa) = 0.02891436
#
# Stress axis : x y z
#
# Youngs Moduli (GPa) = 59.20992 109.13858 53.59141
#
# Poissons Ratio (x) = 0.79295 -0.11969
# Poissons Ratio (y) = 0.43019 0.15361
# Poissons Ratio (z) = -0.13224 0.31283
#
# Static dielectric constant tensor:
#      x y z
#    x 1.873060 0.000000 0.018020 
#    y 0.000000 1.808570 0.000000 
#    z 0.018020 0.000000 1.785620 
# 
# From -- ./inp_files/165832.got.cif
#   From: 2010.05.17/outbox.cif.g08.bks.cpg/sg12_83_cif.got.tgz:165832.got - 2010.06.03 13:09:07.
