data_PCOD9211909
_publ_section_title
;
Structure prediction by ZEFSAII (Michael W. Deem and Ramdas Pophale) SiO2 
 PCOD9211909
Probable space group: C 2/M
;
_chemical_formula_sum "Si O2"
_cell_formula_units_Z 40
_cell_length_a 19.867048
_cell_length_b 8.140344
_cell_length_c 11.461768
_cell_angle_alpha 90.000000
_cell_angle_beta 99.488741
_cell_angle_gamma 90.000000
_cell_volume 1828.288293
_symmetry_space_group_name_H-M "C 2/M"
_symmetry_group_IT_number 12
_symmetry_cell_setting 'monoclinic'
loop_
_space_group_symop_operation_xyz
x,y,z
-x,y,-z
-x,-y,-z
x,-y,z
1/2+x,1/2+y,z
1/2-x,1/2+y,-z
1/2-x,1/2-y,-z
1/2+x,1/2-y,z
loop_
_atom_site_type_symbol
_atom_site_label
_atom_site_fract_x
_atom_site_fract_y
_atom_site_fract_z
Si Si1 0.457450 0.500000 0.365203
Si Si2 0.362085 0.814127 0.083839
Si Si3 0.808484 0.693062 0.605032
Si Si4 0.218119 0.187905 0.149811
Si Si5 0.039641 0.000000 0.888211
Si Si6 0.080144 0.679747 0.550185
O O1 0.500000 0.500000 0.500000
O O2 0.495774 0.500000 0.251503
O O3 0.413333 0.333925 0.362865
O O4 0.325589 0.803102 0.946761
O O5 0.388932 0.000000 0.109575
O O6 0.298395 0.782649 0.152360
O O7 0.416032 0.667242 0.101363
O O8 0.800362 0.500000 0.627380
O O9 0.750000 0.750000 0.500000
O O10 0.802295 0.788673 0.723113
O O11 0.879177 0.716136 0.556455
O O12 0.205149 0.000000 0.108575
O O13 0.000000 0.000000 0.000000
O O14 0.104183 0.500000 0.599965
O O15 0.000000 0.665804 0.500000
#
# Coordination Sequence:
#
# PCOD9211909 Si02
#       6
#     4   8   8   8   4   8
#     4  10  24  44  70  96 132 184 226 277 347 403
#     4  10  23  43  68  97 131 180 227 281 349 409
#     4  11  24  36  59  97 134 173 226 284 344 408
#     4  10  21  40  67  96 133 176 226 287 347 414
#     4  12  28  46  70 104 140 180 235 291 339 422
#     4   9  21  42  63  90 128 177 223 268 333 408
#
# _framework density 21.878387
#
# number of rings (size 3 to 8) (size 9 to 14) (size 15 to 20)
#    0.000    1.800    1.000    1.200    8.400    4.400 
#    0.000    2.000    0.000    0.000    0.000    0.000 
#    0.000    0.000    0.000    0.000    0.000    0.000 
#
# Total GULP energy -111694.949907 kJ/mol
# GULP energy per Si atom -5584.747495 kJ/mol
# Density = 2.182859 g / cm^3
# Si number density = 21.878387 Si / 1000 Ang^3
#
#
#
# Elastic Constant Matrix: (Units=GPa)
#
#
# Indices 1 2 3 4 5 6 
#
# 1 82.8487 33.9697 52.4105 0.0000 -19.6574 0.0000
# 2 33.9697 138.8572 37.5185 0.0000 -20.2005 0.0000
# 3 52.4105 37.5185 143.7073 0.0000 -25.5548 0.0000
# 4 0.0000 0.0000 0.0000 19.2202 0.0000 -13.9179
# 5 -19.6574 -20.2005 -25.5548 0.0000 35.4717 0.0000
# 6 0.0000 0.0000 0.0000 -13.9179 0.0000 22.3070
#
#
#
# Elastic Compliance Matrix: (Units=1/GPa)
#
#
# Indices 1 2 3 4 5 6 
#
# 1 0.017164 -0.002197 -0.004837 0.000000 0.004776 0.000000
# 2 -0.002197 0.008402 -0.000869 0.000000 0.002941 0.000000
# 3 -0.004837 -0.000869 0.009617 0.000000 0.003753 0.000000
# 4 0.000000 0.000000 0.000000 0.094909 0.000000 0.059216
# 5 0.004776 0.002941 0.003753 0.000000 0.035217 0.000000
# 6 0.000000 0.000000 0.000000 0.059216 0.000000 0.081775
#
#
# Mechanical properties :
#
#
# Convention : Reuss Voigt Hill
#
# Bulk Modulus (GPa) = 51.60991 68.13452 59.87222
# Shear Modulus (GPa) = 18.56329 31.50074 25.03202
#
# Velocity S-wave (km/s) = 2.91602 3.79860 3.38619
# Velocity P-wave (km/s) = 5.91424 7.10276 6.53557
#
# Compressibility (1/GPa) = 0.01937613
#
# Stress axis : x y z
#
# Youngs Moduli (GPa) = 58.26093 119.02117 103.98364
#
# Poissons Ratio (x) = 0.26153 0.50296
# Poissons Ratio (y) = 0.12802 0.09038
# Poissons Ratio (z) = 0.28180 0.10345
#
# Static dielectric constant tensor:
#      x y z
#    x 1.789680 0.000000 0.030530 
#    y 0.000000 1.971740 0.000000 
#    z 0.030530 0.000000 1.829530 
# 
# From -- ./inp_files/151914.got.cif
#   From: 2010.05.17/outbox.cif.g08.bks.cpg/sg12_76_cif.got.tgz:151914.got - 2010.06.03 13:09:07.
