data_PCOD9211820
_publ_section_title
;
Structure prediction by ZEFSAII (Michael W. Deem and Ramdas Pophale) SiO2 
 PCOD9211820
Probable space group: C 2/M
;
_chemical_formula_sum "Si O2"
_cell_formula_units_Z 40
_cell_length_a 20.437276
_cell_length_b 8.973115
_cell_length_c 15.984332
_cell_angle_alpha 90.000000
_cell_angle_beta 41.141403
_cell_angle_gamma 90.000000
_cell_volume 1928.561836
_symmetry_space_group_name_H-M "C 2/M"
_symmetry_group_IT_number 12
_symmetry_cell_setting 'monoclinic'
loop_
_space_group_symop_operation_xyz
x,y,z
-x,y,-z
-x,-y,-z
x,-y,z
1/2+x,1/2+y,z
1/2-x,1/2+y,-z
1/2-x,1/2-y,-z
1/2+x,1/2-y,z
loop_
_atom_site_type_symbol
_atom_site_label
_atom_site_fract_x
_atom_site_fract_y
_atom_site_fract_z
Si Si1 0.694248 0.323399 0.941062
Si Si2 0.062613 0.320238 0.523916
Si Si3 0.896716 0.823509 0.144280
Si Si4 0.240733 0.677008 0.599951
Si Si5 0.904770 0.678738 0.816181
O O1 0.686040 0.500000 0.963404
O O2 0.681268 0.298830 0.855797
O O3 0.802912 0.274417 0.866889
O O4 0.609144 0.247351 0.078911
O O5 0.078932 0.500000 0.508119
O O6 0.166816 0.237758 0.434270
O O7 0.000000 0.285914 0.500000
O O8 0.996531 0.279816 0.669040
O O9 0.860316 0.730849 0.258037
O O10 0.899989 0.000000 0.161946
O O11 0.000000 0.784244 0.000000
O O12 0.243185 0.500000 0.590999
O O13 0.250000 0.750000 0.500000
O O14 0.905236 0.500000 0.822235
#
# Coordination Sequence:
#
# PCOD9211820 Si02
#       5
#     8   8   8   8   8
#     4   9  18  34  56  85 121 158 198 248 307 370
#     4  10  21  40  66  93 127 169 214 264 324 387
#     4  10  22  41  65  91 122 163 211 260 319 383
#     4  12  27  45  66  94 132 173 219 271 324 386
#     4   9  18  32  55  86 119 158 200 249 305 368
#
# _framework density 20.740843999999999
#
# number of rings (size 3 to 8) (size 9 to 14) (size 15 to 20)
#    0.000    2.000    0.000    3.000    2.800    5.600 
#    0.000    4.000    0.000    0.000    0.000    0.000 
#    0.000    0.000    0.000    0.000    0.000    0.000 
#
# Total GULP energy -111748.008583 kJ/mol
# GULP energy per Si atom -5587.400429 kJ/mol
# Density = 2.069364 g / cm^3
# Si number density = 20.740844 Si / 1000 Ang^3
#
#
#
# Elastic Constant Matrix: (Units=GPa)
#
#
# Indices 1 2 3 4 5 6 
#
# 1 58.1405 39.3112 34.1719 0.0000 -7.2158 0.0000
# 2 39.3112 64.5045 70.7457 0.0000 3.6180 -0.0001
# 3 34.1719 70.7457 162.4717 0.0000 0.8752 0.0000
# 4 0.0000 0.0000 0.0000 34.1061 0.0000 -2.9005
# 5 -7.2158 3.6180 0.8752 0.0000 15.9306 0.0000
# 6 0.0000 -0.0001 0.0000 -2.9005 0.0000 18.9205
#
#
#
# Elastic Compliance Matrix: (Units=1/GPa)
#
#
# Indices 1 2 3 4 5 6 
#
# 1 0.036823 -0.028904 0.004717 0.000000 0.022984 0.000000
# 2 -0.028904 0.052953 -0.016848 0.000000 -0.024192 0.000000
# 3 0.004717 -0.016848 0.012470 0.000000 0.005278 0.000000
# 4 0.000000 0.000000 0.000000 0.029708 0.000000 0.004554
# 5 0.022984 -0.024192 0.005278 0.000000 0.078387 0.000000
# 6 0.000000 0.000000 0.000000 0.004554 0.000000 0.053551
#
#
# Mechanical properties :
#
#
# Convention : Reuss Voigt Hill
#
# Bulk Modulus (GPa) = 49.56153 63.73048 56.64601
# Shear Modulus (GPa) = 14.17690 23.18396 18.68043
#
# Velocity S-wave (km/s) = 2.61727 3.34697 3.00435
# Velocity P-wave (km/s) = 5.75160 6.76240 6.27738
#
# Compressibility (1/GPa) = 0.02017694
#
# Stress axis : x y z
#
# Youngs Moduli (GPa) = 27.15704 18.88482 80.18929
#
# Poissons Ratio (x) = 0.54584 -0.37826
# Poissons Ratio (y) = 0.78494 1.35102
# Poissons Ratio (z) = -0.12810 0.31817
#
# Static dielectric constant tensor:
#      x y z
#    x 1.794230 0.000000 -0.018950 
#    y 0.000000 1.689870 0.000000 
#    z -0.018950 0.000000 1.744970 
# 
# From -- ./inp_files/237083.got.cif
#   From: 2010.05.17/outbox.cif.g08.bks.cpg/sg12_119_cif.got.tgz:237083.got - 2010.06.03 13:09:07.
