data_PCOD9211054
_publ_section_title
;
Structure prediction by ZEFSAII (Michael W. Deem and Ramdas Pophale) SiO2 
 PCOD9211054
Probable space group: C 2/M
;
_chemical_formula_sum "Si O2"
_cell_formula_units_Z 64
_cell_length_a 15.414313
_cell_length_b 17.363635
_cell_length_c 15.210545
_cell_angle_alpha 90.000000
_cell_angle_beta 50.240199
_cell_angle_gamma 90.000000
_cell_volume 3129.570968
_symmetry_space_group_name_H-M "C 2/M"
_symmetry_group_IT_number 12
_symmetry_cell_setting 'monoclinic'
loop_
_space_group_symop_operation_xyz
x,y,z
-x,y,-z
-x,-y,-z
x,-y,z
1/2+x,1/2+y,z
1/2-x,1/2+y,-z
1/2-x,1/2-y,-z
1/2+x,1/2-y,z
loop_
_atom_site_type_symbol
_atom_site_label
_atom_site_fract_x
_atom_site_fract_y
_atom_site_fract_z
Si Si1 0.218806 0.699022 0.704471
Si Si2 0.771667 0.087944 0.519961
Si Si3 0.498049 0.912240 0.332299
Si Si4 0.433495 0.406707 0.953850
Si Si5 0.365534 0.087541 0.091967
Si Si6 0.436963 0.323649 0.288374
Si Si7 0.441151 0.757085 0.627452
Si Si8 0.316579 0.907137 0.930246
O O1 0.285347 0.647828 0.590048
O O2 0.163878 0.639910 0.807294
O O3 0.130358 0.753162 0.712350
O O4 0.308446 0.748654 0.700273
O O5 0.636447 0.088681 0.592593
O O6 0.843815 0.119733 0.391850
O O7 0.804224 0.000000 0.519357
O O8 0.528459 0.846258 0.380171
O O9 0.571003 0.890021 0.198278
O O10 0.530854 0.000000 0.334679
O O11 0.439868 0.500000 0.941346
O O12 0.491122 0.367109 0.832399
O O13 0.500000 0.385263 0.000000
O O14 0.300620 0.384704 0.040270
O O15 0.321434 0.000000 0.132819
O O16 0.500000 0.082737 0.000000
O O17 0.322230 0.120723 0.027025
O O18 0.513117 0.290061 0.318274
O O19 0.500000 0.729606 0.500000
O O20 0.315931 0.000000 0.937996
#
# Coordination Sequence:
#
# PCOD9211054 Si02
#       8
#     8   8   8   8   8   8   8   8
#     4  12  24  41  65  98 136 175 218 275 342 402
#     4  11  22  43  72  97 127 174 222 276 336 395
#     4  10  22  42  69  99 131 177 229 275 330 394
#     4  10  23  44  68  93 130 182 228 269 323 397
#     4  10  21  39  65  96 131 174 224 278 334 397
#     4  12  25  45  65 100 139 172 221 280 342 400
#     4  12  25  44  66  96 140 180 215 274 350 403
#     4   9  19  40  65  92 130 169 220 279 322 379
#
# _framework density 20.450088000000001
#
# number of rings (size 3 to 8) (size 9 to 14) (size 15 to 20)
#    0.000    1.250    2.500    3.375    1.750    2.750 
#    0.000    4.375    0.000    0.000    0.000    0.000 
#    0.000    0.000    0.000    0.000    0.000    0.000 
#
# Total GULP energy -178787.649578 kJ/mol
# GULP energy per Si atom -5587.114049 kJ/mol
# Density = 2.040354 g / cm^3
# Si number density = 20.450088 Si / 1000 Ang^3
#
#
#
# Elastic Constant Matrix: (Units=GPa)
#
#
# Indices 1 2 3 4 5 6 
#
# 1 105.8336 24.0493 17.1186 0.0000 14.0136 0.0000
# 2 24.0493 53.5798 5.6346 0.0000 2.4771 0.0000
# 3 17.1186 5.6346 86.3791 0.0000 5.7725 0.0000
# 4 0.0000 0.0000 0.0000 25.4438 0.0000 24.7289
# 5 14.0136 2.4771 5.7725 0.0000 26.0351 0.0000
# 6 0.0000 0.0000 0.0000 24.7289 0.0000 -8.1521
#
#
#
# Elastic Compliance Matrix: (Units=1/GPa)
#
#
# Indices 1 2 3 4 5 6 
#
# 1 0.011500 -0.004744 -0.001610 0.000000 -0.005382 0.000000
# 2 -0.004744 0.020810 -0.000463 0.000000 0.000676 0.000000
# 3 -0.001610 -0.000463 0.012044 0.000000 -0.001760 0.000000
# 4 0.000000 0.000000 0.000000 0.009955 0.000000 0.030196
# 5 -0.005382 0.000676 -0.001760 0.000000 0.041632 0.000000
# 6 0.000000 0.000000 0.000000 0.030196 0.000000 -0.031069
#
#
# Mechanical properties :
#
#
# Convention : Reuss Voigt Hill
#
# Bulk Modulus (GPa) = 32.55043 37.71085 35.13064
# Shear Modulus (GPa) = 56.34193 21.93134 39.13664
#
# Velocity S-wave (km/s) = 5.25459 3.27835 4.37940
# Velocity P-wave (km/s) = 7.26401 5.72805 6.54127
#
# Compressibility (1/GPa) = 0.03072156
#
# Stress axis : x y z
#
# Youngs Moduli (GPa) = 86.95897 48.05320 83.03088
#
# Poissons Ratio (x) = 0.22794 0.13368
# Poissons Ratio (y) = 0.41249 0.03841
# Poissons Ratio (z) = 0.14000 0.02223
#
# Static dielectric constant tensor:
#      x y z
#    x 1.738150 0.000000 -0.011860 
#    y 0.000000 1.721390 0.000000 
#    z -0.011860 0.000000 1.793620 
# 
# From -- ./inp_files/216759.got.cif
#   From: 2010.05.17/outbox.cif.g08.bks.cpg/sg12_109_cif.got.tgz:216759.got - 2010.06.03 13:09:07.
