data_PCOD9211688
_publ_section_title
;
Structure prediction by ZEFSAII (Michael W. Deem and Ramdas Pophale) SiO2 
 PCOD9211688
Probable space group: C 2/M
;
_chemical_formula_sum "Si O2"
_cell_formula_units_Z 40
_cell_length_a 19.367522
_cell_length_b 8.918916
_cell_length_c 28.672081
_cell_angle_alpha 90.000000
_cell_angle_beta 24.555809
_cell_angle_gamma 90.000000
_cell_volume 2058.255821
_symmetry_space_group_name_H-M "C 2/M"
_symmetry_group_IT_number 12
_symmetry_cell_setting 'monoclinic'
loop_
_space_group_symop_operation_xyz
x,y,z
-x,y,-z
-x,-y,-z
x,-y,z
1/2+x,1/2+y,z
1/2-x,1/2+y,-z
1/2-x,1/2-y,-z
1/2+x,1/2-y,z
loop_
_atom_site_type_symbol
_atom_site_label
_atom_site_fract_x
_atom_site_fract_y
_atom_site_fract_z
Si Si1 0.311394 0.820403 0.324461
Si Si2 0.773455 0.180007 0.727726
Si Si3 0.041516 0.826019 0.028883
Si Si4 0.138386 0.819206 0.527929
Si Si5 0.827333 0.821888 0.905890
O O1 0.218572 0.789584 0.332675
O O2 0.211461 0.778579 0.432234
O O3 0.487900 0.738809 0.214737
O O4 0.339515 0.000000 0.308724
O O5 0.613163 0.260752 0.847155
O O6 0.944740 0.226323 0.647294
O O7 0.753793 0.000000 0.745248
O O8 0.068487 0.000000 0.025109
O O9 0.205515 0.732592 0.939906
O O10 0.000000 0.817153 0.000000
O O11 0.250000 0.750000 0.500000
O O12 0.143347 0.000000 0.528623
O O13 0.826745 0.000000 0.910057
O O14 0.750000 0.750000 0.000000
#
# Coordination Sequence:
#
# PCOD9211688 Si02
#       5
#     8   8   8   8   8
#     4  10  21  40  65  90 122 164 207 255 305 361
#     4  10  21  40  65  90 119 162 211 254 303 364
#     4  11  25  42  62  91 128 166 205 253 312 368
#     4  10  23  41  62  91 124 161 206 254 312 368
#     4  12  24  40  64  94 127 162 206 254 307 370
#
# _framework density 19.43393
#
# number of rings (size 3 to 8) (size 9 to 14) (size 15 to 20)
#    0.000    1.400    2.000    3.000    2.800    5.600 
#    0.000    0.000    0.000    3.600    0.000    0.000 
#    0.000    0.000    0.000    0.000    0.000    0.000 
#
# Total GULP energy -111819.412844 kJ/mol
# GULP energy per Si atom -5590.970642 kJ/mol
# Density = 1.938970 g / cm^3
# Si number density = 19.433930 Si / 1000 Ang^3
#
#
#
# Elastic Constant Matrix: (Units=GPa)
#
#
# Indices 1 2 3 4 5 6 
#
# 1 95.2019 31.2604 17.4334 -0.0034 -15.7014 -0.0006
# 2 31.2604 43.6205 19.7571 0.0006 -5.0534 0.0007
# 3 17.4334 19.7571 56.0839 -0.0022 -16.0249 0.0006
# 4 -0.0034 0.0006 -0.0022 30.3363 0.0002 -4.2483
# 5 -15.7014 -5.0534 -16.0249 0.0002 39.1170 0.0000
# 6 -0.0006 0.0007 0.0006 -4.2483 0.0000 31.8761
#
#
#
# Elastic Compliance Matrix: (Units=1/GPa)
#
#
# Indices 1 2 3 4 5 6 
#
# 1 0.014495 -0.010007 0.000354 0.000002 0.004671 0.000001
# 2 -0.010007 0.034194 -0.009990 -0.000003 -0.003692 -0.000001
# 3 0.000354 -0.009990 0.023684 0.000002 0.008554 0.000000
# 4 0.000002 -0.000003 0.000002 0.033591 0.000001 0.004477
# 5 0.004671 -0.003692 0.008554 0.000001 0.030466 0.000000
# 6 0.000001 -0.000001 0.000000 0.004477 0.000000 0.031968
#
#
# Mechanical properties :
#
#
# Convention : Reuss Voigt Hill
#
# Bulk Modulus (GPa) = 30.22377 36.86757 33.54567
# Shear Modulus (GPa) = 22.86094 28.69622 25.77858
#
# Velocity S-wave (km/s) = 3.43350 3.84683 3.64603
# Velocity P-wave (km/s) = 5.59504 6.22436 5.91807
#
# Compressibility (1/GPa) = 0.03308654
#
# Stress axis : x y z
#
# Youngs Moduli (GPa) = 68.98695 29.24512 42.22304
#
# Poissons Ratio (x) = 0.29267 -0.01495
# Poissons Ratio (y) = 0.69038 0.42180
# Poissons Ratio (z) = -0.02443 0.29216
#
# Static dielectric constant tensor:
#      x y z
#    x 1.692420 0.000000 -0.000450 
#    y 0.000000 1.655400 0.000000 
#    z -0.000450 0.000000 1.643890 
# 
# From -- ./inp_files/221223.got.cif
#   From: 2010.05.17/outbox.cif.g08.bks.cpg/sg12_111_cif.got.tgz:221223.got - 2010.06.03 13:09:07.
