data_PCOD9211375
_publ_section_title
;
Structure prediction by ZEFSAII (Michael W. Deem and Ramdas Pophale) SiO2 
 PCOD9211375
Probable space group: C 2/M
;
_chemical_formula_sum "Si O2"
_cell_formula_units_Z 56
_cell_length_a 20.993789
_cell_length_b 9.108869
_cell_length_c 29.573248
_cell_angle_alpha 90.000000
_cell_angle_beta 31.448747
_cell_angle_gamma 90.000000
_cell_volume 2950.562473
_symmetry_space_group_name_H-M "C 2/M"
_symmetry_group_IT_number 12
_symmetry_cell_setting 'monoclinic'
loop_
_space_group_symop_operation_xyz
x,y,z
-x,y,-z
-x,-y,-z
x,-y,z
1/2+x,1/2+y,z
1/2-x,1/2+y,-z
1/2-x,1/2-y,-z
1/2+x,1/2-y,z
loop_
_atom_site_type_symbol
_atom_site_label
_atom_site_fract_x
_atom_site_fract_y
_atom_site_fract_z
Si Si1 0.752908 0.324113 0.047309
Si Si2 0.394219 0.331824 0.627691
Si Si3 0.103022 0.823649 0.222645
Si Si4 0.750230 0.827347 0.210327
Si Si5 0.822611 0.168451 0.568056
Si Si6 0.979077 0.826198 0.959059
Si Si7 0.328632 0.325393 0.412627
O O1 0.755352 0.500000 0.041035
O O2 0.638438 0.284837 0.149572
O O3 0.750000 0.250000 0.000000
O O4 0.872705 0.267995 0.001360
O O5 0.369984 0.500000 0.657478
O O6 0.341044 0.218591 0.695043
O O7 0.539480 0.317354 0.534142
O O8 0.334673 0.311998 0.614446
O O9 0.205579 0.756377 0.192905
O O10 0.969869 0.776879 0.321648
O O11 0.106813 0.000000 0.223409
O O12 0.887892 0.789956 0.141613
O O13 0.747932 0.000000 0.202236
O O14 0.736906 0.280827 0.594308
O O15 0.783030 0.000000 0.583074
O O16 0.952449 0.000000 0.968590
O O17 0.000000 0.803431 0.000000
O O18 0.327472 0.500000 0.420615
O O19 0.250000 0.250000 0.500000
#
# Coordination Sequence:
#
# PCOD9211375 Si02
#       7
#     8   8   8   8   8   8   8
#     4  11  24  42  65  91 122 162 204 250 305 364
#     4   9  19  36  57  81 113 150 189 235 288 345
#     4  10  23  41  59  82 117 157 195 241 296 355
#     4  11  22  35  59  90 116 147 192 242 292 345
#     4   9  19  37  57  78 110 152 192 234 285 342
#     4  10  21  40  62  86 120 155 191 243 297 349
#     4  11  23  38  57  83 116 153 193 239 290 347
#
# _framework density 18.979433
#
# number of rings (size 3 to 8) (size 9 to 14) (size 15 to 20)
#    0.000    1.857    1.429    3.000    0.000    8.857 
#    0.000    5.714    0.000    0.000    0.000    0.000 
#    0.000    0.000    0.000    0.000    0.000    0.000 
#
# Total GULP energy -156325.215536 kJ/mol
# GULP energy per Si atom -5583.043412 kJ/mol
# Density = 1.893623 g / cm^3
# Si number density = 18.979433 Si / 1000 Ang^3
#
#
#
# Elastic Constant Matrix: (Units=GPa)
#
#
# Indices 1 2 3 4 5 6 
#
# 1 61.9188 29.2817 43.5571 0.0000 -5.9642 0.0001
# 2 29.2817 36.3836 41.5109 0.0001 -0.0241 0.0004
# 3 43.5571 41.5109 97.8745 0.0001 10.9872 -0.0001
# 4 0.0000 0.0001 0.0001 25.7443 0.0000 1.6038
# 5 -5.9642 -0.0241 10.9872 0.0000 25.2871 0.0001
# 6 0.0001 0.0004 -0.0001 1.6038 0.0001 37.7145
#
#
#
# Elastic Compliance Matrix: (Units=1/GPa)
#
#
# Indices 1 2 3 4 5 6 
#
# 1 0.029935 -0.014568 -0.008341 0.000000 0.010671 0.000000
# 2 -0.014568 0.063063 -0.020904 0.000000 0.005707 -0.000001
# 3 -0.008341 -0.020904 0.024198 0.000000 -0.012501 0.000000
# 4 0.000000 0.000000 0.000000 0.038947 0.000000 -0.001656
# 5 0.010671 0.005707 -0.012501 0.000000 0.047500 0.000000
# 6 0.000000 -0.000001 0.000000 -0.001656 0.000000 0.026585
#
#
# Mechanical properties :
#
#
# Convention : Reuss Voigt Hill
#
# Bulk Modulus (GPa) = 33.81805 47.20848 40.51326
# Shear Modulus (GPa) = 15.25732 23.20433 19.23083
#
# Velocity S-wave (km/s) = 2.83837 3.50037 3.18661
# Velocity P-wave (km/s) = 5.34778 6.42373 5.91029
#
# Compressibility (1/GPa) = 0.02957001
#
# Stress axis : x y z
#
# Youngs Moduli (GPa) = 33.40563 15.85719 41.32505
#
# Poissons Ratio (x) = 0.23101 0.34470
# Poissons Ratio (y) = 0.48666 0.86385
# Poissons Ratio (z) = 0.27864 0.33147
#
# Static dielectric constant tensor:
#      x y z
#    x 1.641760 0.000000 0.011450 
#    y 0.000000 1.638780 0.000000 
#    z 0.011450 0.000000 1.688690 
# 
# From -- ./inp_files/380640.got.cif
#   From: 2010.05.17/outbox.cif.g08.bks.cpg/sg12_191_cif.got.tgz:380640.got - 2010.06.03 13:09:07.
