data_PCOD9211247
_publ_section_title
;
Structure prediction by ZEFSAII (Michael W. Deem and Ramdas Pophale) SiO2 
 PCOD9211247
Probable space group: C 2/M
;
_chemical_formula_sum "Si O2"
_cell_formula_units_Z 56
_cell_length_a 16.211329
_cell_length_b 16.135528
_cell_length_c 12.289112
_cell_angle_alpha 90.000000
_cell_angle_beta 127.027684
_cell_angle_gamma 90.000000
_cell_volume 2566.331258
_symmetry_space_group_name_H-M "C 2/M"
_symmetry_group_IT_number 12
_symmetry_cell_setting 'monoclinic'
loop_
_space_group_symop_operation_xyz
x,y,z
-x,y,-z
-x,-y,-z
x,-y,z
1/2+x,1/2+y,z
1/2-x,1/2+y,-z
1/2-x,1/2-y,-z
1/2+x,1/2-y,z
loop_
_atom_site_type_symbol
_atom_site_label
_atom_site_fract_x
_atom_site_fract_y
_atom_site_fract_z
Si Si1 0.853593 0.400713 0.207325
Si Si2 0.789993 0.703851 0.338706
Si Si3 0.441711 0.906346 0.055651
Si Si4 0.872862 0.099454 0.070504
Si Si5 0.099507 0.855324 0.501827
Si Si6 0.727926 0.634332 0.793845
Si Si7 0.596631 0.595352 0.255065
O O1 0.866494 0.500000 0.226281
O O2 0.867484 0.353250 0.330847
O O3 0.926060 0.370666 0.164592
O O4 0.732132 0.385663 0.079950
O O5 0.851444 0.762788 0.471815
O O6 0.745016 0.772563 0.219578
O O7 0.696341 0.649547 0.307587
O O8 0.484995 0.000000 0.102772
O O9 0.500000 0.865050 0.000000
O O10 0.324926 0.911385 0.919800
O O11 0.853854 0.138111 0.173884
O O12 0.986096 0.124813 0.119264
O O13 0.879117 0.000000 0.089541
O O14 0.181062 0.901512 0.645903
O O15 0.083493 0.898797 0.375200
O O16 0.000000 0.847931 0.500000
O O17 0.614306 0.500000 0.234563
#
# Coordination Sequence:
#
# PCOD9211247 Si02
#       7
#     8   8   8   8   8   8   8
#     4   9  18  36  58  80 114 151 187 229 278 340
#     4  10  22  36  51  83 114 152 181 226 292 339
#     4   9  18  35  56  83 115 149 190 233 273 329
#     4   9  18  33  58  86 110 144 186 235 282 333
#     4  10  21  40  58  81 107 151 189 245 283 329
#     4   9  19  35  54  82 110 146 184 233 284 333
#     4  11  21  36  58  84 114 147 192 236 282 341
#
# _framework density 21.821033
#
# number of rings (size 3 to 8) (size 9 to 14) (size 15 to 20)
#    0.857    1.571    1.429    2.143    0.000    4.286 
#    7.714    2.143    0.000    1.714    0.000    0.000 
#    0.000    0.000    0.000    0.000    0.000    0.000 
#
# Total GULP energy -155923.215125 kJ/mol
# GULP energy per Si atom -5568.686254 kJ/mol
# Density = 2.177137 g / cm^3
# Si number density = 21.821033 Si / 1000 Ang^3
#
#
#
# Elastic Constant Matrix: (Units=GPa)
#
#
# Indices 1 2 3 4 5 6 
#
# 1 107.7827 22.1680 -1.7402 0.0000 -0.9294 0.0000
# 2 22.1680 56.4575 0.4378 0.0000 -1.3756 0.0000
# 3 -1.7402 0.4378 16.2447 0.0000 -6.6776 0.0000
# 4 0.0000 0.0000 0.0000 -671.8073 0.0000 20.8336
# 5 -0.9294 -1.3756 -6.6776 0.0000 19.1189 0.0000
# 6 0.0000 0.0000 0.0000 20.8336 0.0000 53.4615
#
#
#
# Elastic Compliance Matrix: (Units=1/GPa)
#
#
# Indices 1 2 3 4 5 6 
#
# 1 0.010125 -0.003969 0.001490 0.000000 0.000727 0.000000
# 2 -0.003969 0.019300 -0.000530 0.000000 0.001011 0.000000
# 3 0.001490 -0.000530 0.072098 0.000000 0.025216 0.000000
# 4 0.000000 0.000000 0.000000 -0.001471 0.000000 0.000573
# 5 0.000727 0.001011 0.025216 0.000000 0.061219 0.000000
# 6 0.000000 0.000000 0.000000 0.000573 0.000000 0.018482
#
#
# Mechanical properties :
#
#
# Convention : Reuss Voigt Hill
#
# Bulk Modulus (GPa) = 10.47071 24.69068 17.58070
# Shear Modulus (GPa) = 22.97745 -109.20411 -43.11333
#
# Velocity S-wave (km/s) = 3.24851 -7.08195 -4.44978
# Velocity P-wave (km/s) = 4.34503 7.45200 4.28095
#
# Compressibility (1/GPa) = 0.09550452
#
# Stress axis : x y z
#
# Youngs Moduli (GPa) = 98.76895 51.81421 13.87007
#
# Poissons Ratio (x) = 0.20567 -0.02067
# Poissons Ratio (y) = 0.39204 0.00735
# Poissons Ratio (z) = -0.14721 0.02746
#
# Static dielectric constant tensor:
#      x y z
#    x 1.851960 0.000000 -0.000990 
#    y 0.000000 1.810820 0.000000 
#    z -0.000990 0.000000 1.818220 
# 
# From -- ./inp_files/225375.got.cif
#   From: 2010.05.17/outbox.cif.g08.bks.cpg/sg12_113_cif.got.tgz:225375.got - 2010.06.03 13:09:07.
