data_PCOD9211433
_publ_section_title
;
Structure prediction by ZEFSAII (Michael W. Deem and Ramdas Pophale) SiO2 
 PCOD9211433
Probable space group: C 2/M
;
_chemical_formula_sum "Si O2"
_cell_formula_units_Z 64
_cell_length_a 12.215643
_cell_length_b 23.183745
_cell_length_c 11.374271
_cell_angle_alpha 90.000000
_cell_angle_beta 76.241830
_cell_angle_gamma 90.000000
_cell_volume 3128.819686
_symmetry_space_group_name_H-M "C 2/M"
_symmetry_group_IT_number 12
_symmetry_cell_setting 'monoclinic'
loop_
_space_group_symop_operation_xyz
x,y,z
-x,y,-z
-x,-y,-z
x,-y,z
1/2+x,1/2+y,z
1/2-x,1/2+y,-z
1/2-x,1/2-y,-z
1/2+x,1/2-y,z
loop_
_atom_site_type_symbol
_atom_site_label
_atom_site_fract_x
_atom_site_fract_y
_atom_site_fract_z
Si Si1 0.161829 0.770018 0.185028
Si Si2 0.052564 0.233173 0.600161
Si Si3 0.473471 0.564030 0.644407
Si Si4 0.373071 0.142645 0.509069
Si Si5 0.366395 0.932163 0.050080
Si Si6 0.833187 0.866206 0.287798
Si Si7 0.785624 0.840959 0.046821
Si Si8 0.258137 0.129376 0.292909
O O1 0.213287 0.712650 0.116080
O O2 0.248042 0.804411 0.249594
O O3 0.050462 0.753870 0.285562
O O4 0.144829 0.814497 0.080510
O O5 0.109554 0.289521 0.528946
O O6 0.133377 0.191968 0.651324
O O7 0.000000 0.201022 0.500000
O O8 0.500000 0.561919 0.500000
O O9 0.441243 0.500000 0.692977
O O10 0.584317 0.585852 0.681679
O O11 0.368585 0.606190 0.687945
O O12 0.500000 0.121002 0.500000
O O13 0.296872 0.127700 0.640983
O O14 0.305869 0.121451 0.411206
O O15 0.334365 0.907442 0.185767
O O16 0.338828 0.000000 0.045250
O O17 0.500000 0.925155 0.000000
O O18 0.294581 0.891603 0.980920
O O19 0.851290 0.861851 0.144535
#
# Coordination Sequence:
#
# PCOD9211433 Si02
#       8
#     8   8   8   8   8   8   8   8
#     4  10  21  40  62  97 128 173 211 256 328 390
#     4  11  21  36  62  91 130 170 213 254 317 395
#     4  11  23  42  68  95 125 173 224 270 323 383
#     4  11  24  36  62  98 131 168 204 259 331 390
#     4  10  24  44  68  89 118 175 227 266 318 387
#     4  12  22  40  63  94 133 164 210 268 323 384
#     4  10  23  40  62  94 134 166 210 267 322 382
#     4  11  21  43  67  93 132 167 217 269 321 397
#
# _framework density 20.454996999999999
#
# number of rings (size 3 to 8) (size 9 to 14) (size 15 to 20)
#    0.000    1.250    2.500    4.125    3.500    1.000 
#    0.000    0.000    0.000    4.125    0.000    0.000 
#    0.000    0.000    0.000    0.000    0.000    0.000 
#
# Total GULP energy -178776.790850 kJ/mol
# GULP energy per Si atom -5586.774714 kJ/mol
# Density = 2.040844 g / cm^3
# Si number density = 20.454997 Si / 1000 Ang^3
#
#
#
# Elastic Constant Matrix: (Units=GPa)
#
#
# Indices 1 2 3 4 5 6 
#
# 1 54.3451 10.3469 12.5476 0.0000 2.2389 0.0000
# 2 10.3469 91.8683 6.3672 0.0000 2.3503 0.0000
# 3 12.5476 6.3672 89.2003 0.0000 9.4609 0.0000
# 4 0.0000 0.0000 0.0000 11.6634 0.0000 5.2573
# 5 2.2389 2.3503 9.4609 0.0000 41.6175 0.0000
# 6 0.0000 0.0000 0.0000 5.2573 0.0000 15.5850
#
#
#
# Elastic Compliance Matrix: (Units=1/GPa)
#
#
# Indices 1 2 3 4 5 6 
#
# 1 0.019384 -0.001998 -0.002547 0.000000 -0.000351 0.000000
# 2 -0.001998 0.011153 -0.000471 0.000000 -0.000415 0.000000
# 3 -0.002547 -0.000471 0.011871 0.000000 -0.002535 0.000000
# 4 0.000000 0.000000 0.000000 0.101113 0.000000 -0.034109
# 5 -0.000351 -0.000415 -0.002535 0.000000 0.024647 0.000000
# 6 0.000000 0.000000 0.000000 -0.034109 0.000000 0.075670
#
#
# Mechanical properties :
#
#
# Convention : Reuss Voigt Hill
#
# Bulk Modulus (GPa) = 30.88562 32.65965 31.77264
# Shear Modulus (GPa) = 18.89198 27.51664 23.20431
#
# Velocity S-wave (km/s) = 3.04235 3.67171 3.37175
# Velocity P-wave (km/s) = 5.24150 5.82894 5.54301
#
# Compressibility (1/GPa) = 0.03237753
#
# Stress axis : x y z
#
# Youngs Moduli (GPa) = 51.58957 89.65862 84.23536
#
# Poissons Ratio (x) = 0.17911 0.21453
# Poissons Ratio (y) = 0.10306 0.03968
# Poissons Ratio (z) = 0.13139 0.04224
#
# Static dielectric constant tensor:
#      x y z
#    x 1.759500 0.000000 0.007430 
#    y 0.000000 1.742010 0.000000 
#    z 0.007430 0.000000 1.734970 
# 
# From -- ./inp_files/135340.got.cif
#   From: 2010.05.17/outbox.cif.g08.bks.cpg/sg12_68_cif.got.tgz:135340.got - 2010.06.03 13:09:07.
