data_PCOD9211722
_publ_section_title
;
Structure prediction by ZEFSAII (Michael W. Deem and Ramdas Pophale) SiO2 
 PCOD9211722
Probable space group: C 2/M
;
_chemical_formula_sum "Si O2"
_cell_formula_units_Z 56
_cell_length_a 25.365084
_cell_length_b 14.143682
_cell_length_c 8.455895
_cell_angle_alpha 90.000000
_cell_angle_beta 66.335384
_cell_angle_gamma 90.000000
_cell_volume 2778.506889
_symmetry_space_group_name_H-M "C 2/M"
_symmetry_group_IT_number 12
_symmetry_cell_setting 'monoclinic'
loop_
_space_group_symop_operation_xyz
x,y,z
-x,y,-z
-x,-y,-z
x,-y,z
1/2+x,1/2+y,z
1/2-x,1/2+y,-z
1/2-x,1/2-y,-z
1/2+x,1/2-y,z
loop_
_atom_site_type_symbol
_atom_site_label
_atom_site_fract_x
_atom_site_fract_y
_atom_site_fract_z
Si Si1 0.063528 0.288485 0.861581
Si Si2 0.349634 0.762632 0.765915
Si Si3 0.660618 0.108809 0.930198
Si Si4 0.878670 0.898422 0.322111
Si Si5 0.558893 0.888147 0.528124
Si Si6 0.064811 0.108249 0.398674
Si Si7 0.767006 0.170875 0.604300
O O1 0.099860 0.358650 0.929279
O O2 0.100580 0.192634 0.798275
O O3 0.056113 0.337739 0.700608
O O4 0.000000 0.267012 0.000000
O O5 0.388665 0.838352 0.625563
O O6 0.394226 0.677069 0.749871
O O7 0.301640 0.718833 0.708424
O O8 0.326240 0.817495 0.945409
O O9 0.710885 0.119898 0.739834
O O10 0.657934 0.000000 0.987103
O O11 0.910561 0.893578 0.453123
O O12 0.812331 0.892291 0.453592
O O13 0.891432 0.000000 0.231119
O O14 0.500000 0.875609 0.500000
O O15 0.568487 0.000000 0.535202
O O16 0.000000 0.143673 0.500000
O O17 0.063518 0.000000 0.340283
O O18 0.750000 0.250000 0.500000
#
# Coordination Sequence:
#
# PCOD9211722 Si02
#       7
#     8   8   8   8   8   8   8
#     4  12  25  41  64  94 133 173 211 269 329 389
#     4  11  22  39  65  95 128 165 214 268 322 385
#     4  12  26  43  65  96 136 174 215 268 327 389
#     4  10  21  40  65  92 123 164 211 263 320 381
#     4  11  22  39  63  92 128 173 222 267 320 389
#     4   9  18  34  62  93 123 164 209 255 317 382
#     4  11  21  44  71  92 124 171 217 270 323 381
#
# _framework density 20.154712
#
# number of rings (size 3 to 8) (size 9 to 14) (size 15 to 20)
#    0.000    1.143    4.286    3.000    2.000    3.143 
#    0.000    2.857    0.000    0.000    0.000    0.000 
#    0.000    0.000    0.000    0.000    0.000    0.000 
#
# Total GULP energy -156459.100244 kJ/mol
# GULP energy per Si atom -5587.825009 kJ/mol
# Density = 2.010884 g / cm^3
# Si number density = 20.154712 Si / 1000 Ang^3
#
#
#
# Elastic Constant Matrix: (Units=GPa)
#
#
# Indices 1 2 3 4 5 6 
#
# 1 63.3144 16.8003 4.5877 0.0000 -10.9757 0.0000
# 2 16.8003 138.4469 23.1711 0.0000 -6.8483 0.0000
# 3 4.5877 23.1711 59.9834 0.0000 -19.1110 0.0000
# 4 0.0000 0.0000 0.0000 16.4023 0.0000 -4.5162
# 5 -10.9757 -6.8483 -19.1110 0.0000 30.6453 0.0000
# 6 0.0000 0.0000 0.0000 -4.5162 0.0000 10.8401
#
#
#
# Elastic Compliance Matrix: (Units=1/GPa)
#
#
# Indices 1 2 3 4 5 6 
#
# 1 0.017396 -0.002047 0.001622 0.000000 0.006784 0.000000
# 2 -0.002047 0.007964 -0.003228 0.000000 -0.000966 0.000000
# 3 0.001622 -0.003228 0.022150 0.000000 0.013673 0.000000
# 4 0.000000 0.000000 0.000000 0.068867 0.000000 0.028692
# 5 0.006784 -0.000966 0.013673 0.000000 0.043372 0.000000
# 6 0.000000 0.000000 0.000000 0.028692 0.000000 0.104203
#
#
# Mechanical properties :
#
#
# Convention : Reuss Voigt Hill
#
# Bulk Modulus (GPa) = 24.87288 38.98478 31.92883
# Shear Modulus (GPa) = 17.56484 26.05657 21.81071
#
# Velocity S-wave (km/s) = 2.95532 3.59949 3.29320
# Velocity P-wave (km/s) = 4.90031 6.05474 5.50785
#
# Compressibility (1/GPa) = 0.04020444
#
# Stress axis : x y z
#
# Youngs Moduli (GPa) = 57.48485 125.56889 45.14617
#
# Poissons Ratio (x) = 0.25701 -0.07321
# Poissons Ratio (y) = 0.11766 0.14572
# Poissons Ratio (z) = -0.09322 0.40529
#
# Static dielectric constant tensor:
#      x y z
#    x 1.728010 0.000000 -0.010170 
#    y 0.000000 1.734780 0.000000 
#    z -0.010170 0.000000 1.701160 
# 
# From -- ./inp_files/96741.got.cif
#   From: 2010.05.17/outbox.cif.g08.bks.cpg/sg12_49_cif.got.tgz:96741.got - 2010.06.03 13:09:07.
