data_PCOD9211060
_publ_section_title
;
Structure prediction by ZEFSAII (Michael W. Deem and Ramdas Pophale) SiO2 
 PCOD9211060
Probable space group: C 2/M
;
_chemical_formula_sum "Si O2"
_cell_formula_units_Z 64
_cell_length_a 26.919293
_cell_length_b 27.952330
_cell_length_c 9.336849
_cell_angle_alpha 90.000000
_cell_angle_beta 28.935123
_cell_angle_gamma 90.000000
_cell_volume 3399.107389
_symmetry_space_group_name_H-M "C 2/M"
_symmetry_group_IT_number 12
_symmetry_cell_setting 'monoclinic'
loop_
_space_group_symop_operation_xyz
x,y,z
-x,y,-z
-x,-y,-z
x,-y,z
1/2+x,1/2+y,z
1/2-x,1/2+y,-z
1/2-x,1/2-y,-z
1/2+x,1/2-y,z
loop_
_atom_site_type_symbol
_atom_site_label
_atom_site_fract_x
_atom_site_fract_y
_atom_site_fract_z
Si Si1 0.792266 0.633987 0.194400
Si Si2 0.287702 0.127781 0.753470
Si Si3 0.490443 0.832644 0.854037
Si Si4 0.245310 0.944719 0.088210
Si Si5 0.154777 0.867684 0.814959
Si Si6 0.496802 0.555919 0.337384
Si Si7 0.794269 0.798966 0.823919
Si Si8 0.985668 0.779877 0.865962
O O1 0.793848 0.588488 0.086818
O O2 0.700866 0.628628 0.539953
O O3 0.769901 0.679537 0.147930
O O4 0.897619 0.640020 0.013784
O O5 0.399740 0.151208 0.484400
O O6 0.246985 0.127054 0.695458
O O7 0.281040 0.076415 0.845535
O O8 0.212187 0.161289 0.036463
O O9 0.467733 0.776381 0.889443
O O10 0.500000 0.840890 0.000000
O O11 0.121692 0.939283 0.409515
O O12 0.270824 0.000000 0.038774
O O13 0.070341 0.907786 0.067599
O O14 0.103135 0.815502 0.960526
O O15 0.500000 0.566157 0.500000
O O16 0.527438 0.500000 0.240834
O O17 0.909308 0.792303 0.479218
O O18 0.750000 0.750000 0.000000
O O19 0.000000 0.787611 0.000000
#
# Coordination Sequence:
#
# PCOD9211060 Si02
#       8
#     8   8   8   8   8   8   8   8
#     4  11  25  42  66  92 130 169 219 272 322 378
#     4  11  23  41  64  91 128 168 216 270 321 378
#     4  11  24  43  63  90 127 175 221 268 323 380
#     4  10  23  44  68  96 130 163 207 268 333 396
#     4  12  23  38  65  95 128 169 212 267 318 386
#     4  10  21  39  65  97 130 165 205 257 331 404
#     4  11  23  41  59  91 130 166 213 262 313 382
#     4  11  24  39  63  92 131 172 214 257 322 385
#
# _framework density 18.828472999999999
#
# number of rings (size 3 to 8) (size 9 to 14) (size 15 to 20)
#    0.000    1.125    5.000    1.500    1.750    3.000 
#    0.000    2.500    0.000    0.750    0.000    0.000 
#    0.000    0.000    0.000    0.000    0.000    0.000 
#
# Total GULP energy -178822.306661 kJ/mol
# GULP energy per Si atom -5588.197083 kJ/mol
# Density = 1.878562 g / cm^3
# Si number density = 18.828473 Si / 1000 Ang^3
#
#
#
# Elastic Constant Matrix: (Units=GPa)
#
#
# Indices 1 2 3 4 5 6 
#
# 1 94.8558 62.5663 27.4039 0.0000 -2.1908 0.0000
# 2 62.5663 125.4147 45.5915 0.0000 -5.3973 0.0000
# 3 27.4039 45.5915 73.0584 0.0003 11.1006 -0.0001
# 4 0.0000 0.0000 0.0003 13.4774 -0.0001 1.1746
# 5 -2.1908 -5.3973 11.1006 -0.0001 30.1861 0.0001
# 6 0.0000 0.0000 -0.0001 1.1746 0.0001 19.5732
#
#
#
# Elastic Compliance Matrix: (Units=1/GPa)
#
#
# Indices 1 2 3 4 5 6 
#
# 1 0.015811 -0.007371 -0.001382 0.000000 0.000338 0.000000
# 2 -0.007371 0.014349 -0.006883 0.000000 0.004562 0.000000
# 3 -0.001382 -0.006883 0.019811 -0.000001 -0.008616 0.000000
# 4 0.000000 0.000000 -0.000001 0.074588 0.000001 -0.004476
# 5 0.000338 0.004562 -0.008616 0.000001 0.037137 0.000000
# 6 0.000000 0.000000 0.000000 -0.004476 0.000000 0.051359
#
#
# Mechanical properties :
#
#
# Convention : Reuss Voigt Hill
#
# Bulk Modulus (GPa) = 53.47919 62.71693 58.09806
# Shear Modulus (GPa) = 19.95535 23.16515 21.56025
#
# Velocity S-wave (km/s) = 3.25906 3.51140 3.38759
# Velocity P-wave (km/s) = 6.52894 7.05846 6.79886
#
# Compressibility (1/GPa) = 0.01869886
#
# Stress axis : x y z
#
# Youngs Moduli (GPa) = 63.24632 69.69123 50.47823
#
# Poissons Ratio (x) = 0.51367 0.06978
# Poissons Ratio (y) = 0.46617 0.34743
# Poissons Ratio (z) = 0.08743 0.47967
#
# Static dielectric constant tensor:
#      x y z
#    x 1.644440 0.000000 0.006620 
#    y 0.000000 1.649610 0.000000 
#    z 0.006620 0.000000 1.645260 
# 
# From -- ./inp_files/100199.got.cif
#   From: 2010.05.17/outbox.cif.g08.bks.cpg/sg12_51_cif.got.tgz:100199.got - 2010.06.03 13:09:07.
