data_PCOD9211898
_publ_section_title
;
Structure prediction by ZEFSAII (Michael W. Deem and Ramdas Pophale) SiO2 
 PCOD9211898
Probable space group: C 2/M
;
_chemical_formula_sum "Si O2"
_cell_formula_units_Z 58
_cell_length_a 12.029986
_cell_length_b 14.089183
_cell_length_c 17.754918
_cell_angle_alpha 90.000000
_cell_angle_beta 81.943668
_cell_angle_gamma 90.000000
_cell_volume 2979.628741
_symmetry_space_group_name_H-M "C 2/M"
_symmetry_group_IT_number 12
_symmetry_cell_setting 'monoclinic'
loop_
_space_group_symop_operation_xyz
x,y,z
-x,y,-z
-x,-y,-z
x,-y,z
1/2+x,1/2+y,z
1/2-x,1/2+y,-z
1/2-x,1/2-y,-z
1/2+x,1/2-y,z
loop_
_atom_site_type_symbol
_atom_site_label
_atom_site_fract_x
_atom_site_fract_y
_atom_site_fract_z
Si Si1 0.181396 0.113580 0.960007
Si Si2 0.328504 0.866038 0.427335
Si Si3 0.585107 0.213523 0.057840
Si Si4 0.000000 0.500000 0.500000
Si Si5 0.395376 0.264682 0.176943
Si Si6 0.515071 0.395791 0.705614
Si Si7 0.748648 0.391177 0.264905
Si Si8 0.110576 0.848180 0.540073
O O1 0.312283 0.141369 0.949640
O O2 0.137598 0.162620 0.886885
O O3 0.161192 0.000000 0.966930
O O4 0.127308 0.179810 0.031004
O O5 0.308861 0.885579 0.340876
O O6 0.213756 0.890698 0.483069
O O7 0.349883 0.755104 0.436868
O O8 0.431647 0.919184 0.456734
O O9 0.512419 0.218027 0.139869
O O10 0.500000 0.184661 0.000000
O O11 0.418613 0.322583 0.249753
O O12 0.303831 0.184035 0.202735
O O13 0.519578 0.500000 0.741152
O O14 0.383547 0.370003 0.711017
O O15 0.572739 0.399626 0.619220
O O16 0.758848 0.500000 0.236677
O O17 0.000000 0.841555 0.500000
#
# Coordination Sequence:
#
# PCOD9211898 Si02
#       8
#     8   8   8   2   8   8   8   8
#     4  10  21  40  67  96 125 163 206 255 307 363
#     4  11  23  39  62  90 120 159 209 272 327 384
#     4   9  21  40  64  94 126 164 205 252 300 366
#     4  12  24  40  62  92 118 152 214 274 328 392
#     4  11  22  41  61  89 131 165 203 250 313 378
#     4  11  24  38  60  91 120 160 211 265 315 371
#     4  11  23  40  61  87 122 167 210 255 317 380
#     4  11  22  40  64  88 119 162 213 271 326 374
#
# _framework density 19.465513000000001
#
# number of rings (size 3 to 8) (size 9 to 14) (size 15 to 20)
#    0.000    1.379    4.138    1.241    0.966    4.138 
#    0.000    8.276    3.034    0.000    0.000    0.000 
#    0.000    0.000    0.000    0.000    0.000    0.000 
#
# Total GULP energy -161611.717281 kJ/mol
# GULP energy per Si atom -5572.817837 kJ/mol
# Density = 1.942121 g / cm^3
# Si number density = 19.465513 Si / 1000 Ang^3
#
#
#
# Elastic Constant Matrix: (Units=GPa)
#
#
# Indices 1 2 3 4 5 6 
#
# 1 71.0728 20.0546 6.8998 0.0000 -3.6323 0.0000
# 2 20.0546 110.0778 21.0559 0.0000 -6.1372 0.0000
# 3 6.8998 21.0559 56.4630 0.0000 -21.8761 0.0000
# 4 0.0000 0.0000 0.0000 16.9005 0.0000 6.5095
# 5 -3.6323 -6.1372 -21.8761 0.0000 28.3678 0.0000
# 6 0.0000 0.0000 0.0000 6.5095 0.0000 25.4056
#
#
#
# Elastic Compliance Matrix: (Units=1/GPa)
#
#
# Indices 1 2 3 4 5 6 
#
# 1 0.014891 -0.002566 -0.000484 0.000000 0.000979 0.000000
# 2 -0.002566 0.010244 -0.003958 0.000000 -0.001164 0.000000
# 3 -0.000484 -0.003958 0.026939 0.000000 0.019856 0.000000
# 4 0.000000 0.000000 0.000000 0.065649 0.000000 -0.016821
# 5 0.000979 -0.001164 0.019856 0.000000 0.050436 0.000000
# 6 0.000000 0.000000 0.000000 -0.016821 0.000000 0.043671
#
#
# Mechanical properties :
#
#
# Convention : Reuss Voigt Hill
#
# Bulk Modulus (GPa) = 26.27484 37.07044 31.67264
# Shear Modulus (GPa) = 20.96164 26.77501 23.86832
#
# Velocity S-wave (km/s) = 3.28511 3.71281 3.50549
# Velocity P-wave (km/s) = 5.28363 6.12090 5.71761
#
# Compressibility (1/GPa) = 0.03805923
#
# Stress axis : x y z
#
# Youngs Moduli (GPa) = 67.15442 97.61744 37.12141
#
# Poissons Ratio (x) = 0.25047 0.01796
# Poissons Ratio (y) = 0.17231 0.14692
# Poissons Ratio (z) = 0.03248 0.38634
#
# Static dielectric constant tensor:
#      x y z
#    x 1.674790 0.000000 -0.008990 
#    y 0.000000 1.682150 0.000000 
#    z -0.008990 0.000000 1.697520 
# 
# From -- ./inp_files/262900.got.cif
#   From: 2010.05.17/outbox.cif.g08.bks.cpg/sg12_132_cif.got.tgz:262900.got - 2010.06.03 13:09:07.
