data_PCOD9211540
_publ_section_title
;
Structure prediction by ZEFSAII (Michael W. Deem and Ramdas Pophale) SiO2 
 PCOD9211540
Probable space group: C 2/M
;
_chemical_formula_sum "Si O2"
_cell_formula_units_Z 48
_cell_length_a 7.992308
_cell_length_b 31.336698
_cell_length_c 8.928405
_cell_angle_alpha 90.000000
_cell_angle_beta 82.438261
_cell_angle_gamma 90.000000
_cell_volume 2216.695430
_symmetry_space_group_name_H-M "C 2/M"
_symmetry_group_IT_number 12
_symmetry_cell_setting 'monoclinic'
loop_
_space_group_symop_operation_xyz
x,y,z
-x,y,-z
-x,-y,-z
x,-y,z
1/2+x,1/2+y,z
1/2-x,1/2+y,-z
1/2-x,1/2-y,-z
1/2+x,1/2-y,z
loop_
_atom_site_type_symbol
_atom_site_label
_atom_site_fract_x
_atom_site_fract_y
_atom_site_fract_z
Si Si1 0.760583 0.078397 0.171806
Si Si2 0.126526 0.243065 0.379901
Si Si3 0.132811 0.913689 0.185169
Si Si4 0.070699 0.450893 0.649279
Si Si5 0.383083 0.171438 0.799065
Si Si6 0.756232 0.177157 0.871257
O O1 0.596608 0.050889 0.228573
O O2 0.702999 0.126343 0.227944
O O3 0.942699 0.068409 0.224418
O O4 0.795369 0.075661 0.989355
O O5 0.250000 0.250000 0.500000
O O6 0.089703 0.290744 0.323004
O O7 0.186425 0.216916 0.231833
O O8 0.000000 0.216302 0.500000
O O9 0.270048 0.927781 0.292096
O O10 0.121251 0.862290 0.174962
O O11 0.121066 0.500000 0.617803
O O12 0.000000 0.432667 0.500000
O O13 0.571162 0.162290 0.837661
O O14 0.268839 0.187925 0.951637
#
# Coordination Sequence:
#
# PCOD9211540 Si02
#       6
#     8   8   8   8   8   8
#     4  10  22  41  69  98 126 164 216 270 317 376
#     4  12  25  39  53  85 126 163 211 265 313 373
#     4  10  22  42  68  98 125 164 218 267 318 380
#     4  11  25  44  66  96 135 173 207 254 322 393
#     4  10  21  40  64  85 120 168 213 263 322 379
#     4  10  21  41  62  85 120 166 217 263 318 379
#
# _framework density 21.653855
#
# number of rings (size 3 to 8) (size 9 to 14) (size 15 to 20)
#    0.000    1.500    3.333    1.000    2.333    4.667 
#    0.000    3.333    0.000    0.000    0.000    0.000 
#    0.000    0.000    0.000    0.000    0.000    0.000 
#
# Total GULP energy -133680.031873 kJ/mol
# GULP energy per Si atom -5570.001328 kJ/mol
# Density = 2.160457 g / cm^3
# Si number density = 21.653855 Si / 1000 Ang^3
#
#
#
# Elastic Constant Matrix: (Units=GPa)
#
#
# Indices 1 2 3 4 5 6 
#
# 1 76.8139 6.1567 16.8822 0.0000 11.0381 0.0000
# 2 6.1567 39.4882 28.5100 0.0000 -0.0990 0.0000
# 3 16.8822 28.5100 69.5120 0.0000 13.0887 0.0000
# 4 0.0000 0.0000 0.0000 18.1638 0.0000 7.6920
# 5 11.0381 -0.0990 13.0887 0.0000 33.2857 0.0000
# 6 0.0000 0.0000 0.0000 7.6920 0.0000 2.8538
#
#
#
# Elastic Compliance Matrix: (Units=1/GPa)
#
#
# Indices 1 2 3 4 5 6 
#
# 1 0.014145 -0.000330 -0.002610 0.000000 -0.003666 0.000000
# 2 -0.000330 0.037286 -0.016474 0.000000 0.006698 0.000000
# 3 -0.002610 -0.016474 0.023352 0.000000 -0.008366 0.000000
# 4 0.000000 0.000000 0.000000 -0.389289 0.000000 1.049273
# 5 -0.003666 0.006698 -0.008366 0.000000 0.034568 0.000000
# 6 0.000000 0.000000 0.000000 1.049273 0.000000 -2.477754
#
#
# Mechanical properties :
#
#
# Convention : Reuss Voigt Hill
#
# Bulk Modulus (GPa) = 27.81222 32.10132 29.95677
# Shear Modulus (GPa) = -1.84715 19.81167 8.98226
#
# Velocity S-wave (km/s) = -0.92460 3.02806 2.03890
# Velocity P-wave (km/s) = 3.42521 5.20408 4.40536
#
# Compressibility (1/GPa) = 0.03595542
#
# Stress axis : x y z
#
# Youngs Moduli (GPa) = 70.69503 26.81960 42.82345
#
# Poissons Ratio (x) = 0.00886 0.11176
# Poissons Ratio (y) = 0.02336 0.70546
# Poissons Ratio (z) = 0.18449 0.44182
#
# Static dielectric constant tensor:
#      x y z
#    x 1.779290 0.000000 0.010210 
#    y 0.000000 1.796290 0.000000 
#    z 0.010210 0.000000 1.771930 
# 
# From -- ./inp_files/42140.got.cif
#   From: 2010.05.17/outbox.cif.g08.bks.cpg/sg12_22_cif.got.tgz:42140.got - 2010.06.03 13:09:07.
