data_PCOD9211269
_publ_section_title
;
Structure prediction by ZEFSAII (Michael W. Deem and Ramdas Pophale) SiO2 
 PCOD9211269
Probable space group: C 2/M
;
_chemical_formula_sum "Si O2"
_cell_formula_units_Z 32
_cell_length_a 10.712430
_cell_length_b 16.167194
_cell_length_c 17.777417
_cell_angle_alpha 90.000000
_cell_angle_beta 34.914523
_cell_angle_gamma 90.000000
_cell_volume 1762.202582
_symmetry_space_group_name_H-M "C 2/M"
_symmetry_group_IT_number 12
_symmetry_cell_setting 'monoclinic'
loop_
_space_group_symop_operation_xyz
x,y,z
-x,y,-z
-x,-y,-z
x,-y,z
1/2+x,1/2+y,z
1/2-x,1/2+y,-z
1/2-x,1/2-y,-z
1/2+x,1/2-y,z
loop_
_atom_site_type_symbol
_atom_site_label
_atom_site_fract_x
_atom_site_fract_y
_atom_site_fract_z
Si Si1 0.509607 0.334465 0.906209
Si Si2 0.272862 0.500000 0.522605
Si Si3 0.051534 0.362623 0.061102
Si Si4 0.733472 0.000000 0.720630
Si Si5 0.078917 0.594457 0.383080
O O1 0.496887 0.234957 0.906811
O O2 0.732077 0.362938 0.757095
O O3 0.500000 0.356356 0.000000
O O4 0.301707 0.372093 0.964782
O O5 0.256715 0.500000 0.619725
O O6 0.518779 0.500000 0.372268
O O7 0.136618 0.578205 0.559566
O O8 0.898238 0.419994 0.187102
O O9 0.000000 0.384801 0.000000
O O10 0.158078 0.500000 0.362410
O O11 0.000000 0.634335 0.500000
#
# Coordination Sequence:
#
# PCOD9211269 Si02
#       5
#     8   4   8   4   8
#     4  10  21  40  59  87 114 145 196 238 277 334
#     4   9  21  37  55  83 115 145 191 237 263 355
#     4  10  23  36  59  85 117 146 188 237 283 339
#     4  11  21  37  57  81 119 153 181 229 295 333
#     4   9  20  36  60  84 110 144 192 236 274 330
#
# _framework density 18.159092999999999
#
# number of rings (size 3 to 8) (size 9 to 14) (size 15 to 20)
#    0.750    1.500    0.000    1.875    5.250    0.500 
#    4.500    1.250    0.000    0.000    0.000    0.000 
#    0.000    0.000    0.000    0.000    0.000    0.000 
#
# Total GULP energy -89152.128947 kJ/mol
# GULP energy per Si atom -5572.008059 kJ/mol
# Density = 1.811776 g / cm^3
# Si number density = 18.159093 Si / 1000 Ang^3
#
#
#
# Elastic Constant Matrix: (Units=GPa)
#
#
# Indices 1 2 3 4 5 6 
#
# 1 131.4196 25.0691 69.1832 0.0038 -12.3869 0.0001
# 2 25.0691 21.9074 38.4734 0.0124 -3.3880 -0.0029
# 3 69.1832 38.4734 149.3005 0.0354 -9.7211 -0.0059
# 4 0.0038 0.0124 0.0354 -7.1000 -0.0050 9.2431
# 5 -12.3869 -3.3880 -9.7211 -0.0050 38.3485 0.0003
# 6 0.0001 -0.0029 -0.0059 9.2431 0.0003 13.3832
#
#
#
# Elastic Compliance Matrix: (Units=1/GPa)
#
#
# Indices 1 2 3 4 5 6 
#
# 1 0.010689 -0.006300 -0.003194 -0.000014 0.002086 0.000007
# 2 -0.006300 0.087238 -0.019514 0.000034 0.000726 -0.000013
# 3 -0.003194 -0.019514 0.013246 0.000017 0.000602 -0.000010
# 4 -0.000014 0.000034 0.000017 -0.074164 -0.000007 0.051221
# 5 0.002086 0.000726 0.000602 -0.000007 0.026967 0.000005
# 6 0.000007 -0.000013 -0.000010 0.051221 0.000005 0.039345
#
#
# Mechanical properties :
#
#
# Convention : Reuss Voigt Hill
#
# Bulk Modulus (GPa) = 18.81219 63.11986 40.96602
# Shear Modulus (GPa) = 27.92441 20.25314 24.08878
#
# Velocity S-wave (km/s) = 3.92569 3.34326 3.64612
# Velocity P-wave (km/s) = 5.56149 7.05252 6.35091
#
# Compressibility (1/GPa) = 0.05315703
#
# Stress axis : x y z
#
# Youngs Moduli (GPa) = 93.55478 11.46293 75.49715
#
# Poissons Ratio (x) = 0.07222 0.24112
# Poissons Ratio (y) = 0.58940 1.47323
# Poissons Ratio (z) = 0.29879 0.22368
#
# Static dielectric constant tensor:
#      x y z
#    x 1.659730 0.000000 0.003170 
#    y 0.000000 1.613330 0.000000 
#    z 0.003170 0.000000 1.587520 
# 
# From -- ./inp_files/262651.got.cif
#   From: 2010.05.17/outbox.cif.g08.bks.cpg/sg12_132_cif.got.tgz:262651.got - 2010.06.03 13:09:07.
