data_PCOD9211077
_publ_section_title
;
Structure prediction by ZEFSAII (Michael W. Deem and Ramdas Pophale) SiO2 
 PCOD9211077
Probable space group: C 2/M
;
_chemical_formula_sum "Si O2"
_cell_formula_units_Z 44
_cell_length_a 14.701412
_cell_length_b 10.062514
_cell_length_c 13.640262
_cell_angle_alpha 90.000000
_cell_angle_beta 103.996100
_cell_angle_gamma 90.000000
_cell_volume 1957.941657
_symmetry_space_group_name_H-M "C 2/M"
_symmetry_group_IT_number 12
_symmetry_cell_setting 'monoclinic'
loop_
_space_group_symop_operation_xyz
x,y,z
-x,y,-z
-x,-y,-z
x,-y,z
1/2+x,1/2+y,z
1/2-x,1/2+y,-z
1/2-x,1/2-y,-z
1/2+x,1/2-y,z
loop_
_atom_site_type_symbol
_atom_site_label
_atom_site_fract_x
_atom_site_fract_y
_atom_site_fract_z
Si Si1 0.395816 0.852422 0.438005
Si Si2 0.401868 0.500000 0.918436
Si Si3 0.366090 0.226683 0.217453
Si Si4 0.570437 0.735377 0.219445
Si Si5 0.916384 0.500000 0.902015
Si Si6 0.705553 0.000000 0.947468
Si Si7 0.755458 0.342706 0.652085
O O1 0.500000 0.819239 0.500000
O O2 0.396068 0.860230 0.319720
O O3 0.320335 0.735803 0.433637
O O4 0.370706 0.000000 0.469551
O O5 0.392178 0.624742 0.844194
O O6 0.317019 0.500000 0.971541
O O7 0.500000 0.500000 0.000000
O O8 0.463071 0.299544 0.216116
O O9 0.286443 0.317633 0.247707
O O10 0.331477 0.130599 0.121426
O O11 0.644929 0.766265 0.324654
O O12 0.571225 0.873105 0.161864
O O13 0.827750 0.500000 0.949989
O O14 0.000000 0.500000 0.000000
O O15 0.761887 0.500000 0.637366
#
# Coordination Sequence:
#
# PCOD9211077 Si02
#       7
#     8   4   8   8   4   4   8
#     4   9  19  38  66  95 124 163 206 245 302 376
#     4  12  28  42  58  91 125 163 204 272 305 362
#     4  10  21  39  66  88 121 165 200 252 306 372
#     4  12  24  41  63  90 124 160 212 252 314 361
#     4  12  24  38  64  90 115 160 215 260 288 374
#     4  12  22  44  67  83 125 167 210 248 315 364
#     4  10  22  39  63  92 123 161 199 257 308 365
#
# _framework density 22.472579
#
# number of rings (size 3 to 8) (size 9 to 14) (size 15 to 20)
#    1.091    0.182    5.455    0.545    2.545    2.545 
#    0.000    0.909    0.000    0.000    0.000    0.000 
#    0.000    0.000    0.000    0.000    0.000    0.000 
#
# Total GULP energy -122801.541245 kJ/mol
# GULP energy per Si atom -5581.888238 kJ/mol
# Density = 2.242143 g / cm^3
# Si number density = 22.472579 Si / 1000 Ang^3
#
#
#
# Elastic Constant Matrix: (Units=GPa)
#
#
# Indices 1 2 3 4 5 6 
#
# 1 120.1001 -6.0886 7.7982 0.0000 11.3514 0.0000
# 2 -6.0886 83.0982 12.6174 0.0000 20.7234 0.0000
# 3 7.7982 12.6174 75.9978 0.0000 24.4358 0.0000
# 4 0.0000 0.0000 0.0000 25.1794 0.0000 18.8153
# 5 11.3514 20.7234 24.4358 0.0000 54.7593 0.0000
# 6 0.0000 0.0000 0.0000 18.8153 0.0000 19.8904
#
#
#
# Elastic Compliance Matrix: (Units=1/GPa)
#
#
# Indices 1 2 3 4 5 6 
#
# 1 0.008609 0.001207 -0.000424 0.000000 -0.002052 0.000000
# 2 0.001207 0.013488 -0.000749 0.000000 -0.005021 0.000000
# 3 -0.000424 -0.000749 0.015419 0.000000 -0.006509 0.000000
# 4 0.000000 0.000000 0.000000 0.135483 0.000000 -0.128161
# 5 -0.002052 -0.005021 -0.006509 0.000000 0.023492 0.000000
# 6 0.000000 0.000000 0.000000 -0.128161 0.000000 0.171510
#
#
# Mechanical properties :
#
#
# Convention : Reuss Voigt Hill
#
# Bulk Modulus (GPa) = 26.60671 34.20555 30.40613
# Shear Modulus (GPa) = 13.14195 37.62376 25.38285
#
# Velocity S-wave (km/s) = 2.42089 4.09615 3.36445
# Velocity P-wave (km/s) = 4.43617 6.13395 5.35280
#
# Compressibility (1/GPa) = 0.03758450
#
# Stress axis : x y z
#
# Youngs Moduli (GPa) = 116.15664 74.13917 64.85478
#
# Poissons Ratio (x) = -0.08948 0.02749
# Poissons Ratio (y) = -0.14019 0.04857
# Poissons Ratio (z) = 0.04924 0.05552
#
# Static dielectric constant tensor:
#      x y z
#    x 1.898080 0.000000 -0.031690 
#    y 0.000000 1.773500 0.000000 
#    z -0.031690 0.000000 1.895560 
# 
# From -- ./inp_files/267346.got.cif
#   From: 2010.05.17/outbox.cif.g08.bks.cpg/sg12_134_cif.got.tgz:267346.got - 2010.06.03 13:09:07.
