data_PCOD9211552
_publ_section_title
;
Structure prediction by ZEFSAII (Michael W. Deem and Ramdas Pophale) SiO2 
 PCOD9211552
Probable space group: C 2/M
;
_chemical_formula_sum "Si O2"
_cell_formula_units_Z 56
_cell_length_a 19.534906
_cell_length_b 8.878203
_cell_length_c 21.868753
_cell_angle_alpha 90.000000
_cell_angle_beta 123.563109
_cell_angle_gamma 90.000000
_cell_volume 3160.457895
_symmetry_space_group_name_H-M "C 2/M"
_symmetry_group_IT_number 12
_symmetry_cell_setting 'monoclinic'
loop_
_space_group_symop_operation_xyz
x,y,z
-x,y,-z
-x,-y,-z
x,-y,z
1/2+x,1/2+y,z
1/2-x,1/2+y,-z
1/2-x,1/2-y,-z
1/2+x,1/2-y,z
loop_
_atom_site_type_symbol
_atom_site_label
_atom_site_fract_x
_atom_site_fract_y
_atom_site_fract_z
Si Si1 0.036615 0.181919 0.689920
Si Si2 0.986914 0.679784 0.188030
Si Si3 0.278430 0.678484 0.203348
Si Si4 0.685544 0.679300 0.921560
Si Si5 0.377041 0.680500 0.544993
Si Si6 0.257325 0.680475 0.598697
Si Si7 0.655224 0.679872 0.232883
O O1 0.011673 0.256773 0.741817
O O2 0.131664 0.219222 0.725055
O O3 0.970664 0.224507 0.605749
O O4 0.031922 0.000000 0.696124
O O5 0.985373 0.500000 0.188103
O O6 0.903619 0.744396 0.117460
O O7 0.067393 0.740910 0.194055
O O8 0.265279 0.500000 0.206966
O O9 0.285427 0.704003 0.134173
O O10 0.207113 0.771396 0.199918
O O11 0.678261 0.500000 0.926976
O O12 0.750000 0.750000 0.000000
O O13 0.374043 0.500000 0.537562
O O14 0.323734 0.722650 0.579063
O O15 0.329485 0.751683 0.464685
O O16 0.251213 0.500000 0.595317
O O17 0.291962 0.727841 0.681284
O O18 0.644242 0.500000 0.230191
#
# Coordination Sequence:
#
# PCOD9211552 Si02
#       7
#     8   8   8   8   8   8   8
#     4   9  17  34  54  75 106 142 182 230 277 321
#     4  11  21  33  56  85 110 141 184 223 263 319
#     4   9  20  36  56  81 110 142 176 219 268 320
#     4  10  21  40  64  88 116 143 174 216 262 314
#     4   9  16  29  49  72 100 136 181 228 276 323
#     4   9  18  30  46  71 103 138 179 227 276 319
#     4  11  21  36  54  76 111 148 182 225 274 322
#
# _framework density 17.718952000000002
#
# number of rings (size 3 to 8) (size 9 to 14) (size 15 to 20)
#    0.000    2.286    1.429    3.000    0.000    4.571 
#    0.000    1.429    0.000    8.571    0.000    0.000 
#    0.000    0.000    0.000    0.000    0.000    0.000 
#
# Total GULP energy -156231.993490 kJ/mol
# GULP energy per Si atom -5579.714053 kJ/mol
# Density = 1.767862 g / cm^3
# Si number density = 17.718952 Si / 1000 Ang^3
#
#
#
# Elastic Constant Matrix: (Units=GPa)
#
#
# Indices 1 2 3 4 5 6 
#
# 1 103.2433 54.0939 46.5946 0.0000 23.9166 0.0000
# 2 54.0939 58.9324 42.8956 0.0000 13.3081 0.0000
# 3 46.5946 42.8956 109.2142 0.0000 35.7395 0.0000
# 4 0.0000 0.0000 0.0000 30.8910 0.0000 2.8994
# 5 23.9166 13.3081 35.7395 0.0000 23.0459 0.0000
# 6 0.0000 0.0000 0.0000 2.8994 0.0000 26.9317
#
#
#
# Elastic Compliance Matrix: (Units=1/GPa)
#
#
# Indices 1 2 3 4 5 6 
#
# 1 0.022069 -0.019083 0.003997 0.000000 -0.018081 0.000000
# 2 -0.019083 0.040290 -0.013299 0.000000 0.017163 0.000000
# 3 0.003997 -0.013299 0.023388 0.000000 -0.032738 0.000000
# 4 0.000000 0.000000 0.000000 0.032702 0.000000 -0.003521
# 5 -0.018081 0.017163 -0.032738 0.000000 0.103015 0.000000
# 6 0.000000 0.000000 0.000000 -0.003521 0.000000 0.037510
#
#
# Mechanical properties :
#
#
# Convention : Reuss Voigt Hill
#
# Bulk Modulus (GPa) = 34.51254 62.06200 48.28727
# Shear Modulus (GPa) = 15.36552 24.69412 20.02982
#
# Velocity S-wave (km/s) = 2.94799 3.73722 3.36582
# Velocity P-wave (km/s) = 5.57741 7.32968 6.51275
#
# Compressibility (1/GPa) = 0.02897497
#
# Stress axis : x y z
#
# Youngs Moduli (GPa) = 45.31170 24.82029 42.75725
#
# Poissons Ratio (x) = 0.47366 -0.17089
# Poissons Ratio (y) = 0.86470 0.56864
# Poissons Ratio (z) = -0.18110 0.33009
#
# Static dielectric constant tensor:
#      x y z
#    x 1.595250 0.000000 0.013570 
#    y 0.000000 1.592510 0.000000 
#    z 0.013570 0.000000 1.601020 
# 
# From -- ./inp_files/314355.got.cif
#   From: 2010.05.17/outbox.cif.g08.bks.cpg/sg12_158_cif.got.tgz:314355.got - 2010.06.03 13:09:07.
