data_PCOD9211508
_publ_section_title
;
Structure prediction by ZEFSAII (Michael W. Deem and Ramdas Pophale) SiO2 
 PCOD9211508
Probable space group: C 2/M
;
_chemical_formula_sum "Si O2"
_cell_formula_units_Z 56
_cell_length_a 11.159093
_cell_length_b 19.745417
_cell_length_c 13.700011
_cell_angle_alpha 90.000000
_cell_angle_beta 104.429870
_cell_angle_gamma 90.000000
_cell_volume 2923.444424
_symmetry_space_group_name_H-M "C 2/M"
_symmetry_group_IT_number 12
_symmetry_cell_setting 'monoclinic'
loop_
_space_group_symop_operation_xyz
x,y,z
-x,y,-z
-x,-y,-z
x,-y,z
1/2+x,1/2+y,z
1/2-x,1/2+y,-z
1/2-x,1/2-y,-z
1/2+x,1/2-y,z
loop_
_atom_site_type_symbol
_atom_site_label
_atom_site_fract_x
_atom_site_fract_y
_atom_site_fract_z
Si Si1 0.200617 0.224567 0.732638
Si Si2 0.348205 0.208914 0.952792
Si Si3 0.089567 0.373748 0.737726
Si Si4 0.736400 0.078919 0.587027
Si Si5 0.362457 0.186643 0.590638
Si Si6 0.124021 0.428035 0.961069
Si Si7 0.527193 0.663906 0.395104
O O1 0.310999 0.215652 0.832316
O O2 0.153060 0.299810 0.745603
O O3 0.249996 0.213311 0.633417
O O4 0.084382 0.173307 0.705231
O O5 0.500000 0.219060 0.000000
O O6 0.250000 0.250000 0.000000
O O7 0.309749 0.133324 0.974472
O O8 0.239986 0.500000 0.553673
O O9 0.159660 0.418053 0.671464
O O10 0.094731 0.405812 0.845105
O O11 0.950977 0.358546 0.676080
O O12 0.673634 0.135326 0.502838
O O13 0.871147 0.112744 0.626927
O O14 0.427818 0.257951 0.579462
O O15 0.189020 0.500000 0.974519
O O16 0.000000 0.433437 0.000000
O O17 0.500000 0.638662 0.500000
#
# Coordination Sequence:
#
# PCOD9211508 Si02
#       7
#     8   8   8   8   8   8   8
#     4  11  22  39  68  95 123 166 220 271 325 375
#     4  11  23  40  65  99 128 166 219 277 327 389
#     4  11  22  38  65  94 126 165 216 272 322 386
#     4  12  25  40  60  91 134 176 211 261 329 390
#     4  11  21  39  63  92 127 163 221 267 316 381
#     4  10  21  40  63  90 129 168 208 264 332 392
#     4  11  22  40  63  89 123 171 220 265 310 381
#
# _framework density 19.155486
#
# number of rings (size 3 to 8) (size 9 to 14) (size 15 to 20)
#    0.000    1.000    4.286    4.714    2.000    2.000 
#    0.000    1.429    0.000    0.429    0.000    0.000 
#    0.000    0.000    0.000    0.000    0.000    0.000 
#
# Total GULP energy -155930.562106 kJ/mol
# GULP energy per Si atom -5568.948647 kJ/mol
# Density = 1.911189 g / cm^3
# Si number density = 19.155486 Si / 1000 Ang^3
#
#
#
# Elastic Constant Matrix: (Units=GPa)
#
#
# Indices 1 2 3 4 5 6 
#
# 1 58.8360 10.5020 16.5880 0.0000 -0.8253 0.0000
# 2 10.5020 88.4572 6.7176 0.0000 -3.2738 0.0000
# 3 16.5880 6.7176 83.4781 0.0000 0.5322 0.0000
# 4 0.0000 0.0000 0.0000 11.0055 0.0000 -2.6191
# 5 -0.8253 -3.2738 0.5322 0.0000 40.9477 0.0000
# 6 0.0000 0.0000 0.0000 -2.6191 0.0000 16.8975
#
#
#
# Elastic Compliance Matrix: (Units=1/GPa)
#
#
# Indices 1 2 3 4 5 6 
#
# 1 0.018323 -0.001901 -0.003490 0.000000 0.000263 0.000000
# 2 -0.001901 0.011606 -0.000562 0.000000 0.000897 0.000000
# 3 -0.003490 -0.000562 0.012720 0.000000 -0.000281 0.000000
# 4 0.000000 0.000000 0.000000 0.094344 0.000000 0.014623
# 5 0.000263 0.000897 -0.000281 0.000000 0.024502 0.000000
# 6 0.000000 0.000000 0.000000 0.014623 0.000000 0.061447
#
#
# Mechanical properties :
#
#
# Convention : Reuss Voigt Hill
#
# Bulk Modulus (GPa) = 32.52619 33.15405 32.84012
# Shear Modulus (GPa) = 20.40023 26.90104 23.65064
#
# Velocity S-wave (km/s) = 3.26695 3.75153 3.51759
# Velocity P-wave (km/s) = 5.58995 6.00922 5.80337
#
# Compressibility (1/GPa) = 0.03074445
#
# Stress axis : x y z
#
# Youngs Moduli (GPa) = 54.57551 86.15907 78.61851
#
# Poissons Ratio (x) = 0.16376 0.27436
# Poissons Ratio (y) = 0.10373 0.04418
# Poissons Ratio (z) = 0.19045 0.04842
#
# Static dielectric constant tensor:
#      x y z
#    x 1.768240 0.000000 0.013000 
#    y 0.000000 1.653630 0.000000 
#    z 0.013000 0.000000 1.658120 
# 
# From -- ./inp_files/133309.got.cif
#   From: 2010.05.17/outbox.cif.g08.bks.cpg/sg12_67_cif.got.tgz:133309.got - 2010.06.03 13:09:07.
