data_PCOD9211364
_publ_section_title
;
Structure prediction by ZEFSAII (Michael W. Deem and Ramdas Pophale) SiO2 
 PCOD9211364
Probable space group: C 2/M
;
_chemical_formula_sum "Si O2"
_cell_formula_units_Z 64
_cell_length_a 35.173435
_cell_length_b 7.791433
_cell_length_c 15.890773
_cell_angle_alpha 90.000000
_cell_angle_beta 43.760225
_cell_angle_gamma 90.000000
_cell_volume 3012.024352
_symmetry_space_group_name_H-M "C 2/M"
_symmetry_group_IT_number 12
_symmetry_cell_setting 'monoclinic'
loop_
_space_group_symop_operation_xyz
x,y,z
-x,y,-z
-x,-y,-z
x,-y,z
1/2+x,1/2+y,z
1/2-x,1/2+y,-z
1/2-x,1/2-y,-z
1/2+x,1/2-y,z
loop_
_atom_site_type_symbol
_atom_site_label
_atom_site_fract_x
_atom_site_fract_y
_atom_site_fract_z
Si Si1 0.639793 0.203029 0.268445
Si Si2 0.753214 0.292253 0.169509
Si Si3 0.540871 0.799062 0.865267
Si Si4 0.011369 0.202507 0.225057
Si Si5 0.533157 0.701497 0.526958
Si Si6 0.369841 0.208322 0.907552
Si Si7 0.759009 0.793809 0.620247
Si Si8 0.836763 0.292969 0.351364
O O1 0.702484 0.237414 0.192843
O O2 0.597167 0.281804 0.402827
O O3 0.627415 0.267353 0.193965
O O4 0.630386 0.000000 0.284130
O O5 0.753800 0.500000 0.169244
O O6 0.743182 0.230302 0.280893
O O7 0.812245 0.235390 0.040125
O O8 0.513310 0.786994 0.818191
O O9 0.602317 0.725398 0.762967
O O10 0.547919 0.000000 0.876192
O O11 0.500000 0.721903 0.000000
O O12 0.076586 0.229295 0.129232
O O13 0.984723 0.273088 0.354301
O O14 0.999407 0.000000 0.237721
O O15 0.500000 0.776541 0.500000
O O16 0.518586 0.500000 0.554226
O O17 0.370477 0.000000 0.906813
O O18 0.813496 0.751203 0.480600
O O19 0.707775 0.729636 0.645768
O O20 0.754768 0.000000 0.630549
O O21 0.837510 0.500000 0.345130
#
# Coordination Sequence:
#
# PCOD9211364 Si02
#       8
#     8   8   8   8   8   8   8   8
#     4  11  23  37  58  89 121 153 196 249 294 343
#     4  10  22  38  60  85 115 156 197 239 291 356
#     4  10  23  41  64  89 119 159 197 241 298 361
#     4  11  24  40  62  90 120 157 201 250 300 353
#     4  10  21  40  62  85 118 161 201 241 297 362
#     4  10  22  40  61  85 117 158 200 242 293 352
#     4   9  19  36  59  84 109 147 192 235 286 344
#     4   9  19  37  59  84 113 145 188 237 286 340
#
# _framework density 21.248169000000001
#
# number of rings (size 3 to 8) (size 9 to 14) (size 15 to 20)
#    0.000    2.000    1.250    1.125    3.500    3.500 
#    0.000    0.000    0.000    0.000    0.000    0.000 
#    0.000    0.000    0.000    0.000    0.000    0.000 
#
# Total GULP energy -178803.794943 kJ/mol
# GULP energy per Si atom -5587.618592 kJ/mol
# Density = 2.119981 g / cm^3
# Si number density = 21.248169 Si / 1000 Ang^3
#
#
#
# Elastic Constant Matrix: (Units=GPa)
#
#
# Indices 1 2 3 4 5 6 
#
# 1 62.7388 -7.3665 44.8654 0.0014 -8.2540 -0.0008
# 2 -7.3665 25.2594 -1.7238 0.0015 4.6243 -0.0020
# 3 44.8654 -1.7238 131.5359 0.0009 -14.4343 -0.0007
# 4 0.0014 0.0015 0.0009 8.2754 -0.0005 -2.4331
# 5 -8.2540 4.6243 -14.4343 -0.0005 36.3800 0.0007
# 6 -0.0008 -0.0020 -0.0007 -2.4331 0.0007 22.6504
#
#
#
# Elastic Compliance Matrix: (Units=1/GPa)
#
#
# Indices 1 2 3 4 5 6 
#
# 1 0.021987 0.005663 -0.007274 -0.000004 0.001383 0.000001
# 2 0.005663 0.041991 -0.001909 -0.000008 -0.004810 0.000003
# 3 -0.007274 -0.001909 0.010355 0.000001 0.002701 0.000000
# 4 -0.000004 -0.000008 0.000001 0.124781 0.000002 0.013404
# 5 0.001383 -0.004810 0.002701 0.000002 0.029484 -0.000001
# 6 0.000001 0.000003 0.000000 0.013404 -0.000001 0.045589
#
#
# Mechanical properties :
#
#
# Convention : Reuss Voigt Hill
#
# Bulk Modulus (GPa) = 14.86034 32.34270 23.60152
# Shear Modulus (GPa) = 16.46586 25.71177 21.08882
#
# Velocity S-wave (km/s) = 2.78678 3.48238 3.15382
# Velocity P-wave (km/s) = 4.16698 5.60569 4.93900
#
# Compressibility (1/GPa) = 0.06729322
#
# Stress axis : x y z
#
# Youngs Moduli (GPa) = 45.48048 23.81464 96.57328
#
# Poissons Ratio (x) = -0.13486 0.70245
# Poissons Ratio (y) = -0.25755 0.18437
# Poissons Ratio (z) = 0.33081 0.04546
#
# Static dielectric constant tensor:
#      x y z
#    x 1.735690 0.000000 0.004420 
#    y 0.000000 1.784760 0.000000 
#    z 0.004420 0.000000 1.764160 
# 
# From -- ./inp_files/249821.got.cif
#   From: 2010.05.17/outbox.cif.g08.bks.cpg/sg12_125_cif.got.tgz:249821.got - 2010.06.03 13:09:07.
