data_PCOD9211015
_publ_section_title
;
Structure prediction by ZEFSAII (Michael W. Deem and Ramdas Pophale) SiO2 
 PCOD9211015
Probable space group: C 2/M
;
_chemical_formula_sum "Si O2"
_cell_formula_units_Z 48
_cell_length_a 30.088358
_cell_length_b 8.743173
_cell_length_c 15.370037
_cell_angle_alpha 90.000000
_cell_angle_beta 139.975078
_cell_angle_gamma 90.000000
_cell_volume 2600.369112
_symmetry_space_group_name_H-M "C 2/M"
_symmetry_group_IT_number 12
_symmetry_cell_setting 'monoclinic'
loop_
_space_group_symop_operation_xyz
x,y,z
-x,y,-z
-x,-y,-z
x,-y,z
1/2+x,1/2+y,z
1/2-x,1/2+y,-z
1/2-x,1/2-y,-z
1/2+x,1/2-y,z
loop_
_atom_site_type_symbol
_atom_site_label
_atom_site_fract_x
_atom_site_fract_y
_atom_site_fract_z
Si Si1 0.072938 0.315911 0.390770
Si Si2 0.673123 0.817081 0.884315
Si Si3 0.826436 0.317377 0.616461
Si Si4 0.422030 0.683661 0.908474
Si Si5 0.420800 0.683250 0.409489
Si Si6 0.424036 0.683668 0.113684
O O1 0.068032 0.500000 0.387151
O O2 0.129449 0.272687 0.402895
O O3 0.090822 0.250545 0.512201
O O4 0.999251 0.247251 0.251929
O O5 0.630701 0.756263 0.737500
O O6 0.631907 0.757681 0.906835
O O7 0.675045 0.000000 0.886191
O O8 0.750000 0.750000 0.000000
O O9 0.822557 0.500000 0.612112
O O10 0.750000 0.250000 0.500000
O O11 0.868074 0.259788 0.762882
O O12 0.417927 0.500000 0.891625
O O13 0.500000 0.730949 0.000000
O O14 0.410030 0.719041 0.991655
O O15 0.500000 0.717036 0.500000
O O16 0.412669 0.500000 0.397809
O O17 0.424076 0.500000 0.124915
#
# Coordination Sequence:
#
# PCOD9211015 Si02
#       6
#     8   8   8   8   8   8
#     4  11  23  39  63  95 126 164 212 261 312 371
#     4  12  26  44  66  93 130 167 208 260 317 373
#     4  11  25  42  63  92 129 167 209 261 314 372
#     4  10  21  39  65  94 125 165 209 255 309 371
#     4  11  23  40  66  96 126 164 212 258 310 375
#     4  11  22  39  65  95 127 165 210 258 310 373
#
# _framework density 18.458919000000002
#
# number of rings (size 3 to 8) (size 9 to 14) (size 15 to 20)
#    0.000    1.000    3.333    3.500    0.000    5.667 
#    0.000    1.667    0.000    0.000    0.000    0.000 
#    0.000    0.000    0.000    0.000    0.000    0.000 
#
# Total GULP energy -134259.150776 kJ/mol
# GULP energy per Si atom -5594.131282 kJ/mol
# Density = 1.841691 g / cm^3
# Si number density = 18.458919 Si / 1000 Ang^3
#
#
#
# Elastic Constant Matrix: (Units=GPa)
#
#
# Indices 1 2 3 4 5 6 
#
# 1 189.0809 86.9111 127.3384 0.0000 -2.4965 0.0000
# 2 86.9111 95.4851 84.6688 0.0000 -4.2547 0.0000
# 3 127.3384 84.6688 189.0633 0.0000 1.6543 0.0000
# 4 0.0000 0.0000 0.0000 39.6839 0.0000 -0.0939
# 5 -2.4965 -4.2547 1.6543 0.0000 38.9844 0.0000
# 6 0.0000 0.0000 0.0000 -0.0939 0.0000 33.3755
#
#
#
# Elastic Compliance Matrix: (Units=1/GPa)
#
#
# Indices 1 2 3 4 5 6 
#
# 1 0.011393 -0.005888 -0.005039 0.000000 0.000301 0.000000
# 2 -0.005888 0.020610 -0.005282 0.000000 0.002096 0.000000
# 3 -0.005039 -0.005282 0.011061 0.000000 -0.001369 0.000000
# 4 0.000000 0.000000 0.000000 0.025199 0.000000 0.000071
# 5 0.000301 0.002096 -0.001369 0.000000 0.025957 0.000000
# 6 0.000000 0.000000 0.000000 0.000071 0.000000 0.029962
#
#
# Mechanical properties :
#
#
# Convention : Reuss Voigt Hill
#
# Bulk Modulus (GPa) = 93.94746 119.05177 106.49961
# Shear Modulus (GPa) = 31.22098 34.05615 32.63856
#
# Velocity S-wave (km/s) = 4.11710 4.29997 4.20953
# Velocity P-wave (km/s) = 8.57943 9.44926 9.02483
#
# Compressibility (1/GPa) = 0.01064425
#
# Stress axis : x y z
#
# Youngs Moduli (GPa) = 87.77483 48.52130 90.41090
#
# Poissons Ratio (x) = 0.28570 0.45558
# Poissons Ratio (y) = 0.51683 0.47756
# Poissons Ratio (z) = 0.44230 0.25630
#
# Static dielectric constant tensor:
#      x y z
#    x 1.621000 0.000000 -0.004590 
#    y 0.000000 1.618150 0.000000 
#    z -0.004590 0.000000 1.595420 
# 
# From -- ./inp_files/229865.got.cif
#   From: 2010.05.17/outbox.cif.g08.bks.cpg/sg12_115_cif.got.tgz:229865.got - 2010.06.03 13:09:07.
