data_PCOD9211297
_publ_section_title
;
Structure prediction by ZEFSAII (Michael W. Deem and Ramdas Pophale) SiO2 
 PCOD9211297
Probable space group: C 2/M
;
_chemical_formula_sum "Si O2"
_cell_formula_units_Z 44
_cell_length_a 21.820107
_cell_length_b 19.877729
_cell_length_c 4.863924
_cell_angle_alpha 90.000000
_cell_angle_beta 76.245868
_cell_angle_gamma 90.000000
_cell_volume 2049.155686
_symmetry_space_group_name_H-M "C 2/M"
_symmetry_group_IT_number 12
_symmetry_cell_setting 'monoclinic'
loop_
_space_group_symop_operation_xyz
x,y,z
-x,y,-z
-x,-y,-z
x,-y,z
1/2+x,1/2+y,z
1/2-x,1/2+y,-z
1/2-x,1/2-y,-z
1/2+x,1/2-y,z
loop_
_atom_site_type_symbol
_atom_site_label
_atom_site_fract_x
_atom_site_fract_y
_atom_site_fract_z
Si Si1 0.459057 0.342784 0.771074
Si Si2 0.569673 0.795135 0.505035
Si Si3 0.048100 0.500000 0.192288
Si Si4 0.623830 0.864455 0.973186
Si Si5 0.243848 0.921784 0.289378
Si Si6 0.342077 0.577532 0.140340
O O1 0.500000 0.383837 0.500000
O O2 0.436017 0.281115 0.600824
O O3 0.500000 0.322342 0.000000
O O4 0.400169 0.381673 0.958366
O O5 0.500000 0.824031 0.500000
O O6 0.584628 0.818825 0.797608
O O7 0.624591 0.824830 0.257001
O O8 0.000000 0.500000 0.500000
O O9 0.090869 0.434217 0.100037
O O10 0.000000 0.500000 0.000000
O O11 0.691543 0.881419 0.776642
O O12 0.188889 0.895632 0.547799
O O13 0.256497 0.000000 0.355094
O O14 0.214555 0.921745 0.018297
O O15 0.361927 0.500000 0.163109
#
# Coordination Sequence:
#
# PCOD9211297 Si02
#       6
#     8   8   4   8   8   8
#     4  11  23  42  66  93 124 161 205 258 327 390
#     4  11  23  39  59  84 123 166 208 257 314 371
#     4  12  24  36  58  92 126 162 218 276 302 350
#     4  12  22  39  60  87 121 171 215 249 312 363
#     4  10  21  40  60  88 125 167 206 252 315 374
#     4  10  22  40  66  93 125 159 204 259 319 383
#
# _framework density 21.472259999999999
#
# number of rings (size 3 to 8) (size 9 to 14) (size 15 to 20)
#    0.000    1.091    0.909    7.636    0.000    0.727 
#    0.000    5.455    0.000    0.000    0.000    0.000 
#    0.000    0.000    0.000    0.000    0.000    0.000 
#
# Total GULP energy -122772.963640 kJ/mol
# GULP energy per Si atom -5580.589256 kJ/mol
# Density = 2.142339 g / cm^3
# Si number density = 21.472260 Si / 1000 Ang^3
#
#
#
# Elastic Constant Matrix: (Units=GPa)
#
#
# Indices 1 2 3 4 5 6 
#
# 1 65.6169 30.5027 13.9984 0.0000 -11.1676 0.0000
# 2 30.5027 56.5312 20.7060 0.0000 -16.1925 0.0000
# 3 13.9984 20.7060 120.9524 0.0000 1.1912 0.0000
# 4 0.0000 0.0000 0.0000 28.7776 0.0000 -8.0634
# 5 -11.1676 -16.1925 1.1912 0.0000 41.3172 0.0000
# 6 0.0000 0.0000 0.0000 -8.0634 0.0000 17.3640
#
#
#
# Elastic Compliance Matrix: (Units=1/GPa)
#
#
# Indices 1 2 3 4 5 6 
#
# 1 0.020450 -0.010392 -0.000602 0.000000 0.001472 0.000000
# 2 -0.010392 0.026796 -0.003461 0.000000 0.007793 0.000000
# 3 -0.000602 -0.003461 0.008947 0.000000 -0.001777 0.000000
# 4 0.000000 0.000000 0.000000 0.039947 0.000000 0.018550
# 5 0.001472 0.007793 -0.001777 0.000000 0.027706 0.000000
# 6 0.000000 0.000000 0.000000 0.018550 0.000000 0.066205
#
#
# Mechanical properties :
#
#
# Convention : Reuss Voigt Hill
#
# Bulk Modulus (GPa) = 36.65330 41.50164 39.07747
# Shear Modulus (GPa) = 21.92434 29.35130 25.63782
#
# Velocity S-wave (km/s) = 3.19886 3.70123 3.45918
# Velocity P-wave (km/s) = 5.54533 6.13477 5.84748
#
# Compressibility (1/GPa) = 0.02728268
#
# Stress axis : x y z
#
# Youngs Moduli (GPa) = 48.90021 37.31837 111.76341
#
# Poissons Ratio (x) = 0.38781 0.06731
# Poissons Ratio (y) = 0.50817 0.38685
# Poissons Ratio (z) = 0.02945 0.12917
#
# Static dielectric constant tensor:
#      x y z
#    x 1.763050 0.000000 -0.012150 
#    y 0.000000 1.794600 0.000000 
#    z -0.012150 0.000000 1.793120 
# 
# From -- ./inp_files/20900.got.cif
#   From: 2010.05.17/outbox.cif.g08.bks.cpg/sg12_11_cif.got.tgz:20900.got - 2010.06.03 13:09:07.
