data_PCOD9211869
_publ_section_title
;
Structure prediction by ZEFSAII (Michael W. Deem and Ramdas Pophale) SiO2 
 PCOD9211869
Probable space group: C 2/M
;
_chemical_formula_sum "Si O2"
_cell_formula_units_Z 56
_cell_length_a 11.701059
_cell_length_b 27.566020
_cell_length_c 9.409187
_cell_angle_alpha 90.000000
_cell_angle_beta 123.061690
_cell_angle_gamma 90.000000
_cell_volume 2543.540844
_symmetry_space_group_name_H-M "C 2/M"
_symmetry_group_IT_number 12
_symmetry_cell_setting 'monoclinic'
loop_
_space_group_symop_operation_xyz
x,y,z
-x,y,-z
-x,-y,-z
x,-y,z
1/2+x,1/2+y,z
1/2-x,1/2+y,-z
1/2-x,1/2-y,-z
1/2+x,1/2-y,z
loop_
_atom_site_type_symbol
_atom_site_label
_atom_site_fract_x
_atom_site_fract_y
_atom_site_fract_z
Si Si1 0.717542 0.177901 0.376162
Si Si2 0.975545 0.374093 0.316927
Si Si3 0.238389 0.303121 0.924190
Si Si4 0.625962 0.056790 0.985213
Si Si5 0.371634 0.718944 0.738149
Si Si6 0.062804 0.946856 0.701275
Si Si7 0.589834 0.342977 0.739381
O O1 0.619767 0.132981 0.335877
O O2 0.645492 0.223637 0.250912
O O3 0.752436 0.199631 0.554188
O O4 0.853025 0.163755 0.380747
O O5 0.899643 0.322192 0.241543
O O6 0.888463 0.413958 0.172603
O O7 0.000000 0.383621 0.500000
O O8 0.349364 0.305431 0.874356
O O9 0.250000 0.250000 0.000000
O O10 0.273477 0.339652 0.074122
O O11 0.604140 0.000000 0.938018
O O12 0.500000 0.072712 0.000000
O O13 0.772621 0.058308 0.166603
O O14 0.502509 0.701593 0.740212
O O15 0.015722 0.893784 0.722441
O O16 0.000000 0.948455 0.500000
O O17 0.027435 0.000000 0.741699
#
# Coordination Sequence:
#
# PCOD9211869 Si02
#       7
#     8   8   8   8   8   8   8
#     4  11  24  39  65  96 131 176 228 276 338 409
#     4  12  25  43  67  95 141 181 224 282 352 417
#     4  12  24  43  63  95 131 179 224 277 337 408
#     4  10  22  42  72 106 135 175 233 292 350 418
#     4  11  24  41  62  93 135 176 224 280 338 415
#     4  10  21  40  67 100 137 175 226 291 348 406
#     4  12  23  41  67  95 130 178 228 279 341 406
#
# _framework density 22.016553999999999
#
# number of rings (size 3 to 8) (size 9 to 14) (size 15 to 20)
#    0.000    0.857    4.286    3.429    0.000    0.286 
#    0.000    0.000    0.000    2.571    0.000    0.000 
#    0.000    0.000    0.000    0.000    0.000    0.000 
#
# Total GULP energy -156121.737652 kJ/mol
# GULP energy per Si atom -5575.776345 kJ/mol
# Density = 2.196644 g / cm^3
# Si number density = 22.016554 Si / 1000 Ang^3
#
#
#
# Elastic Constant Matrix: (Units=GPa)
#
#
# Indices 1 2 3 4 5 6 
#
# 1 87.9803 13.9643 17.1966 0.0000 -6.3313 0.0000
# 2 13.9643 115.1852 35.9911 0.0000 -8.0714 0.0000
# 3 17.1966 35.9911 123.0001 0.0000 -4.2544 0.0000
# 4 0.0000 0.0000 0.0000 31.6440 0.0000 6.4023
# 5 -6.3313 -8.0714 -4.2544 0.0000 31.9749 0.0000
# 6 0.0000 0.0000 0.0000 6.4023 0.0000 19.4462
#
#
#
# Elastic Compliance Matrix: (Units=1/GPa)
#
#
# Indices 1 2 3 4 5 6 
#
# 1 0.011909 -0.000889 -0.001337 0.000000 0.001956 0.000000
# 2 -0.000889 0.009757 -0.002664 0.000000 0.001933 0.000000
# 3 -0.001337 -0.002664 0.009106 0.000000 0.000274 0.000000
# 4 0.000000 0.000000 0.000000 0.033857 0.000000 -0.011147
# 5 0.001956 0.001933 0.000274 0.000000 0.032186 0.000000
# 6 0.000000 0.000000 0.000000 -0.011147 0.000000 0.055094
#
#
# Mechanical properties :
#
#
# Convention : Reuss Voigt Hill
#
# Bulk Modulus (GPa) = 47.63637 51.16329 49.39983
# Shear Modulus (GPa) = 29.64069 33.88060 31.76064
#
# Velocity S-wave (km/s) = 3.67316 3.92710 3.80225
# Velocity P-wave (km/s) = 6.29866 6.62207 6.46239
#
# Compressibility (1/GPa) = 0.02099236
#
# Stress axis : x y z
#
# Youngs Moduli (GPa) = 83.96731 102.48793 109.81736
#
# Poissons Ratio (x) = 0.09110 0.14686
# Poissons Ratio (y) = 0.07464 0.29255
# Poissons Ratio (z) = 0.11229 0.27302
#
# Static dielectric constant tensor:
#      x y z
#    x 1.836840 0.000000 0.094030 
#    y 0.000000 1.836790 0.000000 
#    z 0.094030 0.000000 1.888320 
# 
# From -- ./inp_files/54799.got.cif
#   From: 2010.05.17/outbox.cif.g08.bks.cpg/sg12_28_cif.got.tgz:54799.got - 2010.06.03 13:09:07.
