data_PCOD9211045
_publ_section_title
;
Structure prediction by ZEFSAII (Michael W. Deem and Ramdas Pophale) SiO2 
 PCOD9211045
Probable space group: C 2/M
;
_chemical_formula_sum "Si O2"
_cell_formula_units_Z 40
_cell_length_a 13.288071
_cell_length_b 12.492959
_cell_length_c 13.614964
_cell_angle_alpha 90.000000
_cell_angle_beta 42.977987
_cell_angle_gamma 90.000000
_cell_volume 1540.806432
_symmetry_space_group_name_H-M "C 2/M"
_symmetry_group_IT_number 12
_symmetry_cell_setting 'monoclinic'
loop_
_space_group_symop_operation_xyz
x,y,z
-x,y,-z
-x,-y,-z
x,-y,z
1/2+x,1/2+y,z
1/2-x,1/2+y,-z
1/2-x,1/2-y,-z
1/2+x,1/2-y,z
loop_
_atom_site_type_symbol
_atom_site_label
_atom_site_fract_x
_atom_site_fract_y
_atom_site_fract_z
Si Si1 0.351058 0.874458 0.887294
Si Si2 0.362528 0.821827 0.231819
Si Si3 0.514893 0.624843 0.105361
Si Si4 0.073067 0.215690 0.340081
Si Si5 0.792430 0.881021 0.470813
O O1 0.465685 0.853910 0.894623
O O2 0.413208 0.813364 0.746429
O O3 0.349435 0.000000 0.866672
O O4 0.178380 0.846697 0.026070
O O5 0.381474 0.693861 0.244640
O O6 0.239415 0.824412 0.236983
O O7 0.295690 0.892913 0.363895
O O8 0.495152 0.500000 0.131545
O O9 0.500000 0.648038 0.000000
O O10 0.000000 0.243735 0.500000
O O11 0.966919 0.126776 0.369904
O O12 0.750000 0.750000 0.500000
O O13 0.761078 0.000000 0.443751
#
# Coordination Sequence:
#
# PCOD9211045 Si02
#       5
#     8   8   8   8   8
#     4  11  22  40  65  96 134 179 228 280 336 405
#     4  11  22  39  66  95 132 174 225 275 342 402
#     4  10  21  39  65  95 132 179 229 283 340 398
#     4  10  23  39  63  98 133 174 220 278 336 404
#     4  11  24  43  68  98 135 177 222 277 339 405
#
# _framework density 25.960432000000001
#
# number of rings (size 3 to 8) (size 9 to 14) (size 15 to 20)
#    0.000    1.400    4.000    1.200    0.000    5.600 
#    0.000    4.000    0.000    3.600    0.000    0.000 
#    0.000    0.000    0.000    0.000    0.000    0.000 
#
# Total GULP energy -111404.412679 kJ/mol
# GULP energy per Si atom -5570.220634 kJ/mol
# Density = 2.590135 g / cm^3
# Si number density = 25.960432 Si / 1000 Ang^3
#
#
#
# Elastic Constant Matrix: (Units=GPa)
#
#
# Indices 1 2 3 4 5 6 
#
# 1 120.1618 17.8666 45.5800 0.0000 -29.1036 0.0000
# 2 17.8666 177.8604 30.3571 0.0000 0.6608 0.0000
# 3 45.5800 30.3571 112.2968 0.0000 -20.0849 0.0000
# 4 0.0000 0.0000 0.0000 8.6441 0.0000 27.4521
# 5 -29.1036 0.6608 -20.0849 0.0000 44.1960 0.0000
# 6 0.0000 0.0000 0.0000 27.4521 0.0000 -11.4370
#
#
#
# Elastic Compliance Matrix: (Units=1/GPa)
#
#
# Indices 1 2 3 4 5 6 
#
# 1 0.011062 -0.000569 -0.003300 0.000000 0.005793 0.000000
# 2 -0.000569 0.005956 -0.001591 0.000000 -0.001187 0.000000
# 3 -0.003300 -0.001591 0.011200 0.000000 0.002941 0.000000
# 4 0.000000 0.000000 0.000000 0.013416 0.000000 0.032203
# 5 0.005793 -0.001187 0.002941 0.000000 0.027796 0.000000
# 6 0.000000 0.000000 0.000000 0.032203 0.000000 -0.010140
#
#
# Mechanical properties :
#
#
# Convention : Reuss Voigt Hill
#
# Bulk Modulus (GPa) = 57.81381 66.43627 62.12504
# Shear Modulus (GPa) = 65.81059 29.38164 47.59611
#
# Velocity S-wave (km/s) = 5.04037 3.36785 4.28648
# Velocity P-wave (km/s) = 7.49614 6.38515 6.96284
#
# Compressibility (1/GPa) = 0.01729690
#
# Stress axis : x y z
#
# Youngs Moduli (GPa) = 90.40331 167.90970 89.28248
#
# Poissons Ratio (x) = 0.09562 0.29460
# Poissons Ratio (y) = 0.05148 0.14206
# Poissons Ratio (z) = 0.29830 0.26717
#
# Static dielectric constant tensor:
#      x y z
#    x 2.338560 0.000000 0.478890 
#    y 0.000000 2.514290 0.000000 
#    z 0.478890 0.000000 2.861480 
# 
# From -- ./inp_files/268421.got.cif
#   From: 2010.05.17/outbox.cif.g08.bks.cpg/sg12_135_cif.got.tgz:268421.got - 2010.06.03 13:09:07.
