data_PCOD9211278
_publ_section_title
;
Structure prediction by ZEFSAII (Michael W. Deem and Ramdas Pophale) SiO2 
 PCOD9211278
Probable space group: C 2/M
;
_chemical_formula_sum "Si O2"
_cell_formula_units_Z 48
_cell_length_a 30.177125
_cell_length_b 10.492573
_cell_length_c 25.630469
_cell_angle_alpha 90.000000
_cell_angle_beta 19.192449
_cell_angle_gamma 90.000000
_cell_volume 2667.914156
_symmetry_space_group_name_H-M "C 2/M"
_symmetry_group_IT_number 12
_symmetry_cell_setting 'monoclinic'
loop_
_space_group_symop_operation_xyz
x,y,z
-x,y,-z
-x,-y,-z
x,-y,z
1/2+x,1/2+y,z
1/2-x,1/2+y,-z
1/2-x,1/2-y,-z
1/2+x,1/2-y,z
loop_
_atom_site_type_symbol
_atom_site_label
_atom_site_fract_x
_atom_site_fract_y
_atom_site_fract_z
Si Si1 0.376848 0.500000 0.926820
Si Si2 0.048364 0.500000 0.548996
Si Si3 0.913981 0.500000 0.805039
Si Si4 0.033066 0.256700 0.723795
Si Si5 0.282441 0.845676 0.385446
Si Si6 0.144661 0.713019 0.366425
Si Si7 0.866650 0.650215 0.176419
Si Si8 0.757567 0.500000 0.817251
O O1 0.454400 0.627666 0.824510
O O2 0.232172 0.500000 0.058971
O O3 0.354822 0.500000 0.013754
O O4 0.116196 0.623596 0.448196
O O5 0.028054 0.500000 0.632887
O O6 0.899146 0.500000 0.690419
O O7 0.937844 0.371449 0.810987
O O8 0.142400 0.220233 0.557835
O O9 0.113188 0.305761 0.685525
O O10 0.335097 0.803249 0.270085
O O11 0.265905 0.000000 0.404206
O O12 0.237083 0.826141 0.283974
O O13 0.231958 0.625025 0.230198
O O14 0.000000 0.742329 0.500000
O O15 0.888982 0.500000 0.157578
O O16 0.000000 0.705323 0.000000
#
# Coordination Sequence:
#
# PCOD9211278 Si02
#       8
#     4   4   4   8   8   8   8   4
#     4  11  23  37  57  91 123 151 187 247 295 343
#     4   8  16  33  57  84 111 148 178 230 285 333
#     4  11  21  37  60  89 121 151 194 238 293 352
#     4  11  22  38  62  85 114 160 198 236 290 354
#     4  10  21  40  60  81 114 156 203 243 285 345
#     4   9  17  35  59  84 111 150 190 228 284 344
#     4  10  22  37  56  81 116 152 186 243 290 337
#     4   8  18  33  56  81 118 143 178 233 286 336
#
# _framework density 17.991582999999999
#
# number of rings (size 3 to 8) (size 9 to 14) (size 15 to 20)
#    0.000    2.167    1.667    2.500    2.333    0.333 
#    0.000    3.333    0.000    0.000    0.000    0.000 
#    0.000    0.000    0.000    0.000    0.000    0.000 
#
# Total GULP energy -133766.765008 kJ/mol
# GULP energy per Si atom -5573.615209 kJ/mol
# Density = 1.795063 g / cm^3
# Si number density = 17.991583 Si / 1000 Ang^3
#
#
#
# Elastic Constant Matrix: (Units=GPa)
#
#
# Indices 1 2 3 4 5 6 
#
# 1 69.9854 10.1184 31.6132 0.0004 22.3468 -0.0002
# 2 10.1184 43.5448 7.6060 0.0003 10.7921 0.0000
# 3 31.6132 7.6060 74.9374 0.0011 20.7235 -0.0004
# 4 0.0004 0.0003 0.0011 -10.3107 -0.0003 -2.1791
# 5 22.3468 10.7921 20.7235 -0.0003 32.4722 0.0002
# 6 -0.0002 0.0000 -0.0004 -2.1791 0.0002 22.3791
#
#
#
# Elastic Compliance Matrix: (Units=1/GPa)
#
#
# Indices 1 2 3 4 5 6 
#
# 1 0.020172 -0.001257 -0.005657 0.000000 -0.009854 0.000000
# 2 -0.001257 0.025110 0.000061 0.000001 -0.007519 0.000000
# 3 -0.005657 0.000061 0.017794 0.000002 -0.007483 0.000001
# 4 0.000000 0.000001 0.000002 -0.095031 -0.000003 -0.009253
# 5 -0.009854 -0.007519 -0.007483 -0.000003 0.044852 -0.000001
# 6 0.000000 0.000000 0.000001 -0.009253 -0.000001 0.043784
#
#
# Mechanical properties :
#
#
# Convention : Reuss Voigt Hill
#
# Bulk Modulus (GPa) = 20.25523 31.90477 26.08000
# Shear Modulus (GPa) = 57.57431 18.18344 37.87887
#
# Velocity S-wave (km/s) = 5.66305 3.18254 4.59340
# Velocity P-wave (km/s) = 7.35138 5.59253 6.53143
#
# Compressibility (1/GPa) = 0.04936995
#
# Stress axis : x y z
#
# Youngs Moduli (GPa) = 49.57277 39.82511 56.19774
#
# Poissons Ratio (x) = 0.05006 0.31793
# Poissons Ratio (y) = 0.06231 -0.00343
# Poissons Ratio (z) = 0.28045 -0.00243
#
# Static dielectric constant tensor:
#      x y z
#    x 1.609460 0.000000 0.029630 
#    y 0.000000 1.600360 0.000000 
#    z 0.029630 0.000000 1.623160 
# 
# From -- ./inp_files/351912.got.cif
#   From: 2010.05.17/outbox.cif.g08.bks.cpg/sg12_176_cif.got.tgz:351912.got - 2010.06.03 13:09:07.
