data_PCOD9211582
_publ_section_title
;
Structure prediction by ZEFSAII (Michael W. Deem and Ramdas Pophale) SiO2 
 PCOD9211582
Probable space group: C 2/M
;
_chemical_formula_sum "Si O2"
_cell_formula_units_Z 58
_cell_length_a 24.920741
_cell_length_b 9.515663
_cell_length_c 12.269772
_cell_angle_alpha 90.000000
_cell_angle_beta 90.649812
_cell_angle_gamma 90.000000
_cell_volume 2909.434375
_symmetry_space_group_name_H-M "C 2/M"
_symmetry_group_IT_number 12
_symmetry_cell_setting 'monoclinic'
loop_
_space_group_symop_operation_xyz
x,y,z
-x,y,-z
-x,-y,-z
x,-y,z
1/2+x,1/2+y,z
1/2-x,1/2+y,-z
1/2-x,1/2-y,-z
1/2+x,1/2-y,z
loop_
_atom_site_type_symbol
_atom_site_label
_atom_site_fract_x
_atom_site_fract_y
_atom_site_fract_z
Si Si1 0.347214 0.165750 0.536527
Si Si2 0.500000 0.000000 0.000000
Si Si3 0.978758 0.241204 0.833632
Si Si4 0.791330 0.338496 0.770685
Si Si5 0.100265 0.162634 0.841350
Si Si6 0.820813 0.167822 0.332638
Si Si7 0.045429 0.167846 0.408702
Si Si8 0.865881 0.838018 0.928865
O O1 0.317396 0.176279 0.651537
O O2 0.314099 0.237975 0.438868
O O3 0.401076 0.257730 0.547177
O O4 0.357032 0.000000 0.515970
O O5 0.485217 0.878843 0.907577
O O6 0.970541 0.247489 0.703132
O O7 0.925017 0.167475 0.876303
O O8 0.036428 0.167881 0.847715
O O9 0.798042 0.500000 0.805323
O O10 0.728459 0.311161 0.751487
O O11 0.823274 0.242807 0.854984
O O12 0.125235 0.215601 0.729290
O O13 0.116418 0.000000 0.842450
O O14 0.125960 0.227324 0.950576
O O15 0.822635 0.000000 0.360581
O O16 0.000000 0.177893 0.500000
O O17 0.053353 0.000000 0.385998
O O18 0.849523 0.000000 0.936564
#
# Coordination Sequence:
#
# PCOD9211582 Si02
#       8
#     8   2   8   8   8   8   8   8
#     4  11  23  39  60  93 128 163 205 261 316 377
#     4  12  28  40  64  96 136 176 210 262 320 390
#     4  12  23  41  63  93 127 169 212 254 319 382
#     4  10  23  40  63  89 123 164 209 260 315 372
#     4  10  21  40  64  90 122 159 211 265 310 369
#     4  10  22  43  65  88 121 168 212 260 315 373
#     4  11  24  42  66  96 129 171 217 263 318 383
#     4  11  22  37  63  92 122 159 210 258 308 372
#
# _framework density 19.935148000000002
#
# number of rings (size 3 to 8) (size 9 to 14) (size 15 to 20)
#    0.000    1.241    2.759    2.897    1.931    5.241 
#    3.724    0.000    0.000    0.000    0.000    0.000 
#    0.000    0.000    0.000    0.000    0.000    0.000 
#
# Total GULP energy -161585.026326 kJ/mol
# GULP energy per Si atom -5571.897460 kJ/mol
# Density = 1.988977 g / cm^3
# Si number density = 19.935148 Si / 1000 Ang^3
#
#
#
# Elastic Constant Matrix: (Units=GPa)
#
#
# Indices 1 2 3 4 5 6 
#
# 1 46.0708 25.8790 6.3648 0.0000 14.6213 0.0000
# 2 25.8790 68.7919 28.9823 0.0000 14.5909 0.0000
# 3 6.3648 28.9823 78.8186 0.0000 22.9160 0.0000
# 4 0.0000 0.0000 0.0000 26.8321 0.0000 -9.6205
# 5 14.6213 14.5909 22.9160 0.0000 30.4815 0.0000
# 6 0.0000 0.0000 0.0000 -9.6205 0.0000 -49.6338
#
#
#
# Elastic Compliance Matrix: (Units=1/GPa)
#
#
# Indices 1 2 3 4 5 6 
#
# 1 0.031778 -0.011372 0.005713 0.000000 -0.014095 0.000000
# 2 -0.011372 0.021756 -0.007217 0.000000 0.000467 0.000000
# 3 0.005713 -0.007217 0.018776 0.000000 -0.013402 0.000000
# 4 0.000000 0.000000 0.000000 0.034847 0.000000 -0.006754
# 5 -0.014095 0.000467 -0.013402 0.000000 0.049420 0.000000
# 6 0.000000 0.000000 0.000000 -0.006754 0.000000 -0.018838
#
#
# Mechanical properties :
#
#
# Convention : Reuss Voigt Hill
#
# Bulk Modulus (GPa) = 21.47845 35.12596 28.30221
# Shear Modulus (GPa) = 27.93137 10.36630 19.14884
#
# Velocity S-wave (km/s) = 3.74720 2.28283 3.10265
# Velocity P-wave (km/s) = 5.43319 4.96052 5.20223
#
# Compressibility (1/GPa) = 0.04655829
#
# Stress axis : x y z
#
# Youngs Moduli (GPa) = 31.46880 45.96342 53.25853
#
# Poissons Ratio (x) = 0.52270 -0.30429
# Poissons Ratio (y) = 0.35786 0.38438
# Poissons Ratio (z) = -0.17979 0.33173
#
# Static dielectric constant tensor:
#      x y z
#    x 1.719300 0.000000 -0.011140 
#    y 0.000000 1.673930 0.000000 
#    z -0.011140 0.000000 1.720760 
# 
# From -- ./inp_files/180948.got.cif
#   From: 2010.05.17/outbox.cif.g08.bks.cpg/sg12_91_cif.got.tgz:180948.got - 2010.06.03 13:09:07.
