data_PCOD9211475
_publ_section_title
;
Structure prediction by ZEFSAII (Michael W. Deem and Ramdas Pophale) SiO2 
 PCOD9211475
Probable space group: C 2/M
;
_chemical_formula_sum "Si O2"
_cell_formula_units_Z 50
_cell_length_a 9.424076
_cell_length_b 10.082195
_cell_length_c 25.739748
_cell_angle_alpha 90.000000
_cell_angle_beta 78.059863
_cell_angle_gamma 90.000000
_cell_volume 2392.757896
_symmetry_space_group_name_H-M "C 2/M"
_symmetry_group_IT_number 12
_symmetry_cell_setting 'monoclinic'
loop_
_space_group_symop_operation_xyz
x,y,z
-x,y,-z
-x,-y,-z
x,-y,z
1/2+x,1/2+y,z
1/2-x,1/2+y,-z
1/2-x,1/2-y,-z
1/2+x,1/2-y,z
loop_
_atom_site_type_symbol
_atom_site_label
_atom_site_fract_x
_atom_site_fract_y
_atom_site_fract_z
Si Si1 0.339567 0.344123 0.454092
Si Si2 0.918520 0.650818 0.601141
Si Si3 0.014078 0.651035 0.116566
Si Si4 0.699639 0.155494 0.776296
Si Si5 0.811836 0.761372 0.053452
Si Si6 0.941253 0.651118 0.722820
Si Si7 0.000000 0.000000 0.000000
O O1 0.354431 0.500000 0.468635
O O2 0.250000 0.250000 0.500000
O O3 0.488598 0.266785 0.432494
O O4 0.243884 0.343632 0.408650
O O5 0.973335 0.500000 0.584227
O O6 0.928084 0.667401 0.662134
O O7 0.051879 0.500000 0.126297
O O8 0.907736 0.701393 0.169592
O O9 0.917521 0.654391 0.071281
O O10 0.165386 0.725797 0.098064
O O11 0.839470 0.245091 0.759539
O O12 0.604669 0.165630 0.730970
O O13 0.734310 0.000000 0.782666
O O14 0.916273 0.886821 0.040977
O O15 0.750000 0.750000 0.000000
O O16 0.896346 0.500000 0.739094
#
# Coordination Sequence:
#
# PCOD9211475 Si02
#       7
#     8   8   8   8   8   8   2
#     4  11  23  38  58  87 122 159 204 248 299 354
#     4  10  22  39  60  87 119 158 198 247 297 351
#     4  11  24  40  61  84 119 151 188 234 289 343
#     4  10  22  40  60  89 117 153 193 241 291 351
#     4  12  24  40  60  87 114 152 191 235 285 343
#     4  10  21  40  63  88 120 154 197 244 297 349
#     4  12  24  40  60  88 116 144 198 238 280 340
#
# _framework density 20.896388000000002
#
# number of rings (size 3 to 8) (size 9 to 14) (size 15 to 20)
#    0.000    1.280    2.400    2.880    1.120    5.120 
#    1.440    0.000    0.000    0.000    0.000    0.000 
#    0.000    0.000    0.000    0.000    0.000    0.000 
#
# Total GULP energy -139279.860477 kJ/mol
# GULP energy per Si atom -5571.194419 kJ/mol
# Density = 2.084883 g / cm^3
# Si number density = 20.896388 Si / 1000 Ang^3
#
#
#
# Elastic Constant Matrix: (Units=GPa)
#
#
# Indices 1 2 3 4 5 6 
#
# 1 71.3143 25.3822 0.5270 0.0000 -5.9665 0.0000
# 2 25.3822 104.5974 17.9473 0.0000 -26.2699 0.0000
# 3 0.5270 17.9473 38.1053 0.0000 6.4565 0.0000
# 4 0.0000 0.0000 0.0000 25.2677 0.0000 -18.4700
# 5 -5.9665 -26.2699 6.4565 0.0000 40.0761 0.0000
# 6 0.0000 0.0000 0.0000 -18.4700 0.0000 3.4598
#
#
#
# Elastic Compliance Matrix: (Units=1/GPa)
#
#
# Indices 1 2 3 4 5 6 
#
# 1 0.015468 -0.004296 0.001949 0.000000 -0.000827 0.000000
# 2 -0.004296 0.014687 -0.008616 0.000000 0.010376 0.000000
# 3 0.001949 -0.008616 0.032057 0.000000 -0.010522 0.000000
# 4 0.000000 0.000000 0.000000 -0.013636 0.000000 -0.072797
# 5 -0.000827 0.010376 -0.010522 0.000000 0.033326 0.000000
# 6 0.000000 0.000000 0.000000 -0.072797 0.000000 -0.099589
#
#
# Mechanical properties :
#
#
# Convention : Reuss Voigt Hill
#
# Bulk Modulus (GPa) = 24.82182 33.52555 29.17369
# Shear Modulus (GPa) = 283.00446 25.10477 154.05461
#
# Velocity S-wave (km/s) = 11.65016 3.46987 8.59553
# Velocity P-wave (km/s) = 13.88786 5.66850 10.60671
#
# Compressibility (1/GPa) = 0.04028714
#
# Stress axis : x y z
#
# Youngs Moduli (GPa) = 64.65061 68.08603 31.19423
#
# Poissons Ratio (x) = 0.29248 -0.06081
# Poissons Ratio (y) = 0.27772 0.26878
# Poissons Ratio (z) = -0.12603 0.58665
#
# Static dielectric constant tensor:
#      x y z
#    x 1.714860 0.000000 0.018510 
#    y 0.000000 1.743500 0.000000 
#    z 0.018510 0.000000 1.768730 
# 
# From -- ./inp_files/355498.got.cif
#   From: 2010.05.17/outbox.cif.g08.bks.cpg/sg12_178_cif.got.tgz:355498.got - 2010.06.03 13:09:07.
