data_PCOD9211679
_publ_section_title
;
Structure prediction by ZEFSAII (Michael W. Deem and Ramdas Pophale) SiO2 
 PCOD9211679
Probable space group: C 2/M
;
_chemical_formula_sum "Si O2"
_cell_formula_units_Z 56
_cell_length_a 33.042648
_cell_length_b 8.698403
_cell_length_c 22.816738
_cell_angle_alpha 90.000000
_cell_angle_beta 25.600745
_cell_angle_gamma 90.000000
_cell_volume 2833.672482
_symmetry_space_group_name_H-M "C 2/M"
_symmetry_group_IT_number 12
_symmetry_cell_setting 'monoclinic'
loop_
_space_group_symop_operation_xyz
x,y,z
-x,y,-z
-x,-y,-z
x,-y,z
1/2+x,1/2+y,z
1/2-x,1/2+y,-z
1/2-x,1/2-y,-z
1/2+x,1/2-y,z
loop_
_atom_site_type_symbol
_atom_site_label
_atom_site_fract_x
_atom_site_fract_y
_atom_site_fract_z
Si Si1 0.463569 0.320878 0.643936
Si Si2 0.099412 0.684106 0.845494
Si Si3 0.331230 0.320565 0.133237
Si Si4 0.351167 0.814659 0.350563
Si Si5 0.847838 0.680397 0.895834
Si Si6 0.958257 0.815125 0.861287
Si Si7 0.148033 0.178812 0.331605
O O1 0.458157 0.500000 0.670158
O O2 0.424489 0.213845 0.745476
O O3 0.399242 0.305501 0.670170
O O4 0.568173 0.290759 0.484366
O O5 0.093887 0.500000 0.849978
O O6 0.170801 0.732643 0.802780
O O7 0.126182 0.737324 0.745816
O O8 0.000000 0.744066 0.000000
O O9 0.345137 0.500000 0.126158
O O10 0.234775 0.289328 0.226063
O O11 0.412892 0.265273 0.982739
O O12 0.250000 0.750000 0.500000
O O13 0.437136 0.752862 0.277709
O O14 0.349978 0.000000 0.354380
O O15 0.834634 0.500000 0.923212
O O16 0.889454 0.757006 0.900066
O O17 0.750000 0.750000 0.000000
O O18 0.961909 0.000000 0.854920
O O19 0.177575 0.000000 0.298904
#
# Coordination Sequence:
#
# PCOD9211679 Si02
#       7
#     8   8   8   8   8   8   8
#     4   9  19  38  60  84 116 156 200 249 300 357
#     4  10  21  40  65  89 117 156 201 246 299 366
#     4  11  23  36  59  92 122 153 198 253 306 356
#     4  11  24  43  67  95 128 168 210 259 317 377
#     4  12  25  40  61  89 122 163 206 253 308 369
#     4  11  24  42  63  90 124 163 207 258 312 370
#     4   9  19  36  60  86 116 156 199 243 299 364
#
# _framework density 19.762340999999999
#
# number of rings (size 3 to 8) (size 9 to 14) (size 15 to 20)
#    0.000    1.571    1.429    4.286    0.000    7.714 
#    0.000    2.857    0.000    0.000    0.000    0.000 
#    0.000    0.000    0.000    0.000    0.000    0.000 
#
# Total GULP energy -156433.574847 kJ/mol
# GULP energy per Si atom -5586.913387 kJ/mol
# Density = 1.971736 g / cm^3
# Si number density = 19.762341 Si / 1000 Ang^3
#
#
#
# Elastic Constant Matrix: (Units=GPa)
#
#
# Indices 1 2 3 4 5 6 
#
# 1 89.6862 30.6834 46.1567 -0.0004 -1.9226 -0.0003
# 2 30.6834 46.8211 31.2135 -0.0108 -1.5013 0.0052
# 3 46.1567 31.2135 83.9550 -0.0094 -4.4291 0.0020
# 4 -0.0004 -0.0108 -0.0094 31.0480 0.0009 -5.5498
# 5 -1.9226 -1.5013 -4.4291 0.0009 34.4930 0.0012
# 6 -0.0003 0.0052 0.0020 -5.5498 0.0012 25.3226
#
#
#
# Elastic Compliance Matrix: (Units=1/GPa)
#
#
# Indices 1 2 3 4 5 6 
#
# 1 0.016917 -0.006495 -0.006898 -0.000004 -0.000225 0.000001
# 2 -0.006495 0.030890 -0.007915 0.000007 -0.000034 -0.000004
# 3 -0.006898 -0.007915 0.018735 0.000003 0.001677 0.000001
# 4 -0.000004 0.000007 0.000003 0.033521 -0.000001 0.007347
# 5 -0.000225 -0.000034 0.001677 -0.000001 0.029193 -0.000002
# 6 0.000001 -0.000004 0.000001 0.007347 -0.000002 0.041101
#
#
# Mechanical properties :
#
#
# Convention : Reuss Voigt Hill
#
# Bulk Modulus (GPa) = 41.79687 48.50773 45.15230
# Shear Modulus (GPa) = 22.62967 25.66662 24.14815
#
# Velocity S-wave (km/s) = 3.38759 3.60775 3.49940
# Velocity P-wave (km/s) = 6.04125 6.47713 6.26299
#
# Compressibility (1/GPa) = 0.02392523
#
# Stress axis : x y z
#
# Youngs Moduli (GPa) = 59.11138 32.37267 53.37682
#
# Poissons Ratio (x) = 0.21027 0.36818
# Poissons Ratio (y) = 0.38394 0.42250
# Poissons Ratio (z) = 0.40774 0.25625
#
# Static dielectric constant tensor:
#      x y z
#    x 1.700430 0.000000 0.000000 
#    y 0.000000 1.679410 0.000000 
#    z 0.000000 0.000000 1.697930 
# 
# From -- ./inp_files/329437.got.cif
#   From: 2010.05.17/outbox.cif.g08.bks.cpg/sg12_165_cif.got.tgz:329437.got - 2010.06.03 13:09:07.
