data_PCOD9211235
_publ_section_title
;
Structure prediction by ZEFSAII (Michael W. Deem and Ramdas Pophale) SiO2 
 PCOD9211235
Probable space group: C 2/M
;
_chemical_formula_sum "Si O2"
_cell_formula_units_Z 42
_cell_length_a 10.803609
_cell_length_b 18.809418
_cell_length_c 9.404389
_cell_angle_alpha 90.000000
_cell_angle_beta 63.692231
_cell_angle_gamma 90.000000
_cell_volume 1713.126415
_symmetry_space_group_name_H-M "C 2/M"
_symmetry_group_IT_number 12
_symmetry_cell_setting 'monoclinic'
loop_
_space_group_symop_operation_xyz
x,y,z
-x,y,-z
-x,-y,-z
x,-y,z
1/2+x,1/2+y,z
1/2-x,1/2+y,-z
1/2-x,1/2-y,-z
1/2+x,1/2-y,z
loop_
_atom_site_type_symbol
_atom_site_label
_atom_site_fract_x
_atom_site_fract_y
_atom_site_fract_z
Si Si1 0.576661 0.186682 0.329843
Si Si2 0.820368 0.288186 0.284613
Si Si3 0.500000 0.000000 0.000000
Si Si4 0.812936 0.365922 0.019164
Si Si5 0.151473 0.082727 0.496427
Si Si6 0.016307 0.917135 0.159286
O O1 0.500000 0.147355 0.500000
O O2 0.693570 0.234448 0.342935
O O3 0.454934 0.229746 0.308644
O O4 0.645981 0.143835 0.165910
O O5 0.760548 0.362693 0.377094
O O6 0.857219 0.302915 0.101751
O O7 0.615773 0.937671 0.966666
O O8 0.649625 0.371462 0.125956
O O9 0.000000 0.090256 0.500000
O O10 0.117811 0.099089 0.678645
O O11 0.194615 0.000000 0.458648
O O12 0.046955 0.000000 0.177503
O O13 0.000000 0.911208 0.000000
#
# Coordination Sequence:
#
# PCOD9211235 Si02
#       6
#     8   8   2   8   8   8
#     4  12  29  48  71 106 147 196 247 298 358 424
#     4  12  26  49  75 105 146 195 246 300 354 433
#     4  12  24  48  76 110 140 184 240 300 370 434
#     4  12  25  45  78 103 143 190 240 292 368 436
#     4  10  21  39  73 112 139 184 239 297 363 432
#     4  10  22  39  66 107 146 182 228 296 367 432
#
# _framework density 24.516579
#
# number of rings (size 3 to 8) (size 9 to 14) (size 15 to 20)
#    0.000    0.762    4.762    1.714    4.000    1.524 
#    0.000    0.476    0.000    0.000    0.000    0.000 
#    0.000    0.000    0.000    0.000    0.000    0.000 
#
# Total GULP energy -117320.670749 kJ/mol
# GULP energy per Si atom -5586.698607 kJ/mol
# Density = 2.446078 g / cm^3
# Si number density = 24.516579 Si / 1000 Ang^3
#
#
#
# Elastic Constant Matrix: (Units=GPa)
#
#
# Indices 1 2 3 4 5 6 
#
# 1 107.2628 29.5413 -4.7384 0.0000 -8.9688 0.0000
# 2 29.5413 59.5835 10.2375 0.0000 -17.8344 0.0000
# 3 -4.7384 10.2375 146.1566 0.0000 -9.8187 0.0000
# 4 0.0000 0.0000 0.0000 40.7505 0.0000 -12.0307
# 5 -8.9688 -17.8344 -9.8187 0.0000 33.1544 0.0000
# 6 0.0000 0.0000 0.0000 -12.0307 0.0000 24.7704
#
#
#
# Elastic Compliance Matrix: (Units=1/GPa)
#
#
# Indices 1 2 3 4 5 6 
#
# 1 0.010877 -0.005452 0.000750 0.000000 0.000232 0.000000
# 2 -0.005452 0.022806 -0.001070 0.000000 0.010476 0.000000
# 3 0.000750 -0.001070 0.007057 0.000000 0.001717 0.000000
# 4 0.000000 0.000000 0.000000 0.028647 0.000000 0.013914
# 5 0.000232 0.010476 0.001717 0.000000 0.036368 0.000000
# 6 0.000000 0.000000 0.000000 0.013914 0.000000 0.047128
#
#
# Mechanical properties :
#
#
# Convention : Reuss Voigt Hill
#
# Bulk Modulus (GPa) = 34.25337 42.56484 38.40911
# Shear Modulus (GPa) = 28.70920 38.26590 33.48755
#
# Velocity S-wave (km/s) = 3.42572 3.95500 3.69984
# Velocity P-wave (km/s) = 5.44511 6.18510 5.82686
#
# Compressibility (1/GPa) = 0.02919421
#
# Stress axis : x y z
#
# Youngs Moduli (GPa) = 91.93684 43.84829 141.71094
#
# Poissons Ratio (x) = 0.23908 -0.10630
# Poissons Ratio (y) = 0.50127 0.15169
# Poissons Ratio (z) = -0.06896 0.04694
#
# Static dielectric constant tensor:
#      x y z
#    x 1.986560 0.000000 0.029070 
#    y 0.000000 1.895290 0.000000 
#    z 0.029070 0.000000 1.994950 
# 
# From -- ./inp_files/49207.got.cif
#   From: 2010.05.17/outbox.cif.g08.bks.cpg/sg12_25_cif.got.tgz:49207.got - 2010.06.03 13:09:07.
