data_PCOD9211331
_publ_section_title
;
Structure prediction by ZEFSAII (Michael W. Deem and Ramdas Pophale) SiO2 
 PCOD9211331
Probable space group: C 2/M
;
_chemical_formula_sum "Si O2"
_cell_formula_units_Z 44
_cell_length_a 9.420180
_cell_length_b 19.090297
_cell_length_c 12.161583
_cell_angle_alpha 90.000000
_cell_angle_beta 72.406106
_cell_angle_gamma 90.000000
_cell_volume 2084.761870
_symmetry_space_group_name_H-M "C 2/M"
_symmetry_group_IT_number 12
_symmetry_cell_setting 'monoclinic'
loop_
_space_group_symop_operation_xyz
x,y,z
-x,y,-z
-x,-y,-z
x,-y,z
1/2+x,1/2+y,z
1/2-x,1/2+y,-z
1/2-x,1/2-y,-z
1/2+x,1/2-y,z
loop_
_atom_site_type_symbol
_atom_site_label
_atom_site_fract_x
_atom_site_fract_y
_atom_site_fract_z
Si Si1 0.653942 0.831220 0.946079
Si Si2 0.642225 0.323626 0.897381
Si Si3 0.318850 0.420860 0.739051
Si Si4 0.164702 0.917499 0.675172
Si Si5 0.791261 0.655409 0.433965
Si Si6 0.500000 0.750918 0.500000
O O1 0.614707 0.759702 0.888504
O O2 0.776536 0.870077 0.846927
O O3 0.500000 0.871476 0.000000
O O4 0.719756 0.821269 0.051643
O O5 0.669222 0.370137 0.783889
O O6 0.500000 0.350843 0.000000
O O7 0.292576 0.500000 0.779676
O O8 0.493823 0.414366 0.671635
O O9 0.215863 0.400648 0.660628
O O10 0.262871 0.882628 0.556904
O O11 0.199303 0.000000 0.686033
O O12 0.647639 0.705236 0.442187
O O13 0.940253 0.700993 0.413807
#
# Coordination Sequence:
#
# PCOD9211331 Si02
#       6
#     8   8   8   8   8   4
#     4  10  23  40  62  92 125 162 207 264 315 357
#     4  10  21  40  61  89 123 160 210 259 303 367
#     4  11  23  40  65  92 130 168 204 258 315 382
#     4  11  23  39  66  94 127 168 208 257 311 380
#     4  11  23  43  63  99 129 162 207 258 314 372
#     4  10  24  38  64  96 124 168 204 258 302 364
#
# _framework density 21.105529000000001
#
# number of rings (size 3 to 8) (size 9 to 14) (size 15 to 20)
#    0.000    1.455    3.636    0.545    5.091    4.364 
#    0.000    3.636    0.000    0.000    0.000    0.000 
#    0.000    0.000    0.000    0.000    0.000    0.000 
#
# Total GULP energy -122783.795556 kJ/mol
# GULP energy per Si atom -5581.081616 kJ/mol
# Density = 2.105749 g / cm^3
# Si number density = 21.105529 Si / 1000 Ang^3
#
#
#
# Elastic Constant Matrix: (Units=GPa)
#
#
# Indices 1 2 3 4 5 6 
#
# 1 74.9951 10.9588 -4.9401 0.0000 12.9060 0.0000
# 2 10.9588 91.9042 34.4868 0.0000 13.4308 0.0000
# 3 -4.9401 34.4868 69.3151 0.0000 21.7038 0.0000
# 4 0.0000 0.0000 0.0000 35.5881 0.0000 58.2286
# 5 12.9060 13.4308 21.7038 0.0000 25.6404 0.0000
# 6 0.0000 0.0000 0.0000 58.2286 0.0000 119.0459
#
#
#
# Elastic Compliance Matrix: (Units=1/GPa)
#
#
# Indices 1 2 3 4 5 6 
#
# 1 0.016178 -0.002479 0.006163 0.000000 -0.012062 0.000000
# 2 -0.002479 0.013825 -0.007046 0.000000 -0.000030 0.000000
# 3 0.006163 -0.007046 0.024746 0.000000 -0.020358 0.000000
# 4 0.000000 0.000000 0.000000 0.140709 0.000000 -0.068824
# 5 -0.012062 -0.000030 -0.020358 0.000000 0.062320 0.000000
# 6 0.000000 0.000000 0.000000 -0.068824 0.000000 0.042064
#
#
# Mechanical properties :
#
#
# Convention : Reuss Voigt Hill
#
# Bulk Modulus (GPa) = 20.82217 35.24727 28.03472
# Shear Modulus (GPa) = 15.50032 49.10214 32.30123
#
# Velocity S-wave (km/s) = 2.71296 4.82862 3.91636
# Velocity P-wave (km/s) = 4.43854 6.91550 5.81054
#
# Compressibility (1/GPa) = 0.04802574
#
# Stress axis : x y z
#
# Youngs Moduli (GPa) = 61.81181 72.33414 40.41020
#
# Poissons Ratio (x) = 0.17933 -0.24906
# Poissons Ratio (y) = 0.15324 0.28472
# Poissons Ratio (z) = -0.38096 0.50964
#
# Static dielectric constant tensor:
#      x y z
#    x 1.788190 0.000000 -0.016090 
#    y 0.000000 1.792640 0.000000 
#    z -0.016090 0.000000 1.751220 
# 
# From -- ./inp_files/120744.got.cif
#   From: 2010.05.17/outbox.cif.g08.bks.cpg/sg12_61_cif.got.tgz:120744.got - 2010.06.03 13:09:07.
