data_PCOD9211450
_publ_section_title
;
Structure prediction by ZEFSAII (Michael W. Deem and Ramdas Pophale) SiO2 
 PCOD9211450
Probable space group: C 2/M
;
_chemical_formula_sum "Si O2"
_cell_formula_units_Z 48
_cell_length_a 19.458504
_cell_length_b 8.976430
_cell_length_c 21.139953
_cell_angle_alpha 90.000000
_cell_angle_beta 143.841780
_cell_angle_gamma 90.000000
_cell_volume 2178.621048
_symmetry_space_group_name_H-M "C 2/M"
_symmetry_group_IT_number 12
_symmetry_cell_setting 'monoclinic'
loop_
_space_group_symop_operation_xyz
x,y,z
-x,y,-z
-x,-y,-z
x,-y,z
1/2+x,1/2+y,z
1/2-x,1/2+y,-z
1/2-x,1/2-y,-z
1/2+x,1/2-y,z
loop_
_atom_site_type_symbol
_atom_site_label
_atom_site_fract_x
_atom_site_fract_y
_atom_site_fract_z
Si Si1 0.710118 0.328598 0.567604
Si Si2 0.942414 0.678776 0.888386
Si Si3 0.192111 0.323978 0.677897
Si Si4 0.854958 0.675265 0.217927
Si Si5 0.575978 0.328532 0.334335
Si Si6 0.676237 0.823012 0.001145
O O1 0.742138 0.500000 0.602613
O O2 0.649832 0.261805 0.584555
O O3 0.633951 0.322825 0.447440
O O4 0.826118 0.233807 0.639544
O O5 0.921245 0.500000 0.868968
O O6 0.823509 0.766590 0.789046
O O7 0.041753 0.720294 0.910841
O O8 0.000000 0.707582 0.000000
O O9 0.191849 0.500000 0.665452
O O10 0.122919 0.296962 0.691510
O O11 0.831502 0.500000 0.192131
O O12 0.744925 0.771329 0.114693
O O13 0.962940 0.726353 0.255709
O O14 0.545878 0.500000 0.297837
O O15 0.680412 0.000000 0.997834
O O16 0.750000 0.750000 0.000000
#
# Coordination Sequence:
#
# PCOD9211450 Si02
#       6
#     8   8   8   8   8   8
#     4  10  22  41  65  91 121 157 199 247 301 362
#     4  10  21  40  63  86 117 159 202 246 297 351
#     4  11  24  39  61  91 123 161 203 246 297 357
#     4  11  24  41  61  89 124 161 201 250 302 355
#     4  10  22  41  65  91 120 157 200 249 302 358
#     4  11  24  41  62  88 121 160 202 251 302 357
#
# _framework density 22.032285000000002
#
# number of rings (size 3 to 8) (size 9 to 14) (size 15 to 20)
#    0.000    1.500    1.667    2.500    2.333    6.333 
#    0.000    3.333    0.000    0.000    0.000    0.000 
#    0.000    0.000    0.000    0.000    0.000    0.000 
#
# Total GULP energy -134277.698224 kJ/mol
# GULP energy per Si atom -5594.904093 kJ/mol
# Density = 2.198214 g / cm^3
# Si number density = 22.032285 Si / 1000 Ang^3
#
#
#
# Elastic Constant Matrix: (Units=GPa)
#
#
# Indices 1 2 3 4 5 6 
#
# 1 86.0334 23.9960 -6.1654 0.0000 -4.4044 0.0000
# 2 23.9960 52.2709 -4.5100 0.0000 -7.1236 0.0000
# 3 -6.1654 -4.5100 31.5100 0.0000 -8.9496 0.0000
# 4 0.0000 0.0000 0.0000 27.7831 0.0000 -7.4615
# 5 -4.4044 -7.1236 -8.9496 0.0000 38.2899 0.0000
# 6 0.0000 0.0000 0.0000 -7.4615 0.0000 31.6062
#
#
#
# Elastic Compliance Matrix: (Units=1/GPa)
#
#
# Indices 1 2 3 4 5 6 
#
# 1 0.013457 -0.005872 0.002059 0.000000 0.000937 0.000000
# 2 -0.005872 0.022704 0.003329 0.000000 0.004327 0.000000
# 3 0.002059 0.003329 0.035195 0.000000 0.009082 0.000000
# 4 0.000000 0.000000 0.000000 0.038430 0.000000 0.009072
# 5 0.000937 0.004327 0.009082 0.000000 0.029152 0.000000
# 6 0.000000 0.000000 0.000000 0.009072 0.000000 0.033781
#
#
# Mechanical properties :
#
#
# Convention : Reuss Voigt Hill
#
# Bulk Modulus (GPa) = 14.20724 21.82839 18.01781
# Shear Modulus (GPa) = 25.36150 29.96876 27.66513
#
# Velocity S-wave (km/s) = 3.39648 3.69212 3.54738
# Velocity P-wave (km/s) = 4.67373 5.30138 4.99742
#
# Compressibility (1/GPa) = 0.07038664
#
# Stress axis : x y z
#
# Youngs Moduli (GPa) = 74.31221 44.04546 28.41320
#
# Poissons Ratio (x) = 0.25865 -0.05849
# Poissons Ratio (y) = 0.43639 -0.09460
# Poissons Ratio (z) = -0.15297 -0.14665
#
# Static dielectric constant tensor:
#      x y z
#    x 1.803190 0.000000 -0.038420 
#    y 0.000000 1.728000 0.000000 
#    z -0.038420 0.000000 1.860430 
# 
# From -- ./inp_files/314503.got.cif
#   From: 2010.05.17/outbox.cif.g08.bks.cpg/sg12_158_cif.got.tgz:314503.got - 2010.06.03 13:09:07.
