data_PCOD9211222
_publ_section_title
;
Structure prediction by ZEFSAII (Michael W. Deem and Ramdas Pophale) SiO2 
 PCOD9211222
Probable space group: C 2/M
;
_chemical_formula_sum "Si O2"
_cell_formula_units_Z 32
_cell_length_a 10.302337
_cell_length_b 17.094405
_cell_length_c 7.317471
_cell_angle_alpha 90.000000
_cell_angle_beta 79.639164
_cell_angle_gamma 90.000000
_cell_volume 1267.684129
_symmetry_space_group_name_H-M "C 2/M"
_symmetry_group_IT_number 12
_symmetry_cell_setting 'monoclinic'
loop_
_space_group_symop_operation_xyz
x,y,z
-x,y,-z
-x,-y,-z
x,-y,z
1/2+x,1/2+y,z
1/2-x,1/2+y,-z
1/2-x,1/2-y,-z
1/2+x,1/2-y,z
loop_
_atom_site_type_symbol
_atom_site_label
_atom_site_fract_x
_atom_site_fract_y
_atom_site_fract_z
Si Si1 0.278187 0.186314 0.645502
Si Si2 0.646563 0.367299 0.000642
Si Si3 0.351724 0.588805 0.610219
Si Si4 0.073227 0.585618 0.171008
O O1 0.250000 0.250000 0.500000
O O2 0.239688 0.109247 0.536561
O O3 0.418322 0.161489 0.699504
O O4 0.176476 0.199054 0.841407
O O5 0.658757 0.354049 0.213246
O O6 0.500000 0.398223 0.000000
O O7 0.771773 0.419773 0.919042
O O8 0.500000 0.594598 0.500000
O O9 0.328890 0.500000 0.679739
O O10 0.027479 0.500000 0.250558
O O11 0.000000 0.601989 0.000000
#
# Coordination Sequence:
#
# PCOD9211222 Si02
#       4
#     8   8   8   8
#     4  10  23  41  64  97 144 190 236 293 361 435
#     4  10  21  39  70 101 136 182 237 305 359 422
#     4  11  21  36  66 106 138 177 237 302 360 420
#     4   9  19  39  68 102 143 190 235 288 363 438
#
# _framework density 25.242882000000002
#
# number of rings (size 3 to 8) (size 9 to 14) (size 15 to 20)
#    1.500    0.500    2.500    1.500    0.000    3.000 
#    0.000    5.000    0.000    4.500    0.000    0.000 
#    0.000    1.000    0.000    0.000    0.000    0.000 
#
# Total GULP energy -89100.956886 kJ/mol
# GULP energy per Si atom -5568.809805 kJ/mol
# Density = 2.518543 g / cm^3
# Si number density = 25.242882 Si / 1000 Ang^3
#
#
#
# Elastic Constant Matrix: (Units=GPa)
#
#
# Indices 1 2 3 4 5 6 
#
# 1 85.1890 26.9769 36.5540 0.0000 28.1099 0.0000
# 2 26.9769 88.7200 51.2015 0.0000 12.0246 0.0000
# 3 36.5540 51.2015 200.2667 0.0000 23.2923 0.0000
# 4 0.0000 0.0000 0.0000 50.2081 0.0000 28.3615
# 5 28.1099 12.0246 23.2923 0.0000 54.5006 0.0000
# 6 0.0000 0.0000 0.0000 28.3615 0.0000 31.7819
#
#
#
# Elastic Compliance Matrix: (Units=1/GPa)
#
#
# Indices 1 2 3 4 5 6 
#
# 1 0.015483 -0.003066 -0.001254 0.000000 -0.006773 0.000000
# 2 -0.003066 0.013955 -0.002982 0.000000 -0.000223 0.000000
# 3 -0.001254 -0.002982 0.006138 0.000000 -0.001318 0.000000
# 4 0.000000 0.000000 0.000000 0.040162 0.000000 -0.035840
# 5 -0.006773 -0.000223 -0.001318 0.000000 0.022454 0.000000
# 6 0.000000 0.000000 0.000000 -0.035840 0.000000 0.063448
#
#
# Mechanical properties :
#
#
# Convention : Reuss Voigt Hill
#
# Bulk Modulus (GPa) = 47.68581 67.07117 57.37849
# Shear Modulus (GPa) = 27.28729 44.59434 35.94081
#
# Velocity S-wave (km/s) = 3.29141 4.20767 3.77742
# Velocity P-wave (km/s) = 5.77722 7.08759 6.46569
#
# Compressibility (1/GPa) = 0.02097060
#
# Stress axis : x y z
#
# Youngs Moduli (GPa) = 64.58860 71.65892 162.91679
#
# Poissons Ratio (x) = 0.21970 0.20436
# Poissons Ratio (y) = 0.19802 0.48586
# Poissons Ratio (z) = 0.08102 0.21371
#
# Static dielectric constant tensor:
#      x y z
#    x 1.959140 0.000000 0.005050 
#    y 0.000000 2.200570 0.000000 
#    z 0.005050 0.000000 2.123340 
# 
# From -- ./inp_files/37660.got.cif
#   From: 2010.05.17/outbox.cif.g08.bks.cpg/sg12_19_cif.got.tgz:37660.got - 2010.06.03 13:09:07.
