data_PCOD9211001
_publ_section_title
;
Structure prediction by ZEFSAII (Michael W. Deem and Ramdas Pophale) SiO2 
 PCOD9211001
Probable space group: C 2/M
;
_chemical_formula_sum "Si O2"
_cell_formula_units_Z 56
_cell_length_a 18.187001
_cell_length_b 11.356359
_cell_length_c 16.885165
_cell_angle_alpha 90.000000
_cell_angle_beta 46.368035
_cell_angle_gamma 90.000000
_cell_volume 2524.156624
_symmetry_space_group_name_H-M "C 2/M"
_symmetry_group_IT_number 12
_symmetry_cell_setting 'monoclinic'
loop_
_space_group_symop_operation_xyz
x,y,z
-x,y,-z
-x,-y,-z
x,-y,z
1/2+x,1/2+y,z
1/2-x,1/2+y,-z
1/2-x,1/2-y,-z
1/2+x,1/2-y,z
loop_
_atom_site_type_symbol
_atom_site_label
_atom_site_fract_x
_atom_site_fract_y
_atom_site_fract_z
Si Si1 0.048088 0.869179 0.765307
Si Si2 0.846070 0.864633 0.565780
Si Si3 0.607600 0.633964 0.898303
Si Si4 0.811743 0.132043 0.928310
Si Si5 0.015765 0.329187 0.577231
Si Si6 0.312889 0.740387 0.764292
Si Si7 0.139176 0.630248 0.628723
O O1 0.109163 0.869832 0.802143
O O2 0.080560 0.748134 0.699283
O O3 0.927776 0.862025 0.872694
O O4 0.065506 0.000000 0.714106
O O5 0.948774 0.805803 0.458898
O O6 0.816416 0.804303 0.671070
O O7 0.755458 0.851798 0.568865
O O8 0.860984 0.000000 0.569893
O O9 0.606743 0.500000 0.929037
O O10 0.705706 0.697940 0.856574
O O11 0.500000 0.691224 0.000000
O O12 0.822725 0.143379 0.824752
O O13 0.770814 0.000000 0.978331
O O14 0.750000 0.250000 0.000000
O O15 0.108173 0.378923 0.559670
O O16 0.000000 0.374548 0.500000
O O17 0.907986 0.330078 0.700799
O O18 0.110494 0.500000 0.684622
#
# Coordination Sequence:
#
# PCOD9211001 Si02
#       7
#     8   8   8   8   8   8   8
#     4  10  21  41  65  90 122 169 220 258 312 391
#     4  10  22  40  66  95 127 170 219 265 324 393
#     4  10  21  39  65  93 126 171 222 268 318 389
#     4  11  24  41  65  96 129 171 218 272 328 387
#     4  10  23  40  63  95 129 170 215 265 323 393
#     4  11  21  39  66  94 132 167 215 273 326 381
#     4  11  22  41  65  92 130 168 208 266 325 379
#
# _framework density 22.185628000000001
#
# number of rings (size 3 to 8) (size 9 to 14) (size 15 to 20)
#    0.000    1.571    2.857    1.714    0.000    6.857 
#    0.000    2.857    0.000    2.143    0.000    0.000 
#    0.000    0.000    0.000    0.000    0.000    0.000 
#
# Total GULP energy -156213.211959 kJ/mol
# GULP energy per Si atom -5579.043284 kJ/mol
# Density = 2.213513 g / cm^3
# Si number density = 22.185628 Si / 1000 Ang^3
#
#
#
# Elastic Constant Matrix: (Units=GPa)
#
#
# Indices 1 2 3 4 5 6 
#
# 1 132.5906 20.9397 14.7669 0.0000 4.3076 0.0000
# 2 20.9397 134.4144 26.2924 0.0000 -16.1215 0.0000
# 3 14.7669 26.2924 52.8511 0.0000 -10.6561 0.0000
# 4 0.0000 0.0000 0.0000 15.3445 0.0000 2.1590
# 5 4.3076 -16.1215 -10.6561 0.0000 38.2610 0.0000
# 6 0.0000 0.0000 0.0000 2.1590 0.0000 -2.5585
#
#
#
# Elastic Compliance Matrix: (Units=1/GPa)
#
#
# Indices 1 2 3 4 5 6 
#
# 1 0.008007 -0.001070 -0.002095 0.000000 -0.001936 0.000000
# 2 -0.001070 0.008611 -0.003421 0.000000 0.002796 0.000000
# 3 -0.002095 -0.003421 0.022213 0.000000 0.004981 0.000000
# 4 0.000000 0.000000 0.000000 0.058253 0.000000 0.049158
# 5 -0.001936 0.002796 0.004981 0.000000 0.028919 0.000000
# 6 0.000000 0.000000 0.000000 0.049158 0.000000 -0.349374
#
#
# Mechanical properties :
#
#
# Convention : Reuss Voigt Hill
#
# Bulk Modulus (GPa) = 38.97371 49.31715 44.14543
# Shear Modulus (GPa) = -24.79602 27.39987 1.30193
#
# Velocity S-wave (km/s) = -3.34677 3.51811 0.76688
# Velocity P-wave (km/s) = 1.63424 6.22739 4.55253
#
# Compressibility (1/GPa) = 0.02565832
#
# Stress axis : x y z
#
# Youngs Moduli (GPa) = 124.88746 116.13251 45.01914
#
# Poissons Ratio (x) = 0.12423 0.09433
# Poissons Ratio (y) = 0.13359 0.15402
# Poissons Ratio (z) = 0.26169 0.39731
#
# Static dielectric constant tensor:
#      x y z
#    x 1.835090 0.000000 0.046150 
#    y 0.000000 1.840230 0.000000 
#    z 0.046150 0.000000 1.844480 
# 
# From -- ./inp_files/276931.got.cif
#   From: 2010.05.17/outbox.cif.g08.bks.cpg/sg12_139_cif.got.tgz:276931.got - 2010.06.03 13:09:07.
