data_PCOD9211988
_publ_section_title
;
Structure prediction by ZEFSAII (Michael W. Deem and Ramdas Pophale) SiO2 
 PCOD9211988
Probable space group: C 2/M
;
_chemical_formula_sum "Si O2"
_cell_formula_units_Z 40
_cell_length_a 16.079161
_cell_length_b 11.888118
_cell_length_c 28.427928
_cell_angle_alpha 90.000000
_cell_angle_beta 160.754867
_cell_angle_gamma 90.000000
_cell_volume 1791.111687
_symmetry_space_group_name_H-M "C 2/M"
_symmetry_group_IT_number 12
_symmetry_cell_setting 'monoclinic'
loop_
_space_group_symop_operation_xyz
x,y,z
-x,y,-z
-x,-y,-z
x,-y,z
1/2+x,1/2+y,z
1/2-x,1/2+y,-z
1/2-x,1/2-y,-z
1/2+x,1/2-y,z
loop_
_atom_site_type_symbol
_atom_site_label
_atom_site_fract_x
_atom_site_fract_y
_atom_site_fract_z
Si Si1 0.059006 0.229573 0.940484
Si Si2 0.785724 0.256596 0.574886
Si Si3 0.700126 0.500000 0.065078
Si Si4 0.137829 0.131146 0.830094
Si Si5 0.291892 0.868193 0.318190
Si Si6 0.756522 0.000000 0.403551
O O1 0.797751 0.206867 0.774253
O O2 0.250000 0.250000 0.000000
O O3 0.115634 0.321639 0.010835
O O4 0.141514 0.111379 0.005559
O O5 0.750000 0.250000 0.500000
O O6 0.040878 0.207899 0.735095
O O7 0.562013 0.179421 0.476624
O O8 0.746465 0.385552 0.568465
O O9 0.991736 0.500000 0.234711
O O10 0.500000 0.500000 0.000000
O O11 0.915516 0.140320 0.751191
O O12 0.163437 0.000000 0.831091
O O13 0.309066 0.000000 0.314215
O O14 0.000000 0.000000 0.500000
#
# Coordination Sequence:
#
# PCOD9211988 Si02
#       6
#     8   8   4   8   8   4
#     4  10  22  40  70 102 135 177 241 288 353 419
#     4  12  27  41  67  97 143 182 238 291 361 417
#     4  12  26  46  78 105 142 188 247 304 352 429
#     4  10  21  42  67  97 132 178 230 287 352 430
#     4  10  21  40  69  96 128 181 236 288 340 431
#     4  12  28  50  72 105 148 196 237 298 370 429
#
# _framework density 22.3325
#
# number of rings (size 3 to 8) (size 9 to 14) (size 15 to 20)
#    0.000    1.200    3.000    2.400    9.800    1.600 
#    1.800    0.000    0.000    1.800    0.000    0.000 
#    0.000    0.000    0.000    0.000    0.000    0.000 
#
# Total GULP energy -111850.394648 kJ/mol
# GULP energy per Si atom -5592.519732 kJ/mol
# Density = 2.228167 g / cm^3
# Si number density = 22.332500 Si / 1000 Ang^3
#
#
#
# Elastic Constant Matrix: (Units=GPa)
#
#
# Indices 1 2 3 4 5 6 
#
# 1 97.3309 53.0562 33.6470 0.0088 -20.0100 -0.0413
# 2 53.0562 136.2226 24.6549 0.0114 -21.1614 -0.0688
# 3 33.6470 24.6549 135.5383 0.0286 -10.3816 -0.0651
# 4 0.0088 0.0114 0.0286 13.0783 0.0022 -15.4186
# 5 -20.0100 -21.1614 -10.3816 0.0022 41.8603 -0.0049
# 6 -0.0413 -0.0688 -0.0651 -15.4186 -0.0049 -86.3767
#
#
#
# Elastic Compliance Matrix: (Units=1/GPa)
#
#
# Indices 1 2 3 4 5 6 
#
# 1 0.014422 -0.004556 -0.002446 -0.000002 0.003985 -0.000001
# 2 -0.004556 0.009589 -0.000417 -0.000009 0.002567 -0.000004
# 3 -0.002446 -0.000417 0.008109 -0.000018 0.000631 -0.000002
# 4 -0.000002 -0.000009 -0.000018 0.063169 -0.000015 -0.011276
# 5 0.003985 0.002567 0.000631 -0.000015 0.027248 -0.000003
# 6 -0.000001 -0.000004 -0.000002 -0.011276 -0.000003 -0.009564
#
#
# Mechanical properties :
#
#
# Convention : Reuss Voigt Hill
#
# Bulk Modulus (GPa) = 57.85828 65.75643 61.80735
# Shear Modulus (GPa) = 37.43288 10.89461 24.16374
#
# Velocity S-wave (km/s) = 4.09854 2.21110 3.29294
# Velocity P-wave (km/s) = 6.95422 6.00223 6.49569
#
# Compressibility (1/GPa) = 0.01728361
#
# Stress axis : x y z
#
# Youngs Moduli (GPa) = 69.33667 104.28207 123.31250
#
# Poissons Ratio (x) = 0.47506 0.30168
# Poissons Ratio (y) = 0.31586 0.05140
# Poissons Ratio (z) = 0.16963 0.04347
#
# Static dielectric constant tensor:
#      x y z
#    x 1.821380 0.000000 -0.005040 
#    y 0.000000 1.748090 -0.000010 
#    z -0.005040 -0.000010 1.784850 
# 
# From -- ./inp_files/378966.got.cif
#   From: 2010.05.17/outbox.cif.g08.bks.cpg/sg12_190_cif.got.tgz:378966.got - 2010.06.03 13:09:07.
