data_PCOD9211674
_publ_section_title
;
Structure prediction by ZEFSAII (Michael W. Deem and Ramdas Pophale) SiO2 
 PCOD9211674
Probable space group: C 2/M
;
_chemical_formula_sum "Si O2"
_cell_formula_units_Z 64
_cell_length_a 31.862138
_cell_length_b 8.339633
_cell_length_c 19.505382
_cell_angle_alpha 90.000000
_cell_angle_beta 141.570796
_cell_angle_gamma 90.000000
_cell_volume 3221.442581
_symmetry_space_group_name_H-M "C 2/M"
_symmetry_group_IT_number 12
_symmetry_cell_setting 'monoclinic'
loop_
_space_group_symop_operation_xyz
x,y,z
-x,y,-z
-x,-y,-z
x,-y,z
1/2+x,1/2+y,z
1/2-x,1/2+y,-z
1/2-x,1/2-y,-z
1/2+x,1/2-y,z
loop_
_atom_site_type_symbol
_atom_site_label
_atom_site_fract_x
_atom_site_fract_y
_atom_site_fract_z
Si Si1 0.938979 0.194024 0.614202
Si Si2 0.662003 0.691939 0.245537
Si Si3 0.166612 0.192651 0.991264
Si Si4 0.083665 0.804667 0.749751
Si Si5 0.196684 0.307981 0.631955
Si Si6 0.308500 0.692414 0.218604
Si Si7 0.939454 0.805708 0.773108
Si Si8 0.418959 0.810191 0.988345
O O1 0.871227 0.250063 0.491100
O O2 0.941187 0.247463 0.696368
O O3 0.006973 0.249702 0.662660
O O4 0.939755 0.000000 0.615205
O O5 0.667575 0.500000 0.258429
O O6 0.736127 0.754758 0.320760
O O7 0.626486 0.750407 0.269625
O O8 0.612111 0.730229 0.118867
O O9 0.127774 0.241905 0.872612
O O10 0.128024 0.263552 0.007444
O O11 0.163994 0.000000 0.992670
O O12 0.243648 0.248800 0.093138
O O13 0.123432 0.752686 0.732805
O O14 0.082390 0.000000 0.747188
O O15 0.198715 0.500000 0.633470
O O16 0.197669 0.253666 0.712056
O O17 0.307843 0.500000 0.218954
O O18 0.006077 0.747889 0.897659
O O19 0.940613 0.000000 0.774545
O O20 0.418649 0.000000 0.978349
#
# Coordination Sequence:
#
# PCOD9211674 Si02
#       8
#     8   8   8   8   8   8   8   8
#     4  10  21  41  64  85 113 154 202 247 292 346
#     4  10  22  40  62  86 118 159 198 238 293 357
#     4  11  20  37  62  88 121 159 193 235 292 356
#     4   9  20  38  62  89 119 154 193 239 296 354
#     4  11  24  41  59  84 119 158 200 246 293 342
#     4  11  22  38  61  91 120 152 196 243 293 350
#     4  10  21  40  65  88 115 157 199 237 295 361
#     4  12  23  35  58  92 125 156 192 241 293 345
#
# _framework density 19.866876999999999
#
# number of rings (size 3 to 8) (size 9 to 14) (size 15 to 20)
#    0.000    1.500    2.500    3.000    0.000    4.000 
#    0.000    5.625    0.000    0.000    0.000    0.000 
#    0.000    0.000    0.000    0.000    0.000    0.000 
#
# Total GULP energy -178848.202926 kJ/mol
# GULP energy per Si atom -5589.006341 kJ/mol
# Density = 1.982166 g / cm^3
# Si number density = 19.866877 Si / 1000 Ang^3
#
#
#
# Elastic Constant Matrix: (Units=GPa)
#
#
# Indices 1 2 3 4 5 6 
#
# 1 143.7115 32.6853 47.2747 0.0000 23.6246 0.0000
# 2 32.6853 9.5042 7.0631 0.0000 21.1729 0.0000
# 3 47.2747 7.0631 104.5683 0.0000 41.8470 0.0000
# 4 0.0000 0.0000 0.0000 23.8167 0.0000 4.1439
# 5 23.6246 21.1729 41.8470 0.0000 4.7016 0.0000
# 6 0.0000 0.0000 0.0000 4.1439 0.0000 15.8926
#
#
#
# Elastic Compliance Matrix: (Units=1/GPa)
#
#
# Indices 1 2 3 4 5 6 
#
# 1 0.011386 -0.011290 0.000717 0.000000 -0.012748 0.000000
# 2 -0.011290 0.038243 -0.019025 0.000000 0.053839 0.000000
# 3 0.000717 -0.019025 0.008712 0.000000 0.004527 0.000000
# 4 0.000000 0.000000 0.000000 0.043983 0.000000 -0.011468
# 5 -0.012748 0.053839 0.004527 0.000000 -0.005998 0.000000
# 6 0.000000 0.000000 0.000000 -0.011468 0.000000 0.065913
#
#
# Mechanical properties :
#
#
# Convention : Reuss Voigt Hill
#
# Bulk Modulus (GPa) = -1170.43183 47.98113 -561.22535
# Shear Modulus (GPa) = 22.60905 20.26624 21.43764
#
# Velocity S-wave (km/s) = 3.37713 3.19737 3.28848
# Velocity P-wave (km/s) = 23.98353 6.15099 16.39169
#
# Compressibility (1/GPa) = -0.00085439
#
# Stress axis : x y z
#
# Youngs Moduli (GPa) = 87.82640 26.14848 114.77847
#
# Poissons Ratio (x) = 0.29522 -0.08226
# Poissons Ratio (y) = 0.99158 2.18361
# Poissons Ratio (z) = -0.06294 0.49746
#
# Static dielectric constant tensor:
#      x y z
#    x 1.721870 0.000000 0.014550 
#    y 0.000000 1.690180 0.000000 
#    z 0.014550 0.000000 1.652680 
# 
# From -- ./inp_files/295814.got.cif
#   From: 2010.05.17/outbox.cif.g08.bks.cpg/sg12_148_cif.got.tgz:295814.got - 2010.06.03 13:09:07.
