data_PCOD9211293
_publ_section_title
;
Structure prediction by ZEFSAII (Michael W. Deem and Ramdas Pophale) SiO2 
 PCOD9211293
Probable space group: C 2/M
;
_chemical_formula_sum "Si O2"
_cell_formula_units_Z 28
_cell_length_a 8.966168
_cell_length_b 5.367784
_cell_length_c 27.966746
_cell_angle_alpha 90.000000
_cell_angle_beta 111.829838
_cell_angle_gamma 90.000000
_cell_volume 1249.477935
_symmetry_space_group_name_H-M "C 2/M"
_symmetry_group_IT_number 12
_symmetry_cell_setting 'monoclinic'
loop_
_space_group_symop_operation_xyz
x,y,z
-x,y,-z
-x,-y,-z
x,-y,z
1/2+x,1/2+y,z
1/2-x,1/2+y,-z
1/2-x,1/2-y,-z
1/2+x,1/2-y,z
loop_
_atom_site_type_symbol
_atom_site_label
_atom_site_fract_x
_atom_site_fract_y
_atom_site_fract_z
Si Si1 0.095609 0.000000 0.155234
Si Si2 0.965771 0.000000 0.642970
Si Si3 0.201278 0.000000 0.940590
Si Si4 0.173178 0.000000 0.043985
Si Si5 0.520417 0.000000 0.804806
Si Si6 0.645953 0.500000 0.479950
Si Si7 0.651548 0.000000 0.317926
O O1 0.041021 0.250581 0.176058
O O2 0.286816 0.000000 0.174749
O O3 0.988303 0.000000 0.093388
O O4 0.920844 0.000000 0.581824
O O5 0.894548 0.750385 0.658660
O O6 0.158683 0.000000 0.670464
O O7 0.272231 0.753653 0.926105
O O8 0.270161 0.000000 0.003279
O O9 0.000000 0.000000 0.000000
O O10 0.447546 0.000000 0.743039
O O11 0.500000 0.500000 0.500000
O O12 0.750000 0.750000 0.500000
#
# Coordination Sequence:
#
# PCOD9211293 Si02
#       7
#     4   4   4   4   4   4   4
#     4  12  26  44  71 100 135 175 221 270 349 400
#     4  12  24  43  70 102 132 186 225 276 333 398
#     4  10  23  37  60  91 120 166 209 261 315 399
#     4  10  21  40  60  87 123 160 211 259 316 375
#     4  12  26  48  69 102 134 176 219 289 336 396
#     4  12  25  43  66  99 145 179 225 277 333 395
#     4  12  25  45  71  98 135 173 235 279 334 398
#
# _framework density 22.409358999999998
#
# number of rings (size 3 to 8) (size 9 to 14) (size 15 to 20)
#    0.000    0.571    0.000    8.571    4.000    0.000 
#    0.000    0.000    0.000    0.000    0.000    0.000 
#    0.000    0.000    0.000    0.000    0.000    0.000 
#
# Total GULP energy -78369.583751 kJ/mol
# GULP energy per Si atom -5597.827411 kJ/mol
# Density = 2.235835 g / cm^3
# Si number density = 22.409359 Si / 1000 Ang^3
#
#
#
# Elastic Constant Matrix: (Units=GPa)
#
#
# Indices 1 2 3 4 5 6 
#
# 1 103.5681 52.8549 -34.8732 0.0000 28.7413 0.0000
# 2 52.8549 219.8092 4.8511 0.0000 7.7183 0.0000
# 3 -34.8732 4.8511 105.0404 0.0000 -1.8725 0.0000
# 4 0.0000 0.0000 0.0000 53.6413 0.0000 -12.6271
# 5 28.7413 7.7183 -1.8725 0.0000 44.6784 0.0000
# 6 0.0000 0.0000 0.0000 -12.6271 0.0000 59.9118
#
#
#
# Elastic Compliance Matrix: (Units=1/GPa)
#
#
# Indices 1 2 3 4 5 6 
#
# 1 0.015866 -0.003603 0.005267 0.000000 -0.009363 0.000000
# 2 -0.003603 0.005401 -0.001422 0.000000 0.001325 0.000000
# 3 0.005267 -0.001422 0.011287 0.000000 -0.002670 0.000000
# 4 0.000000 0.000000 0.000000 0.019616 0.000000 0.004134
# 5 -0.009363 0.001325 -0.002670 0.000000 0.028065 0.000000
# 6 0.000000 0.000000 0.000000 0.004134 0.000000 0.017563
#
#
# Mechanical properties :
#
#
# Convention : Reuss Voigt Hill
#
# Bulk Modulus (GPa) = 30.26790 52.67593 41.47191
# Shear Modulus (GPa) = 46.15795 58.68532 52.42164
#
# Velocity S-wave (km/s) = 4.54338 5.12296 4.84185
# Velocity P-wave (km/s) = 6.40775 7.65181 7.05725
#
# Compressibility (1/GPa) = 0.03303830
#
# Stress axis : x y z
#
# Youngs Moduli (GPa) = 63.02832 185.16758 88.59889
#
# Poissons Ratio (x) = 0.66707 -0.46664
# Poissons Ratio (y) = 0.22706 0.12597
# Poissons Ratio (z) = -0.33196 0.26328
#
# Static dielectric constant tensor:
#      x y z
#    x 1.941840 0.000000 -0.097780 
#    y 0.000000 1.735240 0.000000 
#    z -0.097780 0.000000 1.824100 
# 
# From -- ./inp_files/371768.got.cif
#   From: 2010.05.17/outbox.cif.g08.bks.cpg/sg12_186_cif.got.tgz:371768.got - 2010.06.03 13:09:07.
