data_PCOD9211220
_publ_section_title
;
Structure prediction by ZEFSAII (Michael W. Deem and Ramdas Pophale) SiO2 
 PCOD9211220
Probable space group: C 2/M
;
_chemical_formula_sum "Si O2"
_cell_formula_units_Z 38
_cell_length_a 14.473086
_cell_length_b 17.521527
_cell_length_c 7.775614
_cell_angle_alpha 90.000000
_cell_angle_beta 105.227501
_cell_angle_gamma 90.000000
_cell_volume 1902.592740
_symmetry_space_group_name_H-M "C 2/M"
_symmetry_group_IT_number 12
_symmetry_cell_setting 'monoclinic'
loop_
_space_group_symop_operation_xyz
x,y,z
-x,y,-z
-x,-y,-z
x,-y,z
1/2+x,1/2+y,z
1/2-x,1/2+y,-z
1/2-x,1/2-y,-z
1/2+x,1/2-y,z
loop_
_atom_site_type_symbol
_atom_site_label
_atom_site_fract_x
_atom_site_fract_y
_atom_site_fract_z
Si Si1 0.152055 0.251672 0.663611
Si Si2 0.124388 0.862128 0.957381
Si Si3 0.333636 0.914691 0.161778
Si Si4 0.500000 0.128605 0.000000
Si Si5 0.000000 0.000000 0.000000
Si Si6 0.622177 0.249217 0.265389
O O1 0.114956 0.201124 0.803972
O O2 0.147297 0.342237 0.703975
O O3 0.264747 0.230880 0.699616
O O4 0.104654 0.235769 0.456980
O O5 0.233718 0.892886 0.020586
O O6 0.107398 0.819961 0.131141
O O7 0.055293 0.933412 0.915277
O O8 0.324352 0.000000 0.235111
O O9 0.420133 0.915208 0.068813
O O10 0.557894 0.181602 0.161492
#
# Coordination Sequence:
#
# PCOD9211220 Si02
#       6
#     8   8   8   4   2   8
#     4  10  21  42  70  91 131 180 215 266 321 395
#     4  11  21  45  66  92 132 173 213 275 325 391
#     4  11  22  40  64  94 136 169 212 269 335 376
#     4  12  20  38  63  99 126 166 218 262 316 401
#     4  12  26  40  72  98 126 168 222 276 334 386
#     4  10  21  39  69  97 124 173 226 255 320 397
#
# _framework density 19.972743999999999
#
# number of rings (size 3 to 8) (size 9 to 14) (size 15 to 20)
#    0.000    1.263    5.263    2.211    0.000    0.842 
#    0.000    5.263    6.947    0.000    0.000    0.000 
#    0.000    0.000    0.000    0.000    0.000    0.000 
#
# Total GULP energy -105846.301083 kJ/mol
# GULP energy per Si atom -5570.857952 kJ/mol
# Density = 1.992729 g / cm^3
# Si number density = 19.972744 Si / 1000 Ang^3
#
#
#
# Elastic Constant Matrix: (Units=GPa)
#
#
# Indices 1 2 3 4 5 6 
#
# 1 89.8097 42.5570 30.7426 0.0000 -11.5327 0.0000
# 2 42.5570 162.9480 76.7048 0.0000 -10.7095 0.0000
# 3 30.7426 76.7048 138.2251 0.0000 -14.9267 0.0000
# 4 0.0000 0.0000 0.0000 3.4478 0.0000 -1.7388
# 5 -11.5327 -10.7095 -14.9267 0.0000 23.4897 0.0000
# 6 0.0000 0.0000 0.0000 -1.7388 0.0000 3.7611
#
#
#
# Elastic Compliance Matrix: (Units=1/GPa)
#
#
# Indices 1 2 3 4 5 6 
#
# 1 0.013359 -0.002734 -0.000945 0.000000 0.004712 0.000000
# 2 -0.002734 0.008885 -0.004327 0.000000 -0.000041 0.000000
# 3 -0.000945 -0.004327 0.010289 0.000000 0.004101 0.000000
# 4 0.000000 0.000000 0.000000 0.378219 0.000000 0.174854
# 5 0.004712 -0.000041 0.004101 0.000000 0.047473 0.000000
# 6 0.000000 0.000000 0.000000 0.174854 0.000000 0.346714
#
#
# Mechanical properties :
#
#
# Convention : Reuss Voigt Hill
#
# Bulk Modulus (GPa) = 60.53171 76.77684 68.65427
# Shear Modulus (GPa) = 6.04992 22.20497 14.12744
#
# Velocity S-wave (km/s) = 1.74232 3.33793 2.66246
# Velocity P-wave (km/s) = 5.86690 7.30616 6.62572
#
# Compressibility (1/GPa) = 0.01652027
#
# Stress axis : x y z
#
# Youngs Moduli (GPa) = 74.85652 112.54686 97.19361
#
# Poissons Ratio (x) = 0.30776 0.09184
# Poissons Ratio (y) = 0.20469 0.42055
# Poissons Ratio (z) = 0.07073 0.48698
#
# Static dielectric constant tensor:
#      x y z
#    x 1.780880 0.000000 0.010070 
#    y 0.000000 1.682350 0.000000 
#    z 0.010070 0.000000 1.685370 
# 
# From -- ./inp_files/59254.got.cif
#   From: 2010.05.17/outbox.cif.g08.bks.cpg/sg12_30_cif.got.tgz:59254.got - 2010.06.03 13:09:07.
