data_PCOD9211326
_publ_section_title
;
Structure prediction by ZEFSAII (Michael W. Deem and Ramdas Pophale) SiO2 
 PCOD9211326
Probable space group: C 2/M
;
_chemical_formula_sum "Si O2"
_cell_formula_units_Z 64
_cell_length_a 13.606795
_cell_length_b 19.057900
_cell_length_c 22.663202
_cell_angle_alpha 90.000000
_cell_angle_beta 33.595327
_cell_angle_gamma 90.000000
_cell_volume 3251.856413
_symmetry_space_group_name_H-M "C 2/M"
_symmetry_group_IT_number 12
_symmetry_cell_setting 'monoclinic'
loop_
_space_group_symop_operation_xyz
x,y,z
-x,y,-z
-x,-y,-z
x,-y,z
1/2+x,1/2+y,z
1/2-x,1/2+y,-z
1/2-x,1/2-y,-z
1/2+x,1/2-y,z
loop_
_atom_site_type_symbol
_atom_site_label
_atom_site_fract_x
_atom_site_fract_y
_atom_site_fract_z
Si Si1 0.383852 0.704754 0.501054
Si Si2 0.812530 0.080208 0.446841
Si Si3 0.734405 0.081008 0.929178
Si Si4 0.473288 0.202866 0.741378
Si Si5 0.447797 0.849795 0.631250
Si Si6 0.406937 0.807308 0.909574
Si Si7 0.838100 0.695241 0.122020
Si Si8 0.642023 0.581027 0.712477
O O1 0.500000 0.687672 0.500000
O O2 0.383392 0.640043 0.455424
O O3 0.180424 0.715844 0.624157
O O4 0.462841 0.775676 0.432723
O O5 0.600804 0.092161 0.548535
O O6 0.875087 0.091964 0.348888
O O7 0.854108 0.000000 0.443779
O O8 0.686125 0.116432 0.890421
O O9 0.944386 0.088883 0.835653
O O10 0.688123 0.000000 0.952557
O O11 0.643185 0.125364 0.026304
O O12 0.405454 0.153931 0.721913
O O13 0.438488 0.178148 0.825320
O O14 0.349232 0.270377 0.797533
O O15 0.282510 0.868158 0.672824
O O16 0.595486 0.787795 0.845632
O O17 0.250000 0.750000 0.000000
O O18 0.000000 0.724517 0.000000
O O19 0.699998 0.500000 0.692278
#
# Coordination Sequence:
#
# PCOD9211326 Si02
#       8
#     8   8   8   8   8   8   8   8
#     4  11  26  40  61  96 131 169 212 268 321 371
#     4  10  21  40  61  87 127 169 219 260 308 384
#     4  10  23  41  65  98 131 163 213 270 317 381
#     4  11  24  40  60  95 125 166 210 262 322 374
#     4  11  24  37  63  92 129 166 211 268 317 373
#     4  11  23  40  63  92 126 164 213 262 318 384
#     4  10  22  38  64  91 122 165 209 262 313 379
#     4  10  22  40  66  95 125 171 213 261 323 375
#
# _framework density 19.681065
#
# number of rings (size 3 to 8) (size 9 to 14) (size 15 to 20)
#    0.000    1.500    2.500    3.000    8.750    3.500 
#    0.000    3.125    0.000    1.500    0.000    0.000 
#    0.000    0.000    0.000    0.000    0.000    0.000 
#
# Total GULP energy -178679.780176 kJ/mol
# GULP energy per Si atom -5583.743130 kJ/mol
# Density = 1.963627 g / cm^3
# Si number density = 19.681065 Si / 1000 Ang^3
#
#
#
# Elastic Constant Matrix: (Units=GPa)
#
#
# Indices 1 2 3 4 5 6 
#
# 1 135.4385 60.3130 47.4648 -0.0018 0.9993 0.0003
# 2 60.3130 94.0536 45.7101 -0.0013 -8.3855 0.0008
# 3 47.4648 45.7101 70.2768 -0.0093 12.0770 0.0012
# 4 -0.0018 -0.0013 -0.0093 19.7646 -0.0004 -3.8310
# 5 0.9993 -8.3855 12.0770 -0.0004 33.0828 0.0003
# 6 0.0003 0.0008 0.0012 -3.8310 0.0003 28.3527
#
#
#
# Elastic Compliance Matrix: (Units=1/GPa)
#
#
# Indices 1 2 3 4 5 6 
#
# 1 0.011123 -0.005120 -0.004163 -0.000001 -0.000114 0.000000
# 2 -0.005120 0.020273 -0.011350 -0.000004 0.009436 -0.000001
# 3 -0.004163 -0.011350 0.026562 0.000011 -0.012448 0.000001
# 4 -0.000001 -0.000004 0.000011 0.051956 -0.000005 0.007020
# 5 -0.000114 0.009436 -0.012448 -0.000005 0.037166 -0.000001
# 6 0.000000 -0.000001 0.000001 0.007020 -0.000001 0.036219
#
#
# Mechanical properties :
#
#
# Convention : Reuss Voigt Hill
#
# Bulk Modulus (GPa) = 59.90384 67.41609 63.65996
# Shear Modulus (GPa) = 21.72702 25.99211 23.85957
#
# Velocity S-wave (km/s) = 3.32619 3.63804 3.48560
# Velocity P-wave (km/s) = 6.72716 7.20942 6.97246
#
# Compressibility (1/GPa) = 0.01669342
#
# Stress axis : x y z
#
# Youngs Moduli (GPa) = 89.90310 49.32766 37.64750
#
# Poissons Ratio (x) = 0.25255 0.15672
# Poissons Ratio (y) = 0.46029 0.42728
# Poissons Ratio (z) = 0.37425 0.55985
#
# Static dielectric constant tensor:
#      x y z
#    x 1.711710 0.000000 -0.006440 
#    y 0.000000 1.709550 0.000000 
#    z -0.006440 0.000000 1.738260 
# 
# From -- ./inp_files/340815.got.cif
#   From: 2010.05.17/outbox.cif.g08.bks.cpg/sg12_171_cif.got.tgz:340815.got - 2010.06.03 13:09:07.
