data_PCOD9211671
_publ_section_title
;
Structure prediction by ZEFSAII (Michael W. Deem and Ramdas Pophale) SiO2 
 PCOD9211671
Probable space group: C 2/M
;
_chemical_formula_sum "Si O2"
_cell_formula_units_Z 64
_cell_length_a 20.194980
_cell_length_b 8.058917
_cell_length_c 32.306385
_cell_angle_alpha 90.000000
_cell_angle_beta 143.541189
_cell_angle_gamma 90.000000
_cell_volume 3124.451810
_symmetry_space_group_name_H-M "C 2/M"
_symmetry_group_IT_number 12
_symmetry_cell_setting 'monoclinic'
loop_
_space_group_symop_operation_xyz
x,y,z
-x,y,-z
-x,-y,-z
x,-y,z
1/2+x,1/2+y,z
1/2-x,1/2+y,-z
1/2-x,1/2-y,-z
1/2+x,1/2-y,z
loop_
_atom_site_type_symbol
_atom_site_label
_atom_site_fract_x
_atom_site_fract_y
_atom_site_fract_z
Si Si1 0.957952 0.694464 0.770902
Si Si2 0.923688 0.701413 0.382703
Si Si3 0.321632 0.799717 0.496339
Si Si4 0.259796 0.306320 0.227034
Si Si5 0.326975 0.201486 0.171038
Si Si6 0.517857 0.307299 0.124789
Si Si7 0.724920 0.196584 0.618268
Si Si8 0.406241 0.702702 0.985973
O O1 0.943893 0.500000 0.755432
O O2 0.985448 0.718168 0.832925
O O3 0.841970 0.777660 0.700097
O O4 0.061326 0.757453 0.795743
O O5 0.923455 0.500000 0.383082
O O6 0.840471 0.758744 0.305054
O O7 0.873059 0.761106 0.401050
O O8 0.049598 0.756261 0.437308
O O9 0.250000 0.750000 0.500000
O O10 0.274374 0.738156 0.428292
O O11 0.321824 0.000000 0.496007
O O12 0.231672 0.500000 0.215642
O O13 0.318013 0.266991 0.212940
O O14 0.144442 0.206735 0.171995
O O15 0.327100 0.000000 0.172266
O O16 0.215543 0.253583 0.090505
O O17 0.491066 0.500000 0.118495
O O18 0.439625 0.241150 0.048719
O O19 0.705221 0.000000 0.604845
O O20 0.409204 0.500000 0.988109
O O21 0.500000 0.756022 0.000000
#
# Coordination Sequence:
#
# PCOD9211671 Si02
#       8
#     8   8   8   8   8   8   8   8
#     4  11  24  39  59  90 126 158 197 249 303 355
#     4  10  21  40  65  88 116 161 206 244 292 353
#     4  10  23  41  62  92 124 157 199 244 299 354
#     4  12  24  37  59  92 124 154 201 256 302 352
#     4  10  22  41  61  85 120 162 202 246 305 363
#     4  11  21  38  64  88 117 159 204 247 300 361
#     4  10  21  40  65  87 116 160 205 244 288 351
#     4   9  17  34  62  87 111 153 208 250 291 361
#
# _framework density 20.483594
#
# number of rings (size 3 to 8) (size 9 to 14) (size 15 to 20)
#    0.000    1.625    2.500    2.250    1.750    4.000 
#    0.000    1.875    0.000    2.250    0.000    0.000 
#    0.000    0.000    0.000    0.000    0.000    0.000 
#
# Total GULP energy -178820.189259 kJ/mol
# GULP energy per Si atom -5588.130914 kJ/mol
# Density = 2.043697 g / cm^3
# Si number density = 20.483594 Si / 1000 Ang^3
#
#
#
# Elastic Constant Matrix: (Units=GPa)
#
#
# Indices 1 2 3 4 5 6 
#
# 1 162.6792 3.6642 57.9624 0.0000 -8.9281 -0.0003
# 2 3.6642 16.6834 5.6873 0.0000 1.1954 -0.0006
# 3 57.9624 5.6873 99.2631 0.0000 -17.8750 0.0000
# 4 0.0000 0.0000 0.0000 2.3155 0.0000 -2.0960
# 5 -8.9281 1.1954 -17.8750 0.0000 37.4335 -0.0001
# 6 -0.0003 -0.0006 0.0000 -2.0960 -0.0001 22.4032
#
#
#
# Elastic Compliance Matrix: (Units=1/GPa)
#
#
# Indices 1 2 3 4 5 6 
#
# 1 0.007766 -0.000118 -0.004588 0.000000 -0.000335 0.000000
# 2 -0.000118 0.061679 -0.004185 0.000002 -0.003996 0.000002
# 3 -0.004588 -0.004185 0.014026 -0.000001 0.005737 0.000000
# 4 0.000000 0.000002 -0.000001 0.471831 0.000000 0.044143
# 5 -0.000335 -0.003996 0.005737 0.000000 0.029501 0.000000
# 6 0.000000 0.000002 0.000000 0.044143 0.000000 0.048766
#
#
# Mechanical properties :
#
#
# Convention : Reuss Voigt Hill
#
# Bulk Modulus (GPa) = 15.22314 45.91706 30.57010
# Shear Modulus (GPa) = 7.42668 26.51790 16.97229
#
# Velocity S-wave (km/s) = 1.90619 3.60195 2.88163
# Velocity P-wave (km/s) = 3.50610 6.30586 5.10179
#
# Compressibility (1/GPa) = 0.06568949
#
# Stress axis : x y z
#
# Youngs Moduli (GPa) = 128.76310 16.21308 71.29380
#
# Poissons Ratio (x) = 0.00191 0.32713
# Poissons Ratio (y) = 0.01513 0.29836
# Poissons Ratio (z) = 0.59083 0.06785
#
# Static dielectric constant tensor:
#      x y z
#    x 1.713170 0.000000 -0.006420 
#    y 0.000000 1.727110 0.000000 
#    z -0.006420 0.000000 1.700560 
# 
# From -- ./inp_files/378542.got.cif
#   From: 2010.05.17/outbox.cif.g08.bks.cpg/sg12_190_cif.got.tgz:378542.got - 2010.06.03 13:09:07.
