data_PCOD9211826
_publ_section_title
;
Structure prediction by ZEFSAII (Michael W. Deem and Ramdas Pophale) SiO2 
 PCOD9211826
Probable space group: C 2/M
;
_chemical_formula_sum "Si O2"
_cell_formula_units_Z 36
_cell_length_a 8.582994
_cell_length_b 27.696299
_cell_length_c 10.807621
_cell_angle_alpha 90.000000
_cell_angle_beta 44.725479
_cell_angle_gamma 90.000000
_cell_volume 1807.943364
_symmetry_space_group_name_H-M "C 2/M"
_symmetry_group_IT_number 12
_symmetry_cell_setting 'monoclinic'
loop_
_space_group_symop_operation_xyz
x,y,z
-x,y,-z
-x,-y,-z
x,-y,z
1/2+x,1/2+y,z
1/2-x,1/2+y,-z
1/2-x,1/2-y,-z
1/2+x,1/2-y,z
loop_
_atom_site_type_symbol
_atom_site_label
_atom_site_fract_x
_atom_site_fract_y
_atom_site_fract_z
Si Si1 0.500000 0.879743 0.500000
Si Si2 0.247257 0.890220 0.879648
Si Si3 0.798506 0.696972 0.020926
Si Si4 0.951679 0.856991 0.381969
Si Si5 0.741671 0.444371 0.122999
O O1 0.363625 0.904902 0.687145
O O2 0.700704 0.855779 0.468717
O O3 0.356454 0.844207 0.886621
O O4 0.222095 0.934090 0.988405
O O5 0.000000 0.871549 0.000000
O O6 0.589187 0.678674 0.217167
O O7 0.750000 0.750000 0.000000
O O8 0.000000 0.699344 0.000000
O O9 0.069581 0.909061 0.288262
O O10 0.000000 0.846796 0.500000
O O11 0.707248 0.500000 0.175334
O O12 0.000000 0.431473 0.000000
#
# Coordination Sequence:
#
# PCOD9211826 Si02
#       5
#     4   8   8   8   8
#     4  12  22  40  71  94 128 178 214 276 327 394
#     4  11  21  42  64  91 131 172 217 270 326 388
#     4  11  23  42  67  92 128 172 214 270 333 392
#     4  11  23  43  66  97 134 173 223 274 331 394
#     4  10  21  40  66  93 133 178 219 273 331 391
#
# _framework density 19.912129
#
# number of rings (size 3 to 8) (size 9 to 14) (size 15 to 20)
#    0.000    1.111    4.444    6.000    0.000    0.889 
#    2.000    4.444    0.000    0.000    0.000    0.000 
#    0.000    0.000    0.000    0.000    0.000    0.000 
#
# Total GULP energy -100273.357131 kJ/mol
# GULP energy per Si atom -5570.742063 kJ/mol
# Density = 1.986681 g / cm^3
# Si number density = 19.912129 Si / 1000 Ang^3
#
#
#
# Elastic Constant Matrix: (Units=GPa)
#
#
# Indices 1 2 3 4 5 6 
#
# 1 134.6245 16.6890 27.8009 0.0000 -13.8897 0.0000
# 2 16.6890 87.0361 15.3618 0.0000 -7.6528 0.0000
# 3 27.8009 15.3618 111.4432 0.0000 14.0874 0.0000
# 4 0.0000 0.0000 0.0000 -3.8139 0.0000 4.1659
# 5 -13.8897 -7.6528 14.0874 0.0000 47.1356 0.0000
# 6 0.0000 0.0000 0.0000 4.1659 0.0000 7.3242
#
#
#
# Elastic Compliance Matrix: (Units=1/GPa)
#
#
# Indices 1 2 3 4 5 6 
#
# 1 0.008334 -0.000922 -0.002331 0.000000 0.003003 0.000000
# 2 -0.000922 0.012166 -0.001728 0.000000 0.002220 0.000000
# 3 -0.002331 -0.001728 0.010305 0.000000 -0.004047 0.000000
# 4 0.000000 0.000000 0.000000 -0.161725 0.000000 0.091986
# 5 0.003003 0.002220 -0.004047 0.000000 0.023670 0.000000
# 6 0.000000 0.000000 0.000000 0.091986 0.000000 0.084214
#
#
# Mechanical properties :
#
#
# Convention : Reuss Voigt Hill
#
# Bulk Modulus (GPa) = 47.98033 50.31192 49.14612
# Shear Modulus (GPa) = -816.29165 28.34598 -393.97284
#
# Velocity S-wave (km/s) = -20.26911 3.77709 -14.08138
# Velocity P-wave (km/s) = 22.88305 6.65911 15.48048
#
# Compressibility (1/GPa) = 0.02084188
#
# Stress axis : x y z
#
# Youngs Moduli (GPa) = 119.99520 82.19316 97.04496
#
# Poissons Ratio (x) = 0.07582 0.22625
# Poissons Ratio (y) = 0.11069 0.16765
# Poissons Ratio (z) = 0.27975 0.14199
#
# Static dielectric constant tensor:
#      x y z
#    x -270.353260 0.000000 -46.726060 
#    y 0.000000 1.683080 0.000000 
#    z -46.726060 0.000000 -6.299640 
# 
# From -- ./inp_files/123348.got.cif
#   From: 2010.05.17/outbox.cif.g08.bks.cpg/sg12_62_cif.got.tgz:123348.got - 2010.06.03 13:09:07.
