data_PCOD9211780
_publ_section_title
;
Structure prediction by ZEFSAII (Michael W. Deem and Ramdas Pophale) SiO2 
 PCOD9211780
Probable space group: C 2/M
;
_chemical_formula_sum "Si O2"
_cell_formula_units_Z 40
_cell_length_a 10.253456
_cell_length_b 24.330250
_cell_length_c 11.978455
_cell_angle_alpha 90.000000
_cell_angle_beta 143.110605
_cell_angle_gamma 90.000000
_cell_volume 1793.766379
_symmetry_space_group_name_H-M "C 2/M"
_symmetry_group_IT_number 12
_symmetry_cell_setting 'monoclinic'
loop_
_space_group_symop_operation_xyz
x,y,z
-x,y,-z
-x,-y,-z
x,-y,z
1/2+x,1/2+y,z
1/2-x,1/2+y,-z
1/2-x,1/2-y,-z
1/2+x,1/2-y,z
loop_
_atom_site_type_symbol
_atom_site_label
_atom_site_fract_x
_atom_site_fract_y
_atom_site_fract_z
Si Si1 0.467549 0.879720 0.207473
Si Si2 0.249308 0.115927 0.286806
Si Si3 0.970487 0.500000 0.683368
Si Si4 0.804842 0.708816 0.936574
Si Si5 0.843930 0.189373 0.572911
Si Si6 0.672494 0.500000 0.271213
O O1 0.293740 0.869802 0.189231
O O2 0.383299 0.848552 0.042667
O O3 0.692981 0.850968 0.398527
O O4 0.506491 0.944704 0.230852
O O5 0.500000 0.101102 0.500000
O O6 0.174290 0.165199 0.313805
O O7 0.093541 0.062900 0.200870
O O8 0.761740 0.500000 0.459042
O O9 0.159676 0.500000 0.718864
O O10 0.750000 0.750000 0.000000
O O11 0.596028 0.695953 0.718811
O O12 0.000000 0.733425 0.000000
O O13 0.750000 0.250000 0.500000
#
# Coordination Sequence:
#
# PCOD9211780 Si02
#       6
#     8   8   4   8   8   4
#     4  10  21  40  65  98 134 171 218 269 337 383
#     4   9  16  30  62  97 128 163 211 270 321 381
#     4   9  14  32  64  96 132 176 209 273 325 388
#     4  12  29  45  65  96 133 172 223 275 328 404
#     4  11  22  38  64  95 128 173 215 267 327 391
#     4   9  10  26  57 101 127 158 222 266 311 377
#
# _framework density 22.299448000000002
#
# number of rings (size 3 to 8) (size 9 to 14) (size 15 to 20)
#    0.000    1.800    8.000    0.000    2.800    2.400 
#    0.000    2.500    0.000    4.800    0.000    0.000 
#    0.000    0.000    0.000    0.000    0.000    0.000 
#
# Total GULP energy -111684.896087 kJ/mol
# GULP energy per Si atom -5584.244804 kJ/mol
# Density = 2.224869 g / cm^3
# Si number density = 22.299448 Si / 1000 Ang^3
#
#
#
# Elastic Constant Matrix: (Units=GPa)
#
#
# Indices 1 2 3 4 5 6 
#
# 1 68.2728 35.2492 14.2888 0.0000 12.3541 0.0000
# 2 35.2492 168.5289 40.1919 0.0000 3.5785 0.0000
# 3 14.2888 40.1919 92.4327 0.0000 11.5742 0.0000
# 4 0.0000 0.0000 0.0000 25.5751 0.0000 -12.1414
# 5 12.3541 3.5785 11.5742 0.0000 23.8275 0.0000
# 6 0.0000 0.0000 0.0000 -12.1414 0.0000 29.5043
#
#
#
# Elastic Compliance Matrix: (Units=1/GPa)
#
#
# Indices 1 2 3 4 5 6 
#
# 1 0.018108 -0.003565 -0.000149 0.000000 -0.008781 0.000000
# 2 -0.003565 0.007326 -0.002905 0.000000 0.002159 0.000000
# 3 -0.000149 -0.002905 0.012820 0.000000 -0.005714 0.000000
# 4 0.000000 0.000000 0.000000 0.048594 0.000000 0.019997
# 5 -0.008781 0.002159 -0.005714 0.000000 0.048972 0.000000
# 6 0.000000 0.000000 0.000000 0.019997 0.000000 0.042122
#
#
# Mechanical properties :
#
#
# Convention : Reuss Voigt Hill
#
# Bulk Modulus (GPa) = 39.97547 56.52159 48.24853
# Shear Modulus (GPa) = 25.06003 31.74834 28.40418
#
# Velocity S-wave (km/s) = 3.35594 3.77732 3.57285
# Velocity P-wave (km/s) = 5.74300 6.66528 6.22125
#
# Compressibility (1/GPa) = 0.02501534
#
# Stress axis : x y z
#
# Youngs Moduli (GPa) = 55.22396 136.49353 78.00094
#
# Poissons Ratio (x) = 0.48665 0.01166
# Poissons Ratio (y) = 0.19689 0.22658
# Poissons Ratio (z) = 0.00825 0.39650
#
# Static dielectric constant tensor:
#      x y z
#    x 1.830970 0.000000 0.028720 
#    y 0.000000 1.860540 0.000000 
#    z 0.028720 0.000000 1.906640 
# 
# From -- ./inp_files/208735.got.cif
#   From: 2010.05.17/outbox.cif.g08.bks.cpg/sg12_105_cif.got.tgz:208735.got - 2010.06.03 13:09:07.
