data_PCOD9211260
_publ_section_title
;
Structure prediction by ZEFSAII (Michael W. Deem and Ramdas Pophale) SiO2 
 PCOD9211260
Probable space group: C 2/M
;
_chemical_formula_sum "Si O2"
_cell_formula_units_Z 58
_cell_length_a 24.552466
_cell_length_b 15.250403
_cell_length_c 16.181972
_cell_angle_alpha 90.000000
_cell_angle_beta 149.810606
_cell_angle_gamma 90.000000
_cell_volume 3046.877081
_symmetry_space_group_name_H-M "C 2/M"
_symmetry_group_IT_number 12
_symmetry_cell_setting 'monoclinic'
loop_
_space_group_symop_operation_xyz
x,y,z
-x,y,-z
-x,-y,-z
x,-y,z
1/2+x,1/2+y,z
1/2-x,1/2+y,-z
1/2-x,1/2-y,-z
1/2+x,1/2-y,z
loop_
_atom_site_type_symbol
_atom_site_label
_atom_site_fract_x
_atom_site_fract_y
_atom_site_fract_z
Si Si1 0.846687 0.603099 0.065292
Si Si2 0.101807 0.239934 0.982930
Si Si3 0.771139 0.277353 0.350439
Si Si4 0.128065 0.101445 0.872244
Si Si5 0.620479 0.402591 0.466309
Si Si6 0.000000 0.000000 0.000000
Si Si7 0.471577 0.895932 0.557895
Si Si8 0.611984 0.352949 0.265249
O O1 0.855925 0.500000 0.057406
O O2 0.927330 0.621151 0.248321
O O3 0.877639 0.666379 0.031391
O O4 0.724127 0.620647 0.934736
O O5 0.175690 0.221960 0.158461
O O6 0.133124 0.167065 0.955456
O O7 0.976632 0.223907 0.839818
O O8 0.812998 0.178387 0.412242
O O9 0.869852 0.338899 0.452436
O O10 0.720888 0.314435 0.369115
O O11 0.006713 0.108462 0.677754
O O12 0.141994 0.000000 0.918648
O O13 0.655428 0.500000 0.537957
O O14 0.626148 0.394740 0.374187
O O15 0.059611 0.923735 0.135021
O O16 0.500000 0.876326 0.500000
O O17 0.446599 0.000000 0.530247
#
# Coordination Sequence:
#
# PCOD9211260 Si02
#       8
#     8   8   8   8   8   2   8   8
#     4  10  21  40  59  83 115 157 198 235 280 341
#     4  11  22  36  59  84 116 151 194 237 282 340
#     4  12  24  37  58  87 120 152 191 236 290 349
#     4   9  19  36  62  85 110 149 197 244 289 334
#     4  10  22  39  59  83 118 155 192 239 289 337
#     4  12  20  40  68  88 116 136 200 248 292 336
#     4  10  22  38  58  87 120 149 184 237 303 357
#     4  11  23  40  61  89 115 146 193 246 290 344
#
# _framework density 19.035883999999999
#
# number of rings (size 3 to 8) (size 9 to 14) (size 15 to 20)
#    0.000    1.517    2.069    3.310    1.931    3.310 
#    0.000    2.069    0.000    4.552    0.000    0.000 
#    0.000    0.000    0.000    0.000    0.000    0.000 
#
# Total GULP energy -161766.808505 kJ/mol
# GULP energy per Si atom -5578.165811 kJ/mol
# Density = 1.899256 g / cm^3
# Si number density = 19.035884 Si / 1000 Ang^3
#
#
#
# Elastic Constant Matrix: (Units=GPa)
#
#
# Indices 1 2 3 4 5 6 
#
# 1 62.3875 38.1454 13.0674 0.0000 41.7588 0.0000
# 2 38.1454 65.8973 19.0796 0.0000 30.3772 0.0000
# 3 13.0674 19.0796 12.8219 0.0000 30.5580 0.0000
# 4 0.0000 0.0000 0.0000 19.8969 0.0000 1.5959
# 5 41.7588 30.3772 30.5580 0.0000 23.5759 0.0000
# 6 0.0000 0.0000 0.0000 1.5959 0.0000 -0.1215
#
#
#
# Elastic Compliance Matrix: (Units=1/GPa)
#
#
# Indices 1 2 3 4 5 6 
#
# 1 0.021884 -0.008024 -0.027466 0.000000 0.007176 0.000000
# 2 -0.008024 0.026677 -0.007912 0.000000 -0.009905 0.000000
# 3 -0.027466 -0.007912 0.010763 0.000000 0.044894 0.000000
# 4 0.000000 0.000000 0.000000 0.024470 0.000000 0.321520
# 5 0.007176 -0.009905 0.044894 0.000000 -0.015721 0.000000
# 6 0.000000 0.000000 0.000000 0.321520 0.000000 -4.008533
#
#
# Mechanical properties :
#
#
# Convention : Reuss Voigt Hill
#
# Bulk Modulus (GPa) = -36.38988 31.29905 -2.54542
# Shear Modulus (GPa) = -1.29439 13.39121 6.04841
#
# Velocity S-wave (km/s) = -0.82550 2.65518 1.78445
# Velocity P-wave (km/s) = 4.47957 5.08702 1.70459
#
# Compressibility (1/GPa) = -0.02748017
#
# Stress axis : x y z
#
# Youngs Moduli (GPa) = 45.69468 37.48612 92.91147
#
# Poissons Ratio (x) = 0.30077 2.55192
# Poissons Ratio (y) = 0.36663 0.73514
# Poissons Ratio (z) = 1.25506 0.29660
#
# Static dielectric constant tensor:
#      x y z
#    x 1.649480 0.000000 0.006130 
#    y 0.000000 1.652020 0.000000 
#    z 0.006130 0.000000 1.647210 
# 
# From -- ./inp_files/289920.got.cif
#   From: 2010.05.17/outbox.cif.g08.bks.cpg/sg12_145_cif.got.tgz:289920.got - 2010.06.03 13:09:07.
