data_PCOD9211134
_publ_section_title
;
Structure prediction by ZEFSAII (Michael W. Deem and Ramdas Pophale) SiO2 
 PCOD9211134
Probable space group: C 2/M
;
_chemical_formula_sum "Si O2"
_cell_formula_units_Z 48
_cell_length_a 5.553844
_cell_length_b 27.640842
_cell_length_c 13.197353
_cell_angle_alpha 90.000000
_cell_angle_beta 103.015725
_cell_angle_gamma 90.000000
_cell_volume 1973.913768
_symmetry_space_group_name_H-M "C 2/M"
_symmetry_group_IT_number 12
_symmetry_cell_setting 'monoclinic'
loop_
_space_group_symop_operation_xyz
x,y,z
-x,y,-z
-x,-y,-z
x,-y,z
1/2+x,1/2+y,z
1/2-x,1/2+y,-z
1/2-x,1/2-y,-z
1/2+x,1/2-y,z
loop_
_atom_site_type_symbol
_atom_site_label
_atom_site_fract_x
_atom_site_fract_y
_atom_site_fract_z
Si Si1 0.325560 0.445619 0.783102
Si Si2 0.781583 0.730612 0.117665
Si Si3 0.735129 0.234627 0.379202
Si Si4 0.893054 0.374679 0.102791
Si Si5 0.138217 0.550908 0.407361
Si Si6 0.841597 0.869241 0.305361
O O1 0.440023 0.500000 0.796490
O O2 0.257576 0.423009 0.885408
O O3 0.070644 0.450792 0.698294
O O4 0.460872 0.401944 0.736660
O O5 0.569619 0.756207 0.163020
O O6 0.735826 0.673619 0.108187
O O7 0.750000 0.750000 0.000000
O O8 0.750000 0.250000 0.500000
O O9 0.433068 0.228629 0.343802
O O10 0.862971 0.184592 0.352131
O O11 0.116014 0.369232 0.204008
O O12 0.000000 0.373832 0.000000
O O13 0.279684 0.500000 0.413538
O O14 0.000000 0.553407 0.500000
O O15 0.290366 0.597875 0.398178
#
# Coordination Sequence:
#
# PCOD9211134 Si02
#       6
#     8   8   8   8   8   8
#     4  10  24  45  69 102 139 180 242 306 369 441
#     4  10  21  39  66  96 133 175 229 297 351 421
#     4  10  25  45  69 103 148 191 237 288 352 438
#     4  11  25  44  68  99 137 190 247 304 370 432
#     4   9  20  39  67 100 133 172 227 291 359 433
#     4  11  25  41  70  96 142 187 235 295 364 432
#
# _framework density 24.317170999999998
#
# number of rings (size 3 to 8) (size 9 to 14) (size 15 to 20)
#    0.000    1.833    1.667    0.500    9.333    5.000 
#    0.000    3.333    0.000    0.000    0.000    0.000 
#    0.000    0.000    0.000    0.000    0.000    0.000 
#
# Total GULP energy -133861.203799 kJ/mol
# GULP energy per Si atom -5577.550158 kJ/mol
# Density = 2.426182 g / cm^3
# Si number density = 24.317171 Si / 1000 Ang^3
#
#
#
# Elastic Constant Matrix: (Units=GPa)
#
#
# Indices 1 2 3 4 5 6 
#
# 1 103.2337 26.8236 16.0995 0.0000 -10.5867 0.0000
# 2 26.8236 160.8086 42.0185 0.0000 -24.5940 0.0000
# 3 16.0995 42.0185 92.7296 0.0000 -25.9101 0.0000
# 4 0.0000 0.0000 0.0000 60.2212 0.0000 -17.6916
# 5 -10.5867 -24.5940 -25.9101 0.0000 56.2090 0.0000
# 6 0.0000 0.0000 0.0000 -17.6916 0.0000 73.0613
#
#
#
# Elastic Compliance Matrix: (Units=1/GPa)
#
#
# Indices 1 2 3 4 5 6 
#
# 1 0.010271 -0.001331 -0.000921 0.000000 0.000928 0.000000
# 2 -0.001331 0.007398 -0.002625 0.000000 0.001776 0.000000
# 3 -0.000921 -0.002625 0.013503 0.000000 0.004902 0.000000
# 4 0.000000 0.000000 0.000000 0.017877 0.000000 0.004329
# 5 0.000928 0.001776 0.004902 0.000000 0.021003 0.000000
# 6 0.000000 0.000000 0.000000 0.004329 0.000000 0.014735
#
#
# Mechanical properties :
#
#
# Convention : Reuss Voigt Hill
#
# Bulk Modulus (GPa) = 46.68710 58.51724 52.60217
# Shear Modulus (GPa) = 49.17345 56.02032 52.59689
#
# Velocity S-wave (km/s) = 4.50173 4.80493 4.65580
# Velocity P-wave (km/s) = 6.80160 7.40942 7.11201
#
# Compressibility (1/GPa) = 0.02141919
#
# Stress axis : x y z
#
# Youngs Moduli (GPa) = 97.35858 135.16979 74.05648
#
# Poissons Ratio (x) = 0.17988 0.06821
# Poissons Ratio (y) = 0.12956 0.19439
# Poissons Ratio (z) = 0.08967 0.35481
#
# Static dielectric constant tensor:
#      x y z
#    x 2.311970 0.000000 0.512170 
#    y 0.000000 1.994410 0.000000 
#    z 0.512170 0.000000 2.668060 
# 
# From -- ./inp_files/192075.got.cif
#   From: 2010.05.17/outbox.cif.g08.bks.cpg/sg12_97_cif.got.tgz:192075.got - 2010.06.03 13:09:07.
