data_PCOD9211803
_publ_section_title
;
Structure prediction by ZEFSAII (Michael W. Deem and Ramdas Pophale) SiO2 
 PCOD9211803
Probable space group: C 2/M
;
_chemical_formula_sum "Si O2"
_cell_formula_units_Z 32
_cell_length_a 15.953086
_cell_length_b 10.770058
_cell_length_c 13.076501
_cell_angle_alpha 90.000000
_cell_angle_beta 37.312439
_cell_angle_gamma 90.000000
_cell_volume 1361.891004
_symmetry_space_group_name_H-M "C 2/M"
_symmetry_group_IT_number 12
_symmetry_cell_setting 'monoclinic'
loop_
_space_group_symop_operation_xyz
x,y,z
-x,y,-z
-x,-y,-z
x,-y,z
1/2+x,1/2+y,z
1/2-x,1/2+y,-z
1/2-x,1/2-y,-z
1/2+x,1/2-y,z
loop_
_atom_site_type_symbol
_atom_site_label
_atom_site_fract_x
_atom_site_fract_y
_atom_site_fract_z
Si Si1 0.190972 0.500000 0.555560
Si Si2 0.755452 0.246983 0.826817
Si Si3 0.163443 0.000000 0.810643
Si Si4 0.520124 0.500000 0.704358
Si Si5 0.157188 0.000000 0.314688
Si Si6 0.523167 0.224084 0.217087
O O1 0.260935 0.500000 0.374485
O O2 0.327552 0.500000 0.495093
O O3 0.096576 0.621822 0.663864
O O4 0.715649 0.373676 0.812030
O O5 0.896442 0.273353 0.752674
O O6 0.773175 0.131405 0.734106
O O7 0.637894 0.201537 0.019729
O O8 0.000000 0.000000 0.000000
O O9 0.378879 0.500000 0.775166
O O10 0.520255 0.366945 0.759760
O O11 0.000000 0.000000 0.500000
#
# Coordination Sequence:
#
# PCOD9211803 Si02
#       6
#     4   8   4   4   4   8
#     4  12  24  38  66  97 128 168 218 258 327 394
#     4  10  22  42  65  90 129 167 218 265 321 378
#     4  12  27  42  63  99 140 166 207 280 332 374
#     4  10  22  39  63  89 127 162 207 265 313 381
#     4  10  23  41  65  90 125 167 217 268 313 374
#     4  10  21  40  66  92 121 172 217 259 314 387
#
# _framework density 23.496742999999999
#
# number of rings (size 3 to 8) (size 9 to 14) (size 15 to 20)
#    0.000    1.500    0.000    4.500    7.000    5.000 
#    0.000    0.625    0.000    0.000    0.000    0.000 
#    0.000    0.000    0.000    0.000    0.000    0.000 
#
# Total GULP energy -89342.743920 kJ/mol
# GULP energy per Si atom -5583.921495 kJ/mol
# Density = 2.344326 g / cm^3
# Si number density = 23.496743 Si / 1000 Ang^3
#
#
#
# Elastic Constant Matrix: (Units=GPa)
#
#
# Indices 1 2 3 4 5 6 
#
# 1 40.5013 33.8549 18.9303 0.0000 -9.8397 0.0000
# 2 33.8549 217.2267 72.3641 0.0000 -14.6239 0.0000
# 3 18.9303 72.3641 94.7289 0.0000 -14.7241 0.0000
# 4 0.0000 0.0000 0.0000 60.7529 0.0000 -7.4437
# 5 -9.8397 -14.6239 -14.7241 0.0000 36.4689 0.0000
# 6 0.0000 0.0000 0.0000 -7.4437 0.0000 23.6096
#
#
#
# Elastic Compliance Matrix: (Units=1/GPa)
#
#
# Indices 1 2 3 4 5 6 
#
# 1 0.030157 -0.003492 -0.002467 0.000000 0.005741 0.000000
# 2 -0.003492 0.006592 -0.004346 0.000000 -0.000054 0.000000
# 3 -0.002467 -0.004346 0.014932 0.000000 0.003620 0.000000
# 4 0.000000 0.000000 0.000000 0.017122 0.000000 0.005398
# 5 0.005741 -0.000054 0.003620 0.000000 0.030410 0.000000
# 6 0.000000 0.000000 0.000000 0.005398 0.000000 0.044058
#
#
# Mechanical properties :
#
#
# Convention : Reuss Voigt Hill
#
# Bulk Modulus (GPa) = 32.18372 66.97285 49.57828
# Shear Modulus (GPa) = 28.69663 39.32011 34.00837
#
# Velocity S-wave (km/s) = 3.49851 4.09519 3.80855
# Velocity P-wave (km/s) = 5.48144 7.13623 6.36286
#
# Compressibility (1/GPa) = 0.03107161
#
# Stress axis : x y z
#
# Youngs Moduli (GPa) = 33.15985 151.70154 66.96943
#
# Poissons Ratio (x) = 0.52971 0.16520
# Poissons Ratio (y) = 0.11579 0.29106
# Poissons Ratio (z) = 0.08180 0.65932
#
# Static dielectric constant tensor:
#      x y z
#    x 2.135470 0.000000 0.106940 
#    y 0.000000 1.834860 0.000000 
#    z 0.106940 0.000000 1.907570 
# 
# From -- ./inp_files/223694.got.cif
#   From: 2010.05.17/outbox.cif.g08.bks.cpg/sg12_112_cif.got.tgz:223694.got - 2010.06.03 13:09:07.
