data_PCOD9211315
_publ_section_title
;
Structure prediction by ZEFSAII (Michael W. Deem and Ramdas Pophale) SiO2 
 PCOD9211315
Probable space group: C 2/M
;
_chemical_formula_sum "Si O2"
_cell_formula_units_Z 52
_cell_length_a 26.591186
_cell_length_b 20.356815
_cell_length_c 8.792409
_cell_angle_alpha 90.000000
_cell_angle_beta 32.767850
_cell_angle_gamma 90.000000
_cell_volume 2575.979885
_symmetry_space_group_name_H-M "C 2/M"
_symmetry_group_IT_number 12
_symmetry_cell_setting 'monoclinic'
loop_
_space_group_symop_operation_xyz
x,y,z
-x,y,-z
-x,-y,-z
x,-y,z
1/2+x,1/2+y,z
1/2-x,1/2+y,-z
1/2-x,1/2-y,-z
1/2+x,1/2-y,z
loop_
_atom_site_type_symbol
_atom_site_label
_atom_site_fract_x
_atom_site_fract_y
_atom_site_fract_z
Si Si1 0.369738 0.000000 0.570461
Si Si2 0.529747 0.317018 0.260886
Si Si3 0.343296 0.902986 0.367353
Si Si4 0.627354 0.371841 0.568474
Si Si5 0.627823 0.427009 0.890603
Si Si6 0.745289 0.500000 0.168477
Si Si7 0.075078 0.500000 0.073287
Si Si8 0.606881 0.753554 0.786383
O O1 0.365674 0.936685 0.470996
O O2 0.469669 0.000000 0.398099
O O3 0.281865 0.000000 0.903700
O O4 0.500000 0.291114 0.500000
O O5 0.442972 0.345945 0.382991
O O6 0.595419 0.380487 0.108211
O O7 0.590659 0.267930 0.002205
O O8 0.238461 0.923896 0.595286
O O9 0.352582 0.825226 0.339478
O O10 0.409480 0.937010 0.075132
O O11 0.590744 0.401557 0.822479
O O12 0.689303 0.432400 0.348212
O O13 0.663624 0.301984 0.547596
O O14 0.594797 0.500000 0.999944
O O15 0.839895 0.500000 0.026618
O O16 0.500000 0.753576 0.000000
#
# Coordination Sequence:
#
# PCOD9211315 Si02
#       8
#     4   8   8   8   8   4   4   8
#     4  11  25  37  66  96 121 154 200 267 308 340
#     4  10  24  38  60  92 125 157 199 253 305 356
#     4  11  20  40  68  91 117 158 213 252 290 362
#     4  10  21  40  61  85 123 170 201 235 303 367
#     4  11  20  37  62  92 121 162 211 239 290 370
#     4  12  23  42  60  90 131 160 196 259 302 364
#     4  11  21  43  62  90 119 163 206 246 309 368
#     4   9  20  41  65  87 120 167 207 242 297 369
#
# _framework density 20.186492999999999
#
# number of rings (size 3 to 8) (size 9 to 14) (size 15 to 20)
#    0.000    1.538    3.846    3.462    3.231    3.385 
#    0.000    5.385    0.000    0.000    0.000    0.000 
#    0.000    0.000    0.000    0.000    0.000    0.000 
#
# Total GULP energy -144891.052109 kJ/mol
# GULP energy per Si atom -5572.732773 kJ/mol
# Density = 2.014055 g / cm^3
# Si number density = 20.186493 Si / 1000 Ang^3
#
#
#
# Elastic Constant Matrix: (Units=GPa)
#
#
# Indices 1 2 3 4 5 6 
#
# 1 71.3632 16.1531 23.3523 0.0000 -2.7556 0.0000
# 2 16.1531 172.3415 36.1104 0.0000 12.6214 0.0000
# 3 23.3523 36.1104 75.1125 0.0000 11.7929 0.0000
# 4 0.0000 0.0000 0.0000 11.7915 0.0000 -7.9987
# 5 -2.7556 12.6214 11.7929 0.0000 29.7148 0.0000
# 6 0.0000 0.0000 0.0000 -7.9987 0.0000 9.5215
#
#
#
# Elastic Compliance Matrix: (Units=1/GPa)
#
#
# Indices 1 2 3 4 5 6 
#
# 1 0.016040 -0.000683 -0.005265 0.000000 0.003867 0.000000
# 2 -0.000683 0.006555 -0.002657 0.000000 -0.001793 0.000000
# 3 -0.005265 -0.002657 0.017199 0.000000 -0.006185 0.000000
# 4 0.000000 0.000000 0.000000 0.197154 0.000000 0.165622
# 5 0.003867 -0.001793 -0.006185 0.000000 0.037228 0.000000
# 6 0.000000 0.000000 0.000000 0.165622 0.000000 0.244159
#
#
# Mechanical properties :
#
#
# Convention : Reuss Voigt Hill
#
# Bulk Modulus (GPa) = 44.28416 52.22765 48.25590
# Shear Modulus (GPa) = 9.20686 26.41899 17.81292
#
# Velocity S-wave (km/s) = 2.13794 3.62158 2.97377
# Velocity P-wave (km/s) = 5.29901 6.58912 5.97897
#
# Compressibility (1/GPa) = 0.02258144
#
# Stress axis : x y z
#
# Youngs Moduli (GPa) = 62.34472 152.56614 58.14314
#
# Poissons Ratio (x) = 0.10425 0.30615
# Poissons Ratio (y) = 0.04260 0.15450
# Poissons Ratio (z) = 0.32827 0.40539
#
# Static dielectric constant tensor:
#      x y z
#    x 1.776860 0.000000 -0.019850 
#    y 0.000000 1.731950 0.000000 
#    z -0.019850 0.000000 1.717350 
# 
# From -- ./inp_files/113283.got.cif
#   From: 2010.05.17/outbox.cif.g08.bks.cpg/sg12_57_cif.got.tgz:113283.got - 2010.06.03 13:09:07.
