data_PCOD9211368
_publ_section_title
;
Structure prediction by ZEFSAII (Michael W. Deem and Ramdas Pophale) SiO2 
 PCOD9211368
Probable space group: C 2/M
;
_chemical_formula_sum "Si O2"
_cell_formula_units_Z 36
_cell_length_a 14.642174
_cell_length_b 10.582539
_cell_length_c 19.883004
_cell_angle_alpha 90.000000
_cell_angle_beta 37.118971
_cell_angle_gamma 90.000000
_cell_volume 1859.236318
_symmetry_space_group_name_H-M "C 2/M"
_symmetry_group_IT_number 12
_symmetry_cell_setting 'monoclinic'
loop_
_space_group_symop_operation_xyz
x,y,z
-x,y,-z
-x,-y,-z
x,-y,z
1/2+x,1/2+y,z
1/2-x,1/2+y,-z
1/2-x,1/2-y,-z
1/2+x,1/2-y,z
loop_
_atom_site_type_symbol
_atom_site_label
_atom_site_fract_x
_atom_site_fract_y
_atom_site_fract_z
Si Si1 0.230582 0.000000 0.611961
Si Si2 0.037541 0.500000 0.639196
Si Si3 0.760831 0.644536 0.103781
Si Si4 0.419129 0.225130 0.141747
Si Si5 0.562016 0.239038 0.716143
Si Si6 0.299034 0.500000 0.211468
O O1 0.140212 0.870770 0.648904
O O2 0.247246 0.000000 0.682683
O O3 0.383715 0.000000 0.479613
O O4 0.086456 0.624994 0.650749
O O5 0.855983 0.500000 0.739000
O O6 0.722986 0.500000 0.109203
O O7 0.809981 0.655550 0.153092
O O8 0.616738 0.730640 0.174478
O O9 0.910080 0.685514 0.975659
O O10 0.384769 0.202581 0.240024
O O11 0.394544 0.373963 0.142972
#
# Coordination Sequence:
#
# PCOD9211368 Si02
#       6
#     4   4   8   8   8   4
#     4  10  23  44  62  83 120 161 196 249 309 343
#     4  12  23  39  65  91 111 156 208 257 288 344
#     4  11  22  39  60  83 126 164 194 231 299 364
#     4  10  22  38  58  90 119 161 189 243 292 358
#     4  11  23  40  63  88 122 152 203 248 293 352
#     4  10  21  40  62  85 122 150 199 249 302 349
#
# _framework density 19.362787999999998
#
# number of rings (size 3 to 8) (size 9 to 14) (size 15 to 20)
#    0.000    1.333    3.333    3.000    3.111    2.667 
#    0.000    0.000    0.000    1.333    0.000    0.000 
#    0.000    0.000    0.000    0.000    0.000    0.000 
#
# Total GULP energy -100569.091832 kJ/mol
# GULP energy per Si atom -5587.171768 kJ/mol
# Density = 1.931872 g / cm^3
# Si number density = 19.362788 Si / 1000 Ang^3
#
#
#
# Elastic Constant Matrix: (Units=GPa)
#
#
# Indices 1 2 3 4 5 6 
#
# 1 38.4603 17.1629 3.5723 0.0000 2.9817 0.0000
# 2 17.1629 108.4646 16.0263 0.0000 16.5072 0.0000
# 3 3.5723 16.0263 32.2412 -0.0001 9.2400 0.0000
# 4 0.0000 0.0000 -0.0001 16.4976 0.0000 3.8503
# 5 2.9817 16.5072 9.2400 0.0000 20.1264 0.0000
# 6 0.0000 0.0000 0.0000 3.8503 0.0000 26.5712
#
#
#
# Elastic Compliance Matrix: (Units=1/GPa)
#
#
# Indices 1 2 3 4 5 6 
#
# 1 0.028005 -0.004260 -0.000919 0.000000 -0.000233 0.000000
# 2 -0.004260 0.011473 -0.003126 0.000000 -0.007344 0.000000
# 3 -0.000919 -0.003126 0.036731 0.000000 -0.014163 0.000000
# 4 0.000000 0.000000 0.000000 0.062737 0.000000 -0.009091
# 5 -0.000233 -0.007344 -0.014163 0.000000 0.062246 0.000000
# 6 0.000000 0.000000 0.000000 -0.009091 0.000000 0.038952
#
#
# Mechanical properties :
#
#
# Convention : Reuss Voigt Hill
#
# Bulk Modulus (GPa) = 16.77875 28.07657 22.42766
# Shear Modulus (GPa) = 18.07530 22.13268 20.10399
#
# Velocity S-wave (km/s) = 3.05865 3.38457 3.22573
# Velocity P-wave (km/s) = 4.59979 5.45944 5.04795
#
# Compressibility (1/GPa) = 0.05959919
#
# Stress axis : x y z
#
# Youngs Moduli (GPa) = 35.70747 87.15890 27.22497
#
# Poissons Ratio (x) = 0.37132 0.02501
# Poissons Ratio (y) = 0.15212 0.08512
# Poissons Ratio (z) = 0.03280 0.27250
#
# Static dielectric constant tensor:
#      x y z
#    x 1.679890 0.000000 0.014590 
#    y 0.000000 1.664000 0.000000 
#    z 0.014590 0.000000 1.644310 
# 
# From -- ./inp_files/293047.got.cif
#   From: 2010.05.17/outbox.cif.g08.bks.cpg/sg12_147_cif.got.tgz:293047.got - 2010.06.03 13:09:07.
