data_PCOD9211520
_publ_section_title
;
Structure prediction by ZEFSAII (Michael W. Deem and Ramdas Pophale) SiO2 
 PCOD9211520
Probable space group: C 2/M
;
_chemical_formula_sum "Si O2"
_cell_formula_units_Z 32
_cell_length_a 13.581185
_cell_length_b 11.550395
_cell_length_c 15.295413
_cell_angle_alpha 90.000000
_cell_angle_beta 32.911759
_cell_angle_gamma 90.000000
_cell_volume 1303.685360
_symmetry_space_group_name_H-M "C 2/M"
_symmetry_group_IT_number 12
_symmetry_cell_setting 'monoclinic'
loop_
_space_group_symop_operation_xyz
x,y,z
-x,y,-z
-x,-y,-z
x,-y,z
1/2+x,1/2+y,z
1/2-x,1/2+y,-z
1/2-x,1/2-y,-z
1/2+x,1/2-y,z
loop_
_atom_site_type_symbol
_atom_site_label
_atom_site_fract_x
_atom_site_fract_y
_atom_site_fract_z
Si Si1 0.448570 0.627882 0.185431
Si Si2 0.531023 0.631926 0.379219
Si Si3 0.780732 0.335394 0.814988
Si Si4 0.878300 0.628947 0.336460
O O1 0.433776 0.500000 0.241191
O O2 0.305626 0.626867 0.211687
O O3 0.426434 0.753738 0.247566
O O4 0.645872 0.630905 0.992440
O O5 0.500000 0.681660 0.500000
O O6 0.582300 0.500000 0.351294
O O7 0.689618 0.698044 0.212680
O O8 0.333563 0.639084 0.482848
O O9 0.983909 0.375033 0.685045
O O10 0.895409 0.500000 0.280076
#
# Coordination Sequence:
#
# PCOD9211520 Si02
#       4
#     8   8   8   8
#     4  11  24  42  63  93 131 162 204 259 309 368
#     4  10  21  40  63  92 128 162 206 262 309 363
#     4  11  22  40  65  90 124 167 206 252 312 367
#     4  11  23  42  67  93 125 164 209 256 309 370
#
# _framework density 24.545798999999999
#
# number of rings (size 3 to 8) (size 9 to 14) (size 15 to 20)
#    0.000    1.250    2.500    4.500    0.000    2.000 
#    0.000    7.500    0.000    0.000    0.000    0.000 
#    0.000    0.000    0.000    0.000    0.000    0.000 
#
# Total GULP energy -89353.624139 kJ/mol
# GULP energy per Si atom -5584.601509 kJ/mol
# Density = 2.448993 g / cm^3
# Si number density = 24.545799 Si / 1000 Ang^3
#
#
#
# Elastic Constant Matrix: (Units=GPa)
#
#
# Indices 1 2 3 4 5 6 
#
# 1 106.8835 19.3125 33.4731 0.0001 -23.8451 0.0000
# 2 19.3125 223.3502 58.3588 0.0000 18.0960 0.0000
# 3 33.4731 58.3588 60.7419 0.0003 -11.9409 0.0000
# 4 0.0001 0.0000 0.0003 36.9008 -0.0001 10.7164
# 5 -23.8451 18.0960 -11.9409 -0.0001 40.0760 0.0001
# 6 0.0000 0.0000 0.0000 10.7164 0.0001 14.6910
#
#
#
# Elastic Compliance Matrix: (Units=1/GPa)
#
#
# Indices 1 2 3 4 5 6 
#
# 1 0.012417 -0.000059 -0.005660 0.000000 0.005728 0.000000
# 2 -0.000059 0.006940 -0.007709 0.000000 -0.005466 0.000000
# 3 -0.005660 -0.007709 0.028692 0.000000 0.008662 0.000000
# 4 0.000000 0.000000 0.000000 0.034383 0.000000 -0.025081
# 5 0.005728 -0.005466 0.008662 0.000000 0.033410 0.000000
# 6 0.000000 0.000000 0.000000 -0.025081 0.000000 0.086364
#
#
# Mechanical properties :
#
#
# Convention : Reuss Voigt Hill
#
# Bulk Modulus (GPa) = 47.18736 68.14049 57.66393
# Shear Modulus (GPa) = 21.17509 36.98899 29.08204
#
# Velocity S-wave (km/s) = 2.94032 3.88614 3.44584
# Velocity P-wave (km/s) = 5.54917 6.92509 6.27496
#
# Compressibility (1/GPa) = 0.02119212
#
# Stress axis : x y z
#
# Youngs Moduli (GPa) = 80.53377 144.10227 34.85318
#
# Poissons Ratio (x) = 0.00849 0.19727
# Poissons Ratio (y) = 0.00474 0.26869
# Poissons Ratio (z) = 0.45583 1.11092
#
# Static dielectric constant tensor:
#      x y z
#    x 2.027270 0.000000 0.051400 
#    y 0.000000 2.050650 0.000000 
#    z 0.051400 0.000000 1.899590 
# 
# From -- ./inp_files/56892.got.cif
#   From: 2010.05.17/outbox.cif.g08.bks.cpg/sg12_29_cif.got.tgz:56892.got - 2010.06.03 13:09:07.
