data_PCOD9211174
_publ_section_title
;
Structure prediction by ZEFSAII (Michael W. Deem and Ramdas Pophale) SiO2 
 PCOD9211174
Probable space group: C 2/M
;
_chemical_formula_sum "Si O2"
_cell_formula_units_Z 56
_cell_length_a 11.513443
_cell_length_b 14.782009
_cell_length_c 18.901076
_cell_angle_alpha 90.000000
_cell_angle_beta 122.909478
_cell_angle_gamma 90.000000
_cell_volume 2700.607229
_symmetry_space_group_name_H-M "C 2/M"
_symmetry_group_IT_number 12
_symmetry_cell_setting 'monoclinic'
loop_
_space_group_symop_operation_xyz
x,y,z
-x,y,-z
-x,-y,-z
x,-y,z
1/2+x,1/2+y,z
1/2-x,1/2+y,-z
1/2-x,1/2-y,-z
1/2+x,1/2-y,z
loop_
_atom_site_type_symbol
_atom_site_label
_atom_site_fract_x
_atom_site_fract_y
_atom_site_fract_z
Si Si1 0.843280 0.103967 0.764992
Si Si2 0.474508 0.105808 0.302752
Si Si3 0.449675 0.600215 0.659154
Si Si4 0.261331 0.399800 0.174057
Si Si5 0.917566 0.263416 0.547451
Si Si6 0.945399 0.703865 0.812498
Si Si7 0.130546 0.691740 0.997032
O O1 0.691653 0.112403 0.748170
O O2 0.825620 0.115543 0.673781
O O3 0.938720 0.187918 0.820760
O O4 0.890367 0.000000 0.794199
O O5 0.540907 0.146573 0.395661
O O6 0.523422 0.170432 0.255229
O O7 0.510982 0.000000 0.303916
O O8 0.438125 0.500000 0.623612
O O9 0.577139 0.598981 0.756585
O O10 0.470761 0.676697 0.609268
O O11 0.207173 0.500000 0.170922
O O12 0.202251 0.330406 0.211116
O O13 0.209207 0.371207 0.079385
O O14 0.750000 0.250000 0.500000
O O15 0.000000 0.263922 0.500000
O O16 0.050312 0.655361 0.901732
O O17 0.250000 0.750000 0.000000
O O18 0.000000 0.732103 0.000000
#
# Coordination Sequence:
#
# PCOD9211174 Si02
#       7
#     8   8   8   8   8   8   8
#     4  10  21  39  67  97 129 176 220 267 328 398
#     4  11  25  43  68  99 133 174 222 271 331 403
#     4  10  21  41  69  95 127 171 218 269 333 402
#     4  10  22  40  66  97 132 175 219 269 328 392
#     4  12  27  44  67  97 132 174 217 279 344 402
#     4  11  22  38  69  95 135 172 225 269 323 385
#     4  10  23  38  62  96 132 174 218 268 324 380
#
# _framework density 20.736077000000002
#
# number of rings (size 3 to 8) (size 9 to 14) (size 15 to 20)
#    0.000    1.429    1.429    3.000    6.000    4.286 
#    0.000    0.000    0.000    4.286    0.000    0.000 
#    0.000    0.000    0.000    0.000    0.000    0.000 
#
# Total GULP energy -155983.515582 kJ/mol
# GULP energy per Si atom -5570.839842 kJ/mol
# Density = 2.068888 g / cm^3
# Si number density = 20.736077 Si / 1000 Ang^3
#
#
#
# Elastic Constant Matrix: (Units=GPa)
#
#
# Indices 1 2 3 4 5 6 
#
# 1 65.5326 33.6326 27.3426 0.0000 -3.3755 0.0000
# 2 33.6326 121.8131 35.2203 0.0000 -8.7998 0.0000
# 3 27.3426 35.2203 85.5625 0.0000 -9.0071 0.0000
# 4 0.0000 0.0000 0.0000 24.9680 0.0000 -2.1445
# 5 -3.3755 -8.7998 -9.0071 0.0000 32.0139 0.0000
# 6 0.0000 0.0000 0.0000 -2.1445 0.0000 28.5217
#
#
#
# Elastic Compliance Matrix: (Units=1/GPa)
#
#
# Indices 1 2 3 4 5 6 
#
# 1 0.019187 -0.004018 -0.004515 0.000000 -0.000351 0.000000
# 2 -0.004018 0.010233 -0.002758 0.000000 0.001613 0.000000
# 3 -0.004515 -0.002758 0.014567 0.000000 0.002864 0.000000
# 4 0.000000 0.000000 0.000000 0.040312 0.000000 0.003031
# 5 -0.000351 0.001613 0.002864 0.000000 0.032449 0.000000
# 6 0.000000 0.000000 0.000000 0.003031 0.000000 0.035289
#
#
# Mechanical properties :
#
#
# Convention : Reuss Voigt Hill
#
# Bulk Modulus (GPa) = 46.71729 51.69991 49.20860
# Shear Modulus (GPa) = 27.50994 28.88156 28.19575
#
# Velocity S-wave (km/s) = 3.64630 3.73609 3.69147
# Velocity P-wave (km/s) = 6.34868 6.60285 6.47701
#
# Compressibility (1/GPa) = 0.02140535
#
# Stress axis : x y z
#
# Youngs Moduli (GPa) = 52.11834 97.72659 68.64802
#
# Poissons Ratio (x) = 0.39263 0.30993
# Poissons Ratio (y) = 0.20939 0.18936
# Poissons Ratio (z) = 0.23530 0.26957
#
# Static dielectric constant tensor:
#      x y z
#    x 1.928710 0.000000 0.047200 
#    y 0.000000 1.753450 0.000000 
#    z 0.047200 0.000000 1.769460 
# 
# From -- ./inp_files/263404.got.cif
#   From: 2010.05.17/outbox.cif.g08.bks.cpg/sg12_132_cif.got.tgz:263404.got - 2010.06.03 13:09:07.
