data_PCOD9211444
_publ_section_title
;
Structure prediction by ZEFSAII (Michael W. Deem and Ramdas Pophale) SiO2 
 PCOD9211444
Probable space group: C 2/M
;
_chemical_formula_sum "Si O2"
_cell_formula_units_Z 36
_cell_length_a 7.436255
_cell_length_b 14.302900
_cell_length_c 17.933968
_cell_angle_alpha 90.000000
_cell_angle_beta 44.440414
_cell_angle_gamma 90.000000
_cell_volume 1335.538715
_symmetry_space_group_name_H-M "C 2/M"
_symmetry_group_IT_number 12
_symmetry_cell_setting 'monoclinic'
loop_
_space_group_symop_operation_xyz
x,y,z
-x,y,-z
-x,-y,-z
x,-y,z
1/2+x,1/2+y,z
1/2-x,1/2+y,-z
1/2-x,1/2-y,-z
1/2+x,1/2-y,z
loop_
_atom_site_type_symbol
_atom_site_label
_atom_site_fract_x
_atom_site_fract_y
_atom_site_fract_z
Si Si1 0.723941 0.678285 0.075911
Si Si2 0.081625 0.863353 0.628627
Si Si3 0.453833 0.141610 0.393894
Si Si4 0.806876 0.359246 0.822769
Si Si5 0.889050 0.500000 0.196229
O O1 0.468774 0.622424 0.132894
O O2 0.679636 0.749957 0.158530
O O3 0.750000 0.750000 0.000000
O O4 0.000000 0.628241 0.000000
O O5 0.304642 0.876306 0.624004
O O6 0.206970 0.892480 0.512053
O O7 0.044005 0.753206 0.622870
O O8 0.835607 0.918548 0.729301
O O9 0.493845 0.104985 0.299046
O O10 0.883713 0.419288 0.870361
#
# Coordination Sequence:
#
# PCOD9211444 Si02
#       5
#     8   8   8   8   4
#     4   9  20  42  68  89 115 157 208 262 317 385
#     4  10  22  38  58  90 130 171 212 263 308 355
#     4  10  21  40  63  85 121 176 226 250 294 383
#     4  11  22  38  64  95 123 163 213 258 316 386
#     4  12  26  38  58  99 139 169 206 267 323 366
#
# _framework density 26.955414999999999
#
# number of rings (size 3 to 8) (size 9 to 14) (size 15 to 20)
#    0.000    1.778    0.000    4.000    0.000    8.889 
#    0.000    5.556    0.000    0.000    0.000    0.000 
#    0.000    0.000    0.000    0.000    0.000    0.000 
#
# Total GULP energy -100247.294972 kJ/mol
# GULP energy per Si atom -5569.294165 kJ/mol
# Density = 2.689406 g / cm^3
# Si number density = 26.955415 Si / 1000 Ang^3
#
#
#
# Elastic Constant Matrix: (Units=GPa)
#
#
# Indices 1 2 3 4 5 6 
#
# 1 116.2834 6.7408 13.1519 -0.0002 -14.9390 -0.0009
# 2 6.7408 140.2854 0.0523 -0.0008 -15.8926 0.0003
# 3 13.1519 0.0523 69.5022 -0.0023 15.6626 -0.0011
# 4 -0.0002 -0.0008 -0.0023 14.1964 0.0004 -63.6139
# 5 -14.9390 -15.8926 15.6626 0.0004 59.6943 0.0000
# 6 -0.0009 0.0003 -0.0011 -63.6139 0.0000 11.2314
#
#
#
# Elastic Compliance Matrix: (Units=1/GPa)
#
#
# Indices 1 2 3 4 5 6 
#
# 1 0.009253 -0.000113 -0.002408 0.000000 0.002918 0.000000
# 2 -0.000113 0.007366 -0.000446 0.000000 0.002050 0.000000
# 3 -0.002408 -0.000446 0.015950 0.000000 -0.004906 -0.000001
# 4 0.000000 0.000000 0.000000 -0.002889 0.000000 -0.016365
# 5 0.002918 0.002050 -0.004906 0.000000 0.019315 0.000000
# 6 0.000000 0.000000 -0.000001 -0.016365 0.000000 -0.003652
#
#
# Mechanical properties :
#
#
# Convention : Reuss Voigt Hill
#
# Bulk Modulus (GPa) = 37.54597 40.66233 39.10415
# Shear Modulus (GPa) = 83.11620 37.43283 60.27452
#
# Velocity S-wave (km/s) = 5.55892 3.73056 4.73385
# Velocity P-wave (km/s) = 7.42707 5.80292 6.66465
#
# Compressibility (1/GPa) = 0.02663402
#
# Stress axis : x y z
#
# Youngs Moduli (GPa) = 108.06771 135.75608 62.69672
#
# Poissons Ratio (x) = 0.01537 0.15100
# Poissons Ratio (y) = 0.01224 0.02797
# Poissons Ratio (z) = 0.26027 0.06055
#
# Static dielectric constant tensor:
#      x y z
#    x 2.173340 0.000000 0.066100 
#    y 0.000000 2.074400 0.000000 
#    z 0.066100 0.000000 2.219800 
# 
# From -- ./inp_files/300084.got.cif
#   From: 2010.05.17/outbox.cif.g08.bks.cpg/sg12_151_cif.got.tgz:300084.got - 2010.06.03 13:09:07.
