data_PCOD9211056
_publ_section_title
;
Structure prediction by ZEFSAII (Michael W. Deem and Ramdas Pophale) SiO2 
 PCOD9211056
Probable space group: C 2/M
;
_chemical_formula_sum "Si O2"
_cell_formula_units_Z 40
_cell_length_a 5.180247
_cell_length_b 29.598159
_cell_length_c 11.979020
_cell_angle_alpha 90.000000
_cell_angle_beta 63.097630
_cell_angle_gamma 90.000000
_cell_volume 1637.923475
_symmetry_space_group_name_H-M "C 2/M"
_symmetry_group_IT_number 12
_symmetry_cell_setting 'monoclinic'
loop_
_space_group_symop_operation_xyz
x,y,z
-x,y,-z
-x,-y,-z
x,-y,z
1/2+x,1/2+y,z
1/2-x,1/2+y,-z
1/2-x,1/2-y,-z
1/2+x,1/2-y,z
loop_
_atom_site_type_symbol
_atom_site_label
_atom_site_fract_x
_atom_site_fract_y
_atom_site_fract_z
Si Si1 0.430670 0.000000 0.380517
Si Si2 0.897557 0.727285 0.646032
Si Si3 0.394480 0.851660 0.791862
Si Si4 0.500000 0.281490 0.000000
Si Si5 0.640684 0.000000 0.848851
Si Si6 0.500000 0.419420 0.500000
Si Si7 0.435706 0.596259 0.755615
O O1 0.500000 0.000000 0.500000
O O2 0.555819 0.000000 0.227898
O O3 0.256395 0.046913 0.415424
O O4 0.556404 0.737937 0.699423
O O5 0.997952 0.677770 0.665385
O O6 0.000000 0.734937 0.500000
O O7 0.182536 0.815365 0.887703
O O8 0.654806 0.871081 0.814482
O O9 0.188591 0.891426 0.790511
O O10 0.750000 0.250000 0.000000
O O11 0.834657 0.045149 0.798147
O O12 0.500000 0.000000 0.000000
O O13 0.442435 0.395637 0.394138
#
# Coordination Sequence:
#
# PCOD9211056 Si02
#       7
#     4   8   8   4   4   4   8
#     4   9  19  40  73  97 131 185 260 301 353 459
#     4  10  21  39  65  96 134 174 215 275 355 429
#     4  12  26  43  70 105 141 176 245 291 354 420
#     4  12  26  48  78  99 138 191 234 294 362 440
#     4  10  25  48  72  99 151 200 245 299 385 421
#     4   9  22  40  62 100 136 184 234 296 372 420
#     4  11  27  43  71 103 143 190 235 306 346 446
#
# _framework density 24.421163
#
# number of rings (size 3 to 8) (size 9 to 14) (size 15 to 20)
#    0.000    1.400    0.000    4.200   11.200    0.800 
#    0.000    1.000    0.000    0.000    0.000    0.000 
#    0.000    0.000    0.000    0.000    0.000    0.000 
#
# Total GULP energy -111563.132379 kJ/mol
# GULP energy per Si atom -5578.156619 kJ/mol
# Density = 2.436558 g / cm^3
# Si number density = 24.421163 Si / 1000 Ang^3
#
#
#
# Elastic Constant Matrix: (Units=GPa)
#
#
# Indices 1 2 3 4 5 6 
#
# 1 98.0213 26.5433 4.8733 0.0000 4.3833 0.0000
# 2 26.5433 97.1517 5.1656 0.0000 -2.7479 0.0000
# 3 4.8733 5.1656 122.6290 0.0000 0.2127 0.0000
# 4 0.0000 0.0000 0.0000 38.1475 0.0000 -4.1923
# 5 4.3833 -2.7479 0.2127 0.0000 17.3239 0.0000
# 6 0.0000 0.0000 0.0000 -4.1923 0.0000 45.8484
#
#
#
# Elastic Compliance Matrix: (Units=1/GPa)
#
#
# Indices 1 2 3 4 5 6 
#
# 1 0.011217 -0.003143 -0.000308 0.000000 -0.003333 0.000000
# 2 -0.003143 0.011244 -0.000353 0.000000 0.002583 0.000000
# 3 -0.000308 -0.000353 0.008182 0.000000 -0.000079 0.000000
# 4 0.000000 0.000000 0.000000 0.026480 0.000000 0.002421
# 5 -0.003333 0.002583 -0.000079 0.000000 0.058978 0.000000
# 6 0.000000 0.000000 0.000000 0.002421 0.000000 0.022032
#
#
# Mechanical properties :
#
#
# Convention : Reuss Voigt Hill
#
# Bulk Modulus (GPa) = 43.41059 43.44069 43.42564
# Shear Modulus (GPa) = 32.59056 39.01193 35.80125
#
# Velocity S-wave (km/s) = 3.65707 4.00116 3.83298
# Velocity P-wave (km/s) = 5.97048 6.25879 6.11634
#
# Compressibility (1/GPa) = 0.02303585
#
# Stress axis : x y z
#
# Youngs Moduli (GPa) = 89.14885 88.93930 122.22069
#
# Poissons Ratio (x) = 0.27950 0.03760
# Poissons Ratio (y) = 0.28016 0.04317
# Poissons Ratio (z) = 0.02742 0.03141
#
# Static dielectric constant tensor:
#      x y z
#    x 2.206260 0.000000 0.220800 
#    y 0.000000 1.918990 0.000000 
#    z 0.220800 0.000000 2.446530 
# 
# From -- ./inp_files/116073.got.cif
#   From: 2010.05.17/outbox.cif.g08.bks.cpg/sg12_59_cif.got.tgz:116073.got - 2010.06.03 13:09:07.
