data_PCOD9211034
_publ_section_title
;
Structure prediction by ZEFSAII (Michael W. Deem and Ramdas Pophale) SiO2 
 PCOD9211034
Probable space group: C 2/M
;
_chemical_formula_sum "Si O2"
_cell_formula_units_Z 48
_cell_length_a 29.976336
_cell_length_b 8.823682
_cell_length_c 15.322003
_cell_angle_alpha 90.000000
_cell_angle_beta 140.150706
_cell_angle_gamma 90.000000
_cell_volume 2596.847308
_symmetry_space_group_name_H-M "C 2/M"
_symmetry_group_IT_number 12
_symmetry_cell_setting 'monoclinic'
loop_
_space_group_symop_operation_xyz
x,y,z
-x,y,-z
-x,-y,-z
x,-y,z
1/2+x,1/2+y,z
1/2-x,1/2+y,-z
1/2-x,1/2-y,-z
1/2+x,1/2-y,z
loop_
_atom_site_type_symbol
_atom_site_label
_atom_site_fract_x
_atom_site_fract_y
_atom_site_fract_z
Si Si1 0.174874 0.680653 0.639670
Si Si2 0.581201 0.318533 0.350366
Si Si3 0.420395 0.318519 0.856014
Si Si4 0.327258 0.180316 0.866103
Si Si5 0.432711 0.181276 0.182459
Si Si6 0.079869 0.180911 0.648627
O O1 0.170791 0.500000 0.634288
O O2 0.139311 0.744792 0.498621
O O3 0.254071 0.735657 0.763783
O O4 0.130932 0.747619 0.654240
O O5 0.581502 0.500000 0.362580
O O6 0.591649 0.284970 0.263830
O O7 0.506304 0.255175 0.267160
O O8 0.413018 0.500000 0.857824
O O9 0.368045 0.233503 0.841179
O O10 0.500000 0.278327 0.000000
O O11 0.315630 0.000000 0.846151
O O12 0.376866 0.214877 0.023105
O O13 0.409639 0.247767 0.240539
O O14 0.441052 0.000000 0.201205
O O15 0.000000 0.210688 0.500000
O O16 0.089558 0.000000 0.666138
#
# Coordination Sequence:
#
# PCOD9211034 Si02
#       6
#     8   8   8   8   8   8
#     4  12  26  43  65  92 128 167 209 261 315 373
#     4  11  22  39  65  94 127 165 208 259 311 370
#     4  10  21  39  65  95 126 165 212 257 309 372
#     4  11  25  43  64  93 131 167 208 260 315 372
#     4  11  23  39  64  96 126 163 210 258 308 370
#     4  11  23  40  66  95 125 165 209 256 310 372
#
# _framework density 18.483953
#
# number of rings (size 3 to 8) (size 9 to 14) (size 15 to 20)
#    0.000    1.000    3.333    3.500    0.000    5.667 
#    0.000    0.000    0.000    0.000    0.000    0.000 
#    0.000    0.000    0.000    0.000    0.000    0.000 
#
# Total GULP energy -134269.375610 kJ/mol
# GULP energy per Si atom -5594.557317 kJ/mol
# Density = 1.844188 g / cm^3
# Si number density = 18.483953 Si / 1000 Ang^3
#
#
#
# Elastic Constant Matrix: (Units=GPa)
#
#
# Indices 1 2 3 4 5 6 
#
# 1 117.1737 56.0097 48.0274 0.0000 -9.2488 0.0000
# 2 56.0097 74.4913 50.4954 0.0000 -3.5786 0.0000
# 3 48.0274 50.4954 85.5481 0.0000 -3.9387 0.0000
# 4 0.0000 0.0000 0.0000 33.0204 0.0000 3.3553
# 5 -9.2488 -3.5786 -3.9387 0.0000 34.8367 0.0000
# 6 0.0000 0.0000 0.0000 3.3553 0.0000 34.5993
#
#
#
# Elastic Compliance Matrix: (Units=1/GPa)
#
#
# Indices 1 2 3 4 5 6 
#
# 1 0.013897 -0.008532 -0.002650 0.000000 0.002514 0.000000
# 2 -0.008532 0.027639 -0.011558 0.000000 -0.000733 0.000000
# 3 -0.002650 -0.011558 0.020017 0.000000 0.000372 0.000000
# 4 0.000000 0.000000 0.000000 0.030586 0.000000 -0.002966
# 5 0.002514 -0.000733 0.000372 0.000000 0.029339 0.000000
# 6 0.000000 0.000000 0.000000 -0.002966 0.000000 0.029190
#
#
# Mechanical properties :
#
#
# Convention : Reuss Voigt Hill
#
# Bulk Modulus (GPa) = 62.21825 65.14200 63.68012
# Shear Modulus (GPa) = 24.81307 28.67000 26.74153
#
# Velocity S-wave (km/s) = 3.66787 3.94264 3.80773
# Velocity P-wave (km/s) = 7.18828 7.48631 7.33881
#
# Compressibility (1/GPa) = 0.01607246
#
# Stress axis : x y z
#
# Youngs Moduli (GPa) = 71.95572 36.18034 49.95867
#
# Poissons Ratio (x) = 0.30870 0.13240
# Poissons Ratio (y) = 0.61394 0.57742
# Poissons Ratio (z) = 0.19070 0.41817
#
# Static dielectric constant tensor:
#      x y z
#    x 1.598400 0.000000 -0.010460 
#    y 0.000000 1.616350 0.000000 
#    z -0.010460 0.000000 1.614460 
# 
# From -- ./inp_files/244733.got.cif
#   From: 2010.05.17/outbox.cif.g08.bks.cpg/sg12_123_cif.got.tgz:244733.got - 2010.06.03 13:09:07.
