data_PCOD9211386
_publ_section_title
;
Structure prediction by ZEFSAII (Michael W. Deem and Ramdas Pophale) SiO2 
 PCOD9211386
Probable space group: C 2/M
;
_chemical_formula_sum "Si O2"
_cell_formula_units_Z 56
_cell_length_a 17.343583
_cell_length_b 18.649798
_cell_length_c 9.582866
_cell_angle_alpha 90.000000
_cell_angle_beta 61.097944
_cell_angle_gamma 90.000000
_cell_volume 2713.553077
_symmetry_space_group_name_H-M "C 2/M"
_symmetry_group_IT_number 12
_symmetry_cell_setting 'monoclinic'
loop_
_space_group_symop_operation_xyz
x,y,z
-x,y,-z
-x,-y,-z
x,-y,z
1/2+x,1/2+y,z
1/2-x,1/2+y,-z
1/2-x,1/2-y,-z
1/2+x,1/2-y,z
loop_
_atom_site_type_symbol
_atom_site_label
_atom_site_fract_x
_atom_site_fract_y
_atom_site_fract_z
Si Si1 0.175588 0.304578 0.015750
Si Si2 0.794282 0.160942 0.661561
Si Si3 0.753072 0.081196 0.124864
Si Si4 0.498943 0.710736 0.837202
Si Si5 0.412818 0.208199 0.476785
Si Si6 0.716262 0.914498 0.460467
Si Si7 0.584015 0.582406 0.230596
O O1 0.209538 0.332922 0.837296
O O2 0.250000 0.250000 0.000000
O O3 0.179619 0.368254 0.123090
O O4 0.086817 0.261114 0.096602
O O5 0.838277 0.239016 0.605425
O O6 0.764330 0.124216 0.545695
O O7 0.867381 0.112022 0.674821
O O8 0.771422 0.096744 0.269708
O O9 0.721579 0.000000 0.144021
O O10 0.840360 0.087313 0.955171
O O11 0.570098 0.757858 0.692017
O O12 0.488705 0.638460 0.755827
O O13 0.500000 0.692889 0.000000
O O14 0.500000 0.211252 0.500000
O O15 0.374052 0.128746 0.490868
O O16 0.705480 0.000000 0.493250
O O17 0.556032 0.500000 0.269130
#
# Coordination Sequence:
#
# PCOD9211386 Si02
#       7
#     8   8   8   8   8   8   8
#     4  11  19  40  65  86 116 169 215 256 299 374
#     4  11  22  40  68  93 124 165 221 266 309 370
#     4   9  19  35  62  92 117 155 207 257 304 364
#     4  12  25  39  60  91 127 162 209 256 316 377
#     4  12  24  42  63  96 131 169 211 259 324 381
#     4  11  24  40  64  97 131 166 213 269 317 368
#     4  10  21  40  62  87 124 164 205 253 315 382
#
# _framework density 20.637150999999999
#
# number of rings (size 3 to 8) (size 9 to 14) (size 15 to 20)
#    0.000    1.143    4.286    3.429    2.000    1.143 
#    0.000    2.857    0.000    1.714    0.000    0.000 
#    0.000    0.000    0.000    0.000    0.000    0.000 
#
# Total GULP energy -156459.691883 kJ/mol
# GULP energy per Si atom -5587.846139 kJ/mol
# Density = 2.059018 g / cm^3
# Si number density = 20.637151 Si / 1000 Ang^3
#
#
#
# Elastic Constant Matrix: (Units=GPa)
#
#
# Indices 1 2 3 4 5 6 
#
# 1 34.4269 32.1358 32.3845 0.0000 21.8645 0.0000
# 2 32.1358 100.2209 33.9588 0.0000 22.9087 0.0000
# 3 32.3845 33.9588 91.2321 0.0000 28.4694 0.0000
# 4 0.0000 0.0000 0.0000 28.8351 0.0000 2.4517
# 5 21.8645 22.9087 28.4694 0.0000 29.2706 0.0000
# 6 0.0000 0.0000 0.0000 2.4517 0.0000 21.6624
#
#
#
# Elastic Compliance Matrix: (Units=1/GPa)
#
#
# Indices 1 2 3 4 5 6 
#
# 1 0.071191 -0.011530 -0.010338 0.000000 -0.034099 0.000000
# 2 -0.011530 0.014345 -0.000619 0.000000 -0.002013 0.000000
# 3 -0.010338 -0.000619 0.017660 0.000000 -0.008970 0.000000
# 4 0.000000 0.000000 0.000000 0.035017 0.000000 -0.003963
# 5 -0.034099 -0.002013 -0.008970 0.000000 0.069935 0.000000
# 6 0.000000 0.000000 0.000000 -0.003963 0.000000 0.046612
#
#
# Mechanical properties :
#
#
# Convention : Reuss Voigt Hill
#
# Bulk Modulus (GPa) = 17.17544 46.98202 32.07873
# Shear Modulus (GPa) = 15.66709 24.44699 20.05704
#
# Velocity S-wave (km/s) = 2.75829 3.44555 3.12090
# Velocity P-wave (km/s) = 4.29941 6.21645 5.34458
#
# Compressibility (1/GPa) = 0.05822266
#
# Stress axis : x y z
#
# Youngs Moduli (GPa) = 14.04676 69.71216 56.62450
#
# Poissons Ratio (x) = 0.80378 0.58538
# Poissons Ratio (y) = 0.16196 0.03503
# Poissons Ratio (z) = 0.14521 0.04313
#
# Static dielectric constant tensor:
#      x y z
#    x 1.731730 0.000000 0.008030 
#    y 0.000000 1.706440 0.000000 
#    z 0.008030 0.000000 1.797350 
# 
# From -- ./inp_files/75845.got.cif
#   From: 2010.05.17/outbox.cif.g08.bks.cpg/sg12_38_cif.got.tgz:75845.got - 2010.06.03 13:09:07.
