data_PCOD9211606
_publ_section_title
;
Structure prediction by ZEFSAII (Michael W. Deem and Ramdas Pophale) SiO2 
 PCOD9211606
Probable space group: C 2/M
;
_chemical_formula_sum "Si O2"
_cell_formula_units_Z 64
_cell_length_a 16.374504
_cell_length_b 17.574839
_cell_length_c 15.404583
_cell_angle_alpha 90.000000
_cell_angle_beta 132.241953
_cell_angle_gamma 90.000000
_cell_volume 3281.894138
_symmetry_space_group_name_H-M "C 2/M"
_symmetry_group_IT_number 12
_symmetry_cell_setting 'monoclinic'
loop_
_space_group_symop_operation_xyz
x,y,z
-x,y,-z
-x,-y,-z
x,-y,z
1/2+x,1/2+y,z
1/2-x,1/2+y,-z
1/2-x,1/2-y,-z
1/2+x,1/2-y,z
loop_
_atom_site_type_symbol
_atom_site_label
_atom_site_fract_x
_atom_site_fract_y
_atom_site_fract_z
Si Si1 0.720208 0.842433 0.823082
Si Si2 0.445278 0.169078 0.055079
Si Si3 0.160970 0.908988 0.255798
Si Si4 0.871655 0.091814 0.407070
Si Si5 0.752602 0.592634 0.507487
Si Si6 0.078269 0.155769 0.906786
Si Si7 0.507110 0.909222 0.268154
Si Si8 0.795314 0.160219 0.172962
O O1 0.759885 0.870218 0.757797
O O2 0.603294 0.876118 0.768048
O O3 0.711280 0.751285 0.820613
O O4 0.817550 0.866393 0.959163
O O5 0.437393 0.253898 0.088960
O O6 0.509412 0.118266 0.170093
O O7 0.500000 0.173602 0.000000
O O8 0.321959 0.137896 0.952569
O O9 0.195103 0.883763 0.377129
O O10 0.034676 0.885188 0.149161
O O11 0.171739 0.000000 0.257308
O O12 0.811330 0.118109 0.451779
O O13 0.816161 0.122979 0.280400
O O14 0.000000 0.114453 0.500000
O O15 0.866804 0.000000 0.401501
O O16 0.750646 0.500000 0.506907
O O17 0.880218 0.616376 0.604953
O O18 0.110854 0.141210 0.830305
O O19 0.502341 0.000000 0.268061
#
# Coordination Sequence:
#
# PCOD9211606 Si02
#       8
#     8   8   8   8   8   8   8   8
#     4  11  22  42  60  90 128 163 203 255 312 369
#     4  11  21  38  61  87 122 162 201 248 314 374
#     4  11  24  41  65  92 120 165 216 260 312 371
#     4  10  21  40  64  91 125 162 205 260 311 358
#     4   9  21  41  59  85 123 159 198 249 311 362
#     4  11  21  40  62  88 126 160 199 258 319 367
#     4  11  22  39  62  85 121 163 204 256 303 365
#     4  11  21  39  62  90 124 165 203 247 315 380
#
# _framework density 19.500933
#
# number of rings (size 3 to 8) (size 9 to 14) (size 15 to 20)
#    0.000    1.375    2.500    4.500    0.000    4.250 
#    2.250    3.125    0.000    0.000    0.000    0.000 
#    0.000    0.000    0.000    0.000    0.000    0.000 
#
# Total GULP energy -178852.892402 kJ/mol
# GULP energy per Si atom -5589.152888 kJ/mol
# Density = 1.945655 g / cm^3
# Si number density = 19.500933 Si / 1000 Ang^3
#
#
#
# Elastic Constant Matrix: (Units=GPa)
#
#
# Indices 1 2 3 4 5 6 
#
# 1 125.8222 4.6267 41.9893 0.0000 -10.6288 0.0000
# 2 4.6267 10.9923 11.0529 0.0000 2.2843 0.0000
# 3 41.9893 11.0529 92.4579 0.0000 -1.9397 0.0000
# 4 0.0000 0.0000 0.0000 36.5705 0.0000 -4.4389
# 5 -10.6288 2.2843 -1.9397 0.0000 38.6428 0.0000
# 6 0.0000 0.0000 0.0000 -4.4389 0.0000 22.4554
#
#
#
# Elastic Compliance Matrix: (Units=1/GPa)
#
#
# Indices 1 2 3 4 5 6 
#
# 1 0.009589 -0.000245 -0.004274 0.000000 0.002437 0.000000
# 2 -0.000245 0.105192 -0.012609 0.000000 -0.006918 0.000000
# 3 -0.004274 -0.012609 0.014270 0.000000 0.000286 0.000000
# 4 0.000000 0.000000 0.000000 0.028017 0.000000 0.005538
# 5 0.002437 -0.006918 0.000286 0.000000 0.026972 0.000000
# 6 0.000000 0.000000 0.000000 0.005538 0.000000 0.045627
#
#
# Mechanical properties :
#
#
# Convention : Reuss Voigt Hill
#
# Bulk Modulus (GPa) = 10.54908 38.28999 24.41954
# Shear Modulus (GPa) = 16.91920 30.97398 23.94659
#
# Velocity S-wave (km/s) = 2.94872 3.98971 3.50804
# Velocity P-wave (km/s) = 4.12487 6.39541 5.38126
#
# Compressibility (1/GPa) = 0.09479497
#
# Stress axis : x y z
#
# Youngs Moduli (GPa) = 104.28521 9.50642 70.07550
#
# Poissons Ratio (x) = 0.00232 0.29954
# Poissons Ratio (y) = 0.02550 0.88360
# Poissons Ratio (z) = 0.44576 0.11987
#
# Static dielectric constant tensor:
#      x y z
#    x 1.678250 0.000000 0.006320 
#    y 0.000000 1.657020 0.000000 
#    z 0.006320 0.000000 1.672400 
# 
# From -- ./inp_files/226873.got.cif
#   From: 2010.05.17/outbox.cif.g08.bks.cpg/sg12_114_cif.got.tgz:226873.got - 2010.06.03 13:09:07.
