data_PCOD9211553
_publ_section_title
;
Structure prediction by ZEFSAII (Michael W. Deem and Ramdas Pophale) SiO2 
 PCOD9211553
Probable space group: C 2/M
;
_chemical_formula_sum "Si O2"
_cell_formula_units_Z 28
_cell_length_a 9.510340
_cell_length_b 21.388743
_cell_length_c 9.961073
_cell_angle_alpha 90.000000
_cell_angle_beta 42.188418
_cell_angle_gamma 90.000000
_cell_volume 1360.752843
_symmetry_space_group_name_H-M "C 2/M"
_symmetry_group_IT_number 12
_symmetry_cell_setting 'monoclinic'
loop_
_space_group_symop_operation_xyz
x,y,z
-x,y,-z
-x,-y,-z
x,-y,z
1/2+x,1/2+y,z
1/2-x,1/2+y,-z
1/2-x,1/2-y,-z
1/2+x,1/2-y,z
loop_
_atom_site_type_symbol
_atom_site_label
_atom_site_fract_x
_atom_site_fract_y
_atom_site_fract_z
Si Si1 0.732081 0.128379 0.285904
Si Si2 0.000000 0.640349 0.000000
Si Si3 0.233080 0.768537 0.356991
Si Si4 0.141966 0.925674 0.091209
O O1 0.500000 0.113839 0.500000
O O2 0.749208 0.203472 0.263282
O O3 0.911493 0.104950 0.260972
O O4 0.774970 0.095536 0.114073
O O5 0.909146 0.684442 0.181884
O O6 0.807566 0.600074 0.080615
O O7 0.250000 0.750000 0.500000
O O8 0.000000 0.794755 0.500000
O O9 0.124796 0.000000 0.109805
#
# Coordination Sequence:
#
# PCOD9211553 Si02
#       4
#     8   4   8   8
#     4  10  21  40  64  88 116 154 202 253 297 347
#     4  12  23  40  62  88 129 162 188 250 312 348
#     4  11  23  39  63  94 121 152 199 249 306 367
#     4  11  24  39  59  88 120 162 207 239 288 359
#
# _framework density 20.576844999999999
#
# number of rings (size 3 to 8) (size 9 to 14) (size 15 to 20)
#    0.000    1.143    0.000    9.000    0.000    5.714 
#    0.000    0.000    0.000    6.857    0.000    0.000 
#    0.000    0.000    0.000    0.000    0.000    0.000 
#
# Total GULP energy -78324.287010 kJ/mol
# GULP energy per Si atom -5594.591929 kJ/mol
# Density = 2.053001 g / cm^3
# Si number density = 20.576845 Si / 1000 Ang^3
#
#
#
# Elastic Constant Matrix: (Units=GPa)
#
#
# Indices 1 2 3 4 5 6 
#
# 1 130.0985 15.1852 22.8388 0.0000 -29.2620 0.0000
# 2 15.1852 94.1410 18.8521 0.0000 -23.6617 0.0000
# 3 22.8388 18.8521 58.1278 0.0000 -29.5960 0.0000
# 4 0.0000 0.0000 0.0000 4.7112 0.0000 -2.1944
# 5 -29.2620 -23.6617 -29.5960 0.0000 44.2158 0.0000
# 6 0.0000 0.0000 0.0000 -2.1944 0.0000 27.1871
#
#
#
# Elastic Compliance Matrix: (Units=1/GPa)
#
#
# Indices 1 2 3 4 5 6 
#
# 1 0.009054 0.000081 -0.000775 0.000000 0.005517 0.000000
# 2 0.000081 0.012310 -0.000975 0.000000 0.005989 0.000000
# 3 -0.000775 -0.000975 0.026240 0.000000 0.016529 0.000000
# 4 0.000000 0.000000 0.000000 0.220551 0.000000 0.017802
# 5 0.005517 0.005989 0.016529 0.000000 0.040536 0.000000
# 6 0.000000 0.000000 0.000000 0.017802 0.000000 0.038219
#
#
# Mechanical properties :
#
#
# Convention : Reuss Voigt Hill
#
# Bulk Modulus (GPa) = 22.59053 44.01328 33.30191
# Shear Modulus (GPa) = 13.69854 30.25556 21.97705
#
# Velocity S-wave (km/s) = 2.58297 3.83870 3.27165
# Velocity P-wave (km/s) = 4.46072 6.40965 5.52185
#
# Compressibility (1/GPa) = 0.04426633
#
# Stress axis : x y z
#
# Youngs Moduli (GPa) = 110.45033 81.23673 38.10959
#
# Poissons Ratio (x) = -0.00661 0.02953
# Poissons Ratio (y) = -0.00899 0.03716
# Poissons Ratio (z) = 0.08558 0.07922
#
# Static dielectric constant tensor:
#      x y z
#    x 1.760290 0.000000 0.011190 
#    y 0.000000 1.705210 0.000000 
#    z 0.011190 0.000000 1.729590 
# 
# From -- ./inp_files/37923.got.cif
#   From: 2010.05.17/outbox.cif.g08.bks.cpg/sg12_19_cif.got.tgz:37923.got - 2010.06.03 13:09:07.
