data_PCOD9211834
_publ_section_title
;
Structure prediction by ZEFSAII (Michael W. Deem and Ramdas Pophale) SiO2 
 PCOD9211834
Probable space group: C 2/M
;
_chemical_formula_sum "Si O2"
_cell_formula_units_Z 40
_cell_length_a 12.884839
_cell_length_b 26.216648
_cell_length_c 5.133314
_cell_angle_alpha 90.000000
_cell_angle_beta 73.928926
_cell_angle_gamma 90.000000
_cell_volume 1666.252394
_symmetry_space_group_name_H-M "C 2/M"
_symmetry_group_IT_number 12
_symmetry_cell_setting 'monoclinic'
loop_
_space_group_symop_operation_xyz
x,y,z
-x,y,-z
-x,-y,-z
x,-y,z
1/2+x,1/2+y,z
1/2-x,1/2+y,-z
1/2-x,1/2-y,-z
1/2+x,1/2-y,z
loop_
_atom_site_type_symbol
_atom_site_label
_atom_site_fract_x
_atom_site_fract_y
_atom_site_fract_z
Si Si1 0.240450 0.589327 0.224328
Si Si2 0.374108 0.438408 0.649013
Si Si3 0.500000 0.744310 0.500000
Si Si4 0.909459 0.336401 0.901467
Si Si5 0.726153 0.715964 0.270798
Si Si6 0.423142 0.000000 0.801890
O O1 0.297477 0.575978 0.456692
O O2 0.160191 0.637984 0.278917
O O3 0.157546 0.547333 0.171656
O O4 0.333552 0.590133 0.938017
O O5 0.500000 0.428010 0.500000
O O6 0.364941 0.500000 0.697164
O O7 0.470774 0.785797 0.748199
O O8 0.600971 0.706293 0.402286
O O9 0.814652 0.326510 0.174084
O O10 0.000000 0.366761 0.000000
O O11 0.750000 0.750000 0.500000
O O12 0.750000 0.750000 0.000000
O O13 0.500000 0.000000 0.500000
O O14 0.500000 0.000000 0.000000
#
# Coordination Sequence:
#
# PCOD9211834 Si02
#       6
#     8   8   4   8   8   4
#     4  12  25  41  67 103 139 179 237 280 345 418
#     4  11  23  46  73  95 131 185 236 290 348 407
#     4  10  22  42  70  95 134 179 226 280 350 408
#     4  11  24  40  68 102 140 182 229 284 346 414
#     4  10  21  40  66  94 127 169 226 275 336 412
#     4  12  24  40  59  94 145 188 224 278 340 414
#
# _framework density 24.005969
#
# number of rings (size 3 to 8) (size 9 to 14) (size 15 to 20)
#    0.000    1.000    4.000    2.400    4.200    1.600 
#    1.800    0.000    8.800    0.000    0.000    0.000 
#    0.000    0.000    0.000    0.000    0.000    0.000 
#
# Total GULP energy -111609.742643 kJ/mol
# GULP energy per Si atom -5580.487132 kJ/mol
# Density = 2.395133 g / cm^3
# Si number density = 24.005969 Si / 1000 Ang^3
#
#
#
# Elastic Constant Matrix: (Units=GPa)
#
#
# Indices 1 2 3 4 5 6 
#
# 1 155.3670 20.0775 42.4141 0.0000 -26.2831 0.0000
# 2 20.0775 41.4778 5.9203 0.0000 -4.5846 0.0000
# 3 42.4141 5.9203 131.7610 0.0000 -4.1861 0.0000
# 4 0.0000 0.0000 0.0000 25.5505 0.0000 2.6083
# 5 -26.2831 -4.5846 -4.1861 0.0000 61.6385 0.0000
# 6 0.0000 0.0000 0.0000 2.6083 0.0000 15.0661
#
#
#
# Elastic Compliance Matrix: (Units=1/GPa)
#
#
# Indices 1 2 3 4 5 6 
#
# 1 0.007998 -0.003205 -0.002335 0.000000 0.003013 0.000000
# 2 -0.003205 0.025736 -0.000107 0.000000 0.000540 0.000000
# 3 -0.002335 -0.000107 0.008332 0.000000 -0.000438 0.000000
# 4 0.000000 0.000000 0.000000 0.039842 0.000000 -0.006898
# 5 0.003013 0.000540 -0.000438 0.000000 0.017519 0.000000
# 6 0.000000 0.000000 0.000000 -0.006898 0.000000 0.067568
#
#
# Mechanical properties :
#
#
# Convention : Reuss Voigt Hill
#
# Bulk Modulus (GPa) = 32.49816 51.71440 42.10628
# Shear Modulus (GPa) = 26.51867 37.79728 32.15797
#
# Velocity S-wave (km/s) = 3.32726 3.97230 3.66400
# Velocity P-wave (km/s) = 5.32239 6.52901 5.95633
#
# Compressibility (1/GPa) = 0.03077097
#
# Stress axis : x y z
#
# Youngs Moduli (GPa) = 125.03650 38.85645 120.01953
#
# Poissons Ratio (x) = 0.12453 0.28021
# Poissons Ratio (y) = 0.40074 0.01290
# Poissons Ratio (z) = 0.29193 0.00418
#
# Static dielectric constant tensor:
#      x y z
#    x 1.859090 0.000000 0.015340 
#    y 0.000000 2.084640 0.000000 
#    z 0.015340 0.000000 1.889970 
# 
# From -- ./inp_files/8353.got.cif
#   From: 2010.05.17/outbox.cif.g08.bks.cpg/sg12_5_cif.got.tgz:8353.got - 2010.06.03 13:09:07.
