data_PCOD9211881
_publ_section_title
;
Structure prediction by ZEFSAII (Michael W. Deem and Ramdas Pophale) SiO2 
 PCOD9211881
Probable space group: C 2/M
;
_chemical_formula_sum "Si O2"
_cell_formula_units_Z 56
_cell_length_a 17.157009
_cell_length_b 14.986083
_cell_length_c 11.318314
_cell_angle_alpha 90.000000
_cell_angle_beta 70.622142
_cell_angle_gamma 90.000000
_cell_volume 2745.267968
_symmetry_space_group_name_H-M "C 2/M"
_symmetry_group_IT_number 12
_symmetry_cell_setting 'monoclinic'
loop_
_space_group_symop_operation_xyz
x,y,z
-x,y,-z
-x,-y,-z
x,-y,z
1/2+x,1/2+y,z
1/2-x,1/2+y,-z
1/2-x,1/2-y,-z
1/2+x,1/2-y,z
loop_
_atom_site_type_symbol
_atom_site_label
_atom_site_fract_x
_atom_site_fract_y
_atom_site_fract_z
Si Si1 0.138393 0.000000 0.989218
Si Si2 0.533632 0.500000 0.801777
Si Si3 0.319682 0.305170 0.037351
Si Si4 0.166851 0.704184 0.720493
Si Si5 0.917233 0.162751 0.389987
Si Si6 0.421538 0.739773 0.786997
Si Si7 0.997310 0.604609 0.858888
Si Si8 0.168163 0.895366 0.334161
O O1 0.084893 0.000000 0.896261
O O2 0.193527 0.088948 0.961791
O O3 0.064860 0.000000 0.124274
O O4 0.561348 0.585067 0.712932
O O5 0.409348 0.296085 0.927361
O O6 0.250000 0.250000 0.000000
O O7 0.324155 0.263586 0.164983
O O8 0.156205 0.774396 0.619755
O O9 0.083024 0.647985 0.774138
O O10 0.241365 0.635264 0.670943
O O11 0.894726 0.120556 0.526048
O O12 0.999132 0.222189 0.334396
O O13 0.425885 0.844019 0.820175
O O14 0.355127 0.678207 0.752972
O O15 0.992838 0.500000 0.839550
O O16 0.000000 0.617836 0.000000
O O17 0.166741 0.000000 0.300300
#
# Coordination Sequence:
#
# PCOD9211881 Si02
#       8
#     4   4   8   8   8   8   8   8
#     4  11  24  38  65  98 127 169 203 266 342 379
#     4  11  20  36  68  97 120 154 218 269 316 380
#     4  12  23  40  59  92 137 162 203 262 327 386
#     4  11  23  41  65  93 127 168 216 266 320 380
#     4  11  23  41  66  92 129 167 217 266 313 380
#     4  11  24  39  63  96 130 164 210 266 319 382
#     4  10  21  40  67  93 123 166 216 266 318 380
#     4  12  26  42  64  93 133 176 214 261 323 388
#
# _framework density 20.398736
#
# number of rings (size 3 to 8) (size 9 to 14) (size 15 to 20)
#    0.000    0.857    6.429    1.286    2.000    0.571 
#    2.571    0.000    1.571    7.714    0.000    0.000 
#    0.000    0.000    0.000    0.000    0.000    0.000 
#
# Total GULP energy -156031.489254 kJ/mol
# GULP energy per Si atom -5572.553188 kJ/mol
# Density = 2.035231 g / cm^3
# Si number density = 20.398736 Si / 1000 Ang^3
#
#
#
# Elastic Constant Matrix: (Units=GPa)
#
#
# Indices 1 2 3 4 5 6 
#
# 1 56.7532 47.8624 7.4161 0.0000 3.1274 0.0000
# 2 47.8624 180.0993 28.6464 0.0000 8.2838 0.0000
# 3 7.4161 28.6464 71.3448 0.0000 -8.7733 0.0000
# 4 0.0000 0.0000 0.0000 28.8393 0.0000 2.6854
# 5 3.1274 8.2838 -8.7733 0.0000 24.9466 0.0000
# 6 0.0000 0.0000 0.0000 2.6854 0.0000 -28.2629
#
#
#
# Elastic Compliance Matrix: (Units=1/GPa)
#
#
# Indices 1 2 3 4 5 6 
#
# 1 0.022728 -0.005989 -0.000067 0.000000 -0.000884 0.000000
# 2 -0.005989 0.007722 -0.002823 0.000000 -0.002806 0.000000
# 3 -0.000067 -0.002823 0.015964 0.000000 0.006560 0.000000
# 4 0.000000 0.000000 0.000000 0.034371 0.000000 0.003266
# 5 -0.000884 -0.002806 0.006560 0.000000 0.043435 0.000000
# 6 0.000000 0.000000 0.000000 0.003266 0.000000 -0.035072
#
#
# Mechanical properties :
#
#
# Convention : Reuss Voigt Hill
#
# Bulk Modulus (GPa) = 34.89583 52.89413 43.89498
# Shear Modulus (GPa) = 42.93388 20.05609 31.49498
#
# Velocity S-wave (km/s) = 4.59271 3.13901 3.93360
# Velocity P-wave (km/s) = 6.72815 6.25494 6.49585
#
# Compressibility (1/GPa) = 0.02865672
#
# Stress axis : x y z
#
# Youngs Moduli (GPa) = 43.99806 129.49656 62.64248
#
# Poissons Ratio (x) = 0.77554 0.00417
# Poissons Ratio (y) = 0.26350 0.17685
# Poissons Ratio (z) = 0.00293 0.36559
#
# Static dielectric constant tensor:
#      x y z
#    x 1.800360 0.000000 -0.009540 
#    y 0.000000 1.743290 0.000000 
#    z -0.009540 0.000000 1.729300 
# 
# From -- ./inp_files/156560.got.cif
#   From: 2010.05.17/outbox.cif.g08.bks.cpg/sg12_79_cif.got.tgz:156560.got - 2010.06.03 13:09:07.
