data_PCOD9211783
_publ_section_title
;
Structure prediction by ZEFSAII (Michael W. Deem and Ramdas Pophale) SiO2 
 PCOD9211783
Probable space group: C 2/M
;
_chemical_formula_sum "Si O2"
_cell_formula_units_Z 48
_cell_length_a 5.086605
_cell_length_b 26.613423
_cell_length_c 14.000986
_cell_angle_alpha 90.000000
_cell_angle_beta 96.561142
_cell_angle_gamma 90.000000
_cell_volume 1882.927504
_symmetry_space_group_name_H-M "C 2/M"
_symmetry_group_IT_number 12
_symmetry_cell_setting 'monoclinic'
loop_
_space_group_symop_operation_xyz
x,y,z
-x,y,-z
-x,-y,-z
x,-y,z
1/2+x,1/2+y,z
1/2-x,1/2+y,-z
1/2-x,1/2-y,-z
1/2+x,1/2-y,z
loop_
_atom_site_type_symbol
_atom_site_label
_atom_site_fract_x
_atom_site_fract_y
_atom_site_fract_z
Si Si1 0.499813 0.217200 0.106099
Si Si2 0.763496 0.774900 0.393335
Si Si3 0.661297 0.110624 0.409332
Si Si4 0.661951 0.500000 0.630465
Si Si5 0.490105 0.877541 0.194072
Si Si6 0.996625 0.916424 0.110695
Si Si7 0.291041 0.000000 0.246205
O O1 0.710966 0.261397 0.110211
O O2 0.606711 0.177743 0.186548
O O3 0.500000 0.192415 0.000000
O O4 0.750000 0.750000 0.500000
O O5 0.477934 0.757193 0.345911
O O6 0.809571 0.835156 0.403563
O O7 0.500000 0.115281 0.500000
O O8 0.486934 0.109009 0.305455
O O9 0.797729 0.055136 0.415870
O O10 0.368395 0.500000 0.661241
O O11 0.897507 0.500000 0.720228
O O12 0.706350 0.910423 0.143613
O O13 0.201054 0.870973 0.134652
O O14 0.174795 0.954534 0.179955
O O15 0.000000 0.930284 0.000000
#
# Coordination Sequence:
#
# PCOD9211783 Si02
#       7
#     8   8   8   4   8   8   4
#     4  10  21  40  65  98 141 186 238 303 373 446
#     4  10  22  45  71 105 142 186 248 320 361 433
#     4  12  26  50  78 107 156 207 252 314 375 443
#     4  12  27  50  73 110 156 196 259 302 379 452
#     4  12  26  44  70 110 146 192 253 305 370 454
#     4  12  24  45  75 106 145 190 239 306 377 440
#     4  12  23  50  71 108 146 190 241 316 359 462
#
# _framework density 25.492221000000001
#
# number of rings (size 3 to 8) (size 9 to 14) (size 15 to 20)
#    0.000    0.667    5.000    3.000    0.000    5.333 
#    0.000    3.333    0.000    0.000    0.000    0.000 
#    0.000    0.000    0.000    0.000    0.000    0.000 
#
# Total GULP energy -133999.156531 kJ/mol
# GULP energy per Si atom -5583.298189 kJ/mol
# Density = 2.543420 g / cm^3
# Si number density = 25.492221 Si / 1000 Ang^3
#
#
#
# Elastic Constant Matrix: (Units=GPa)
#
#
# Indices 1 2 3 4 5 6 
#
# 1 124.0874 -0.8253 19.8634 0.0000 -7.8412 0.0000
# 2 -0.8253 151.2751 25.1044 0.0000 -8.5673 0.0000
# 3 19.8634 25.1044 128.7054 0.0000 0.4113 0.0000
# 4 0.0000 0.0000 0.0000 65.1505 0.0000 0.0845
# 5 -7.8412 -8.5673 0.4113 0.0000 34.9500 0.0000
# 6 0.0000 0.0000 0.0000 0.0845 0.0000 18.2940
#
#
#
# Elastic Compliance Matrix: (Units=1/GPa)
#
#
# Indices 1 2 3 4 5 6 
#
# 1 0.008409 0.000388 -0.001380 0.000000 0.001998 0.000000
# 2 0.000388 0.006951 -0.001421 0.000000 0.001808 0.000000
# 3 -0.001380 -0.001421 0.008262 0.000000 -0.000755 0.000000
# 4 0.000000 0.000000 0.000000 0.015349 0.000000 -0.000071
# 5 0.001998 0.001808 -0.000755 0.000000 0.029513 0.000000
# 6 0.000000 0.000000 0.000000 -0.000071 0.000000 0.054663
#
#
# Mechanical properties :
#
#
# Convention : Reuss Voigt Hill
#
# Bulk Modulus (GPa) = 53.20494 54.70587 53.95541
# Shear Modulus (GPa) = 37.24727 47.67392 42.46060
#
# Velocity S-wave (km/s) = 3.82661 4.32920 4.08564
# Velocity P-wave (km/s) = 6.35927 6.81878 6.59303
#
# Compressibility (1/GPa) = 0.01879525
#
# Stress axis : x y z
#
# Youngs Moduli (GPa) = 118.92684 143.86723 121.03174
#
# Poissons Ratio (x) = -0.05582 0.16700
# Poissons Ratio (y) = -0.04614 0.17204
# Poissons Ratio (z) = 0.16409 0.20450
#
# Static dielectric constant tensor:
#      x y z
#    x 2.806710 0.000000 0.897950 
#    y 0.000000 2.469210 0.000000 
#    z 0.897950 0.000000 3.084790 
# 
# From -- ./inp_files/192082.got.cif
#   From: 2010.05.17/outbox.cif.g08.bks.cpg/sg12_97_cif.got.tgz:192082.got - 2010.06.03 13:09:07.
