data_PCOD9211571
_publ_section_title
;
Structure prediction by ZEFSAII (Michael W. Deem and Ramdas Pophale) SiO2 
 PCOD9211571
Probable space group: C 2/M
;
_chemical_formula_sum "Si O2"
_cell_formula_units_Z 56
_cell_length_a 24.050543
_cell_length_b 13.744189
_cell_length_c 8.665070
_cell_angle_alpha 90.000000
_cell_angle_beta 102.974812
_cell_angle_gamma 90.000000
_cell_volume 2791.155591
_symmetry_space_group_name_H-M "C 2/M"
_symmetry_group_IT_number 12
_symmetry_cell_setting 'monoclinic'
loop_
_space_group_symop_operation_xyz
x,y,z
-x,y,-z
-x,-y,-z
x,-y,z
1/2+x,1/2+y,z
1/2-x,1/2+y,-z
1/2-x,1/2-y,-z
1/2+x,1/2-y,z
loop_
_atom_site_type_symbol
_atom_site_label
_atom_site_fract_x
_atom_site_fract_y
_atom_site_fract_z
Si Si1 0.319045 0.888491 0.272845
Si Si2 0.715078 0.712656 0.329435
Si Si3 0.890543 0.272152 0.558330
Si Si4 0.937514 0.102247 0.391482
Si Si5 0.063459 0.110882 0.974493
Si Si6 0.350421 0.206300 0.969606
Si Si7 0.948336 0.387804 0.853907
O O1 0.253214 0.873004 0.283046
O O2 0.356355 0.855286 0.444223
O O3 0.334108 0.822134 0.133456
O O4 0.330319 0.000000 0.241305
O O5 0.750000 0.750000 0.500000
O O6 0.651901 0.708340 0.361361
O O7 0.704461 0.783249 0.176000
O O8 0.911005 0.198487 0.442521
O O9 0.938219 0.319746 0.698524
O O10 0.942630 0.106094 0.212639
O O11 0.000000 0.098457 0.500000
O O12 0.907197 0.000000 0.414754
O O13 0.111949 0.193911 0.023380
O O14 0.078431 0.000000 0.039129
O O15 0.000000 0.133957 0.000000
O O16 0.391310 0.125246 0.919887
O O17 0.956355 0.500000 0.812198
O O18 0.000000 0.360497 0.000000
#
# Coordination Sequence:
#
# PCOD9211571 Si02
#       7
#     8   8   8   8   8   8   8
#     4  11  22  39  62  90 121 158 207 259 309 363
#     4   9  22  40  60  83 114 157 204 254 304 357
#     4  10  21  40  64  89 123 165 202 251 309 367
#     4  10  22  38  59  90 126 160 199 244 303 369
#     4  10  22  39  61  91 125 159 199 245 302 367
#     4  11  21  38  63  88 121 159 203 253 311 366
#     4  10  22  38  59  90 124 164 209 250 298 363
#
# _framework density 20.063375000000001
#
# number of rings (size 3 to 8) (size 9 to 14) (size 15 to 20)
#    0.000    1.857    1.429    1.714    6.000    1.143 
#    0.000    0.714    0.000    5.571    0.000    0.000 
#    0.000    0.000    0.000    0.000    0.000    0.000 
#
# Total GULP energy -155958.010485 kJ/mol
# GULP energy per Si atom -5569.928946 kJ/mol
# Density = 2.001771 g / cm^3
# Si number density = 20.063375 Si / 1000 Ang^3
#
#
#
# Elastic Constant Matrix: (Units=GPa)
#
#
# Indices 1 2 3 4 5 6 
#
# 1 47.5924 48.2660 31.3382 0.0000 -2.0624 0.0000
# 2 48.2660 116.7920 36.8474 0.0000 -2.0334 0.0000
# 3 31.3382 36.8474 127.3569 0.0000 8.1855 0.0000
# 4 0.0000 0.0000 0.0000 19.1448 0.0000 -9.5601
# 5 -2.0624 -2.0334 8.1855 0.0000 34.3345 0.0000
# 6 0.0000 0.0000 0.0000 -9.5601 0.0000 24.1360
#
#
#
# Elastic Compliance Matrix: (Units=1/GPa)
#
#
# Indices 1 2 3 4 5 6 
#
# 1 0.039644 -0.014523 -0.005739 0.000000 0.002889 0.000000
# 2 -0.014523 0.014793 -0.000718 0.000000 0.000175 0.000000
# 3 -0.005739 -0.000718 0.009644 0.000000 -0.002687 0.000000
# 4 0.000000 0.000000 0.000000 0.065112 0.000000 0.025790
# 5 0.002889 0.000175 -0.002687 0.000000 0.029950 0.000000
# 6 0.000000 0.000000 0.000000 0.025790 0.000000 0.051647
#
#
# Mechanical properties :
#
#
# Convention : Reuss Voigt Hill
#
# Bulk Modulus (GPa) = 45.20159 58.29383 51.74771
# Shear Modulus (GPa) = 19.22159 27.20903 23.21531
#
# Velocity S-wave (km/s) = 3.09859 3.68660 3.40531
# Velocity P-wave (km/s) = 5.94811 6.87308 6.42725
#
# Compressibility (1/GPa) = 0.02212312
#
# Stress axis : x y z
#
# Youngs Moduli (GPa) = 25.22450 67.59773 103.68621
#
# Poissons Ratio (x) = 0.98169 0.59506
# Poissons Ratio (y) = 0.36632 0.07443
# Poissons Ratio (z) = 0.14476 0.04852
#
# Static dielectric constant tensor:
#      x y z
#    x 1.728690 0.000000 0.017610 
#    y 0.000000 1.750650 0.000000 
#    z 0.017610 0.000000 1.710700 
# 
# From -- ./inp_files/96477.got.cif
#   From: 2010.05.17/outbox.cif.g08.bks.cpg/sg12_49_cif.got.tgz:96477.got - 2010.06.03 13:09:07.
