data_PCOD9211311
_publ_section_title
;
Structure prediction by ZEFSAII (Michael W. Deem and Ramdas Pophale) SiO2 
 PCOD9211311
Probable space group: C 2/M
;
_chemical_formula_sum "Si O2"
_cell_formula_units_Z 48
_cell_length_a 28.973562
_cell_length_b 8.266243
_cell_length_c 15.313587
_cell_angle_alpha 90.000000
_cell_angle_beta 141.285678
_cell_angle_gamma 90.000000
_cell_volume 2293.881913
_symmetry_space_group_name_H-M "C 2/M"
_symmetry_group_IT_number 12
_symmetry_cell_setting 'monoclinic'
loop_
_space_group_symop_operation_xyz
x,y,z
-x,y,-z
-x,-y,-z
x,-y,z
1/2+x,1/2+y,z
1/2-x,1/2+y,-z
1/2-x,1/2-y,-z
1/2+x,1/2-y,z
loop_
_atom_site_type_symbol
_atom_site_label
_atom_site_fract_x
_atom_site_fract_y
_atom_site_fract_z
Si Si1 0.307853 0.314197 0.719450
Si Si2 0.601266 0.189484 0.296780
Si Si3 0.654147 0.311567 0.551543
Si Si4 0.348255 0.805365 0.075342
Si Si5 0.064704 0.303950 0.965919
Si Si6 0.317696 0.694372 0.215819
O O1 0.285060 0.500000 0.695412
O O2 0.335126 0.281172 0.661679
O O3 0.239973 0.205719 0.650635
O O4 0.378497 0.273943 0.883202
O O5 0.609356 0.217654 0.411673
O O6 0.520074 0.243199 0.146855
O O7 0.608908 0.000000 0.287968
O O8 0.632872 0.500000 0.517708
O O9 0.649611 0.247948 0.644029
O O10 0.407809 0.759955 0.090727
O O11 0.359761 0.741533 0.189825
O O12 0.345746 0.000000 0.075671
O O13 0.267105 0.747901 0.922835
O O14 0.069261 0.500000 0.981390
O O15 0.314568 0.500000 0.217312
#
# Coordination Sequence:
#
# PCOD9211311 Si02
#       6
#     8   8   8   8   8   8
#     4  12  24  38  60  87 114 148 195 240 283 337
#     4  11  24  40  59  83 116 154 193 234 285 341
#     4  11  22  40  61  83 117 153 191 236 285 337
#     4   9  17  33  57  84 112 143 185 231 279 334
#     4  10  21  40  61  84 116 154 190 233 285 337
#     4   9  18  33  56  84 112 144 184 232 282 332
#
# _framework density 20.925225999999999
#
# number of rings (size 3 to 8) (size 9 to 14) (size 15 to 20)
#    0.000    1.667    1.667    3.500    0.000    5.333 
#    0.000    0.833    0.000    5.000    0.000    0.000 
#    0.000    0.000    0.000    0.000    0.000    0.000 
#
# Total GULP energy -134143.525539 kJ/mol
# GULP energy per Si atom -5589.313564 kJ/mol
# Density = 2.087760 g / cm^3
# Si number density = 20.925226 Si / 1000 Ang^3
#
#
#
# Elastic Constant Matrix: (Units=GPa)
#
#
# Indices 1 2 3 4 5 6 
#
# 1 65.8081 0.4295 -2.2942 0.0000 -21.7071 0.0000
# 2 0.4295 14.0653 -6.0940 0.0000 1.6019 0.0000
# 3 -2.2942 -6.0940 61.2535 0.0000 -13.0320 0.0000
# 4 0.0000 0.0000 0.0000 24.7690 0.0000 -8.8391
# 5 -21.7071 1.6019 -13.0320 0.0000 34.2773 0.0000
# 6 0.0000 0.0000 0.0000 -8.8391 0.0000 25.3207
#
#
#
# Elastic Compliance Matrix: (Units=1/GPa)
#
#
# Indices 1 2 3 4 5 6 
#
# 1 0.019971 -0.000618 0.003681 0.000000 0.014076 0.000000
# 2 -0.000618 0.074335 0.007126 0.000000 -0.001156 0.000000
# 3 0.003681 0.007126 0.019146 0.000000 0.009277 0.000000
# 4 0.000000 0.000000 0.000000 0.046118 0.000000 0.016099
# 5 0.014076 -0.001156 0.009277 0.000000 0.041669 0.000000
# 6 0.000000 0.000000 0.000000 0.016099 0.000000 0.045113
#
#
# Mechanical properties :
#
#
# Convention : Reuss Voigt Hill
#
# Bulk Modulus (GPa) = 7.47208 13.91216 10.69212
# Shear Modulus (GPa) = 18.47858 26.81244 22.64551
#
# Velocity S-wave (km/s) = 2.97488 3.58347 3.29327
# Velocity P-wave (km/s) = 3.92154 4.87695 4.42511
#
# Compressibility (1/GPa) = 0.13383159
#
# Stress axis : x y z
#
# Youngs Moduli (GPa) = 50.07269 13.45264 52.22940
#
# Poissons Ratio (x) = 0.00831 -0.19227
# Poissons Ratio (y) = 0.03094 -0.37221
# Poissons Ratio (z) = -0.18433 -0.09587
#
# Static dielectric constant tensor:
#      x y z
#    x 1.742640 0.000000 -0.024070 
#    y 0.000000 1.727960 0.000000 
#    z -0.024070 0.000000 1.751150 
# 
# From -- ./inp_files/229912.got.cif
#   From: 2010.05.17/outbox.cif.g08.bks.cpg/sg12_115_cif.got.tgz:229912.got - 2010.06.03 13:09:07.
