data_PCOD9211213
_publ_section_title
;
Structure prediction by ZEFSAII (Michael W. Deem and Ramdas Pophale) SiO2 
 PCOD9211213
Probable space group: C 2/M
;
_chemical_formula_sum "Si O2"
_cell_formula_units_Z 40
_cell_length_a 16.356362
_cell_length_b 13.798720
_cell_length_c 14.599182
_cell_angle_alpha 90.000000
_cell_angle_beta 27.646669
_cell_angle_gamma 90.000000
_cell_volume 1528.933524
_symmetry_space_group_name_H-M "C 2/M"
_symmetry_group_IT_number 12
_symmetry_cell_setting 'monoclinic'
loop_
_space_group_symop_operation_xyz
x,y,z
-x,y,-z
-x,-y,-z
x,-y,z
1/2+x,1/2+y,z
1/2-x,1/2+y,-z
1/2-x,1/2-y,-z
1/2+x,1/2-y,z
loop_
_atom_site_type_symbol
_atom_site_label
_atom_site_fract_x
_atom_site_fract_y
_atom_site_fract_z
Si Si1 0.384375 0.170449 0.820230
Si Si2 0.239938 0.500000 0.188690
Si Si3 0.150435 0.111259 0.290574
Si Si4 0.143684 0.000000 0.719817
Si Si5 0.015373 0.608723 0.871223
Si Si6 0.372245 0.653980 0.425815
O O1 0.335498 0.101212 0.782656
O O2 0.423727 0.100388 0.863814
O O3 0.561171 0.235673 0.640406
O O4 0.250000 0.250000 0.000000
O O5 0.238499 0.500000 0.302804
O O6 0.443798 0.500000 0.954813
O O7 0.293414 0.149738 0.341166
O O8 0.045818 0.106023 0.298954
O O9 0.168298 0.000000 0.302782
O O10 0.348614 0.154220 0.092327
O O11 0.162830 0.907211 0.632286
O O12 0.044784 0.500000 0.870757
O O13 0.500000 0.663264 0.500000
#
# Coordination Sequence:
#
# PCOD9211213 Si02
#       6
#     8   4   8   4   8   8
#     4  12  23  43  77 108 155 214 268 320 408 487
#     4  11  24  45  77 119 162 214 263 346 406 468
#     4  10  21  39  69 111 157 197 258 331 404 475
#     4  11  22  43  78 120 158 205 281 335 393 485
#     4  11  22  41  73 106 153 209 258 321 417 478
#     4  12  23  44  75 113 148 214 268 330 399 485
#
# _framework density 26.162027999999999
#
# number of rings (size 3 to 8) (size 9 to 14) (size 15 to 20)
#    0.000    0.800    7.000    0.600    0.000    0.800 
#    0.000    9.000    4.400    0.000    0.000    2.800 
#    0.000    0.200    0.000    0.000    0.000    0.000 
#
# Total GULP energy -111375.728836 kJ/mol
# GULP energy per Si atom -5568.786442 kJ/mol
# Density = 2.610248 g / cm^3
# Si number density = 26.162028 Si / 1000 Ang^3
#
#
#
# Elastic Constant Matrix: (Units=GPa)
#
#
# Indices 1 2 3 4 5 6 
#
# 1 186.7376 79.8546 89.9975 0.0008 11.2487 -0.0003
# 2 79.8546 161.1182 70.3847 0.0002 4.8586 -0.0003
# 3 89.9975 70.3847 232.1874 0.0002 -31.0709 -0.0002
# 4 0.0008 0.0002 0.0002 18.7888 -0.0006 -15.2614
# 5 11.2487 4.8586 -31.0709 -0.0006 62.5950 0.0003
# 6 -0.0003 -0.0003 -0.0002 -15.2614 0.0003 4.9254
#
#
#
# Elastic Compliance Matrix: (Units=1/GPa)
#
#
# Indices 1 2 3 4 5 6 
#
# 1 0.007909 -0.002720 -0.002574 0.000000 -0.002488 0.000000
# 2 -0.002720 0.008273 -0.001579 0.000000 -0.000937 0.000000
# 3 -0.002574 -0.001579 0.006278 0.000000 0.003701 0.000000
# 4 0.000000 0.000000 0.000000 -0.035088 0.000000 -0.108723
# 5 -0.002488 -0.000937 0.003701 0.000000 0.018333 -0.000001
# 6 0.000000 0.000000 0.000000 -0.108723 -0.000001 -0.133852
#
#
# Mechanical properties :
#
#
# Convention : Reuss Voigt Hill
#
# Bulk Modulus (GPa) = 114.75524 117.83519 116.29521
# Shear Modulus (GPa) = -44.84437 39.91560 -2.46439
#
# Velocity S-wave (km/s) = -4.14466 3.91027 -0.97160
# Velocity P-wave (km/s) = 4.58849 8.09477 6.57949
#
# Compressibility (1/GPa) = 0.00871420
#
# Stress axis : x y z
#
# Youngs Moduli (GPa) = 126.44360 120.87708 159.27776
#
# Poissons Ratio (x) = 0.32884 0.40993
# Poissons Ratio (y) = 0.34398 0.25146
# Poissons Ratio (z) = 0.32543 0.19083
#
# Static dielectric constant tensor:
#      x y z
#    x 2.235450 0.000000 0.085180 
#    y 0.000000 2.190350 0.000000 
#    z 0.085180 0.000000 2.214250 
# 
# From -- ./inp_files/142570.got.cif
#   From: 2010.05.17/outbox.cif.g08.bks.cpg/sg12_72_cif.got.tgz:142570.got - 2010.06.03 13:09:07.
