data_PCOD9211427
_publ_section_title
;
Structure prediction by ZEFSAII (Michael W. Deem and Ramdas Pophale) SiO2 
 PCOD9211427
Probable space group: C 2/M
;
_chemical_formula_sum "Si O2"
_cell_formula_units_Z 34
_cell_length_a 16.207100
_cell_length_b 10.553830
_cell_length_c 12.516217
_cell_angle_alpha 90.000000
_cell_angle_beta 48.916789
_cell_angle_gamma 90.000000
_cell_volume 1613.686867
_symmetry_space_group_name_H-M "C 2/M"
_symmetry_group_IT_number 12
_symmetry_cell_setting 'monoclinic'
loop_
_space_group_symop_operation_xyz
x,y,z
-x,y,-z
-x,-y,-z
x,-y,z
1/2+x,1/2+y,z
1/2-x,1/2+y,-z
1/2-x,1/2-y,-z
1/2+x,1/2-y,z
loop_
_atom_site_type_symbol
_atom_site_label
_atom_site_fract_x
_atom_site_fract_y
_atom_site_fract_z
Si Si1 0.615207 0.355124 0.527804
Si Si2 0.857557 0.257529 0.052621
Si Si3 0.381389 0.349565 0.804143
Si Si4 0.500000 0.000000 0.000000
Si Si5 0.718247 0.641600 0.677034
O O1 0.631109 0.500000 0.473549
O O2 0.487142 0.322901 0.641266
O O3 0.655050 0.355319 0.617847
O O4 0.690264 0.251142 0.407810
O O5 0.729034 0.282404 0.138980
O O6 0.917476 0.388503 0.025480
O O7 0.859454 0.172362 0.157163
O O8 0.903700 0.194650 0.906271
O O9 0.365135 0.500000 0.817509
O O10 0.765042 0.500000 0.649112
#
# Coordination Sequence:
#
# PCOD9211427 Si02
#       5
#     8   8   8   2   8
#     4   9  20  38  63  87 123 165 213 257 316 370
#     4  11  23  38  63  91 128 162 213 264 317 373
#     4  10  21  42  61  90 125 171 206 260 318 382
#     4  12  24  40  58 102 120 164 214 270 308 384
#     4  10  21  40  62  94 124 169 211 263 308 385
#
# _framework density 21.069763999999999
#
# number of rings (size 3 to 8) (size 9 to 14) (size 15 to 20)
#    0.000    1.882    1.176    2.118    1.647    0.941 
#   10.588    8.235    0.000    0.000    0.000    0.000 
#    0.000    0.000    0.000    0.000    0.000    0.000 
#
# Total GULP energy -94761.678881 kJ/mol
# GULP energy per Si atom -5574.216405 kJ/mol
# Density = 2.102181 g / cm^3
# Si number density = 21.069764 Si / 1000 Ang^3
#
#
#
# Elastic Constant Matrix: (Units=GPa)
#
#
# Indices 1 2 3 4 5 6 
#
# 1 57.5837 1.8473 14.9793 0.0000 3.6521 0.0000
# 2 1.8473 55.4161 28.4198 0.0000 13.6443 0.0000
# 3 14.9793 28.4198 77.2293 0.0000 18.2185 0.0000
# 4 0.0000 0.0000 0.0000 6.4963 0.0000 -11.6030
# 5 3.6521 13.6443 18.2185 0.0000 34.8972 0.0000
# 6 0.0000 0.0000 0.0000 -11.6030 0.0000 19.4493
#
#
#
# Elastic Compliance Matrix: (Units=1/GPa)
#
#
# Indices 1 2 3 4 5 6 
#
# 1 0.018395 0.001565 -0.004043 0.000000 -0.000426 0.000000
# 2 0.001565 0.023183 -0.007593 0.000000 -0.005264 0.000000
# 3 -0.004043 -0.007593 0.017936 0.000000 -0.005972 0.000000
# 4 0.000000 0.000000 0.000000 -2.348243 0.000000 -1.400912
# 5 -0.000426 -0.005264 -0.005972 0.000000 0.033876 0.000000
# 6 0.000000 0.000000 0.000000 -1.400912 0.000000 -0.784338
#
#
# Mechanical properties :
#
#
# Convention : Reuss Voigt Hill
#
# Bulk Modulus (GPa) = 25.39911 31.19130 28.29520
# Shear Modulus (GPa) = -1.66338 21.83406 10.08534
#
# Velocity S-wave (km/s) = -0.88948 3.22261 2.19021
# Velocity P-wave (km/s) = 3.32055 5.35565 4.45584
#
# Compressibility (1/GPa) = 0.03937146
#
# Stress axis : x y z
#
# Youngs Moduli (GPa) = 54.36371 43.13458 55.75511
#
# Poissons Ratio (x) = -0.06752 0.22543
# Poissons Ratio (y) = -0.08510 0.42335
# Poissons Ratio (z) = 0.21981 0.32752
#
# Static dielectric constant tensor:
#      x y z
#    x 1.802640 0.000000 0.014570 
#    y 0.000000 1.694730 0.000000 
#    z 0.014570 0.000000 1.749280 
# 
# From -- ./inp_files/140630.got.cif
#   From: 2010.05.17/outbox.cif.g08.bks.cpg/sg12_71_cif.got.tgz:140630.got - 2010.06.03 13:09:07.
