data_PCOD9211142
_publ_section_title
;
Structure prediction by ZEFSAII (Michael W. Deem and Ramdas Pophale) SiO2 
 PCOD9211142
Probable space group: C 2/M
;
_chemical_formula_sum "Si O2"
_cell_formula_units_Z 50
_cell_length_a 12.169878
_cell_length_b 17.329392
_cell_length_c 14.053174
_cell_angle_alpha 90.000000
_cell_angle_beta 127.818856
_cell_angle_gamma 90.000000
_cell_volume 2341.236957
_symmetry_space_group_name_H-M "C 2/M"
_symmetry_group_IT_number 12
_symmetry_cell_setting 'monoclinic'
loop_
_space_group_symop_operation_xyz
x,y,z
-x,y,-z
-x,-y,-z
x,-y,z
1/2+x,1/2+y,z
1/2-x,1/2+y,-z
1/2-x,1/2-y,-z
1/2+x,1/2-y,z
loop_
_atom_site_type_symbol
_atom_site_label
_atom_site_fract_x
_atom_site_fract_y
_atom_site_fract_z
Si Si1 0.500000 0.000000 0.500000
Si Si2 0.571208 0.689956 0.448218
Si Si3 0.908889 0.587951 0.235494
Si Si4 0.346512 0.860108 0.507631
Si Si5 0.921232 0.808843 0.175358
Si Si6 0.394648 0.844473 0.032300
Si Si7 0.606628 0.592024 0.143013
O O1 0.617101 0.070086 0.543123
O O2 0.500000 0.651351 0.500000
O O3 0.633662 0.772329 0.518149
O O4 0.695309 0.639248 0.472522
O O5 0.463338 0.705821 0.306136
O O6 0.924067 0.500000 0.281586
O O7 0.910234 0.591101 0.122412
O O8 0.759840 0.618761 0.191876
O O9 0.040050 0.630205 0.348637
O O10 0.922173 0.733717 0.107820
O O11 0.038685 0.865183 0.195206
O O12 0.765425 0.842306 0.086243
O O13 0.500000 0.850533 0.000000
O O14 0.611703 0.500000 0.159137
O O15 0.500000 0.607402 0.000000
#
# Coordination Sequence:
#
# PCOD9211142 Si02
#       7
#     2   8   8   8   8   8   8
#     4  12  24  48  74 104 132 186 246 294 332 422
#     4  11  26  45  69 101 141 187 230 292 351 424
#     4  11  23  42  68  97 133 172 224 284 339 404
#     4  11  25  42  71 102 134 180 240 286 350 409
#     4  11  24  41  65  98 137 174 224 276 344 404
#     4  11  25  39  65  99 133 176 218 274 342 415
#     4  10  21  39  66  98 133 170 225 283 337 399
#
# _framework density 21.356233
#
# number of rings (size 3 to 8) (size 9 to 14) (size 15 to 20)
#    0.000    1.120    4.800    0.480    6.720    0.320 
#    0.000    0.400    0.000    0.000    0.000    0.000 
#    0.000    0.000    0.000    0.000    0.000    0.000 
#
# Total GULP energy -139537.529565 kJ/mol
# GULP energy per Si atom -5581.501183 kJ/mol
# Density = 2.130763 g / cm^3
# Si number density = 21.356233 Si / 1000 Ang^3
#
#
#
# Elastic Constant Matrix: (Units=GPa)
#
#
# Indices 1 2 3 4 5 6 
#
# 1 161.4372 21.5978 50.9396 0.0000 -1.9163 0.0000
# 2 21.5978 56.4647 12.2627 0.0000 -0.4303 0.0000
# 3 50.9396 12.2627 108.2472 0.0000 4.7424 0.0000
# 4 0.0000 0.0000 0.0000 25.7367 0.0000 -0.9152
# 5 -1.9163 -0.4303 4.7424 0.0000 35.8112 0.0000
# 6 0.0000 0.0000 0.0000 -0.9152 0.0000 26.5722
#
#
#
# Elastic Compliance Matrix: (Units=1/GPa)
#
#
# Indices 1 2 3 4 5 6 
#
# 1 0.007547 -0.002154 -0.003344 0.000000 0.000821 0.000000
# 2 -0.002154 0.018781 -0.001125 0.000000 0.000259 0.000000
# 3 -0.003344 -0.001125 0.011011 0.000000 -0.001651 0.000000
# 4 0.000000 0.000000 0.000000 0.038903 0.000000 0.001340
# 5 0.000821 0.000259 -0.001651 0.000000 0.028190 0.000000
# 6 0.000000 0.000000 0.000000 0.001340 0.000000 0.037679
#
#
# Mechanical properties :
#
#
# Convention : Reuss Voigt Hill
#
# Bulk Modulus (GPa) = 41.50570 55.08327 48.29448
# Shear Modulus (GPa) = 30.60193 33.71396 32.15795
#
# Velocity S-wave (km/s) = 3.78951 3.97753 3.88466
# Velocity P-wave (km/s) = 6.21485 6.85149 6.54092
#
# Compressibility (1/GPa) = 0.02409307
#
# Stress axis : x y z
#
# Youngs Moduli (GPa) = 132.49663 53.24647 90.81570
#
# Poissons Ratio (x) = 0.11472 0.30365
# Poissons Ratio (y) = 0.28546 0.10217
# Poissons Ratio (z) = 0.44301 0.05990
#
# Static dielectric constant tensor:
#      x y z
#    x 1.940780 0.000000 -0.149840 
#    y 0.000000 1.798820 0.000000 
#    z -0.149840 0.000000 1.791000 
# 
# From -- ./inp_files/206298.got.cif
#   From: 2010.05.17/outbox.cif.g08.bks.cpg/sg12_104_cif.got.tgz:206298.got - 2010.06.03 13:09:07.
