data_PCOD9211021
_publ_section_title
;
Structure prediction by ZEFSAII (Michael W. Deem and Ramdas Pophale) SiO2 
 PCOD9211021
Probable space group: C 2/M
;
_chemical_formula_sum "Si O2"
_cell_formula_units_Z 56
_cell_length_a 9.419950
_cell_length_b 26.231754
_cell_length_c 21.356511
_cell_angle_alpha 90.000000
_cell_angle_beta 152.213216
_cell_angle_gamma 90.000000
_cell_volume 2460.153927
_symmetry_space_group_name_H-M "C 2/M"
_symmetry_group_IT_number 12
_symmetry_cell_setting 'monoclinic'
loop_
_space_group_symop_operation_xyz
x,y,z
-x,y,-z
-x,-y,-z
x,-y,z
1/2+x,1/2+y,z
1/2-x,1/2+y,-z
1/2-x,1/2-y,-z
1/2+x,1/2-y,z
loop_
_atom_site_type_symbol
_atom_site_label
_atom_site_fract_x
_atom_site_fract_y
_atom_site_fract_z
Si Si1 0.295352 0.058208 0.650324
Si Si2 0.336741 0.836172 0.501452
Si Si3 0.272390 0.199970 0.788904
Si Si4 0.933794 0.444402 0.376841
Si Si5 0.326159 0.412164 0.095876
Si Si6 0.070242 0.198863 0.211009
Si Si7 0.187946 0.607062 0.913140
O O1 0.526685 0.056522 0.682766
O O2 0.456327 0.084028 0.771513
O O3 0.000000 0.082275 0.500000
O O4 0.209083 0.000000 0.633972
O O5 0.500000 0.823379 0.500000
O O6 0.370156 0.897516 0.520491
O O7 0.566247 0.811429 0.640266
O O8 0.000785 0.814068 0.366339
O O9 0.445855 0.250956 0.836578
O O10 0.500867 0.152945 0.871858
O O11 0.111410 0.205322 0.793989
O O12 0.027612 0.500000 0.436701
O O13 0.572400 0.436074 0.239888
O O14 0.444644 0.354066 0.136218
O O15 0.285922 0.430186 0.008460
O O16 0.000000 0.414750 0.000000
O O17 0.500000 0.622712 0.000000
#
# Coordination Sequence:
#
# PCOD9211021 Si02
#       7
#     8   8   8   8   8   8   8
#     4  10  22  42  67  96 130 170 222 280 332 390
#     4   9  20  40  63  92 132 172 219 274 334 392
#     4  11  23  40  64  95 130 173 222 274 331 400
#     4  10  21  39  65  94 129 171 219 276 331 390
#     4  11  23  44  63  90 138 175 216 276 332 387
#     4  10  23  40  64  92 129 172 218 278 329 391
#     4  12  25  41  66  99 130 179 224 267 334 397
#
# _framework density 22.762803000000002
#
# number of rings (size 3 to 8) (size 9 to 14) (size 15 to 20)
#    0.000    1.571    2.857    1.286    2.000    2.571 
#    0.000    3.571    0.000    0.000    0.000    0.000 
#    0.000    0.000    0.000    0.000    0.000    0.000 
#
# Total GULP energy -156294.107737 kJ/mol
# GULP energy per Si atom -5581.932419 kJ/mol
# Density = 2.271099 g / cm^3
# Si number density = 22.762803 Si / 1000 Ang^3
#
#
#
# Elastic Constant Matrix: (Units=GPa)
#
#
# Indices 1 2 3 4 5 6 
#
# 1 48.5708 -0.2836 28.5829 0.0031 2.9669 0.0026
# 2 -0.2836 76.1475 15.4841 -0.0022 0.7114 -0.0003
# 3 28.5829 15.4841 108.8087 0.0136 6.9704 0.0024
# 4 0.0031 -0.0022 0.0136 -11.6818 0.0063 5.4861
# 5 2.9669 0.7114 6.9704 0.0063 36.8691 0.0043
# 6 0.0026 -0.0003 0.0024 5.4861 0.0043 14.4143
#
#
#
# Elastic Compliance Matrix: (Units=1/GPa)
#
#
# Indices 1 2 3 4 5 6 
#
# 1 0.024527 0.001440 -0.006600 -0.000003 -0.000754 -0.000002
# 2 0.001440 0.013609 -0.002319 -0.000004 0.000060 0.000002
# 3 -0.006600 -0.002319 0.011355 0.000009 -0.001571 -0.000004
# 4 -0.000003 -0.000004 0.000009 -0.072623 0.000008 0.027640
# 5 -0.000754 0.000060 -0.001571 0.000008 0.027479 -0.000011
# 6 -0.000002 0.000002 -0.000004 0.027640 -0.000011 0.058856
#
#
# Mechanical properties :
#
#
# Convention : Reuss Voigt Hill
#
# Bulk Modulus (GPa) = 28.95693 35.67708 32.31701
# Shear Modulus (GPa) = 55.76022 20.56991 38.16506
#
# Velocity S-wave (km/s) = 4.95473 3.00936 4.09912
# Velocity P-wave (km/s) = 6.74398 5.27090 6.05243
#
# Compressibility (1/GPa) = 0.03453405
#
# Stress axis : x y z
#
# Youngs Moduli (GPa) = 40.77199 73.48231 88.06943
#
# Poissons Ratio (x) = -0.10584 0.58122
# Poissons Ratio (y) = -0.05873 0.20422
# Poissons Ratio (z) = 0.26908 0.17039
#
# Static dielectric constant tensor:
#      x y z
#    x 1.860160 0.000000 -0.004950 
#    y 0.000000 1.854510 0.000000 
#    z -0.004950 0.000000 1.928900 
# 
# From -- ./inp_files/303066.got.cif
#   From: 2010.05.17/outbox.cif.g08.bks.cpg/sg12_152_cif.got.tgz:303066.got - 2010.06.03 13:09:07.
