data_PCOD9211092
_publ_section_title
;
Structure prediction by ZEFSAII (Michael W. Deem and Ramdas Pophale) SiO2 
 PCOD9211092
Probable space group: C 2/M
;
_chemical_formula_sum "Si O2"
_cell_formula_units_Z 48
_cell_length_a 13.503646
_cell_length_b 11.378272
_cell_length_c 15.701233
_cell_angle_alpha 90.000000
_cell_angle_beta 64.715969
_cell_angle_gamma 90.000000
_cell_volume 2181.355238
_symmetry_space_group_name_H-M "C 2/M"
_symmetry_group_IT_number 12
_symmetry_cell_setting 'monoclinic'
loop_
_space_group_symop_operation_xyz
x,y,z
-x,y,-z
-x,-y,-z
x,-y,z
1/2+x,1/2+y,z
1/2-x,1/2+y,-z
1/2-x,1/2-y,-z
1/2+x,1/2-y,z
loop_
_atom_site_type_symbol
_atom_site_label
_atom_site_fract_x
_atom_site_fract_y
_atom_site_fract_z
Si Si1 0.934425 0.778098 0.447341
Si Si2 0.949796 0.364222 0.734626
Si Si3 0.250641 0.627889 0.078307
Si Si4 0.685532 0.869081 0.735145
Si Si5 0.747899 0.863898 0.393710
Si Si6 0.126529 0.339902 0.949333
O O1 0.849758 0.853159 0.422539
O O2 0.860628 0.672290 0.513874
O O3 0.000000 0.838063 0.500000
O O4 0.022973 0.719897 0.352846
O O5 0.932878 0.500000 0.714467
O O6 0.847718 0.322278 0.827895
O O7 0.059123 0.364668 0.751501
O O8 0.272366 0.500000 0.103710
O O9 0.360021 0.700925 0.044971
O O10 0.200248 0.621010 0.002127
O O11 0.735064 0.747808 0.677549
O O12 0.679204 0.869871 0.839481
O O13 0.728904 0.000000 0.690894
O O14 0.743627 0.000000 0.364411
O O15 0.000000 0.375189 0.000000
#
# Coordination Sequence:
#
# PCOD9211092 Si02
#       6
#     8   8   8   8   8   8
#     4  10  22  39  64  91 126 167 210 254 311 375
#     4   9  18  35  60  89 120 157 211 259 298 365
#     4  10  22  38  60  90 126 161 204 259 314 374
#     4  10  21  39  66  93 125 169 213 257 310 376
#     4  10  23  42  64  96 132 163 208 265 315 368
#     4  11  22  38  63  91 122 159 210 262 313 370
#
# _framework density 22.004670000000001
#
# number of rings (size 3 to 8) (size 9 to 14) (size 15 to 20)
#    0.000    2.000    1.667    1.000    2.333    7.333 
#    0.000    0.000    0.000    0.000    0.000    0.000 
#    0.000    0.000    0.000    0.000    0.000    0.000 
#
# Total GULP energy -133833.774337 kJ/mol
# GULP energy per Si atom -5576.407264 kJ/mol
# Density = 2.195459 g / cm^3
# Si number density = 22.004670 Si / 1000 Ang^3
#
#
#
# Elastic Constant Matrix: (Units=GPa)
#
#
# Indices 1 2 3 4 5 6 
#
# 1 91.0438 34.0999 27.1977 0.0000 13.4201 0.0000
# 2 34.0999 142.1667 47.2737 0.0000 -12.5344 0.0000
# 3 27.1977 47.2737 109.7923 0.0000 13.2558 0.0000
# 4 0.0000 0.0000 0.0000 -4.9804 0.0000 -40.8756
# 5 13.4201 -12.5344 13.2558 0.0000 25.9614 0.0000
# 6 0.0000 0.0000 0.0000 -40.8756 0.0000 -59.1314
#
#
#
# Elastic Compliance Matrix: (Units=1/GPa)
#
#
# Indices 1 2 3 4 5 6 
#
# 1 0.013932 -0.003862 -0.000739 0.000000 -0.008689 0.000000
# 2 -0.003862 0.010317 -0.004612 0.000000 0.009332 0.000000
# 3 -0.000739 -0.004612 0.012255 0.000000 -0.008102 0.000000
# 4 0.000000 0.000000 0.000000 0.042963 0.000000 -0.029699
# 5 -0.008689 0.009332 -0.008102 0.000000 0.051653 0.000000
# 6 0.000000 0.000000 0.000000 -0.029699 0.000000 0.003619
#
#
# Mechanical properties :
#
#
# Convention : Reuss Voigt Hill
#
# Bulk Modulus (GPa) = 55.31859 62.23837 58.77848
# Shear Modulus (GPa) = 31.40880 7.99871 19.70375
#
# Velocity S-wave (km/s) = 3.78215 1.90864 2.99563
# Velocity P-wave (km/s) = 6.65334 5.76218 6.22373
#
# Compressibility (1/GPa) = 0.01807710
#
# Stress axis : x y z
#
# Youngs Moduli (GPa) = 71.77847 96.92965 81.59704
#
# Poissons Ratio (x) = 0.37433 0.06033
# Poissons Ratio (y) = 0.27720 0.37634
# Poissons Ratio (z) = 0.05307 0.44706
#
# Static dielectric constant tensor:
#      x y z
#    x 1.799230 0.000000 0.041440 
#    y 0.000000 1.852910 0.000000 
#    z 0.041440 0.000000 1.830390 
# 
# From -- ./inp_files/212536.got.cif
#   From: 2010.05.17/outbox.cif.g08.bks.cpg/sg12_107_cif.got.tgz:212536.got - 2010.06.03 13:09:07.
