data_PCOD9211951
_publ_section_title
;
Structure prediction by ZEFSAII (Michael W. Deem and Ramdas Pophale) SiO2 
 PCOD9211951
Probable space group: C 2/M
;
_chemical_formula_sum "Si O2"
_cell_formula_units_Z 42
_cell_length_a 14.659313
_cell_length_b 7.895656
_cell_length_c 17.725272
_cell_angle_alpha 90.000000
_cell_angle_beta 114.671673
_cell_angle_gamma 90.000000
_cell_volume 1864.327815
_symmetry_space_group_name_H-M "C 2/M"
_symmetry_group_IT_number 12
_symmetry_cell_setting 'monoclinic'
loop_
_space_group_symop_operation_xyz
x,y,z
-x,y,-z
-x,-y,-z
x,-y,z
1/2+x,1/2+y,z
1/2-x,1/2+y,-z
1/2-x,1/2-y,-z
1/2+x,1/2-y,z
loop_
_atom_site_type_symbol
_atom_site_label
_atom_site_fract_x
_atom_site_fract_y
_atom_site_fract_z
Si Si1 0.495616 0.695064 0.710354
Si Si2 0.415750 0.195125 0.412904
Si Si3 0.784588 0.308211 0.594973
Si Si4 0.131553 0.799602 0.890103
Si Si5 0.000000 0.000000 0.000000
Si Si6 0.642756 0.810635 0.062425
O O1 0.528210 0.500000 0.714550
O O2 0.541626 0.792891 0.655766
O O3 0.376487 0.704955 0.660768
O O4 0.541811 0.754325 0.805021
O O5 0.500000 0.261508 0.500000
O O6 0.313159 0.294099 0.387421
O O7 0.395684 0.000000 0.426982
O O8 0.820263 0.500000 0.601220
O O9 0.750000 0.250000 0.500000
O O10 0.237642 0.787092 0.882742
O O11 0.117186 0.000000 0.909132
O O12 0.137854 0.696335 0.969066
O O13 0.073720 0.152764 0.061237
O O14 0.613490 0.000000 0.078428
#
# Coordination Sequence:
#
# PCOD9211951 Si02
#       6
#     8   8   8   8   2   8
#     4  11  23  41  66  93 126 167 213 267 322 379
#     4  11  23  40  62  89 121 160 210 261 317 382
#     4  12  24  40  62  89 122 162 212 262 322 387
#     4   9  20  42  65  92 124 170 216 259 316 389
#     4  12  22  40  64 106 128 162 214 272 314 378
#     4  10  21  40  68  94 132 173 213 259 324 386
#
# _framework density 22.528227000000001
#
# number of rings (size 3 to 8) (size 9 to 14) (size 15 to 20)
#    0.000    1.333    2.857    3.143    1.333    2.286 
#    3.429    0.000    0.000    0.000    0.000    0.000 
#    0.000    0.000    0.000    0.000    0.000    0.000 
#
# Total GULP energy -117190.675722 kJ/mol
# GULP energy per Si atom -5580.508368 kJ/mol
# Density = 2.247695 g / cm^3
# Si number density = 22.528227 Si / 1000 Ang^3
#
#
#
# Elastic Constant Matrix: (Units=GPa)
#
#
# Indices 1 2 3 4 5 6 
#
# 1 75.9366 12.3305 18.4349 0.0000 20.7631 0.0000
# 2 12.3305 108.8194 -4.3104 0.0000 6.0147 0.0000
# 3 18.4349 -4.3104 106.3001 0.0000 29.4675 0.0000
# 4 0.0000 0.0000 0.0000 4.1980 0.0000 -5.1704
# 5 20.7631 6.0147 29.4675 0.0000 29.4895 0.0000
# 6 0.0000 0.0000 0.0000 -5.1704 0.0000 35.8472
#
#
#
# Elastic Compliance Matrix: (Units=1/GPa)
#
#
# Indices 1 2 3 4 5 6 
#
# 1 0.016481 -0.001208 0.000334 0.000000 -0.011691 0.000000
# 2 -0.001208 0.009504 0.001240 0.000000 -0.002327 0.000000
# 3 0.000334 0.001240 0.013188 0.000000 -0.013666 0.000000
# 4 0.000000 0.000000 0.000000 0.289666 0.000000 0.041780
# 5 -0.011691 -0.002327 -0.013666 0.000000 0.056272 0.000000
# 6 0.000000 0.000000 0.000000 0.041780 0.000000 0.033922
#
#
# Mechanical properties :
#
#
# Convention : Reuss Voigt Hill
#
# Bulk Modulus (GPa) = 25.06006 38.21843 31.63924
# Shear Modulus (GPa) = 11.58470 31.54702 21.56586
#
# Velocity S-wave (km/s) = 2.27013 3.74616 3.09735
# Velocity P-wave (km/s) = 4.24491 5.97605 5.18326
#
# Compressibility (1/GPa) = 0.03990414
#
# Stress axis : x y z
#
# Youngs Moduli (GPa) = 60.67738 105.21720 75.82567
#
# Poissons Ratio (x) = 0.12711 -0.02530
# Poissons Ratio (y) = 0.07330 -0.09402
# Poissons Ratio (z) = -0.02025 -0.13046
#
# Static dielectric constant tensor:
#      x y z
#    x 1.980940 0.000000 -0.060350 
#    y 0.000000 1.838290 0.000000 
#    z -0.060350 0.000000 1.862740 
# 
# From -- ./inp_files/267807.got.cif
#   From: 2010.05.17/outbox.cif.g08.bks.cpg/sg12_134_cif.got.tgz:267807.got - 2010.06.03 13:09:07.
