data_PCOD9211621
_publ_section_title
;
Structure prediction by ZEFSAII (Michael W. Deem and Ramdas Pophale) SiO2 
 PCOD9211621
Probable space group: C 2/M
;
_chemical_formula_sum "Si O2"
_cell_formula_units_Z 40
_cell_length_a 13.956830
_cell_length_b 8.549146
_cell_length_c 16.290932
_cell_angle_alpha 90.000000
_cell_angle_beta 114.314696
_cell_angle_gamma 90.000000
_cell_volume 1771.396269
_symmetry_space_group_name_H-M "C 2/M"
_symmetry_group_IT_number 12
_symmetry_cell_setting 'monoclinic'
loop_
_space_group_symop_operation_xyz
x,y,z
-x,y,-z
-x,-y,-z
x,-y,z
1/2+x,1/2+y,z
1/2-x,1/2+y,-z
1/2-x,1/2-y,-z
1/2+x,1/2-y,z
loop_
_atom_site_type_symbol
_atom_site_label
_atom_site_fract_x
_atom_site_fract_y
_atom_site_fract_z
Si Si1 0.783330 0.178810 0.380791
Si Si2 0.757963 0.316667 0.911582
Si Si3 0.863210 0.818645 0.797892
Si Si4 0.083602 0.681707 0.435188
Si Si5 0.550274 0.185960 0.760383
O O1 0.743159 0.286077 0.292357
O O2 0.882030 0.233037 0.469839
O O3 0.685602 0.185367 0.410947
O O4 0.794405 0.000000 0.356837
O O5 0.780770 0.500000 0.921438
O O6 0.841958 0.229202 0.883719
O O7 0.646913 0.282236 0.829001
O O8 0.750000 0.250000 0.000000
O O9 0.953101 0.714056 0.788154
O O10 0.891154 0.000000 0.800285
O O11 0.064168 0.500000 0.446072
O O12 0.990580 0.740939 0.343476
O O13 0.573751 0.000000 0.765216
#
# Coordination Sequence:
#
# PCOD9211621 Si02
#       5
#     8   8   8   8   8
#     4   9  16  28  50  82 119 158 199 242 289 344
#     4  12  26  45  66  90 119 153 197 250 306 361
#     4  11  22  39  63  91 123 161 202 245 297 355
#     4   8  15  28  50  81 118 157 195 237 289 348
#     4  10  21  40  64  92 124 159 200 247 299 355
#
# _framework density 22.581057999999999
#
# number of rings (size 3 to 8) (size 9 to 14) (size 15 to 20)
#    0.000    2.000    0.000    6.000    0.000    6.400 
#    0.000    5.000    0.000    6.000    0.000    0.000 
#    0.000    0.000    0.000    0.000    0.000    0.000 
#
# Total GULP energy -111903.928202 kJ/mol
# GULP energy per Si atom -5595.196410 kJ/mol
# Density = 2.252966 g / cm^3
# Si number density = 22.581058 Si / 1000 Ang^3
#
#
#
# Elastic Constant Matrix: (Units=GPa)
#
#
# Indices 1 2 3 4 5 6 
#
# 1 49.3398 -25.2088 18.9368 0.0000 -11.0028 0.0000
# 2 -25.2088 81.6752 14.7144 0.0000 -4.6687 0.0000
# 3 18.9368 14.7144 85.4064 0.0000 -30.3769 0.0000
# 4 0.0000 0.0000 0.0000 36.3581 0.0000 3.4759
# 5 -11.0028 -4.6687 -30.3769 0.0000 39.5659 0.0000
# 6 0.0000 0.0000 0.0000 3.4759 0.0000 22.8817
#
#
#
# Elastic Compliance Matrix: (Units=1/GPa)
#
#
# Indices 1 2 3 4 5 6 
#
# 1 0.029134 0.010452 -0.006796 0.000000 0.004117 0.000000
# 2 0.010452 0.016387 -0.004704 0.000000 0.001229 0.000000
# 3 -0.006796 -0.004704 0.018099 0.000000 0.011450 0.000000
# 4 0.000000 0.000000 0.000000 0.027910 0.000000 -0.004240
# 5 0.004117 0.001229 0.011450 0.000000 0.035355 0.000000
# 6 0.000000 0.000000 0.000000 -0.004240 0.000000 0.044347
#
#
# Mechanical properties :
#
#
# Convention : Reuss Voigt Hill
#
# Bulk Modulus (GPa) = 16.25367 25.92289 21.08828
# Shear Modulus (GPa) = 25.79506 33.62643 29.71074
#
# Velocity S-wave (km/s) = 3.38351 3.86313 3.63124
# Velocity P-wave (km/s) = 4.74107 5.60386 5.19042
#
# Compressibility (1/GPa) = 0.06152455
#
# Stress axis : x y z
#
# Youngs Moduli (GPa) = 34.32381 61.02311 55.25307
#
# Poissons Ratio (x) = -0.63781 0.37550
# Poissons Ratio (y) = -0.35875 0.25989
# Poissons Ratio (z) = 0.23327 0.28703
#
# Static dielectric constant tensor:
#      x y z
#    x 1.930980 0.000000 -0.013130 
#    y 0.000000 1.749010 0.000000 
#    z -0.013130 0.000000 1.823750 
# 
# From -- ./inp_files/211437.got.cif
#   From: 2010.05.17/outbox.cif.g08.bks.cpg/sg12_106_cif.got.tgz:211437.got - 2010.06.03 13:09:07.
