data_PCOD9211406
_publ_section_title
;
Structure prediction by ZEFSAII (Michael W. Deem and Ramdas Pophale) SiO2 
 PCOD9211406
Probable space group: C 2/M
;
_chemical_formula_sum "Si O2"
_cell_formula_units_Z 40
_cell_length_a 8.082357
_cell_length_b 16.465225
_cell_length_c 20.313398
_cell_angle_alpha 90.000000
_cell_angle_beta 46.968049
_cell_angle_gamma 90.000000
_cell_volume 1976.012893
_symmetry_space_group_name_H-M "C 2/M"
_symmetry_group_IT_number 12
_symmetry_cell_setting 'monoclinic'
loop_
_space_group_symop_operation_xyz
x,y,z
-x,y,-z
-x,-y,-z
x,-y,z
1/2+x,1/2+y,z
1/2-x,1/2+y,-z
1/2-x,1/2-y,-z
1/2+x,1/2-y,z
loop_
_atom_site_type_symbol
_atom_site_label
_atom_site_fract_x
_atom_site_fract_y
_atom_site_fract_z
Si Si1 0.422481 0.500000 0.945607
Si Si2 0.328647 0.675384 0.932982
Si Si3 0.881443 0.500000 0.736785
Si Si4 0.121638 0.500000 0.540258
Si Si5 0.500000 0.620874 0.500000
Si Si6 0.343165 0.839168 0.299799
Si Si7 0.242099 0.776774 0.191149
O O1 0.633830 0.500000 0.836742
O O2 0.500000 0.500000 0.000000
O O3 0.296669 0.585604 0.969095
O O4 0.772895 0.683286 0.111877
O O5 0.250000 0.750000 0.000000
O O6 0.593034 0.698490 0.852479
O O7 0.913088 0.500000 0.649061
O O8 0.018392 0.420589 0.722766
O O9 0.298494 0.572272 0.514514
O O10 0.000000 0.500000 0.500000
O O11 0.366858 0.665751 0.593994
O O12 0.289145 0.837471 0.237295
O O13 0.495313 0.759778 0.267801
#
# Coordination Sequence:
#
# PCOD9211406 Si02
#       7
#     4   8   4   4   4   8   8
#     4  12  24  38  64  94 121 169 212 262 331 393
#     4  11  23  42  62  92 125 164 216 269 324 396
#     4  10  21  40  63  91 127 159 219 270 317 407
#     4   9  19  38  65  95 131 176 214 274 345 389
#     4   9  20  38  60  94 134 167 218 280 322 397
#     4  10  21  40  62  90 125 167 211 265 330 391
#     4  10  22  39  63  85 127 171 201 264 336 384
#
# _framework density 20.242784
#
# number of rings (size 3 to 8) (size 9 to 14) (size 15 to 20)
#    0.000    1.800    2.000    2.400    2.800    3.200 
#    3.600    2.000    0.000    0.000    0.000    0.000 
#    0.000    0.000    0.000    0.000    0.000    0.000 
#
# Total GULP energy -111426.634903 kJ/mol
# GULP energy per Si atom -5571.331745 kJ/mol
# Density = 2.019671 g / cm^3
# Si number density = 20.242784 Si / 1000 Ang^3
#
#
#
# Elastic Constant Matrix: (Units=GPa)
#
#
# Indices 1 2 3 4 5 6 
#
# 1 123.5133 40.8069 41.1840 -0.0001 41.0712 0.0002
# 2 40.8069 115.3798 36.5038 -0.0012 24.6443 0.0008
# 3 41.1840 36.5038 118.2018 -0.0010 13.5556 0.0006
# 4 -0.0001 -0.0012 -0.0010 28.9565 0.0017 6.8845
# 5 41.0712 24.6443 13.5556 0.0017 45.7816 -0.0011
# 6 0.0002 0.0008 0.0006 6.8845 -0.0011 16.0771
#
#
#
# Elastic Compliance Matrix: (Units=1/GPa)
#
#
# Indices 1 2 3 4 5 6 
#
# 1 0.012829 -0.001528 -0.002870 0.000001 -0.009837 -0.000001
# 2 -0.001528 0.010748 -0.002361 0.000001 -0.003716 -0.000001
# 3 -0.002870 -0.002361 0.010091 0.000000 0.000858 0.000000
# 4 0.000001 0.000001 0.000000 0.038449 -0.000003 -0.016465
# 5 -0.009837 -0.003716 0.000858 -0.000003 0.032414 0.000004
# 6 -0.000001 -0.000001 0.000000 -0.016465 0.000004 0.069251
#
#
# Mechanical properties :
#
#
# Convention : Reuss Voigt Hill
#
# Bulk Modulus (GPa) = 49.62731 66.00936 57.81834
# Shear Modulus (GPa) = 25.77112 34.06971 29.92042
#
# Velocity S-wave (km/s) = 3.57193 4.10696 3.84875
# Velocity P-wave (km/s) = 6.44832 7.42759 6.95521
#
# Compressibility (1/GPa) = 0.02015019
#
# Stress axis : x y z
#
# Youngs Moduli (GPa) = 77.94792 93.04013 99.10096
#
# Poissons Ratio (x) = 0.14219 0.28440
# Poissons Ratio (y) = 0.11913 0.23394
# Poissons Ratio (z) = 0.22370 0.21964
#
# Static dielectric constant tensor:
#      x y z
#    x 1.772080 0.000000 -0.047400 
#    y 0.000000 1.709530 0.000000 
#    z -0.047400 0.000000 1.769500 
# 
# From -- ./inp_files/300602.got.cif
#   From: 2010.05.17/outbox.cif.g08.bks.cpg/sg12_151_cif.got.tgz:300602.got - 2010.06.03 13:09:07.
