data_PCOD9211171
_publ_section_title
;
Structure prediction by ZEFSAII (Michael W. Deem and Ramdas Pophale) SiO2 
 PCOD9211171
Probable space group: C 2/M
;
_chemical_formula_sum "Si O2"
_cell_formula_units_Z 48
_cell_length_a 17.957591
_cell_length_b 14.272965
_cell_length_c 8.969954
_cell_angle_alpha 90.000000
_cell_angle_beta 87.126738
_cell_angle_gamma 90.000000
_cell_volume 2296.181320
_symmetry_space_group_name_H-M "C 2/M"
_symmetry_group_IT_number 12
_symmetry_cell_setting 'monoclinic'
loop_
_space_group_symop_operation_xyz
x,y,z
-x,y,-z
-x,-y,-z
x,-y,z
1/2+x,1/2+y,z
1/2-x,1/2+y,-z
1/2-x,1/2-y,-z
1/2+x,1/2-y,z
loop_
_atom_site_type_symbol
_atom_site_label
_atom_site_fract_x
_atom_site_fract_y
_atom_site_fract_z
Si Si1 0.072503 0.895999 0.391749
Si Si2 0.938467 0.269156 0.823026
Si Si3 0.323979 0.248762 0.094447
Si Si4 0.189309 0.111009 0.626655
Si Si5 0.862893 0.391046 0.582306
Si Si6 0.416022 0.888759 0.249126
O O1 0.049959 0.828000 0.262347
O O2 0.137000 0.858224 0.494927
O O3 0.000000 0.903747 0.500000
O O4 0.095086 0.000000 0.337817
O O5 0.885483 0.329231 0.719532
O O6 0.012929 0.331905 0.819469
O O7 0.893785 0.243861 0.975671
O O8 0.322202 0.327723 0.223392
O O9 0.341778 0.151184 0.177517
O O10 0.250000 0.250000 0.000000
O O11 0.274797 0.119356 0.567148
O O12 0.173709 0.000000 0.656014
O O13 0.878224 0.500000 0.615800
O O14 0.907528 0.369142 0.426607
O O15 0.423972 0.000000 0.226587
#
# Coordination Sequence:
#
# PCOD9211171 Si02
#       6
#     8   8   8   8   8   8
#     4  10  22  40  64  93 123 165 220 273 324 380
#     4  12  23  40  67  96 133 169 213 269 325 394
#     4  12  26  41  61  94 132 176 215 259 322 388
#     4  10  22  42  65  92 130 172 218 272 328 387
#     4  10  21  39  67  97 126 167 219 274 328 386
#     4  11  26  45  68  98 132 172 218 269 327 388
#
# _framework density 20.904273
#
# number of rings (size 3 to 8) (size 9 to 14) (size 15 to 20)
#    0.000    1.167    1.667    4.500    2.333    6.000 
#    0.000    0.000    0.000    5.000    0.000    0.000 
#    0.000    0.000    0.000    0.000    0.000    0.000 
#
# Total GULP energy -134132.392167 kJ/mol
# GULP energy per Si atom -5588.849674 kJ/mol
# Density = 2.085669 g / cm^3
# Si number density = 20.904273 Si / 1000 Ang^3
#
#
#
# Elastic Constant Matrix: (Units=GPa)
#
#
# Indices 1 2 3 4 5 6 
#
# 1 73.9884 33.9011 18.2413 0.0000 4.4787 0.0000
# 2 33.9011 96.6761 38.4870 0.0000 -4.5094 0.0000
# 3 18.2413 38.4870 67.0963 0.0000 -20.1497 0.0000
# 4 0.0000 0.0000 0.0000 -8.2343 0.0000 -2.6559
# 5 4.4787 -4.5094 -20.1497 0.0000 45.5297 0.0000
# 6 0.0000 0.0000 0.0000 -2.6559 0.0000 25.2598
#
#
#
# Elastic Compliance Matrix: (Units=1/GPa)
#
#
# Indices 1 2 3 4 5 6 
#
# 1 0.016633 -0.004912 -0.002701 0.000000 -0.003318 0.000000
# 2 -0.004912 0.015086 -0.007755 0.000000 -0.001455 0.000000
# 3 -0.002701 -0.007755 0.022991 0.000000 0.009673 0.000000
# 4 0.000000 0.000000 0.000000 -0.117460 0.000000 -0.012350
# 5 -0.003318 -0.001455 0.009673 0.000000 0.026427 0.000000
# 6 0.000000 0.000000 0.000000 -0.012350 0.000000 0.038290
#
#
# Mechanical properties :
#
#
# Convention : Reuss Voigt Hill
#
# Bulk Modulus (GPa) = 41.71061 46.55772 44.13417
# Shear Modulus (GPa) = 122.86966 22.31979 72.59473
#
# Velocity S-wave (km/s) = 7.67495 3.27113 5.89937
# Velocity P-wave (km/s) = 9.92655 6.04875 8.21960
#
# Compressibility (1/GPa) = 0.02397472
#
# Stress axis : x y z
#
# Youngs Moduli (GPa) = 60.12105 66.28813 43.49520
#
# Poissons Ratio (x) = 0.32563 0.11747
# Poissons Ratio (y) = 0.29533 0.33729
# Poissons Ratio (z) = 0.16237 0.51404
#
# Static dielectric constant tensor:
#      x y z
#    x 1.765390 0.000000 0.031310 
#    y 0.000000 1.773950 0.000000 
#    z 0.031310 0.000000 1.746450 
# 
# From -- ./inp_files/73609.got.cif
#   From: 2010.05.17/outbox.cif.g08.bks.cpg/sg12_37_cif.got.tgz:73609.got - 2010.06.03 13:09:07.
