data_PCOD9211594
_publ_section_title
;
Structure prediction by ZEFSAII (Michael W. Deem and Ramdas Pophale) SiO2 
 PCOD9211594
Probable space group: C 2/M
;
_chemical_formula_sum "Si O2"
_cell_formula_units_Z 64
_cell_length_a 13.873571
_cell_length_b 15.095241
_cell_length_c 17.990729
_cell_angle_alpha 90.000000
_cell_angle_beta 134.757791
_cell_angle_gamma 90.000000
_cell_volume 2675.409403
_symmetry_space_group_name_H-M "C 2/M"
_symmetry_group_IT_number 12
_symmetry_cell_setting 'monoclinic'
loop_
_space_group_symop_operation_xyz
x,y,z
-x,y,-z
-x,-y,-z
x,-y,z
1/2+x,1/2+y,z
1/2-x,1/2+y,-z
1/2-x,1/2-y,-z
1/2+x,1/2-y,z
loop_
_atom_site_type_symbol
_atom_site_label
_atom_site_fract_x
_atom_site_fract_y
_atom_site_fract_z
Si Si1 0.303027 0.399667 0.224937
Si Si2 0.449231 0.765662 0.890610
Si Si3 0.560452 0.839993 0.703801
Si Si4 0.159187 0.398979 0.609617
Si Si5 0.852936 0.604403 0.088933
Si Si6 0.776059 0.599577 0.511072
Si Si7 0.556493 0.602560 0.860200
Si Si8 0.023732 0.178990 0.431935
O O1 0.243734 0.500000 0.189606
O O2 0.389644 0.388285 0.195571
O O3 0.409881 0.393220 0.350891
O O4 0.191469 0.321759 0.175900
O O5 0.555817 0.838728 0.917581
O O6 0.461137 0.681513 0.840177
O O7 0.500000 0.736618 0.000000
O O8 0.664047 0.857653 0.693021
O O9 0.623467 0.854077 0.817301
O O10 0.429144 0.902020 0.623032
O O11 0.497044 0.746985 0.646327
O O12 0.204825 0.500000 0.641558
O O13 0.228705 0.358940 0.574375
O O14 0.000000 0.403723 0.500000
O O15 0.889894 0.500000 0.108594
O O16 0.695896 0.611188 0.982384
O O17 0.726277 0.500000 0.475494
O O18 0.675880 0.646446 0.511702
O O19 0.507321 0.500000 0.842084
O O20 0.000000 0.218355 0.500000
#
# Coordination Sequence:
#
# PCOD9211594 Si02
#       8
#     8   8   8   8   8   8   8   8
#     4  11  26  50  76 104 146 200 254 308 372 445
#     4  12  25  43  80 109 147 192 250 303 369 444
#     4  11  22  39  66  99 141 183 232 298 365 434
#     4   8  15  33  60  87 120 167 221 277 343 415
#     4  11  23  41  72 112 149 190 246 306 367 442
#     4  10  21  40  64  90 129 181 237 296 361 431
#     4  10  24  49  76 110 155 196 239 303 377 448
#     4  12  27  44  66  99 142 189 246 307 367 433
#
# _framework density 23.921574
#
# number of rings (size 3 to 8) (size 9 to 14) (size 15 to 20)
#    0.000    1.375    1.250    5.250    3.500    1.750 
#    4.500    0.000    0.000    0.000    0.000    0.000 
#    0.000    0.000    0.000    0.000    0.000    0.000 
#
# Total GULP energy -178884.809612 kJ/mol
# GULP energy per Si atom -5590.150300 kJ/mol
# Density = 2.386713 g / cm^3
# Si number density = 23.921574 Si / 1000 Ang^3
#
#
#
# Elastic Constant Matrix: (Units=GPa)
#
#
# Indices 1 2 3 4 5 6 
#
# 1 118.2168 55.3766 41.1188 0.0000 4.1206 0.0000
# 2 55.3766 147.1687 18.4866 0.0000 2.5011 0.0000
# 3 41.1188 18.4866 93.8320 0.0000 -12.4688 0.0000
# 4 0.0000 0.0000 0.0000 36.1334 0.0000 -9.0074
# 5 4.1206 2.5011 -12.4688 0.0000 36.0319 0.0000
# 6 0.0000 0.0000 0.0000 -9.0074 0.0000 33.2477
#
#
#
# Elastic Compliance Matrix: (Units=1/GPa)
#
#
# Indices 1 2 3 4 5 6 
#
# 1 0.012081 -0.003882 -0.004902 0.000000 -0.002809 0.000000
# 2 -0.003882 0.008250 0.000062 0.000000 -0.000107 0.000000
# 3 -0.004902 0.000062 0.013488 0.000000 0.005224 0.000000
# 4 0.000000 0.000000 0.000000 0.029680 0.000000 0.008041
# 5 -0.002809 -0.000107 0.005224 0.000000 0.029890 0.000000
# 6 0.000000 0.000000 0.000000 0.008041 0.000000 0.032256
#
#
# Mechanical properties :
#
#
# Convention : Reuss Voigt Hill
#
# Bulk Modulus (GPa) = 61.07858 65.46461 63.27160
# Shear Modulus (GPa) = 33.65964 37.36498 35.51231
#
# Velocity S-wave (km/s) = 3.75518 3.95647 3.85714
# Velocity P-wave (km/s) = 6.66259 6.94963 6.80762
#
# Compressibility (1/GPa) = 0.01637235
#
# Stress axis : x y z
#
# Youngs Moduli (GPa) = 82.77735 121.21527 74.14206
#
# Poissons Ratio (x) = 0.47058 0.36346
# Poissons Ratio (y) = 0.32135 -0.00457
# Poissons Ratio (z) = 0.40580 -0.00747
#
# Static dielectric constant tensor:
#      x y z
#    x 1.911830 0.000000 0.008390 
#    y 0.000000 1.988890 0.000000 
#    z 0.008390 0.000000 1.906630 
# 
# From -- ./inp_files/270727.got.cif
#   From: 2010.05.17/outbox.cif.g08.bks.cpg/sg12_136_cif.got.tgz:270727.got - 2010.06.03 13:09:07.
