data_PCOD9211257
_publ_section_title
;
Structure prediction by ZEFSAII (Michael W. Deem and Ramdas Pophale) SiO2 
 PCOD9211257
Probable space group: C 2/M
;
_chemical_formula_sum "Si O2"
_cell_formula_units_Z 48
_cell_length_a 18.452668
_cell_length_b 22.065739
_cell_length_c 16.703496
_cell_angle_alpha 90.000000
_cell_angle_beta 161.976566
_cell_angle_gamma 90.000000
_cell_volume 2104.329216
_symmetry_space_group_name_H-M "C 2/M"
_symmetry_group_IT_number 12
_symmetry_cell_setting 'monoclinic'
loop_
_space_group_symop_operation_xyz
x,y,z
-x,y,-z
-x,-y,-z
x,-y,z
1/2+x,1/2+y,z
1/2-x,1/2+y,-z
1/2-x,1/2-y,-z
1/2+x,1/2-y,z
loop_
_atom_site_type_symbol
_atom_site_label
_atom_site_fract_x
_atom_site_fract_y
_atom_site_fract_z
Si Si1 0.818169 0.000000 0.609909
Si Si2 0.491429 0.621600 0.748925
Si Si3 0.867080 0.500000 0.249696
Si Si4 0.500000 0.275384 0.000000
Si Si5 0.671611 0.613325 0.114644
Si Si6 0.660652 0.069949 0.011020
Si Si7 0.000000 0.891508 0.500000
Si Si8 0.306177 0.173742 0.691729
O O1 0.819129 0.063288 0.564545
O O2 0.601258 0.000000 0.442620
O O3 0.091543 0.000000 0.929484
O O4 0.541667 0.631699 0.894930
O O5 0.724359 0.598145 0.948358
O O6 0.370748 0.674237 0.569978
O O7 0.862764 0.564703 0.289575
O O8 0.290262 0.322203 0.802063
O O9 0.566646 0.234178 0.145585
O O10 0.500000 0.581922 0.000000
O O11 0.862551 0.069310 0.290767
O O12 0.587300 0.000000 0.922116
O O13 0.487531 0.120366 0.863243
O O14 0.835747 0.848678 0.380148
#
# Coordination Sequence:
#
# PCOD9211257 Si02
#       8
#     4   8   4   4   8   8   4   8
#     4  10  22  40  73 104 154 165 229 284 372 417
#     4  10  23  39  65 106 128 180 218 290 347 421
#     4  10  21  44  74 110 133 179 222 302 353 429
#     4  10  22  47  67  90 134 186 230 286 336 410
#     4   9  22  44  74  94 139 169 233 284 355 413
#     4  11  22  37  65  95 136 174 223 282 346 410
#     4  10  21  40  58  96 130 177 230 270 350 397
#     4  11  23  39  67  90 140 177 226 285 333 419
#
# _framework density 22.810120000000001
#
# number of rings (size 3 to 8) (size 9 to 14) (size 15 to 20)
#    0.500    1.333    2.500    0.500    5.833    2.667 
#    0.000   10.833    0.000    0.000    0.000    0.000 
#    0.000    0.000    0.000    0.000    0.000    0.000 
#
# Total GULP energy -133781.707994 kJ/mol
# GULP energy per Si atom -5574.237833 kJ/mol
# Density = 2.275820 g / cm^3
# Si number density = 22.810120 Si / 1000 Ang^3
#
#
#
# Elastic Constant Matrix: (Units=GPa)
#
#
# Indices 1 2 3 4 5 6 
#
# 1 136.5951 17.3424 38.4866 0.0004 15.5698 0.0001
# 2 17.3424 120.5859 30.9706 0.0009 10.9997 0.0001
# 3 38.4866 30.9706 64.4744 0.0022 14.8927 -0.0003
# 4 0.0004 0.0009 0.0022 64.4571 0.0001 -31.8720
# 5 15.5698 10.9997 14.8927 0.0001 63.7119 0.0002
# 6 0.0001 0.0001 -0.0003 -31.8720 0.0002 34.4154
#
#
#
# Elastic Compliance Matrix: (Units=1/GPa)
#
#
# Indices 1 2 3 4 5 6 
#
# 1 0.008861 0.000132 -0.005124 0.000000 -0.000990 0.000000
# 2 0.000132 0.009484 -0.004491 0.000000 -0.000620 0.000000
# 3 -0.005124 -0.004491 0.021414 -0.000001 -0.002978 -0.000001
# 4 0.000000 0.000000 -0.000001 0.028620 0.000000 0.026505
# 5 -0.000990 -0.000620 -0.002978 0.000000 0.016741 0.000000
# 6 0.000000 0.000000 -0.000001 0.026505 0.000000 0.053603
#
#
# Mechanical properties :
#
#
# Convention : Reuss Voigt Hill
#
# Bulk Modulus (GPa) = 48.09480 55.02830 51.56155
# Shear Modulus (GPa) = 30.37310 48.17393 39.27351
#
# Velocity S-wave (km/s) = 3.65302 4.60059 4.15391
# Velocity P-wave (km/s) = 6.23886 7.23861 6.75725
#
# Compressibility (1/GPa) = 0.02079227
#
# Stress axis : x y z
#
# Youngs Moduli (GPa) = 112.85762 105.44171 46.69870
#
# Poissons Ratio (x) = -0.01392 0.23928
# Poissons Ratio (y) = -0.01490 0.20974
# Poissons Ratio (z) = 0.57826 0.47357
#
# Static dielectric constant tensor:
#      x y z
#    x 1.867530 0.000000 -0.054940 
#    y 0.000000 1.854590 0.000000 
#    z -0.054940 0.000000 1.968930 
# 
# From -- ./inp_files/279467.got.cif
#   From: 2010.05.17/outbox.cif.g08.bks.cpg/sg12_140_cif.got.tgz:279467.got - 2010.06.03 13:09:07.
