data_PCOD9211981
_publ_section_title
;
Structure prediction by ZEFSAII (Michael W. Deem and Ramdas Pophale) SiO2 
 PCOD9211981
Probable space group: C 2/M
;
_chemical_formula_sum "Si O2"
_cell_formula_units_Z 32
_cell_length_a 13.142796
_cell_length_b 16.279075
_cell_length_c 7.385648
_cell_angle_alpha 90.000000
_cell_angle_beta 125.255527
_cell_angle_gamma 90.000000
_cell_volume 1290.351292
_symmetry_space_group_name_H-M "C 2/M"
_symmetry_group_IT_number 12
_symmetry_cell_setting 'monoclinic'
loop_
_space_group_symop_operation_xyz
x,y,z
-x,y,-z
-x,-y,-z
x,-y,z
1/2+x,1/2+y,z
1/2-x,1/2+y,-z
1/2-x,1/2-y,-z
1/2+x,1/2-y,z
loop_
_atom_site_type_symbol
_atom_site_label
_atom_site_fract_x
_atom_site_fract_y
_atom_site_fract_z
Si Si1 0.042481 0.249069 0.778206
Si Si2 0.258570 0.280051 0.718742
Si Si3 0.908257 0.411356 0.736876
Si Si4 0.638574 0.593233 0.387311
O O1 0.142735 0.255298 0.721331
O O2 0.960138 0.332092 0.685629
O O3 0.968028 0.162032 0.693314
O O4 0.122527 0.251701 0.046173
O O5 0.250000 0.250000 0.500000
O O6 0.292082 0.376434 0.726095
O O7 0.261529 0.095407 0.643511
O O8 0.916102 0.500000 0.647861
O O9 0.000000 0.416636 0.000000
O O10 0.591697 0.500000 0.334545
#
# Coordination Sequence:
#
# PCOD9211981 Si02
#       4
#     8   8   8   8
#     4  11  24  45  73 101 139 188 233 287 357 423
#     4  11  25  45  70 102 140 184 234 290 353 423
#     4  10  21  40  69 104 140 182 237 296 352 419
#     4  11  24  43  71 106 144 187 237 294 356 423
#
# _framework density 24.799448999999999
#
# number of rings (size 3 to 8) (size 9 to 14) (size 15 to 20)
#    0.000    1.250    0.000    6.000    0.000    7.000 
#    0.000   11.250    0.000    6.000    0.000    0.000 
#    0.000    0.000    0.000    0.000    0.000    0.000 
#
# Total GULP energy -89230.894204 kJ/mol
# GULP energy per Si atom -5576.930888 kJ/mol
# Density = 2.474300 g / cm^3
# Si number density = 24.799449 Si / 1000 Ang^3
#
#
#
# Elastic Constant Matrix: (Units=GPa)
#
#
# Indices 1 2 3 4 5 6 
#
# 1 209.2405 115.9253 52.8123 0.0000 19.3349 0.0000
# 2 115.9253 262.0980 63.2950 0.0000 17.4469 0.0000
# 3 52.8123 63.2950 139.4064 0.0000 1.5627 0.0000
# 4 0.0000 0.0000 0.0000 31.0413 0.0000 11.6763
# 5 19.3349 17.4469 1.5627 0.0000 35.9697 0.0000
# 6 0.0000 0.0000 0.0000 11.6763 0.0000 27.9230
#
#
#
# Elastic Compliance Matrix: (Units=1/GPa)
#
#
# Indices 1 2 3 4 5 6 
#
# 1 0.006722 -0.002480 -0.001394 0.000000 -0.002350 0.000000
# 2 -0.002480 0.005348 -0.001475 0.000000 -0.001197 0.000000
# 3 -0.001394 -0.001475 0.008359 0.000000 0.001102 0.000000
# 4 0.000000 0.000000 0.000000 0.038228 0.000000 -0.015985
# 5 -0.002350 -0.001197 0.001102 0.000000 0.029597 0.000000
# 6 0.000000 0.000000 0.000000 -0.015985 0.000000 0.042497
#
#
# Mechanical properties :
#
#
# Convention : Reuss Voigt Hill
#
# Bulk Modulus (GPa) = 102.77337 119.42332 111.09834
# Shear Modulus (GPa) = 34.55553 44.23429 39.39491
#
# Velocity S-wave (km/s) = 3.73688 4.22795 3.98997
# Velocity P-wave (km/s) = 7.75569 8.49083 8.13157
#
# Compressibility (1/GPa) = 0.00973015
#
# Stress axis : x y z
#
# Youngs Moduli (GPa) = 148.75850 186.97627 119.63220
#
# Poissons Ratio (x) = 0.46373 0.16680
# Poissons Ratio (y) = 0.36894 0.17649
# Poissons Ratio (z) = 0.20741 0.27585
#
# Static dielectric constant tensor:
#      x y z
#    x 2.072170 0.000000 0.102800 
#    y 0.000000 2.149700 0.000000 
#    z 0.102800 0.000000 2.138910 
# 
# From -- ./inp_files/127463.got.cif
#   From: 2010.05.17/outbox.cif.g08.bks.cpg/sg12_64_cif.got.tgz:127463.got - 2010.06.03 13:09:07.
