data_PCOD9211766
_publ_section_title
;
Structure prediction by ZEFSAII (Michael W. Deem and Ramdas Pophale) SiO2 
 PCOD9211766
Probable space group: C 2/M
;
_chemical_formula_sum "Si O2"
_cell_formula_units_Z 40
_cell_length_a 9.140257
_cell_length_b 19.595584
_cell_length_c 10.751308
_cell_angle_alpha 90.000000
_cell_angle_beta 93.322077
_cell_angle_gamma 90.000000
_cell_volume 1922.416578
_symmetry_space_group_name_H-M "C 2/M"
_symmetry_group_IT_number 12
_symmetry_cell_setting 'monoclinic'
loop_
_space_group_symop_operation_xyz
x,y,z
-x,y,-z
-x,-y,-z
x,-y,z
1/2+x,1/2+y,z
1/2-x,1/2+y,-z
1/2-x,1/2-y,-z
1/2+x,1/2-y,z
loop_
_atom_site_type_symbol
_atom_site_label
_atom_site_fract_x
_atom_site_fract_y
_atom_site_fract_z
Si Si1 0.673622 0.823731 0.489933
Si Si2 0.266819 0.314215 0.222372
Si Si3 0.781256 0.418268 0.273728
Si Si4 0.925195 0.424981 0.863000
Si Si5 0.075715 0.816261 0.139734
O O1 0.500000 0.816795 0.500000
O O2 0.750000 0.750000 0.500000
O O3 0.713014 0.843222 0.351602
O O4 0.728500 0.876573 0.597263
O O5 0.205899 0.372141 0.128878
O O6 0.189521 0.244456 0.175359
O O7 0.439699 0.306440 0.226586
O O8 0.766020 0.500000 0.287214
O O9 0.660464 0.385848 0.175772
O O10 0.942386 0.404664 0.223089
O O11 0.871951 0.500000 0.822376
O O12 0.000000 0.429399 0.000000
O O13 0.000000 0.812004 0.000000
#
# Coordination Sequence:
#
# PCOD9211766 Si02
#       5
#     8   8   8   8   8
#     4  12  24  43  69  94 132 173 217 273 330 384
#     4  12  23  40  67  95 129 171 226 266 329 391
#     4  11  25  44  66  98 135 176 222 272 329 395
#     4  10  21  40  65  95 132 171 214 267 327 393
#     4  12  25  42  67  98 134 174 219 279 333 391
#
# _framework density 20.807144000000001
#
# number of rings (size 3 to 8) (size 9 to 14) (size 15 to 20)
#    0.000    0.600    4.000    4.800    0.000    2.400 
#    0.000    1.000    0.000    0.000    0.000    0.000 
#    0.000    0.000    0.000    0.000    0.000    0.000 
#
# Total GULP energy -111744.850514 kJ/mol
# GULP energy per Si atom -5587.242526 kJ/mol
# Density = 2.075979 g / cm^3
# Si number density = 20.807144 Si / 1000 Ang^3
#
#
#
# Elastic Constant Matrix: (Units=GPa)
#
#
# Indices 1 2 3 4 5 6 
#
# 1 94.2318 44.9355 -3.7725 0.0000 -4.2281 0.0000
# 2 44.9355 110.9946 17.4117 0.0000 7.4105 0.0000
# 3 -3.7725 17.4117 91.7864 0.0000 -2.9150 0.0000
# 4 0.0000 0.0000 0.0000 30.4310 0.0000 9.9393
# 5 -4.2281 7.4105 -2.9150 0.0000 28.2268 0.0000
# 6 0.0000 0.0000 0.0000 9.9393 0.0000 23.8623
#
#
#
# Elastic Compliance Matrix: (Units=1/GPa)
#
#
# Indices 1 2 3 4 5 6 
#
# 1 0.013782 -0.006128 0.001852 0.000000 0.003864 0.000000
# 2 -0.006128 0.012209 -0.002708 0.000000 -0.004403 0.000000
# 3 0.001852 -0.002708 0.011554 0.000000 0.002181 0.000000
# 4 0.000000 0.000000 0.000000 0.038036 0.000000 -0.015843
# 5 0.003864 -0.004403 0.002181 0.000000 0.037387 0.000000
# 6 0.000000 0.000000 0.000000 -0.015843 0.000000 0.048506
#
#
# Mechanical properties :
#
#
# Convention : Reuss Voigt Hill
#
# Bulk Modulus (GPa) = 42.41483 46.01803 44.21643
# Shear Modulus (GPa) = 27.27752 32.39989 29.83871
#
# Velocity S-wave (km/s) = 3.62466 3.95036 3.79101
# Velocity P-wave (km/s) = 6.16008 6.55527 6.36074
#
# Compressibility (1/GPa) = 0.02357666
#
# Stress axis : x y z
#
# Youngs Moduli (GPa) = 72.55924 81.90658 86.55088
#
# Poissons Ratio (x) = 0.50192 -0.16026
# Poissons Ratio (y) = 0.44464 0.23436
# Poissons Ratio (z) = -0.13435 0.22178
#
# Static dielectric constant tensor:
#      x y z
#    x 1.755220 0.000000 0.234280 
#    y 0.000000 1.777380 0.000000 
#    z 0.234280 0.000000 3.232710 
# 
# From -- ./inp_files/118950.got.cif
#   From: 2010.05.17/outbox.cif.g08.bks.cpg/sg12_60_cif.got.tgz:118950.got - 2010.06.03 13:09:07.
