data_PCOD9211914
_publ_section_title
;
Structure prediction by ZEFSAII (Michael W. Deem and Ramdas Pophale) SiO2 
 PCOD9211914
Probable space group: C 2/M
;
_chemical_formula_sum "Si O2"
_cell_formula_units_Z 52
_cell_length_a 29.791004
_cell_length_b 19.752554
_cell_length_c 8.740135
_cell_angle_alpha 90.000000
_cell_angle_beta 151.226026
_cell_angle_gamma 90.000000
_cell_volume 2475.668787
_symmetry_space_group_name_H-M "C 2/M"
_symmetry_group_IT_number 12
_symmetry_cell_setting 'monoclinic'
loop_
_space_group_symop_operation_xyz
x,y,z
-x,y,-z
-x,-y,-z
x,-y,z
1/2+x,1/2+y,z
1/2-x,1/2+y,-z
1/2-x,1/2-y,-z
1/2+x,1/2-y,z
loop_
_atom_site_type_symbol
_atom_site_label
_atom_site_fract_x
_atom_site_fract_y
_atom_site_fract_z
Si Si1 0.587063 0.887232 0.160180
Si Si2 0.610469 0.500000 0.867349
Si Si3 0.307942 0.000000 0.345584
Si Si4 0.321998 0.641235 0.805030
Si Si5 0.396191 0.000000 0.274043
Si Si6 0.223548 0.256026 0.097324
Si Si7 0.592132 0.724306 0.191567
Si Si8 0.651197 0.126333 0.049525
O O1 0.593290 0.805908 0.193598
O O2 0.570659 0.894573 0.929723
O O3 0.666136 0.934850 0.471455
O O4 0.500000 0.909023 0.000000
O O5 0.500000 0.500000 0.500000
O O6 0.694557 0.500000 0.989735
O O7 0.632953 0.568997 0.026438
O O8 0.371493 0.000000 0.382429
O O9 0.294037 0.684422 0.871886
O O10 0.393934 0.690227 0.930087
O O11 0.233967 0.634551 0.424388
O O12 0.500000 0.000000 0.500000
O O13 0.342291 0.065074 0.046245
O O14 0.316008 0.291807 0.439106
O O15 0.144076 0.306676 0.924356
O O16 0.250000 0.250000 0.000000
O O17 0.500000 0.700689 0.000000
#
# Coordination Sequence:
#
# PCOD9211914 Si02
#       8
#     8   4   4   8   4   8   8   8
#     4  11  20  38  71  99 128 179 219 260 337 423
#     4  12  27  44  72  93 131 178 238 283 343 380
#     4  12  24  43  67  98 145 177 217 286 335 394
#     4  11  22  48  67  94 127 180 226 277 331 400
#     4  12  28  43  61 108 144 172 222 277 338 405
#     4  11  23  40  67  99 133 170 216 277 341 390
#     4  10  21  40  67  97 130 166 223 268 329 409
#     4  11  21  42  68  91 135 184 212 263 331 411
#
# _framework density 21.004425999999999
#
# number of rings (size 3 to 8) (size 9 to 14) (size 15 to 20)
#    0.000    0.923    4.615    3.000    4.308    1.231 
#    2.769    1.154    0.000    0.000    0.000    0.000 
#    0.000    0.000    0.000    0.000    0.000    0.000 
#
# Total GULP energy -144746.902481 kJ/mol
# GULP energy per Si atom -5567.188557 kJ/mol
# Density = 2.095662 g / cm^3
# Si number density = 21.004426 Si / 1000 Ang^3
#
#
#
# Elastic Constant Matrix: (Units=GPa)
#
#
# Indices 1 2 3 4 5 6 
#
# 1 191.8238 68.3549 39.6903 0.0000 -17.3786 0.0000
# 2 68.3549 136.2262 26.9243 0.0000 -15.9925 0.0000
# 3 39.6903 26.9243 41.7204 0.0000 9.7527 0.0000
# 4 0.0000 0.0000 0.0000 18.1805 0.0000 -1.2727
# 5 -17.3786 -15.9925 9.7527 0.0000 38.3439 0.0000
# 6 0.0000 0.0000 0.0000 -1.2727 0.0000 29.1871
#
#
#
# Elastic Compliance Matrix: (Units=1/GPa)
#
#
# Indices 1 2 3 4 5 6 
#
# 1 0.007825 -0.001956 -0.007251 0.000000 0.004575 0.000000
# 2 -0.001956 0.010006 -0.005704 0.000000 0.004737 0.000000
# 3 -0.007251 -0.005704 0.038141 0.000000 -0.015366 0.000000
# 4 0.000000 0.000000 0.000000 0.055172 0.000000 0.002406
# 5 0.004575 0.004737 -0.015366 0.000000 0.034038 0.000000
# 6 0.000000 0.000000 0.000000 0.002406 0.000000 0.034367
#
#
# Mechanical properties :
#
#
# Convention : Reuss Voigt Hill
#
# Bulk Modulus (GPa) = 38.24237 71.07882 54.66059
# Shear Modulus (GPa) = 22.92669 32.79570 27.86120
#
# Velocity S-wave (km/s) = 3.30740 3.95571 3.64599
# Velocity P-wave (km/s) = 5.72988 7.40114 6.61847
#
# Compressibility (1/GPa) = 0.02614901
#
# Stress axis : x y z
#
# Youngs Moduli (GPa) = 127.79505 99.94296 26.21880
#
# Poissons Ratio (x) = 0.19550 0.19012
# Poissons Ratio (y) = 0.24998 0.14954
# Poissons Ratio (z) = 0.92669 0.57004
#
# Static dielectric constant tensor:
#      x y z
#    x 1.931360 0.000000 0.112460 
#    y 0.000000 1.773510 0.000000 
#    z 0.112460 0.000000 1.879260 
# 
# From -- ./inp_files/113324.got.cif
#   From: 2010.05.17/outbox.cif.g08.bks.cpg/sg12_57_cif.got.tgz:113324.got - 2010.06.03 13:09:07.
