data_PCOD9211195
_publ_section_title
;
Structure prediction by ZEFSAII (Michael W. Deem and Ramdas Pophale) SiO2 
 PCOD9211195
Probable space group: C 2/M
;
_chemical_formula_sum "Si O2"
_cell_formula_units_Z 56
_cell_length_a 29.046932
_cell_length_b 15.713494
_cell_length_c 8.421283
_cell_angle_alpha 90.000000
_cell_angle_beta 48.002472
_cell_angle_gamma 90.000000
_cell_volume 2856.548637
_symmetry_space_group_name_H-M "C 2/M"
_symmetry_group_IT_number 12
_symmetry_cell_setting 'monoclinic'
loop_
_space_group_symop_operation_xyz
x,y,z
-x,y,-z
-x,-y,-z
x,-y,z
1/2+x,1/2+y,z
1/2-x,1/2+y,-z
1/2-x,1/2-y,-z
1/2+x,1/2-y,z
loop_
_atom_site_type_symbol
_atom_site_label
_atom_site_fract_x
_atom_site_fract_y
_atom_site_fract_z
Si Si1 0.276183 0.845458 0.472616
Si Si2 0.661662 0.591972 0.924084
Si Si3 0.509825 0.177899 0.288236
Si Si4 0.611921 0.789219 0.591062
Si Si5 0.553309 0.666251 0.988998
Si Si6 0.860432 0.401793 0.988082
Si Si7 0.823092 0.244575 0.863362
O O1 0.250000 0.750000 0.500000
O O2 0.219038 0.897833 0.671891
O O3 0.329568 0.841796 0.482544
O O4 0.309619 0.882175 0.240442
O O5 0.664009 0.500000 0.998304
O O6 0.599892 0.602573 0.963495
O O7 0.664901 0.669911 0.039051
O O8 0.500000 0.175375 0.500000
O O9 0.446578 0.157597 0.339705
O O10 0.524888 0.272946 0.190996
O O11 0.570074 0.120921 0.112355
O O12 0.590336 0.731000 0.787584
O O13 0.637865 0.732365 0.386845
O O14 0.500000 0.628867 0.000000
O O15 0.857694 0.500000 0.945969
O O16 0.845913 0.333908 0.884167
O O17 0.750000 0.250000 0.000000
#
# Coordination Sequence:
#
# PCOD9211195 Si02
#       7
#     8   8   8   8   8   8   8
#     4  12  20  42  66  91 126 170 211 260 323 369
#     4  12  24  41  66  95 127 167 212 264 321 378
#     4  11  20  39  64  92 125 170 213 255 314 374
#     4  11  20  37  70  89 123 173 211 255 317 375
#     4  10  21  39  68  93 122 166 217 259 317 374
#     4  12  25  42  64  93 130 171 212 261 321 381
#     4  12  23  42  64  90 129 170 207 263 315 377
#
# _framework density 19.604078000000001
#
# number of rings (size 3 to 8) (size 9 to 14) (size 15 to 20)
#    0.000    0.571    8.571    0.429    0.000    1.143 
#    0.000    2.857    0.000    8.143    0.000    0.000 
#    0.000    0.000    0.000    0.000    0.000    0.000 
#
# Total GULP energy -156409.008699 kJ/mol
# GULP energy per Si atom -5586.036025 kJ/mol
# Density = 1.955946 g / cm^3
# Si number density = 19.604078 Si / 1000 Ang^3
#
#
#
# Elastic Constant Matrix: (Units=GPa)
#
#
# Indices 1 2 3 4 5 6 
#
# 1 110.3231 40.8971 -0.6366 0.0000 -25.2216 0.0000
# 2 40.8971 105.3703 8.7439 0.0000 -3.2085 0.0000
# 3 -0.6366 8.7439 75.0162 0.0000 1.6022 0.0000
# 4 0.0000 0.0000 0.0000 6.5559 0.0000 -6.5877
# 5 -25.2216 -3.2085 1.6022 0.0000 37.4387 0.0000
# 6 0.0000 0.0000 0.0000 -6.5877 0.0000 2.7745
#
#
#
# Elastic Compliance Matrix: (Units=1/GPa)
#
#
# Indices 1 2 3 4 5 6 
#
# 1 0.012667 -0.004709 0.000483 0.000000 0.008109 0.000000
# 2 -0.004709 0.011362 -0.001319 0.000000 -0.002142 0.000000
# 3 0.000483 -0.001319 0.013496 0.000000 -0.000365 0.000000
# 4 0.000000 0.000000 0.000000 -0.110059 0.000000 -0.261324
# 5 0.008109 -0.002142 -0.000365 0.000000 0.032005 0.000000
# 6 0.000000 0.000000 0.000000 -0.261324 0.000000 -0.260059
#
#
# Mechanical properties :
#
#
# Convention : Reuss Voigt Hill
#
# Bulk Modulus (GPa) = 37.82798 43.19095 40.50946
# Shear Modulus (GPa) = -17.81348 25.46750 3.82701
#
# Velocity S-wave (km/s) = -3.01767 3.60820 1.39871
# Velocity P-wave (km/s) = 2.68255 6.27999 4.82879
#
# Compressibility (1/GPa) = 0.02643546
#
# Stress axis : x y z
#
# Youngs Moduli (GPa) = 78.94689 88.00955 74.09578
#
# Poissons Ratio (x) = 0.41448 -0.03581
# Poissons Ratio (y) = 0.37180 0.09770
# Poissons Ratio (z) = -0.03815 0.11605
#
# Static dielectric constant tensor:
#      x y z
#    x 1.713390 0.000000 -0.012280 
#    y 0.000000 1.665310 0.000000 
#    z -0.012280 0.000000 1.703290 
# 
# From -- ./inp_files/111552.got.cif
#   From: 2010.05.17/outbox.cif.g08.bks.cpg/sg12_56_cif.got.tgz:111552.got - 2010.06.03 13:09:07.
