data_PCOD9211664
_publ_section_title
;
Structure prediction by ZEFSAII (Michael W. Deem and Ramdas Pophale) SiO2 
 PCOD9211664
Probable space group: C 2/M
;
_chemical_formula_sum "Si O2"
_cell_formula_units_Z 56
_cell_length_a 5.485406
_cell_length_b 33.166988
_cell_length_c 12.874385
_cell_angle_alpha 90.000000
_cell_angle_beta 82.662011
_cell_angle_gamma 90.000000
_cell_volume 2323.110007
_symmetry_space_group_name_H-M "C 2/M"
_symmetry_group_IT_number 12
_symmetry_cell_setting 'monoclinic'
loop_
_space_group_symop_operation_xyz
x,y,z
-x,y,-z
-x,-y,-z
x,-y,z
1/2+x,1/2+y,z
1/2-x,1/2+y,-z
1/2-x,1/2-y,-z
1/2+x,1/2-y,z
loop_
_atom_site_type_symbol
_atom_site_label
_atom_site_fract_x
_atom_site_fract_y
_atom_site_fract_z
Si Si1 0.273856 0.952216 0.934972
Si Si2 0.707708 0.456557 0.399163
Si Si3 0.751296 0.734646 0.380810
Si Si4 0.551928 0.413510 0.751371
Si Si5 0.727596 0.736024 0.118697
Si Si6 0.943476 0.379181 0.608661
Si Si7 0.770962 0.661858 0.240182
O O1 0.242674 0.928322 0.827908
O O2 0.309559 0.000000 0.912814
O O3 0.500000 0.939896 0.000000
O O4 0.000000 0.947368 0.000000
O O5 0.500000 0.457400 0.500000
O O6 0.838283 0.500000 0.397093
O O7 0.599704 0.450573 0.288505
O O8 0.880614 0.418149 0.405525
O O9 0.750000 0.750000 0.500000
O O10 0.543226 0.763503 0.342791
O O11 0.663778 0.691234 0.339107
O O12 0.383921 0.375931 0.792724
O O13 0.674061 0.395624 0.639722
O O14 0.437789 0.736490 0.159554
O O15 0.820440 0.691776 0.143238
O O16 0.750000 0.750000 0.000000
O O17 0.999177 0.355995 0.711196
O O18 0.000000 0.355410 0.500000
#
# Coordination Sequence:
#
# PCOD9211664 Si02
#       7
#     8   8   8   8   8   8   8
#     4  10  24  48  75 103 139 185 244 306 358 424
#     4  10  21  40  64  98 141 191 244 291 349 429
#     4  10  23  40  63  94 127 176 233 279 335 410
#     4  11  25  44  67 102 143 190 239 295 372 438
#     4  10  23  47  73 101 134 176 235 297 364 434
#     4  11  25  41  63 100 146 191 235 288 361 435
#     4  11  26  41  68  98 139 180 228 296 359 434
#
# _framework density 24.105618
#
# number of rings (size 3 to 8) (size 9 to 14) (size 15 to 20)
#    0.000    1.571    1.429    1.286   10.000    2.571 
#    2.571    0.000    0.000    0.000    0.000    0.000 
#    0.000    0.000    0.000    0.000    0.000    0.000 
#
# Total GULP energy -155916.646528 kJ/mol
# GULP energy per Si atom -5568.451662 kJ/mol
# Density = 2.405075 g / cm^3
# Si number density = 24.105618 Si / 1000 Ang^3
#
#
#
# Elastic Constant Matrix: (Units=GPa)
#
#
# Indices 1 2 3 4 5 6 
#
# 1 109.2009 13.7962 20.1295 0.0000 22.3604 0.0000
# 2 13.7962 105.7744 30.8536 0.0000 15.9508 0.0000
# 3 20.1295 30.8536 137.1223 0.0000 39.4499 0.0000
# 4 0.0000 0.0000 0.0000 32.7126 0.0000 6.4894
# 5 22.3604 15.9508 39.4499 0.0000 48.9539 0.0000
# 6 0.0000 0.0000 0.0000 6.4894 0.0000 17.0699
#
#
#
# Elastic Compliance Matrix: (Units=1/GPa)
#
#
# Indices 1 2 3 4 5 6 
#
# 1 0.010146 -0.000640 -0.000094 0.000000 -0.004350 0.000000
# 2 -0.000640 0.010297 -0.001747 0.000000 -0.001655 0.000000
# 3 -0.000094 -0.001747 0.009794 0.000000 -0.007281 0.000000
# 4 0.000000 0.000000 0.000000 0.033063 0.000000 -0.012569
# 5 -0.004350 -0.001655 -0.007281 0.000000 0.028821 0.000000
# 6 0.000000 0.000000 0.000000 -0.012569 0.000000 0.063361
#
#
# Mechanical properties :
#
#
# Convention : Reuss Voigt Hill
#
# Bulk Modulus (GPa) = 39.56315 53.51735 46.54025
# Shear Modulus (GPa) = 29.60881 38.90183 34.25532
#
# Velocity S-wave (km/s) = 3.50851 4.02158 3.77377
# Velocity P-wave (km/s) = 5.73244 6.61918 6.19170
#
# Compressibility (1/GPa) = 0.02527605
#
# Stress axis : x y z
#
# Youngs Moduli (GPa) = 98.55731 97.11905 102.10103
#
# Poissons Ratio (x) = 0.06215 0.00959
# Poissons Ratio (y) = 0.06307 0.17834
# Poissons Ratio (z) = 0.00926 0.16964
#
# Static dielectric constant tensor:
#      x y z
#    x 2.065790 0.000000 -0.084600 
#    y 0.000000 1.962530 0.000000 
#    z -0.084600 0.000000 2.089540 
# 
# From -- ./inp_files/192597.got.cif
#   From: 2010.05.17/outbox.cif.g08.bks.cpg/sg12_97_cif.got.tgz:192597.got - 2010.06.03 13:09:07.
