data_PCOD9211566
_publ_section_title
;
Structure prediction by ZEFSAII (Michael W. Deem and Ramdas Pophale) SiO2 
 PCOD9211566
Probable space group: C 2/M
;
_chemical_formula_sum "Si O2"
_cell_formula_units_Z 64
_cell_length_a 31.039748
_cell_length_b 8.160728
_cell_length_c 23.729693
_cell_angle_alpha 90.000000
_cell_angle_beta 149.214623
_cell_angle_gamma 90.000000
_cell_volume 3076.518547
_symmetry_space_group_name_H-M "C 2/M"
_symmetry_group_IT_number 12
_symmetry_cell_setting 'monoclinic'
loop_
_space_group_symop_operation_xyz
x,y,z
-x,y,-z
-x,-y,-z
x,-y,z
1/2+x,1/2+y,z
1/2-x,1/2+y,-z
1/2-x,1/2-y,-z
1/2+x,1/2-y,z
loop_
_atom_site_type_symbol
_atom_site_label
_atom_site_fract_x
_atom_site_fract_y
_atom_site_fract_z
Si Si1 0.487639 0.199538 0.165923
Si Si2 0.842093 0.698123 0.453200
Si Si3 0.186243 0.688127 0.976911
Si Si4 0.756911 0.312624 0.758403
Si Si5 0.992491 0.299982 0.427209
Si Si6 0.841014 0.697752 0.580370
Si Si7 0.442251 0.695535 0.989154
Si Si8 0.309488 0.189441 0.205316
O O1 0.406690 0.258241 0.112346
O O2 0.576977 0.253344 0.292498
O O3 0.478473 0.257060 0.091011
O O4 0.484952 0.000000 0.162728
O O5 0.838799 0.500000 0.448765
O O6 0.765047 0.763384 0.329748
O O7 0.845589 0.754388 0.521009
O O8 0.926824 0.751705 0.516882
O O9 0.171201 0.500000 0.945797
O O10 0.250000 0.750000 0.000000
O O11 0.239402 0.708998 0.094064
O O12 0.732941 0.500000 0.741284
O O13 0.705080 0.202381 0.744178
O O14 0.853887 0.284953 0.881151
O O15 0.990499 0.500000 0.425984
O O16 0.903884 0.250326 0.300504
O O17 0.000000 0.243413 0.500000
O O18 0.844293 0.500000 0.584384
O O19 0.750000 0.750000 0.500000
O O20 0.427404 0.500000 0.972188
O O21 0.500000 0.735087 0.000000
O O22 0.300800 0.000000 0.178017
#
# Coordination Sequence:
#
# PCOD9211566 Si02
#       8
#     8   8   8   8   8   8   8   8
#     4  10  23  44  67  95 131 168 211 260 320 386
#     4  10  21  40  64  89 121 166 217 259 305 369
#     4  11  24  41  63  92 127 169 214 260 317 381
#     4  12  24  39  61  92 130 166 203 256 319 380
#     4   9  17  32  58  89 118 157 203 247 298 363
#     4  10  24  44  67  91 123 167 214 266 314 374
#     4  11  25  43  67  96 123 158 208 262 319 380
#     4  11  21  37  63  90 123 164 209 259 311 373
#
# _framework density 20.802734999999998
#
# number of rings (size 3 to 8) (size 9 to 14) (size 15 to 20)
#    0.000    1.500    2.500    2.250    3.500    2.500 
#    0.000    1.875    0.000    0.000    0.000    0.000 
#    0.000    0.000    0.000    0.000    0.000    0.000 
#
# Total GULP energy -178747.646993 kJ/mol
# GULP energy per Si atom -5585.863969 kJ/mol
# Density = 2.075539 g / cm^3
# Si number density = 20.802735 Si / 1000 Ang^3
#
#
#
# Elastic Constant Matrix: (Units=GPa)
#
#
# Indices 1 2 3 4 5 6 
#
# 1 147.2504 14.6207 70.4564 0.0000 -1.4630 0.0000
# 2 14.6207 23.0895 5.4508 0.0000 1.4674 0.0000
# 3 70.4564 5.4508 158.8948 0.0000 -4.1654 0.0000
# 4 0.0000 0.0000 0.0000 22.7114 0.0000 -3.6097
# 5 -1.4630 1.4674 -4.1654 0.0000 26.2156 0.0000
# 6 0.0000 0.0000 0.0000 -3.6097 0.0000 24.1425
#
#
#
# Elastic Compliance Matrix: (Units=1/GPa)
#
#
# Indices 1 2 3 4 5 6 
#
# 1 0.009133 -0.004878 -0.003878 0.000000 0.000167 0.000000
# 2 -0.004878 0.046459 0.000496 0.000000 -0.002794 0.000000
# 3 -0.003878 0.000496 0.008023 0.000000 0.001031 0.000000
# 4 0.000000 0.000000 0.000000 0.045102 0.000000 0.006744
# 5 0.000167 -0.002794 0.001031 0.000000 0.038475 0.000000
# 6 0.000000 0.000000 0.000000 0.006744 0.000000 0.042429
#
#
# Mechanical properties :
#
#
# Convention : Reuss Voigt Hill
#
# Bulk Modulus (GPa) = 21.23377 56.69895 38.96636
# Shear Modulus (GPa) = 22.53888 30.52769 26.53328
#
# Velocity S-wave (km/s) = 3.29516 3.83493 3.57525
# Velocity P-wave (km/s) = 4.97060 6.85008 5.98458
#
# Compressibility (1/GPa) = 0.04709479
#
# Stress axis : x y z
#
# Youngs Moduli (GPa) = 109.49747 21.52435 124.64220
#
# Poissons Ratio (x) = 0.10500 0.48334
# Poissons Ratio (y) = 0.53414 -0.06182
# Poissons Ratio (z) = 0.42461 -0.01068
#
# Static dielectric constant tensor:
#      x y z
#    x 1.754150 0.000000 0.009180 
#    y 0.000000 1.746160 0.000000 
#    z 0.009180 0.000000 1.733130 
# 
# From -- ./inp_files/353469.got.cif
#   From: 2010.05.17/outbox.cif.g08.bks.cpg/sg12_177_cif.got.tgz:353469.got - 2010.06.03 13:09:07.
