data_PCOD9211164
_publ_section_title
;
Structure prediction by ZEFSAII (Michael W. Deem and Ramdas Pophale) SiO2 
 PCOD9211164
Probable space group: C 2/M
;
_chemical_formula_sum "Si O2"
_cell_formula_units_Z 52
_cell_length_a 11.916604
_cell_length_b 19.430030
_cell_length_c 11.286325
_cell_angle_alpha 90.000000
_cell_angle_beta 61.466731
_cell_angle_gamma 90.000000
_cell_volume 2295.831558
_symmetry_space_group_name_H-M "C 2/M"
_symmetry_group_IT_number 12
_symmetry_cell_setting 'monoclinic'
loop_
_space_group_symop_operation_xyz
x,y,z
-x,y,-z
-x,-y,-z
x,-y,z
1/2+x,1/2+y,z
1/2-x,1/2+y,-z
1/2-x,1/2-y,-z
1/2+x,1/2-y,z
loop_
_atom_site_type_symbol
_atom_site_label
_atom_site_fract_x
_atom_site_fract_y
_atom_site_fract_z
Si Si1 0.094408 0.215692 0.555843
Si Si2 0.860381 0.392969 0.078838
Si Si3 0.208374 0.500000 0.569248
Si Si4 0.920943 0.147243 0.186776
Si Si5 0.611358 0.500000 0.735435
Si Si6 0.138080 0.656793 0.668093
Si Si7 0.210769 0.820904 0.963353
Si Si8 0.846579 0.000000 0.729288
O O1 0.089069 0.166485 0.671824
O O2 0.054581 0.291670 0.627979
O O3 0.230047 0.196609 0.428210
O O4 0.000000 0.196320 0.500000
O O5 0.882815 0.340463 0.178961
O O6 0.815014 0.370136 0.971229
O O7 0.739363 0.436294 0.183778
O O8 0.000000 0.426400 0.000000
O O9 0.263626 0.500000 0.409752
O O10 0.140813 0.574879 0.630562
O O11 0.330585 0.500000 0.596366
O O12 0.066278 0.162283 0.077305
O O13 0.894641 0.067243 0.183021
O O14 0.809874 0.182839 0.166264
O O15 0.484762 0.500000 0.716576
O O16 0.250000 0.750000 0.000000
#
# Coordination Sequence:
#
# PCOD9211164 Si02
#       8
#     8   8   4   8   4   8   8   4
#     4  11  23  41  67  96 134 171 224 284 340 403
#     4  11  23  42  65  94 129 176 221 269 328 409
#     4  10  21  39  67  94 133 173 220 284 341 404
#     4  11  25  42  69 103 134 181 225 286 348 403
#     4  12  21  41  66 102 136 169 225 287 350 399
#     4  10  23  42  64  98 130 170 225 278 337 402
#     4  11  25  42  64  96 137 176 223 277 335 407
#     4  10  22  39  67  95 131 169 218 276 337 403
#
# _framework density 22.649744999999999
#
# number of rings (size 3 to 8) (size 9 to 14) (size 15 to 20)
#    0.000    1.231    3.077    2.308    6.462    3.077 
#    0.000    0.385    0.000    1.846    0.000    0.000 
#    0.000    0.000    0.000    0.000    0.000    0.000 
#
# Total GULP energy -144903.521316 kJ/mol
# GULP energy per Si atom -5573.212358 kJ/mol
# Density = 2.259819 g / cm^3
# Si number density = 22.649745 Si / 1000 Ang^3
#
#
#
# Elastic Constant Matrix: (Units=GPa)
#
#
# Indices 1 2 3 4 5 6 
#
# 1 99.7406 17.9184 26.7520 0.0000 27.4419 0.0000
# 2 17.9184 117.3746 4.9084 0.0000 11.1812 0.0000
# 3 26.7520 4.9084 58.5333 0.0000 22.2389 0.0000
# 4 0.0000 0.0000 0.0000 98.6336 0.0000 -39.4027
# 5 27.4419 11.1812 22.2389 0.0000 33.5485 0.0000
# 6 0.0000 0.0000 0.0000 -39.4027 0.0000 36.3078
#
#
#
# Elastic Compliance Matrix: (Units=1/GPa)
#
#
# Indices 1 2 3 4 5 6 
#
# 1 0.013357 -0.001090 -0.002674 0.000000 -0.008791 0.000000
# 2 -0.001090 0.008899 0.000722 0.000000 -0.002553 0.000000
# 3 -0.002674 0.000722 0.023400 0.000000 -0.013565 0.000000
# 4 0.000000 0.000000 0.000000 0.017898 0.000000 0.019424
# 5 -0.008791 -0.002553 -0.013565 0.000000 0.046841 0.000000
# 6 0.000000 0.000000 0.000000 0.019424 0.000000 0.048621
#
#
# Mechanical properties :
#
#
# Convention : Reuss Voigt Hill
#
# Bulk Modulus (GPa) = 25.27004 41.64513 33.45759
# Shear Modulus (GPa) = 28.04406 48.76930 38.40668
#
# Velocity S-wave (km/s) = 3.52257 4.64529 4.12233
# Velocity P-wave (km/s) = 5.26553 6.87009 6.12061
#
# Compressibility (1/GPa) = 0.03957255
#
# Stress axis : x y z
#
# Youngs Moduli (GPa) = 74.86434 112.37060 42.73595
#
# Poissons Ratio (x) = 0.12248 0.11426
# Poissons Ratio (y) = 0.08160 -0.03085
# Poissons Ratio (z) = 0.20016 -0.08111
#
# Static dielectric constant tensor:
#      x y z
#    x 2.071530 0.000000 0.277480 
#    y 0.000000 0.841910 0.000000 
#    z 0.277480 0.000000 2.228330 
# 
# From -- ./inp_files/133102.got.cif
#   From: 2010.05.17/outbox.cif.g08.bks.cpg/sg12_67_cif.got.tgz:133102.got - 2010.06.03 13:09:07.
