data_PCOD9211288
_publ_section_title
;
Structure prediction by ZEFSAII (Michael W. Deem and Ramdas Pophale) SiO2 
 PCOD9211288
Probable space group: C 2/M
;
_chemical_formula_sum "Si O2"
_cell_formula_units_Z 56
_cell_length_a 18.528606
_cell_length_b 16.330195
_cell_length_c 12.506178
_cell_angle_alpha 90.000000
_cell_angle_beta 45.350248
_cell_angle_gamma 90.000000
_cell_volume 2692.045498
_symmetry_space_group_name_H-M "C 2/M"
_symmetry_group_IT_number 12
_symmetry_cell_setting 'monoclinic'
loop_
_space_group_symop_operation_xyz
x,y,z
-x,y,-z
-x,-y,-z
x,-y,z
1/2+x,1/2+y,z
1/2-x,1/2+y,-z
1/2-x,1/2-y,-z
1/2+x,1/2-y,z
loop_
_atom_site_type_symbol
_atom_site_label
_atom_site_fract_x
_atom_site_fract_y
_atom_site_fract_z
Si Si1 0.404189 0.229011 0.861711
Si Si2 0.732215 0.099473 0.557690
Si Si3 0.409835 0.092479 0.677373
Si Si4 0.738242 0.830654 0.313973
Si Si5 0.919905 0.722387 0.171654
Si Si6 0.596538 0.406925 0.463078
Si Si7 0.290628 0.683555 0.803518
O O1 0.414576 0.153217 0.770854
O O2 0.510589 0.249318 0.802212
O O3 0.358860 0.301190 0.836531
O O4 0.321129 0.202890 0.036842
O O5 0.716302 0.137421 0.455952
O O6 0.653410 0.149310 0.714023
O O7 0.844011 0.119148 0.490847
O O8 0.719510 0.000000 0.570619
O O9 0.500000 0.111502 0.500000
O O10 0.303010 0.102442 0.726049
O O11 0.424136 0.000000 0.698757
O O12 0.853425 0.798861 0.199821
O O13 0.684579 0.750421 0.316047
O O14 0.000000 0.694091 0.000000
O O15 0.500000 0.367679 0.500000
O O16 0.566144 0.500000 0.517199
O O17 0.684462 0.400161 0.280871
#
# Coordination Sequence:
#
# PCOD9211288 Si02
#       7
#     8   8   8   8   8   8   8
#     4  10  22  37  61  90 118 160 208 248 311 361
#     4  11  24  40  61  92 127 163 207 257 314 372
#     4  10  22  41  64  91 125 165 212 261 310 369
#     4  11  22  39  63  94 124 162 204 262 312 369
#     4  12  23  40  63  95 127 166 206 259 315 376
#     4  10  22  38  56  82 118 160 202 247 302 367
#     4  10  21  40  60  86 119 157 203 257 298 364
#
# _framework density 20.802025
#
# number of rings (size 3 to 8) (size 9 to 14) (size 15 to 20)
#    0.000    1.429    2.857    1.714    2.000    4.857 
#    0.000    0.000    0.000    1.714    0.000    0.000 
#    0.000    0.000    0.000    0.000    0.000    0.000 
#
# Total GULP energy -155951.256176 kJ/mol
# GULP energy per Si atom -5569.687721 kJ/mol
# Density = 2.075468 g / cm^3
# Si number density = 20.802025 Si / 1000 Ang^3
#
#
#
# Elastic Constant Matrix: (Units=GPa)
#
#
# Indices 1 2 3 4 5 6 
#
# 1 158.5671 2.4259 11.6229 0.0000 -12.0433 0.0000
# 2 2.4259 37.4624 21.7693 0.0000 -2.9851 0.0000
# 3 11.6229 21.7693 55.7637 0.0000 7.8811 0.0000
# 4 0.0000 0.0000 0.0000 12.0559 0.0000 -1.2192
# 5 -12.0433 -2.9851 7.8811 0.0000 24.1644 0.0000
# 6 0.0000 0.0000 0.0000 -1.2192 0.0000 21.3249
#
#
#
# Elastic Compliance Matrix: (Units=1/GPa)
#
#
# Indices 1 2 3 4 5 6 
#
# 1 0.006811 0.001421 -0.002599 0.000000 0.004417 0.000000
# 2 0.001421 0.036833 -0.016163 0.000000 0.010530 0.000000
# 3 -0.002599 -0.016163 0.026470 0.000000 -0.011925 0.000000
# 4 0.000000 0.000000 0.000000 0.083429 0.000000 0.004770
# 5 0.004417 0.010530 -0.011925 0.000000 0.048775 0.000000
# 6 0.000000 0.000000 0.000000 0.004770 0.000000 0.047166
#
#
# Mechanical properties :
#
#
# Convention : Reuss Voigt Hill
#
# Bulk Modulus (GPa) = 28.22357 35.93661 32.08009
# Shear Modulus (GPa) = 16.89323 25.90738 21.40031
#
# Velocity S-wave (km/s) = 2.85282 3.53289 3.21091
# Velocity P-wave (km/s) = 4.94455 5.82707 5.40386
#
# Compressibility (1/GPa) = 0.03543138
#
# Stress axis : x y z
#
# Youngs Moduli (GPa) = 146.82715 27.14954 37.77895
#
# Poissons Ratio (x) = -0.03858 0.09817
# Poissons Ratio (y) = -0.20865 0.61064
# Poissons Ratio (z) = 0.38155 0.43883
#
# Static dielectric constant tensor:
#      x y z
#    x 1.821600 0.000000 -0.005750 
#    y 0.000000 1.783500 0.000000 
#    z -0.005750 0.000000 1.755110 
# 
# From -- ./inp_files/158217.got.cif
#   From: 2010.05.17/outbox.cif.g08.bks.cpg/sg12_80_cif.got.tgz:158217.got - 2010.06.03 13:09:07.
