data_PCOD9211741
_publ_section_title
;
Structure prediction by ZEFSAII (Michael W. Deem and Ramdas Pophale) SiO2 
 PCOD9211741
Probable space group: C 2/M
;
_chemical_formula_sum "Si O2"
_cell_formula_units_Z 64
_cell_length_a 18.851311
_cell_length_b 8.955148
_cell_length_c 32.753356
_cell_angle_alpha 90.000000
_cell_angle_beta 141.852396
_cell_angle_gamma 90.000000
_cell_volume 3415.390291
_symmetry_space_group_name_H-M "C 2/M"
_symmetry_group_IT_number 12
_symmetry_cell_setting 'monoclinic'
loop_
_space_group_symop_operation_xyz
x,y,z
-x,y,-z
-x,-y,-z
x,-y,z
1/2+x,1/2+y,z
1/2-x,1/2+y,-z
1/2-x,1/2-y,-z
1/2+x,1/2-y,z
loop_
_atom_site_type_symbol
_atom_site_label
_atom_site_fract_x
_atom_site_fract_y
_atom_site_fract_z
Si Si1 0.171393 0.820997 0.429816
Si Si2 0.003306 0.321789 0.128389
Si Si3 0.546074 0.320830 0.975590
Si Si4 0.421318 0.175692 0.312353
Si Si5 0.796972 0.178276 0.085354
Si Si6 0.593390 0.671497 0.776736
Si Si7 0.733905 0.175794 0.283591
Si Si8 0.317662 0.673423 0.657301
O O1 0.250000 0.750000 0.500000
O O2 0.215241 0.784943 0.403806
O O3 0.042232 0.758806 0.373827
O O4 0.168911 0.000000 0.432090
O O5 0.987758 0.500000 0.118012
O O6 0.110416 0.292364 0.206838
O O7 0.025109 0.251981 0.093679
O O8 0.889697 0.247923 0.096457
O O9 0.545903 0.500000 0.971785
O O10 0.500000 0.281923 0.000000
O O11 0.673946 0.256360 0.027423
O O12 0.377419 0.221516 0.247411
O O13 0.329678 0.231601 0.303401
O O14 0.439347 0.000000 0.322894
O O15 0.844076 0.202673 0.152586
O O16 0.787425 0.000000 0.074025
O O17 0.618478 0.500000 0.775850
O O18 0.456495 0.682241 0.721764
O O19 0.730299 0.223488 0.329015
O O20 0.756076 0.000000 0.289178
O O21 0.286470 0.500000 0.650529
#
# Coordination Sequence:
#
# PCOD9211741 Si02
#       8
#     8   8   8   8   8   8   8   8
#     4  10  21  40  65  93 126 162 202 243 288 346
#     4  11  24  41  62  87 116 155 200 246 300 362
#     4  11  26  44  60  83 116 153 198 251 304 362
#     4  11  23  37  59  88 123 162 199 243 295 347
#     4  11  22  39  64  87 115 153 195 245 301 361
#     4   9  19  36  58  86 117 152 193 241 296 352
#     4  11  23  38  59  89 123 156 197 249 299 351
#     4   9  18  36  60  88 121 155 193 237 288 347
#
# _framework density 18.738707000000002
#
# number of rings (size 3 to 8) (size 9 to 14) (size 15 to 20)
#    0.000    1.625    1.250    4.125    1.750    6.000 
#    0.000    0.625    0.000    3.750    0.000    0.000 
#    0.000    0.000    0.000    0.000    0.000    0.000 
#
# Total GULP energy -178844.955405 kJ/mol
# GULP energy per Si atom -5588.904856 kJ/mol
# Density = 1.869606 g / cm^3
# Si number density = 18.738707 Si / 1000 Ang^3
#
#
#
# Elastic Constant Matrix: (Units=GPa)
#
#
# Indices 1 2 3 4 5 6 
#
# 1 106.0265 63.9457 40.6375 0.0000 -18.1270 0.0001
# 2 63.9457 88.2691 46.4241 -0.0001 -17.4591 0.0002
# 3 40.6375 46.4241 79.4341 0.0000 -26.0383 0.0000
# 4 0.0000 -0.0001 0.0000 30.1213 0.0000 -6.7899
# 5 -18.1270 -17.4591 -26.0383 0.0000 24.6562 0.0000
# 6 0.0001 0.0002 0.0000 -6.7899 0.0000 32.0998
#
#
#
# Elastic Compliance Matrix: (Units=1/GPa)
#
#
# Indices 1 2 3 4 5 6 
#
# 1 0.017207 -0.011182 -0.001096 0.000000 0.003575 0.000000
# 2 -0.011182 0.023707 -0.008147 0.000000 -0.000038 0.000000
# 3 -0.001096 -0.008147 0.024098 0.000000 0.018874 0.000000
# 4 0.000000 0.000000 0.000000 0.034861 0.000000 0.007374
# 5 0.003575 -0.000038 0.018874 0.000000 0.063092 0.000000
# 6 0.000000 0.000000 0.000000 0.007374 0.000000 0.032713
#
#
# Mechanical properties :
#
#
# Convention : Reuss Voigt Hill
#
# Bulk Modulus (GPa) = 41.38648 63.97161 52.67904
# Shear Modulus (GPa) = 20.44315 25.55694 23.00005
#
# Velocity S-wave (km/s) = 3.30655 3.69705 3.50724
# Velocity P-wave (km/s) = 6.05902 7.24135 6.67641
#
# Compressibility (1/GPa) = 0.02416248
#
# Stress axis : x y z
#
# Youngs Moduli (GPa) = 58.11702 42.18179 41.49721
#
# Poissons Ratio (x) = 0.47167 0.04547
# Poissons Ratio (y) = 0.64985 0.33808
# Poissons Ratio (z) = 0.06368 0.34366
#
# Static dielectric constant tensor:
#      x y z
#    x 1.631050 0.000000 -0.016040 
#    y 0.000000 1.624910 0.000000 
#    z -0.016040 0.000000 1.646090 
# 
# From -- ./inp_files/378389.got.cif
#   From: 2010.05.17/outbox.cif.g08.bks.cpg/sg12_190_cif.got.tgz:378389.got - 2010.06.03 13:09:07.
