data_PCOD9211495
_publ_section_title
;
Structure prediction by ZEFSAII (Michael W. Deem and Ramdas Pophale) SiO2 
 PCOD9211495
Probable space group: C 2/M
;
_chemical_formula_sum "Si O2"
_cell_formula_units_Z 48
_cell_length_a 19.936481
_cell_length_b 9.147442
_cell_length_c 13.779265
_cell_angle_alpha 90.000000
_cell_angle_beta 90.579804
_cell_angle_gamma 90.000000
_cell_volume 2512.765630
_symmetry_space_group_name_H-M "C 2/M"
_symmetry_group_IT_number 12
_symmetry_cell_setting 'monoclinic'
loop_
_space_group_symop_operation_xyz
x,y,z
-x,y,-z
-x,-y,-z
x,-y,z
1/2+x,1/2+y,z
1/2-x,1/2+y,-z
1/2-x,1/2-y,-z
1/2+x,1/2-y,z
loop_
_atom_site_type_symbol
_atom_site_label
_atom_site_fract_x
_atom_site_fract_y
_atom_site_fract_z
Si Si1 0.907914 0.171537 0.087595
Si Si2 0.796887 0.824982 0.421861
Si Si3 0.951438 0.827026 0.407486
Si Si4 0.987221 0.673785 0.779293
Si Si5 0.864339 0.826859 0.865744
Si Si6 0.731430 0.673115 0.801837
O O1 0.840451 0.196153 0.148860
O O2 0.966323 0.270368 0.131632
O O3 0.927196 0.000000 0.098307
O O4 0.890415 0.198610 0.975502
O O5 0.750000 0.750000 0.500000
O O6 0.875286 0.784060 0.432040
O O7 0.774345 0.789448 0.311859
O O8 0.792616 0.000000 0.433263
O O9 0.000000 0.809415 0.500000
O O10 0.979103 0.736803 0.317386
O O11 0.950093 0.000000 0.380602
O O12 0.983490 0.500000 0.776908
O O13 0.914238 0.743778 0.794093
O O14 0.789752 0.765476 0.852242
O O15 0.865992 0.000000 0.847566
O O16 0.746643 0.500000 0.810841
#
# Coordination Sequence:
#
# PCOD9211495 Si02
#       6
#     8   8   8   8   8   8
#     4  10  21  42  66  88 121 164 208 254 306 362
#     4  10  22  40  63  91 124 159 198 249 304 361
#     4  10  22  43  68  91 119 161 206 250 303 364
#     4  12  25  40  62  92 127 163 202 255 308 363
#     4  11  24  39  62  92 123 164 210 253 300 365
#     4  10  21  40  63  89 126 162 198 254 312 360
#
# _framework density 19.102457000000001
#
# number of rings (size 3 to 8) (size 9 to 14) (size 15 to 20)
#    0.000    1.500    1.667    3.000    2.333    5.667 
#    0.000    0.000    0.000    0.000    0.000    0.000 
#    0.000    0.000    0.000    0.000    0.000    0.000 
#
# Total GULP energy -134218.900940 kJ/mol
# GULP energy per Si atom -5592.454206 kJ/mol
# Density = 1.905898 g / cm^3
# Si number density = 19.102457 Si / 1000 Ang^3
#
#
#
# Elastic Constant Matrix: (Units=GPa)
#
#
# Indices 1 2 3 4 5 6 
#
# 1 38.5433 31.9280 13.2055 0.0000 -1.2725 0.0000
# 2 31.9280 61.2817 36.1401 0.0000 1.9447 0.0000
# 3 13.2055 36.1401 66.5450 0.0000 -14.0019 0.0000
# 4 0.0000 0.0000 0.0000 26.0433 0.0000 6.3532
# 5 -1.2725 1.9447 -14.0019 0.0000 35.3705 0.0000
# 6 0.0000 0.0000 0.0000 6.3532 0.0000 23.7477
#
#
#
# Elastic Compliance Matrix: (Units=1/GPa)
#
#
# Indices 1 2 3 4 5 6 
#
# 1 0.048462 -0.030334 0.008263 0.000000 0.006682 0.000000
# 2 -0.030334 0.044733 -0.020750 0.000000 -0.011765 0.000000
# 3 0.008263 -0.020750 0.027227 0.000000 0.012216 0.000000
# 4 0.000000 0.000000 0.000000 0.041078 0.000000 -0.010990
# 5 0.006682 -0.011765 0.012216 0.000000 0.033995 0.000000
# 6 0.000000 0.000000 0.000000 -0.010990 0.000000 0.045049
#
#
# Mechanical properties :
#
#
# Convention : Reuss Voigt Hill
#
# Bulk Modulus (GPa) = 28.75167 36.54635 32.64901
# Shear Modulus (GPa) = 14.80253 22.70538 18.75396
#
# Velocity S-wave (km/s) = 2.78673 3.45136 3.13670
# Velocity P-wave (km/s) = 5.04365 5.92080 5.49974
#
# Compressibility (1/GPa) = 0.03478059
#
# Stress axis : x y z
#
# Youngs Moduli (GPa) = 20.63465 22.35505 36.72803
#
# Poissons Ratio (x) = 0.67812 -0.30350
# Poissons Ratio (y) = 0.62594 0.76210
# Poissons Ratio (z) = -0.17051 0.46386
#
# Static dielectric constant tensor:
#      x y z
#    x 1.645720 0.000000 0.001790 
#    y 0.000000 1.635350 0.000000 
#    z 0.001790 0.000000 1.647030 
# 
# From -- ./inp_files/221699.got.cif
#   From: 2010.05.17/outbox.cif.g08.bks.cpg/sg12_111_cif.got.tgz:221699.got - 2010.06.03 13:09:07.
