data_PCOD9211815
_publ_section_title
;
Structure prediction by ZEFSAII (Michael W. Deem and Ramdas Pophale) SiO2 
 PCOD9211815
Probable space group: C 2/M
;
_chemical_formula_sum "Si O2"
_cell_formula_units_Z 40
_cell_length_a 10.222573
_cell_length_b 14.331851
_cell_length_c 13.594195
_cell_angle_alpha 90.000000
_cell_angle_beta 72.099481
_cell_angle_gamma 90.000000
_cell_volume 1895.250453
_symmetry_space_group_name_H-M "C 2/M"
_symmetry_group_IT_number 12
_symmetry_cell_setting 'monoclinic'
loop_
_space_group_symop_operation_xyz
x,y,z
-x,y,-z
-x,-y,-z
x,-y,z
1/2+x,1/2+y,z
1/2-x,1/2+y,-z
1/2-x,1/2-y,-z
1/2+x,1/2-y,z
loop_
_atom_site_type_symbol
_atom_site_label
_atom_site_fract_x
_atom_site_fract_y
_atom_site_fract_z
Si Si1 0.493511 0.337980 0.248956
Si Si2 0.939155 0.000000 0.406021
Si Si3 0.137618 0.810225 0.912544
Si Si4 0.895303 0.703537 0.430857
Si Si5 0.228695 0.612701 0.934383
Si Si6 0.364240 0.000000 0.465480
O O1 0.489211 0.411970 0.335801
O O2 0.371803 0.344647 0.196657
O O3 0.468601 0.245442 0.317742
O O4 0.630986 0.359987 0.156216
O O5 0.000000 0.000000 0.500000
O O6 0.775109 0.000000 0.440641
O O7 0.134591 0.696765 0.913500
O O8 0.254029 0.855479 0.954900
O O9 0.000000 0.842106 0.000000
O O10 0.750000 0.750000 0.500000
O O11 0.862824 0.597086 0.410309
O O12 0.000000 0.708717 0.500000
O O13 0.201604 0.500000 0.932422
O O14 0.500000 0.000000 0.500000
#
# Coordination Sequence:
#
# PCOD9211815 Si02
#       6
#     8   4   8   8   8   4
#     4  11  23  38  64  93 122 166 210 270 313 371
#     4  12  24  38  63 101 125 166 235 271 304 373
#     4   9  22  40  61  92 126 157 202 258 329 385
#     4  11  24  42  63  90 130 171 215 268 314 374
#     4  10  21  40  66  93 121 158 209 264 314 388
#     4  10  24  42  60  87 127 172 213 263 328 372
#
# _framework density 21.105388999999999
#
# number of rings (size 3 to 8) (size 9 to 14) (size 15 to 20)
#    0.000    1.600    3.000    0.600    4.200    1.600 
#    1.800    0.000    8.800    0.000    0.000    0.000 
#    0.000    0.000    0.000    0.000    0.000    0.000 
#
# Total GULP energy -111337.597328 kJ/mol
# GULP energy per Si atom -5566.879866 kJ/mol
# Density = 2.105735 g / cm^3
# Si number density = 21.105389 Si / 1000 Ang^3
#
#
#
# Elastic Constant Matrix: (Units=GPa)
#
#
# Indices 1 2 3 4 5 6 
#
# 1 58.4096 -10.6469 21.2108 0.0000 0.3768 0.0000
# 2 -10.6469 131.0628 32.9765 0.0000 -3.1102 0.0000
# 3 21.2108 32.9765 117.7688 0.0000 24.4167 0.0000
# 4 0.0000 0.0000 0.0000 17.1073 0.0000 3.8079
# 5 0.3768 -3.1102 24.4167 0.0000 27.9650 0.0000
# 6 0.0000 0.0000 0.0000 3.8079 0.0000 22.2764
#
#
#
# Elastic Compliance Matrix: (Units=1/GPa)
#
#
# Indices 1 2 3 4 5 6 
#
# 1 0.019599 0.003058 -0.005375 0.000000 0.004769 0.000000
# 2 0.003058 0.008987 -0.003988 0.000000 0.004440 0.000000
# 3 -0.005375 -0.003988 0.013007 0.000000 -0.011728 0.000000
# 4 0.000000 0.000000 0.000000 0.060767 0.000000 -0.010387
# 5 0.004769 0.004440 -0.011728 0.000000 0.046428 0.000000
# 6 0.000000 0.000000 0.000000 -0.010387 0.000000 0.046666
#
#
# Mechanical properties :
#
#
# Convention : Reuss Voigt Hill
#
# Bulk Modulus (GPa) = 34.50231 43.81359 39.15795
# Shear Modulus (GPa) = 22.96471 31.04979 27.00725
#
# Velocity S-wave (km/s) = 3.30221 3.83976 3.58108
# Velocity P-wave (km/s) = 5.56081 6.36104 5.97434
#
# Compressibility (1/GPa) = 0.02898357
#
# Stress axis : x y z
#
# Youngs Moduli (GPa) = 51.02351 111.27164 76.87958
#
# Poissons Ratio (x) = -0.34022 0.41321
# Poissons Ratio (y) = -0.15601 0.30657
# Poissons Ratio (z) = 0.27424 0.44372
#
# Static dielectric constant tensor:
#      x y z
#    x 1.860820 0.000000 -0.007530 
#    y 0.000000 1.613510 0.000000 
#    z -0.007530 0.000000 1.754530 
# 
# From -- ./inp_files/129624.got.cif
#   From: 2010.05.17/outbox.cif.g08.bks.cpg/sg12_65_cif.got.tgz:129624.got - 2010.06.03 13:09:07.
