data_PCOD9211539
_publ_section_title
;
Structure prediction by ZEFSAII (Michael W. Deem and Ramdas Pophale) SiO2 
 PCOD9211539
Probable space group: C 2/M
;
_chemical_formula_sum "Si O2"
_cell_formula_units_Z 64
_cell_length_a 10.410287
_cell_length_b 14.689707
_cell_length_c 31.709234
_cell_angle_alpha 90.000000
_cell_angle_beta 44.796937
_cell_angle_gamma 90.000000
_cell_volume 3416.661314
_symmetry_space_group_name_H-M "C 2/M"
_symmetry_group_IT_number 12
_symmetry_cell_setting 'monoclinic'
loop_
_space_group_symop_operation_xyz
x,y,z
-x,y,-z
-x,-y,-z
x,-y,z
1/2+x,1/2+y,z
1/2-x,1/2+y,-z
1/2-x,1/2-y,-z
1/2+x,1/2-y,z
loop_
_atom_site_type_symbol
_atom_site_label
_atom_site_fract_x
_atom_site_fract_y
_atom_site_fract_z
Si Si1 0.039839 0.260410 0.261353
Si Si2 0.860068 0.108264 0.159389
Si Si3 0.413992 0.388903 0.976104
Si Si4 0.528168 0.892597 0.424127
Si Si5 0.513270 0.110908 0.045616
Si Si6 0.877211 0.764048 0.659390
Si Si7 0.867133 0.107762 0.825323
Si Si8 0.298648 0.607795 0.440116
O O1 0.179436 0.334412 0.210106
O O2 0.087577 0.243701 0.299014
O O3 0.068148 0.167499 0.228684
O O4 0.830608 0.288689 0.303047
O O5 0.964054 0.136975 0.092465
O O6 0.998387 0.121107 0.166304
O O7 0.821254 0.000000 0.165412
O O8 0.410660 0.500000 0.976844
O O9 0.500000 0.358888 0.000000
O O10 0.205516 0.358477 0.019556
O O11 0.578967 0.832363 0.372622
O O12 0.332228 0.868266 0.490094
O O13 0.676470 0.876884 0.426609
O O14 0.527891 0.000000 0.414879
O O15 0.335034 0.137246 0.113142
O O16 0.513279 0.000000 0.045441
O O17 0.500000 0.139016 0.000000
O O18 0.018826 0.835162 0.606383
O O19 0.864769 0.000000 0.816186
O O20 0.335325 0.500000 0.433916
#
# Coordination Sequence:
#
# PCOD9211539 Si02
#       8
#     8   8   8   8   8   8   8   8
#     4  12  26  40  59  89 123 161 211 248 282 354
#     4  10  21  41  63  83 119 162 196 247 309 358
#     4   9  17  31  56  88 116 144 187 247 313 367
#     4   9  19  38  66  95 123 158 200 242 296 361
#     4   9  15  29  58  87 106 142 198 246 298 364
#     4  12  23  40  61  89 126 163 199 247 296 344
#     4  10  21  40  64  85 115 159 204 250 298 358
#     4   9  19  38  65  96 124 155 199 249 296 347
#
# _framework density 18.731736000000001
#
# number of rings (size 3 to 8) (size 9 to 14) (size 15 to 20)
#    0.000    2.000    3.750    1.125    0.000    3.000 
#    0.000    2.500    0.000    1.500    0.000    0.000 
#    0.000    0.000    0.000    0.000    0.000    0.000 
#
# Total GULP energy -178763.032216 kJ/mol
# GULP energy per Si atom -5586.344757 kJ/mol
# Density = 1.868910 g / cm^3
# Si number density = 18.731736 Si / 1000 Ang^3
#
#
#
# Elastic Constant Matrix: (Units=GPa)
#
#
# Indices 1 2 3 4 5 6 
#
# 1 122.8353 39.3520 69.2698 0.0000 -15.0209 0.0000
# 2 39.3520 63.5446 52.5841 0.0000 -8.2956 -0.0001
# 3 69.2698 52.5841 123.0578 -0.0001 -19.8377 -0.0002
# 4 0.0000 0.0000 -0.0001 28.8937 -0.0001 3.5495
# 5 -15.0209 -8.2956 -19.8377 -0.0001 46.3104 -0.0001
# 6 0.0000 -0.0001 -0.0002 3.5495 -0.0001 25.9631
#
#
#
# Elastic Compliance Matrix: (Units=1/GPa)
#
#
# Indices 1 2 3 4 5 6 
#
# 1 0.012319 -0.002930 -0.005503 0.000000 0.001114 0.000000
# 2 -0.002930 0.025043 -0.009111 0.000000 -0.000367 0.000000
# 3 -0.005503 -0.009111 0.015647 0.000000 0.003286 0.000000
# 4 0.000000 0.000000 0.000000 0.035201 0.000000 -0.004812
# 5 0.001114 -0.000367 0.003286 0.000000 0.023296 0.000000
# 6 0.000000 0.000000 0.000000 -0.004812 0.000000 0.039174
#
#
# Mechanical properties :
#
#
# Convention : Reuss Voigt Hill
#
# Bulk Modulus (GPa) = 55.80030 70.20550 63.00290
# Shear Modulus (GPa) = 26.07673 30.11556 28.09614
#
# Velocity S-wave (km/s) = 3.73515 4.01400 3.87708
# Velocity P-wave (km/s) = 6.96101 7.68399 7.33142
#
# Compressibility (1/GPa) = 0.01792105
#
# Stress axis : x y z
#
# Youngs Moduli (GPa) = 81.17535 39.93115 63.91028
#
# Poissons Ratio (x) = 0.11699 0.35170
# Poissons Ratio (y) = 0.23782 0.58230
# Poissons Ratio (z) = 0.44671 0.36382
#
# Static dielectric constant tensor:
#      x y z
#    x 1.622040 0.000000 -0.008610 
#    y 0.000000 1.650620 0.000000 
#    z -0.008610 0.000000 1.631390 
# 
# From -- ./inp_files/372544.got.cif
#   From: 2010.05.17/outbox.cif.g08.bks.cpg/sg12_187_cif.got.tgz:372544.got - 2010.06.03 13:09:07.
