data_PCOD9211692
_publ_section_title
;
Structure prediction by ZEFSAII (Michael W. Deem and Ramdas Pophale) SiO2 
 PCOD9211692
Probable space group: C 2/M
;
_chemical_formula_sum "Si O2"
_cell_formula_units_Z 56
_cell_length_a 20.455640
_cell_length_b 8.782113
_cell_length_c 16.595338
_cell_angle_alpha 90.000000
_cell_angle_beta 92.147857
_cell_angle_gamma 90.000000
_cell_volume 2979.154106
_symmetry_space_group_name_H-M "C 2/M"
_symmetry_group_IT_number 12
_symmetry_cell_setting 'monoclinic'
loop_
_space_group_symop_operation_xyz
x,y,z
-x,y,-z
-x,-y,-z
x,-y,z
1/2+x,1/2+y,z
1/2-x,1/2+y,-z
1/2-x,1/2-y,-z
1/2+x,1/2-y,z
loop_
_atom_site_type_symbol
_atom_site_label
_atom_site_fract_x
_atom_site_fract_y
_atom_site_fract_z
Si Si1 0.512651 0.683448 0.756072
Si Si2 0.677851 0.818828 0.481712
Si Si3 0.244665 0.180975 0.768884
Si Si4 0.048635 0.683767 0.931492
Si Si5 0.627522 0.318515 0.638945
Si Si6 0.632082 0.317263 0.310497
Si Si7 0.698420 0.817408 0.935070
O O1 0.516328 0.500000 0.763339
O O2 0.528270 0.753320 0.843564
O O3 0.567010 0.728530 0.692547
O O4 0.440401 0.724635 0.722411
O O5 0.750000 0.750000 0.500000
O O6 0.634244 0.770365 0.556073
O O7 0.648370 0.751413 0.398472
O O8 0.683254 0.000000 0.475417
O O9 0.193423 0.205791 0.693865
O O10 0.313424 0.253719 0.747758
O O11 0.215726 0.255238 0.847646
O O12 0.251483 0.000000 0.780782
O O13 0.045873 0.500000 0.928144
O O14 0.123812 0.727470 0.952024
O O15 0.000000 0.735741 0.000000
O O16 0.622150 0.500000 0.622365
O O17 0.636566 0.500000 0.314683
O O18 0.702357 0.000000 0.935783
O O19 0.750000 0.750000 0.000000
#
# Coordination Sequence:
#
# PCOD9211692 Si02
#       7
#     8   8   8   8   8   8   8
#     4  10  23  43  65  91 122 163 205 249 304 368
#     4  12  24  39  62  92 125 162 207 256 309 362
#     4  11  22  39  65  91 123 164 207 254 308 364
#     4  10  23  42  63  90 124 163 202 250 308 363
#     4  10  21  40  65  90 122 162 205 250 305 366
#     4  11  24  41  63  93 127 162 206 253 306 367
#     4  11  24  41  63  93 128 163 207 256 308 365
#
# _framework density 18.797281000000002
#
# number of rings (size 3 to 8) (size 9 to 14) (size 15 to 20)
#    0.000    1.286    2.857    2.571    2.000    3.714 
#    0.000    2.857    0.000    0.000    0.000    0.000 
#    0.000    0.000    0.000    0.000    0.000    0.000 
#
# Total GULP energy -156569.084831 kJ/mol
# GULP energy per Si atom -5591.753030 kJ/mol
# Density = 1.875450 g / cm^3
# Si number density = 18.797281 Si / 1000 Ang^3
#
#
#
# Elastic Constant Matrix: (Units=GPa)
#
#
# Indices 1 2 3 4 5 6 
#
# 1 173.6457 53.7899 75.2931 0.0000 -10.0454 0.0000
# 2 53.7899 56.2860 37.6500 0.0000 3.1618 0.0000
# 3 75.2931 37.6500 116.8078 0.0000 -12.5836 0.0000
# 4 0.0000 0.0000 0.0000 39.8147 0.0000 0.0878
# 5 -10.0454 3.1618 -12.5836 0.0000 38.0727 0.0000
# 6 0.0000 0.0000 0.0000 0.0878 0.0000 21.9587
#
#
#
# Elastic Compliance Matrix: (Units=1/GPa)
#
#
# Indices 1 2 3 4 5 6 
#
# 1 0.009607 -0.006723 -0.003829 0.000000 0.001828 0.000000
# 2 -0.006723 0.028106 -0.005359 0.000000 -0.005879 0.000000
# 3 -0.003829 -0.005359 0.013164 0.000000 0.003786 0.000000
# 4 0.000000 0.000000 0.000000 0.025117 0.000000 -0.000100
# 5 0.001828 -0.005879 0.003786 0.000000 0.028487 0.000000
# 6 0.000000 0.000000 0.000000 -0.000100 0.000000 0.045540
#
#
# Mechanical properties :
#
#
# Convention : Reuss Voigt Hill
#
# Bulk Modulus (GPa) = 52.47699 75.57839 64.02769
# Shear Modulus (GPa) = 26.56806 31.96966 29.26886
#
# Velocity S-wave (km/s) = 3.76360 4.12850 3.95027
# Velocity P-wave (km/s) = 6.84574 7.93854 7.41231
#
# Compressibility (1/GPa) = 0.01905597
#
# Stress axis : x y z
#
# Youngs Moduli (GPa) = 104.08727 35.57952 75.96210
#
# Poissons Ratio (x) = 0.23919 0.29086
# Poissons Ratio (y) = 0.69975 0.40710
# Poissons Ratio (z) = 0.39855 0.19068
#
# Static dielectric constant tensor:
#      x y z
#    x 1.646890 0.000000 -0.018210 
#    y 0.000000 1.629930 0.000000 
#    z -0.018210 0.000000 1.626520 
# 
# From -- ./inp_files/230973.got.cif
#   From: 2010.05.17/outbox.cif.g08.bks.cpg/sg12_116_cif.got.tgz:230973.got - 2010.06.03 13:09:07.
