data_PCOD9211490
_publ_section_title
;
Structure prediction by ZEFSAII (Michael W. Deem and Ramdas Pophale) SiO2 
 PCOD9211490
Probable space group: C 2/M
;
_chemical_formula_sum "Si O2"
_cell_formula_units_Z 36
_cell_length_a 13.817351
_cell_length_b 9.641104
_cell_length_c 20.384938
_cell_angle_alpha 90.000000
_cell_angle_beta 145.650723
_cell_angle_gamma 90.000000
_cell_volume 1532.223056
_symmetry_space_group_name_H-M "C 2/M"
_symmetry_group_IT_number 12
_symmetry_cell_setting 'monoclinic'
loop_
_space_group_symop_operation_xyz
x,y,z
-x,y,-z
-x,-y,-z
x,-y,z
1/2+x,1/2+y,z
1/2-x,1/2+y,-z
1/2-x,1/2-y,-z
1/2+x,1/2-y,z
loop_
_atom_site_type_symbol
_atom_site_label
_atom_site_fract_x
_atom_site_fract_y
_atom_site_fract_z
Si Si1 0.367022 0.160042 0.201251
Si Si2 0.258237 0.335212 0.266440
Si Si3 0.232623 0.776749 0.582736
Si Si4 0.200286 0.000000 0.458454
Si Si5 0.897986 0.656155 0.012822
O O1 0.329435 0.243551 0.247047
O O2 0.569856 0.167919 0.305421
O O3 0.253956 0.235418 0.082304
O O4 0.315183 0.000000 0.177913
O O5 0.280954 0.500000 0.265984
O O6 0.325007 0.291260 0.374597
O O7 0.050999 0.312256 0.148294
O O8 0.238154 0.622438 0.558211
O O9 0.146724 0.879004 0.482453
O O10 0.831313 0.500000 0.986950
O O11 0.000000 0.654209 0.000000
#
# Coordination Sequence:
#
# PCOD9211490 Si02
#       5
#     8   8   8   4   8
#     4  11  22  37  61  94 124 154 197 245 291 349
#     4  10  21  40  63  89 123 162 196 233 294 364
#     4  11  23  45  64  85 118 158 196 253 301 354
#     4  10  24  44  66  82 118 154 200 256 310 336
#     4   8  17  34  57  87 125 159 191 233 286 355
#
# _framework density 23.495274999999999
#
# number of rings (size 3 to 8) (size 9 to 14) (size 15 to 20)
#    0.000    2.000    2.222    2.000    4.667    4.889 
#    0.000    6.667    0.000    0.000    0.000    0.000 
#    0.000    0.000    0.000    0.000    0.000    0.000 
#
# Total GULP energy -100238.737069 kJ/mol
# GULP energy per Si atom -5568.818726 kJ/mol
# Density = 2.344180 g / cm^3
# Si number density = 23.495275 Si / 1000 Ang^3
#
#
#
# Elastic Constant Matrix: (Units=GPa)
#
#
# Indices 1 2 3 4 5 6 
#
# 1 84.2232 37.2783 25.2882 0.0000 -16.6084 0.0000
# 2 37.2783 178.6114 59.8568 0.0000 -19.7744 0.0000
# 3 25.2882 59.8568 109.7641 0.0002 -2.6245 0.0001
# 4 0.0000 0.0000 0.0002 18.2167 0.0000 -7.8700
# 5 -16.6084 -19.7744 -2.6245 0.0000 43.3132 0.0000
# 6 0.0000 0.0000 0.0001 -7.8700 0.0000 15.4766
#
#
#
# Elastic Compliance Matrix: (Units=1/GPa)
#
#
# Indices 1 2 3 4 5 6 
#
# 1 0.014193 -0.001715 -0.002226 0.000000 0.004524 0.000000
# 2 -0.001715 0.007444 -0.003604 0.000000 0.002522 0.000000
# 3 -0.002226 -0.003604 0.011546 0.000000 -0.001799 0.000000
# 4 0.000000 0.000000 0.000000 0.070349 0.000000 0.035773
# 5 0.004524 0.002522 -0.001799 0.000000 0.025865 0.000000
# 6 0.000000 0.000000 0.000000 0.035773 0.000000 0.082805
#
#
# Mechanical properties :
#
#
# Convention : Reuss Voigt Hill
#
# Bulk Modulus (GPa) = 55.27427 68.60505 61.93966
# Shear Modulus (GPa) = 21.42958 32.07966 26.75462
#
# Velocity S-wave (km/s) = 3.02334 3.69910 3.37816
# Velocity P-wave (km/s) = 5.98032 6.89255 6.45258
#
# Compressibility (1/GPa) = 0.01809160
#
# Stress axis : x y z
#
# Youngs Moduli (GPa) = 70.45706 134.34210 86.61356
#
# Poissons Ratio (x) = 0.23043 0.19283
# Poissons Ratio (y) = 0.12085 0.31213
# Poissons Ratio (z) = 0.15686 0.48413
#
# Static dielectric constant tensor:
#      x y z
#    x 1.916360 0.000000 0.037300 
#    y 0.000000 1.788600 0.000000 
#    z 0.037300 0.000000 2.002100 
# 
# From -- ./inp_files/151301.got.cif
#   From: 2010.05.17/outbox.cif.g08.bks.cpg/sg12_76_cif.got.tgz:151301.got - 2010.06.03 13:09:07.
