data_PCOD9211234
_publ_section_title
;
Structure prediction by ZEFSAII (Michael W. Deem and Ramdas Pophale) SiO2 
 PCOD9211234
Probable space group: C 2/M
;
_chemical_formula_sum "Si O2"
_cell_formula_units_Z 34
_cell_length_a 7.374598
_cell_length_b 14.839015
_cell_length_c 12.432439
_cell_angle_alpha 90.000000
_cell_angle_beta 67.037057
_cell_angle_gamma 90.000000
_cell_volume 1252.693913
_symmetry_space_group_name_H-M "C 2/M"
_symmetry_group_IT_number 12
_symmetry_cell_setting 'monoclinic'
loop_
_space_group_symop_operation_xyz
x,y,z
-x,y,-z
-x,-y,-z
x,-y,z
1/2+x,1/2+y,z
1/2-x,1/2+y,-z
1/2-x,1/2-y,-z
1/2+x,1/2-y,z
loop_
_atom_site_type_symbol
_atom_site_label
_atom_site_fract_x
_atom_site_fract_y
_atom_site_fract_z
Si Si1 0.321339 0.634558 0.373236
Si Si2 0.500000 0.500000 0.500000
Si Si3 0.482197 0.169614 0.303763
Si Si4 0.782525 0.101942 0.821569
Si Si5 0.234680 0.109082 0.942351
O O1 0.368434 0.577739 0.467419
O O2 0.389998 0.738055 0.368168
O O3 0.105308 0.625447 0.371946
O O4 0.483134 0.602590 0.247580
O O5 0.307662 0.129822 0.271500
O O6 0.653751 0.169123 0.171881
O O7 0.719626 0.000000 0.848400
O O8 0.713271 0.142909 0.949253
O O9 0.278700 0.000000 0.915295
O O10 0.000000 0.115471 0.000000
#
# Coordination Sequence:
#
# PCOD9211234 Si02
#       5
#     8   2   8   8   8
#     4  12  27  50  74 106 145 185 256 314 379 426
#     4  12  32  56  82  98 138 194 248 344 382 428
#     4  12  25  46  75 111 151 200 239 306 361 447
#     4  11  23  44  73 113 157 197 243 288 353 452
#     4  10  21  39  72 115 162 204 237 279 355 443
#
# _framework density 27.141508000000002
#
# number of rings (size 3 to 8) (size 9 to 14) (size 15 to 20)
#    0.000    0.706    5.882    1.412    3.294    3.765 
#    4.235    1.176    0.000    0.000    0.000    0.000 
#    0.000    0.000    0.000    0.000    0.000    0.000 
#
# Total GULP energy -94804.164535 kJ/mol
# GULP energy per Si atom -5576.715561 kJ/mol
# Density = 2.707973 g / cm^3
# Si number density = 27.141508 Si / 1000 Ang^3
#
#
#
# Elastic Constant Matrix: (Units=GPa)
#
#
# Indices 1 2 3 4 5 6 
#
# 1 135.3722 9.8948 52.8883 0.0000 30.4926 0.0000
# 2 9.8948 73.9257 34.3274 0.0000 24.3876 0.0000
# 3 52.8883 34.3274 183.1496 0.0000 22.0314 0.0000
# 4 0.0000 0.0000 0.0000 7.9446 0.0000 25.4545
# 5 30.4926 24.3876 22.0314 0.0000 67.5643 0.0000
# 6 0.0000 0.0000 0.0000 25.4545 0.0000 -24.8916
#
#
#
# Elastic Compliance Matrix: (Units=1/GPa)
#
#
# Indices 1 2 3 4 5 6 
#
# 1 0.009075 0.001120 -0.002383 0.000000 -0.003723 0.000000
# 2 0.001120 0.016486 -0.002744 0.000000 -0.005561 0.000000
# 3 -0.002383 -0.002744 0.006676 0.000000 -0.000111 0.000000
# 4 0.000000 0.000000 0.000000 0.029434 0.000000 0.030099
# 5 -0.003723 -0.005561 -0.000111 0.000000 0.018524 0.000000
# 6 0.000000 0.000000 0.000000 0.030099 0.000000 -0.009394
#
#
# Mechanical properties :
#
#
# Convention : Reuss Voigt Hill
#
# Bulk Modulus (GPa) = 41.28420 65.18539 53.23480
# Shear Modulus (GPa) = 57.54496 29.81258 43.67877
#
# Velocity S-wave (km/s) = 4.60954 3.31783 4.01596
# Velocity P-wave (km/s) = 6.60108 6.22465 6.41563
#
# Compressibility (1/GPa) = 0.02422234
#
# Stress axis : x y z
#
# Youngs Moduli (GPa) = 110.19797 60.65685 149.79589
#
# Poissons Ratio (x) = -0.06793 0.35690
# Poissons Ratio (y) = -0.12340 0.41110
# Poissons Ratio (z) = 0.26255 0.16647
#
# Static dielectric constant tensor:
#      x y z
#    x 2.114460 0.000000 0.024170 
#    y 0.000000 2.167500 0.000000 
#    z 0.024170 0.000000 2.191560 
# 
# From -- ./inp_files/118484.got.cif
#   From: 2010.05.17/outbox.cif.g08.bks.cpg/sg12_60_cif.got.tgz:118484.got - 2010.06.03 13:09:07.
