data_PCOD9211548
_publ_section_title
;
Structure prediction by ZEFSAII (Michael W. Deem and Ramdas Pophale) SiO2 
 PCOD9211548
Probable space group: C 2/M
;
_chemical_formula_sum "Si O2"
_cell_formula_units_Z 56
_cell_length_a 9.227065
_cell_length_b 18.422787
_cell_length_c 27.239389
_cell_angle_alpha 90.000000
_cell_angle_beta 38.654316
_cell_angle_gamma 90.000000
_cell_volume 2892.226442
_symmetry_space_group_name_H-M "C 2/M"
_symmetry_group_IT_number 12
_symmetry_cell_setting 'monoclinic'
loop_
_space_group_symop_operation_xyz
x,y,z
-x,y,-z
-x,-y,-z
x,-y,z
1/2+x,1/2+y,z
1/2-x,1/2+y,-z
1/2-x,1/2-y,-z
1/2+x,1/2-y,z
loop_
_atom_site_type_symbol
_atom_site_label
_atom_site_fract_x
_atom_site_fract_y
_atom_site_fract_z
Si Si1 0.544083 0.689803 0.546011
Si Si2 0.117639 0.678986 0.725438
Si Si3 0.274269 0.417582 0.420533
Si Si4 0.841237 0.803769 0.211753
Si Si5 0.935466 0.417414 0.173002
Si Si6 0.414283 0.416191 0.276813
Si Si7 0.734262 0.220254 0.058700
O O1 0.500000 0.678193 0.500000
O O2 0.750000 0.750000 0.500000
O O3 0.282849 0.697769 0.636300
O O4 0.626334 0.624226 0.559253
O O5 0.212345 0.734478 0.740820
O O6 0.118139 0.603694 0.755745
O O7 0.851907 0.690940 0.779242
O O8 0.365513 0.500000 0.395331
O O9 0.324008 0.385788 0.353125
O O10 0.000000 0.418963 0.500000
O O11 0.838615 0.871307 0.249422
O O12 0.095938 0.783716 0.124292
O O13 0.026054 0.500000 0.146059
O O14 0.691798 0.414653 0.208742
O O15 0.096865 0.354299 0.107461
O O16 0.336229 0.500000 0.293527
O O17 0.750000 0.250000 0.000000
O O18 0.000000 0.207609 0.000000
#
# Coordination Sequence:
#
# PCOD9211548 Si02
#       7
#     8   8   8   8   8   8   8
#     4  12  26  39  59  92 125 163 210 265 316 361
#     4  11  23  39  61  88 123 164 208 263 305 361
#     4  10  23  42  62  86 122 167 208 254 313 368
#     4  11  23  39  63  90 120 162 210 249 309 373
#     4  10  21  41  66  91 121 164 209 247 303 373
#     4  10  21  40  64  87 121 165 210 256 303 365
#     4  11  22  40  63  92 126 160 196 248 311 372
#
# _framework density 19.362245999999999
#
# number of rings (size 3 to 8) (size 9 to 14) (size 15 to 20)
#    0.000    1.286    1.429    5.571    6.000    1.143 
#    0.000    0.714    0.000    2.571    0.000    0.000 
#    0.000    0.000    0.000    0.000    0.000    0.000 
#
# Total GULP energy -156036.371595 kJ/mol
# GULP energy per Si atom -5572.727557 kJ/mol
# Density = 1.931818 g / cm^3
# Si number density = 19.362246 Si / 1000 Ang^3
#
#
#
# Elastic Constant Matrix: (Units=GPa)
#
#
# Indices 1 2 3 4 5 6 
#
# 1 56.4045 37.3032 -1.6391 0.0144 3.1933 -0.0055
# 2 37.3032 97.1478 25.7925 0.0006 10.1030 -0.0037
# 3 -1.6391 25.7925 101.0392 0.0201 9.9118 -0.0235
# 4 0.0144 0.0006 0.0201 23.8027 -0.0105 6.4415
# 5 3.1933 10.1030 9.9118 -0.0105 40.8458 0.0048
# 6 -0.0055 -0.0037 -0.0235 6.4415 0.0048 19.7237
#
#
#
# Elastic Compliance Matrix: (Units=1/GPa)
#
#
# Indices 1 2 3 4 5 6 
#
# 1 0.024591 -0.010232 0.003023 -0.000022 -0.000125 0.000016
# 2 -0.010232 0.015478 -0.003913 0.000010 -0.002079 -0.000007
# 3 0.003023 -0.003913 0.011138 -0.000017 -0.001971 0.000019
# 4 -0.000022 0.000010 -0.000017 0.046085 0.000017 -0.015051
# 5 -0.000125 -0.002079 -0.001971 0.000017 0.025485 -0.000015
# 6 0.000016 -0.000007 0.000019 -0.015051 -0.000015 0.055616
#
#
# Mechanical properties :
#
#
# Convention : Reuss Voigt Hill
#
# Bulk Modulus (GPa) = 34.52665 41.94496 38.23580
# Shear Modulus (GPa) = 23.77648 29.75009 26.76329
#
# Velocity S-wave (km/s) = 3.50806 3.92407 3.72188
# Velocity P-wave (km/s) = 5.85485 6.49934 6.18550
#
# Compressibility (1/GPa) = 0.02896314
#
# Stress axis : x y z
#
# Youngs Moduli (GPa) = 40.66504 64.60900 89.77878
#
# Poissons Ratio (x) = 0.66109 -0.27142
# Poissons Ratio (y) = 0.41609 0.35131
# Poissons Ratio (z) = -0.12294 0.25282
#
# Static dielectric constant tensor:
#      x y z
#    x 1.674180 -0.000010 0.017270 
#    y -0.000010 1.712150 -0.000030 
#    z 0.017270 -0.000030 1.765690 
# 
# From -- ./inp_files/257019.got.cif
#   From: 2010.05.17/outbox.cif.g08.bks.cpg/sg12_129_cif.got.tgz:257019.got - 2010.06.03 13:09:07.
