data_PCOD9211408
_publ_section_title
;
Structure prediction by ZEFSAII (Michael W. Deem and Ramdas Pophale) SiO2 
 PCOD9211408
Probable space group: C 2/M
;
_chemical_formula_sum "Si O2"
_cell_formula_units_Z 64
_cell_length_a 13.994730
_cell_length_b 15.371872
_cell_length_c 18.008719
_cell_angle_alpha 90.000000
_cell_angle_beta 53.891196
_cell_angle_gamma 90.000000
_cell_volume 3129.906457
_symmetry_space_group_name_H-M "C 2/M"
_symmetry_group_IT_number 12
_symmetry_cell_setting 'monoclinic'
loop_
_space_group_symop_operation_xyz
x,y,z
-x,y,-z
-x,-y,-z
x,-y,z
1/2+x,1/2+y,z
1/2-x,1/2+y,-z
1/2-x,1/2-y,-z
1/2+x,1/2-y,z
loop_
_atom_site_type_symbol
_atom_site_label
_atom_site_fract_x
_atom_site_fract_y
_atom_site_fract_z
Si Si1 0.477930 0.096239 0.725702
Si Si2 0.495351 0.600079 0.690720
Si Si3 0.359860 0.253647 0.005230
Si Si4 0.478130 0.897546 0.121781
Si Si5 0.729705 0.331185 0.289588
Si Si6 0.339575 0.768115 0.392752
Si Si7 0.986659 0.905560 0.863712
Si Si8 0.770441 0.844462 0.196795
O O1 0.484623 0.119891 0.809725
O O2 0.551484 0.165541 0.644776
O O3 0.339969 0.096886 0.772169
O O4 0.529324 0.000000 0.693211
O O5 0.536749 0.500000 0.660227
O O6 0.392131 0.622055 0.678391
O O7 0.595831 0.674653 0.648856
O O8 0.444419 0.602955 0.798285
O O9 0.434141 0.163940 0.965800
O O10 0.441373 0.327429 0.932979
O O11 0.250000 0.250000 0.000000
O O12 0.319134 0.292282 0.102456
O O13 0.338701 0.872956 0.191905
O O14 0.491846 0.000000 0.098503
O O15 0.770945 0.318003 0.356285
O O16 0.719540 0.231954 0.270087
O O17 0.250000 0.750000 0.500000
O O18 0.127483 0.895771 0.807209
O O19 0.948926 0.000000 0.909668
#
# Coordination Sequence:
#
# PCOD9211408 Si02
#       8
#     8   8   8   8   8   8   8   8
#     4  10  21  40  67  94 126 168 218 268 330 397
#     4  11  23  44  70 100 136 177 219 274 334 396
#     4  12  23  37  59  90 131 173 222 276 324 379
#     4  10  21  40  62  90 128 172 220 273 323 383
#     4  11  22  42  69  94 126 177 216 264 329 402
#     4  11  24  44  71 101 133 166 209 270 337 406
#     4  11  24  41  62  92 130 172 222 276 325 379
#     4  12  21  38  66  87 128 175 220 265 333 380
#
# _framework density 20.447894000000002
#
# number of rings (size 3 to 8) (size 9 to 14) (size 15 to 20)
#    0.000    1.000    5.000    2.625    0.000    3.500 
#    0.000    2.500    0.000    0.750    0.000    0.000 
#    0.000    0.000    0.000    0.000    0.000    0.000 
#
# Total GULP energy -178453.045265 kJ/mol
# GULP energy per Si atom -5576.657665 kJ/mol
# Density = 2.040135 g / cm^3
# Si number density = 20.447894 Si / 1000 Ang^3
#
#
#
# Elastic Constant Matrix: (Units=GPa)
#
#
# Indices 1 2 3 4 5 6 
#
# 1 111.1135 7.8092 23.4140 0.0000 0.5827 0.0000
# 2 7.8092 96.4402 29.5017 0.0000 -4.9771 0.0000
# 3 23.4140 29.5017 70.0240 0.0000 -2.7309 0.0000
# 4 0.0000 0.0000 0.0000 -42.0186 0.0000 -8.2443
# 5 0.5827 -4.9771 -2.7309 0.0000 13.5604 0.0000
# 6 0.0000 0.0000 0.0000 -8.2443 0.0000 18.9944
#
#
#
# Elastic Compliance Matrix: (Units=1/GPa)
#
#
# Indices 1 2 3 4 5 6 
#
# 1 0.009701 0.000191 -0.003364 0.000000 -0.001024 0.000000
# 2 0.000191 0.012063 -0.005013 0.000000 0.003410 0.000000
# 3 -0.003364 -0.005013 0.017590 0.000000 0.001847 0.000000
# 4 0.000000 0.000000 0.000000 -0.021931 0.000000 -0.009519
# 5 -0.001024 0.003410 0.001847 0.000000 0.075411 0.000000
# 6 0.000000 0.000000 0.000000 -0.009519 0.000000 0.048515
#
#
# Mechanical properties :
#
#
# Convention : Reuss Voigt Hill
#
# Bulk Modulus (GPa) = 43.51447 44.33641 43.92544
# Shear Modulus (GPa) = 30.23303 12.56411 21.39857
#
# Velocity S-wave (km/s) = 3.84935 2.48149 3.23846
# Velocity P-wave (km/s) = 6.40964 5.47175 5.95918
#
# Compressibility (1/GPa) = 0.02298086
#
# Stress axis : x y z
#
# Youngs Moduli (GPa) = 103.08620 82.89679 56.85144
#
# Poissons Ratio (x) = -0.01581 0.19124
# Poissons Ratio (y) = -0.01966 0.28500
# Poissons Ratio (z) = 0.34677 0.41557
#
# Static dielectric constant tensor:
#      x y z
#    x 1.896050 0.000000 -0.030600 
#    y 0.000000 1.760540 0.000000 
#    z -0.030600 0.000000 1.747250 
# 
# From -- ./inp_files/270666.got.cif
#   From: 2010.05.17/outbox.cif.g08.bks.cpg/sg12_136_cif.got.tgz:270666.got - 2010.06.03 13:09:07.
