data_PCOD9211135
_publ_section_title
;
Structure prediction by ZEFSAII (Michael W. Deem and Ramdas Pophale) SiO2 
 PCOD9211135
Probable space group: C 2/M
;
_chemical_formula_sum "Si O2"
_cell_formula_units_Z 40
_cell_length_a 9.900746
_cell_length_b 26.209112
_cell_length_c 11.672314
_cell_angle_alpha 90.000000
_cell_angle_beta 34.370184
_cell_angle_gamma 90.000000
_cell_volume 1709.897277
_symmetry_space_group_name_H-M "C 2/M"
_symmetry_group_IT_number 12
_symmetry_cell_setting 'monoclinic'
loop_
_space_group_symop_operation_xyz
x,y,z
-x,y,-z
-x,-y,-z
x,-y,z
1/2+x,1/2+y,z
1/2-x,1/2+y,-z
1/2-x,1/2-y,-z
1/2+x,1/2-y,z
loop_
_atom_site_type_symbol
_atom_site_label
_atom_site_fract_x
_atom_site_fract_y
_atom_site_fract_z
Si Si1 0.418640 0.195265 0.317220
Si Si2 0.683049 0.286238 0.776345
Si Si3 0.908345 0.098218 0.438331
Si Si4 0.565030 0.941797 0.327324
Si Si5 0.169746 0.873917 0.040819
O O1 0.334090 0.246422 0.314960
O O2 0.571595 0.204262 0.326516
O O3 0.203111 0.155649 0.483127
O O4 0.612136 0.166038 0.101368
O O5 0.561610 0.339724 0.826752
O O6 0.500000 0.264642 0.000000
O O7 0.687853 0.062282 0.560188
O O8 0.000000 0.086993 0.500000
O O9 0.108397 0.096739 0.199847
O O10 0.500000 0.921424 0.500000
O O11 0.646777 0.000000 0.283237
O O12 0.747559 0.910370 0.120646
#
# Coordination Sequence:
#
# PCOD9211135 Si02
#       5
#     8   8   8   8   8
#     4  10  24  41  63  98 142 185 240 282 334 407
#     4  10  21  39  66  96 135 193 229 287 338 403
#     4  11  27  43  68 103 141 189 231 281 344 411
#     4  10  25  48  77 108 133 170 230 293 359 426
#     4  10  23  43  71  97 144 180 228 291 348 405
#
# _framework density 23.393218999999998
#
# number of rings (size 3 to 8) (size 9 to 14) (size 15 to 20)
#    0.000    1.800    0.000    2.400   16.800    4.400 
#    0.000    3.000    0.000    0.000    0.000    0.000 
#    0.000    0.000    0.000    0.000    0.000    0.000 
#
# Total GULP energy -111942.319990 kJ/mol
# GULP energy per Si atom -5597.116000 kJ/mol
# Density = 2.333998 g / cm^3
# Si number density = 23.393219 Si / 1000 Ang^3
#
#
#
# Elastic Constant Matrix: (Units=GPa)
#
#
# Indices 1 2 3 4 5 6 
#
# 1 109.1548 -2.8615 45.3451 0.0000 20.8976 0.0000
# 2 -2.8615 70.3393 30.1231 0.0000 8.4806 0.0000
# 3 45.3451 30.1231 128.6334 0.0000 17.5261 0.0000
# 4 0.0000 0.0000 0.0000 1.8743 0.0000 16.4450
# 5 20.8976 8.4806 17.5261 0.0000 37.7284 0.0000
# 6 0.0000 0.0000 0.0000 16.4450 0.0000 17.7168
#
#
#
# Elastic Compliance Matrix: (Units=1/GPa)
#
#
# Indices 1 2 3 4 5 6 
#
# 1 0.012004 0.002928 -0.004187 0.000000 -0.005362 0.000000
# 2 0.002928 0.016652 -0.004485 0.000000 -0.003282 0.000000
# 3 -0.004187 -0.004485 0.010512 0.000000 -0.001556 0.000000
# 4 0.000000 0.000000 0.000000 -0.074681 0.000000 0.069320
# 5 -0.005362 -0.003282 -0.001556 0.000000 0.030936 0.000000
# 6 0.000000 0.000000 0.000000 0.069320 0.000000 -0.007901
#
#
# Mechanical properties :
#
#
# Convention : Reuss Voigt Hill
#
# Bulk Modulus (GPa) = 36.12546 50.37119 43.24833
# Shear Modulus (GPa) = 607.12845 27.16528 317.14686
#
# Velocity S-wave (km/s) = 16.12747 3.41140 11.65618
# Velocity P-wave (km/s) = 19.03339 6.09065 14.13092
#
# Compressibility (1/GPa) = 0.02768131
#
# Stress axis : x y z
#
# Youngs Moduli (GPa) = 83.30695 60.05258 95.12887
#
# Poissons Ratio (x) = -0.17582 0.39826
# Poissons Ratio (y) = -0.24390 0.42661
# Poissons Ratio (z) = 0.34877 0.26931
#
# Static dielectric constant tensor:
#      x y z
#    x 1.883230 0.000000 0.021650 
#    y 0.000000 1.861590 0.000000 
#    z 0.021650 0.000000 1.932910 
# 
# From -- ./inp_files/12731.got.cif
#   From: 2010.05.17/outbox.cif.g08.bks.cpg/sg12_7_cif.got.tgz:12731.got - 2010.06.03 13:09:07.
