data_PCOD9211030
_publ_section_title
;
Structure prediction by ZEFSAII (Michael W. Deem and Ramdas Pophale) SiO2 
 PCOD9211030
Probable space group: C 2/M
;
_chemical_formula_sum "Si O2"
_cell_formula_units_Z 56
_cell_length_a 29.856727
_cell_length_b 8.188683
_cell_length_c 11.309574
_cell_angle_alpha 90.000000
_cell_angle_beta 68.978200
_cell_angle_gamma 90.000000
_cell_volume 2581.016460
_symmetry_space_group_name_H-M "C 2/M"
_symmetry_group_IT_number 12
_symmetry_cell_setting 'monoclinic'
loop_
_space_group_symop_operation_xyz
x,y,z
-x,y,-z
-x,-y,-z
x,-y,z
1/2+x,1/2+y,z
1/2-x,1/2+y,-z
1/2-x,1/2-y,-z
1/2+x,1/2-y,z
loop_
_atom_site_type_symbol
_atom_site_label
_atom_site_fract_x
_atom_site_fract_y
_atom_site_fract_z
Si Si1 0.976334 0.302404 0.397033
Si Si2 0.217148 0.816428 0.878179
Si Si3 0.133170 0.803599 0.527002
Si Si4 0.819618 0.189235 0.758461
Si Si5 0.976218 0.698775 0.899099
Si Si6 0.291049 0.808630 0.371556
Si Si7 0.373960 0.812285 0.914210
O O1 0.978105 0.500000 0.396263
O O2 0.921440 0.245632 0.442057
O O3 0.000000 0.247569 0.500000
O O4 0.001082 0.249118 0.249110
O O5 0.272164 0.773977 0.854065
O O6 0.214125 0.796916 0.740648
O O7 0.206672 0.000000 0.928506
O O8 0.175094 0.703390 0.966847
O O9 0.164486 0.747883 0.384225
O O10 0.157576 0.722461 0.617189
O O11 0.136897 0.000000 0.532547
O O12 0.863856 0.213236 0.804835
O O13 0.807699 0.000000 0.757548
O O14 0.979741 0.500000 0.898310
O O15 0.920018 0.743175 0.944151
O O16 0.000000 0.757105 0.000000
O O17 0.250000 0.750000 0.500000
O O18 0.284567 0.000000 0.350976
O O19 0.382232 0.000000 0.871978
#
# Coordination Sequence:
#
# PCOD9211030 Si02
#       7
#     8   8   8   8   8   8   8
#     4  10  21  39  65  95 125 163 216 271 325 388
#     4  12  25  41  63  92 129 167 211 257 313 380
#     4  11  24  40  63  94 128 167 211 261 319 380
#     4  11  23  41  63  90 128 168 210 256 314 381
#     4   9  20  39  62  90 123 164 212 265 323 386
#     4  12  24  41  64  92 127 167 210 258 314 376
#     4  11  23  40  65  92 124 164 213 264 318 377
#
# _framework density 21.696878999999999
#
# number of rings (size 3 to 8) (size 9 to 14) (size 15 to 20)
#    0.000    1.143    1.429    5.143    2.000    3.143 
#    0.000    1.429    0.000    2.143    0.000    0.000 
#    0.000    0.000    0.000    0.000    0.000    0.000 
#
# Total GULP energy -156533.393468 kJ/mol
# GULP energy per Si atom -5590.478338 kJ/mol
# Density = 2.164750 g / cm^3
# Si number density = 21.696879 Si / 1000 Ang^3
#
#
#
# Elastic Constant Matrix: (Units=GPa)
#
#
# Indices 1 2 3 4 5 6 
#
# 1 179.3630 13.2629 46.0854 0.0000 12.8920 0.0000
# 2 13.2629 39.9753 -2.0210 0.0000 -2.6832 0.0000
# 3 46.0854 -2.0210 94.7189 0.0000 8.1443 0.0000
# 4 0.0000 0.0000 0.0000 18.4531 0.0000 -0.9125
# 5 12.8920 -2.6832 8.1443 0.0000 36.9534 0.0000
# 6 0.0000 0.0000 0.0000 -0.9125 0.0000 28.5587
#
#
#
# Elastic Compliance Matrix: (Units=1/GPa)
#
#
# Indices 1 2 3 4 5 6 
#
# 1 0.006703 -0.002506 -0.003158 0.000000 -0.001824 0.000000
# 2 -0.002506 0.026089 0.001568 0.000000 0.002423 0.000000
# 3 -0.003158 0.001568 0.012255 0.000000 -0.001485 0.000000
# 4 0.000000 0.000000 0.000000 0.054277 0.000000 0.001734
# 5 -0.001824 0.002423 -0.001485 0.000000 0.028201 0.000000
# 6 0.000000 0.000000 0.000000 0.001734 0.000000 0.035071
#
#
# Mechanical properties :
#
#
# Convention : Reuss Voigt Hill
#
# Bulk Modulus (GPa) = 27.13387 47.63464 37.38426
# Shear Modulus (GPa) = 27.31137 33.90837 30.60987
#
# Velocity S-wave (km/s) = 3.55176 3.95754 3.76013
# Velocity P-wave (km/s) = 5.41785 6.54867 6.00992
#
# Compressibility (1/GPa) = 0.03685431
#
# Stress axis : x y z
#
# Youngs Moduli (GPa) = 149.18360 38.33064 81.59769
#
# Poissons Ratio (x) = 0.09606 0.25769
# Poissons Ratio (y) = 0.37387 -0.12792
# Poissons Ratio (z) = 0.47112 -0.06009
#
# Static dielectric constant tensor:
#      x y z
#    x 1.779910 0.000000 0.022760 
#    y 0.000000 1.753560 0.000000 
#    z 0.022760 0.000000 1.803750 
# 
# From -- ./inp_files/187196.got.cif
#   From: 2010.05.17/outbox.cif.g08.bks.cpg/sg12_94_cif.got.tgz:187196.got - 2010.06.03 13:09:07.
