data_PCOD9211342
_publ_section_title
;
Structure prediction by ZEFSAII (Michael W. Deem and Ramdas Pophale) SiO2 
 PCOD9211342
Probable space group: C 2/M
;
_chemical_formula_sum "Si O2"
_cell_formula_units_Z 56
_cell_length_a 14.527306
_cell_length_b 20.675931
_cell_length_c 9.773795
_cell_angle_alpha 90.000000
_cell_angle_beta 89.000200
_cell_angle_gamma 90.000000
_cell_volume 2935.264625
_symmetry_space_group_name_H-M "C 2/M"
_symmetry_group_IT_number 12
_symmetry_cell_setting 'monoclinic'
loop_
_space_group_symop_operation_xyz
x,y,z
-x,y,-z
-x,-y,-z
x,-y,z
1/2+x,1/2+y,z
1/2-x,1/2+y,-z
1/2-x,1/2-y,-z
1/2+x,1/2-y,z
loop_
_atom_site_type_symbol
_atom_site_label
_atom_site_fract_x
_atom_site_fract_y
_atom_site_fract_z
Si Si1 0.565331 0.572816 0.132344
Si Si2 0.019760 0.212392 0.162479
Si Si3 0.273259 0.880010 0.071550
Si Si4 0.340396 0.776588 0.294865
Si Si5 0.408928 0.000000 0.093878
Si Si6 0.890487 0.632533 0.527187
Si Si7 0.594220 0.000000 0.583675
Si Si8 0.316545 0.810920 0.788265
O O1 0.562758 0.500000 0.194153
O O2 0.530065 0.637738 0.209826
O O3 0.671107 0.590682 0.092639
O O4 0.500000 0.569595 0.000000
O O5 0.112669 0.252821 0.183047
O O6 0.938181 0.250468 0.239038
O O7 0.000000 0.211738 0.000000
O O8 0.302245 0.831372 0.192055
O O9 0.347353 0.937301 0.066092
O O10 0.281538 0.841224 0.929861
O O11 0.350146 0.808158 0.442540
O O12 0.270082 0.717880 0.288663
O O13 0.428533 0.000000 0.255842
O O14 0.500000 0.000000 0.000000
O O15 0.855657 0.565617 0.462011
O O16 0.867151 0.638812 0.686849
O O17 0.000000 0.635102 0.500000
O O18 0.500000 0.000000 0.500000
#
# Coordination Sequence:
#
# PCOD9211342 Si02
#       8
#     8   8   8   8   4   8   4   8
#     4  10  21  40  61  91 127 164 205 257 320 379
#     4  11  21  36  63  90 124 162 200 263 315 371
#     4  12  24  40  65  97 127 163 213 264 319 377
#     4  12  23  41  63  94 124 163 215 260 319 375
#     4  12  28  40  65  99 131 168 211 265 318 385
#     4  11  24  41  63  86 126 171 208 253 311 384
#     4  10  24  44  62  85 127 176 209 240 318 388
#     4  12  24  38  62  94 124 162 208 260 316 370
#
# _framework density 19.078348999999999
#
# number of rings (size 3 to 8) (size 9 to 14) (size 15 to 20)
#    0.000    0.714    6.429    2.571    6.000    0.000 
#    0.000    0.000    1.571    0.000    0.000    1.000 
#    0.000    0.286    0.000    0.000    0.000    0.000 
#
# Total GULP energy -156370.346967 kJ/mol
# GULP energy per Si atom -5584.655249 kJ/mol
# Density = 1.903493 g / cm^3
# Si number density = 19.078349 Si / 1000 Ang^3
#
#
#
# Elastic Constant Matrix: (Units=GPa)
#
#
# Indices 1 2 3 4 5 6 
#
# 1 78.6886 13.7554 -9.5654 0.0000 8.9441 0.0000
# 2 13.7554 91.1784 10.5480 0.0000 4.1657 0.0000
# 3 -9.5654 10.5480 46.7475 0.0000 6.2184 0.0000
# 4 0.0000 0.0000 0.0000 1.3110 0.0000 11.1787
# 5 8.9441 4.1657 6.2184 0.0000 15.0344 0.0000
# 6 0.0000 0.0000 0.0000 11.1787 0.0000 30.0723
#
#
#
# Elastic Compliance Matrix: (Units=1/GPa)
#
#
# Indices 1 2 3 4 5 6 
#
# 1 0.014884 -0.002349 0.004938 0.000000 -0.010246 0.000000
# 2 -0.002349 0.011701 -0.003043 0.000000 -0.000586 0.000000
# 3 0.004938 -0.003043 0.024728 0.000000 -0.012323 0.000000
# 4 0.000000 0.000000 0.000000 -0.351566 0.000000 0.130687
# 5 -0.010246 -0.000586 -0.012323 0.000000 0.077869 0.000000
# 6 0.000000 0.000000 0.000000 0.130687 0.000000 -0.015327
#
#
# Mechanical properties :
#
#
# Convention : Reuss Voigt Hill
#
# Bulk Modulus (GPa) = 19.83873 27.34340 23.59107
# Shear Modulus (GPa) = -22.72691 22.74198 0.00754
#
# Velocity S-wave (km/s) = -3.45518 3.45633 0.06292
# Velocity P-wave (km/s) = 2.34447 5.50377 3.52101
#
# Compressibility (1/GPa) = 0.05040645
#
# Stress axis : x y z
#
# Youngs Moduli (GPa) = 67.18705 85.46570 40.44042
#
# Poissons Ratio (x) = 0.20072 -0.19971
# Poissons Ratio (y) = 0.15779 0.12305
# Poissons Ratio (z) = -0.33180 0.26004
#
# Static dielectric constant tensor:
#      x y z
#    x 1.691770 0.000000 -0.029960 
#    y 0.000000 1.713460 0.000000 
#    z -0.029960 0.000000 1.670070 
# 
# From -- ./inp_files/64121.got.cif
#   From: 2010.05.17/outbox.cif.g08.bks.cpg/sg12_33_cif.got.tgz:64121.got - 2010.06.03 13:09:07.
