data_PCOD9211798
_publ_section_title
;
Structure prediction by ZEFSAII (Michael W. Deem and Ramdas Pophale) SiO2 
 PCOD9211798
Probable space group: C 2/M
;
_chemical_formula_sum "Si O2"
_cell_formula_units_Z 48
_cell_length_a 15.172340
_cell_length_b 17.049577
_cell_length_c 14.321014
_cell_angle_alpha 90.000000
_cell_angle_beta 38.922585
_cell_angle_gamma 90.000000
_cell_volume 2327.480837
_symmetry_space_group_name_H-M "C 2/M"
_symmetry_group_IT_number 12
_symmetry_cell_setting 'monoclinic'
loop_
_space_group_symop_operation_xyz
x,y,z
-x,y,-z
-x,-y,-z
x,-y,z
1/2+x,1/2+y,z
1/2-x,1/2+y,-z
1/2-x,1/2-y,-z
1/2+x,1/2-y,z
loop_
_atom_site_type_symbol
_atom_site_label
_atom_site_fract_x
_atom_site_fract_y
_atom_site_fract_z
Si Si1 0.218914 0.347854 0.867947
Si Si2 0.445625 0.089868 0.390740
Si Si3 0.248383 0.334243 0.162995
Si Si4 0.817991 0.828058 0.312072
Si Si5 0.914804 0.089749 0.857586
Si Si6 0.912739 0.349494 0.215856
O O1 0.277494 0.259113 0.817255
O O2 0.326795 0.400059 0.835919
O O3 0.181944 0.375186 0.793924
O O4 0.071092 0.343473 0.045385
O O5 0.603553 0.118464 0.279097
O O6 0.337585 0.148133 0.529998
O O7 0.416664 0.097510 0.303902
O O8 0.426191 0.000000 0.437351
O O9 0.329706 0.348867 0.192635
O O10 0.338880 0.358300 0.999099
O O11 0.857524 0.736955 0.289536
O O12 0.928122 0.878540 0.279969
O O13 0.913781 0.000000 0.888797
#
# Coordination Sequence:
#
# PCOD9211798 Si02
#       6
#     8   8   8   8   8   8
#     4  10  21  40  66  91 117 150 209 259 287 345
#     4  12  25  40  60  91 128 160 193 244 305 361
#     4  11  22  40  64  87 117 161 205 246 291 349
#     4  11  24  41  61  87 122 162 202 244 293 356
#     4  12  23  37  61  92 123 158 197 247 305 352
#     4  10  21  41  66  89 115 159 205 250 296 348
#
# _framework density 20.623156999999999
#
# number of rings (size 3 to 8) (size 9 to 14) (size 15 to 20)
#    0.000    1.000    3.333    4.000    0.000    4.667 
#    0.000    4.167    0.000    2.000    0.000    0.000 
#    0.000    0.000    0.000    0.000    0.000    0.000 
#
# Total GULP energy -134233.709418 kJ/mol
# GULP energy per Si atom -5593.071226 kJ/mol
# Density = 2.057622 g / cm^3
# Si number density = 20.623157 Si / 1000 Ang^3
#
#
#
# Elastic Constant Matrix: (Units=GPa)
#
#
# Indices 1 2 3 4 5 6 
#
# 1 73.0384 14.4018 0.2410 0.0001 1.8349 -0.0001
# 2 14.4018 24.0865 -9.7257 0.0001 -1.3575 -0.0001
# 3 0.2410 -9.7257 23.6526 0.0001 -8.0187 -0.0002
# 4 0.0001 0.0001 0.0001 5.8728 -0.0001 5.7853
# 5 1.8349 -1.3575 -8.0187 -0.0001 28.9658 0.0001
# 6 -0.0001 -0.0001 -0.0002 5.7853 0.0001 -84.0629
#
#
#
# Elastic Compliance Matrix: (Units=1/GPa)
#
#
# Indices 1 2 3 4 5 6 
#
# 1 0.016270 -0.012536 -0.006477 0.000000 -0.003411 0.000000
# 2 -0.012536 0.061575 0.029459 -0.000001 0.011835 0.000000
# 3 -0.006477 0.029459 0.060768 -0.000001 0.018614 0.000000
# 4 0.000000 -0.000001 -0.000001 0.159466 0.000000 0.010975
# 5 -0.003411 0.011835 0.018614 0.000000 0.040447 0.000000
# 6 0.000000 0.000000 0.000000 0.010975 0.000000 -0.011141
#
#
# Mechanical properties :
#
#
# Convention : Reuss Voigt Hill
#
# Bulk Modulus (GPa) = 6.26936 14.51240 10.39088
# Shear Modulus (GPa) = 13.90193 -2.12084 5.89054
#
# Velocity S-wave (km/s) = 2.59915 -1.01519 1.69189
# Velocity P-wave (km/s) = 3.47188 2.38287 2.97759
#
# Compressibility (1/GPa) = 0.15950582
#
# Stress axis : x y z
#
# Youngs Moduli (GPa) = 61.46157 16.24045 16.45594
#
# Poissons Ratio (x) = 0.20359 0.10658
# Poissons Ratio (y) = 0.77047 -0.48478
# Poissons Ratio (z) = 0.39808 -0.47843
#
# Static dielectric constant tensor:
#      x y z
#    x 1.734610 0.000000 0.022250 
#    y 0.000000 1.697800 0.000000 
#    z 0.022250 0.000000 1.712180 
# 
# From -- ./inp_files/216221.got.cif
#   From: 2010.05.17/outbox.cif.g08.bks.cpg/sg12_109_cif.got.tgz:216221.got - 2010.06.03 13:09:07.
