data_PCOD9211504
_publ_section_title
;
Structure prediction by ZEFSAII (Michael W. Deem and Ramdas Pophale) SiO2 
 PCOD9211504
Probable space group: C 2/M
;
_chemical_formula_sum "Si O2"
_cell_formula_units_Z 40
_cell_length_a 13.166166
_cell_length_b 15.976407
_cell_length_c 16.380536
_cell_angle_alpha 90.000000
_cell_angle_beta 147.442324
_cell_angle_gamma 90.000000
_cell_volume 1854.251090
_symmetry_space_group_name_H-M "C 2/M"
_symmetry_group_IT_number 12
_symmetry_cell_setting 'monoclinic'
loop_
_space_group_symop_operation_xyz
x,y,z
-x,y,-z
-x,-y,-z
x,-y,z
1/2+x,1/2+y,z
1/2-x,1/2+y,-z
1/2-x,1/2-y,-z
1/2+x,1/2-y,z
loop_
_atom_site_type_symbol
_atom_site_label
_atom_site_fract_x
_atom_site_fract_y
_atom_site_fract_z
Si Si1 0.811045 0.500000 0.274535
Si Si2 0.284642 0.781723 0.645689
Si Si3 0.607645 0.500000 0.960793
Si Si4 0.713901 0.806355 0.172418
Si Si5 0.629600 0.330433 0.887529
Si Si6 0.986414 0.331308 0.354353
O O1 0.622538 0.500000 0.202014
O O2 0.946279 0.419299 0.368438
O O3 0.704467 0.500000 0.114651
O O4 0.261303 0.828708 0.715831
O O5 0.418415 0.702351 0.755974
O O6 0.099680 0.738711 0.482993
O O7 0.396771 0.833193 0.651551
O O8 0.674258 0.414196 0.965013
O O9 0.838173 0.849198 0.186467
O O10 0.780278 0.710244 0.205339
O O11 0.500000 0.817176 0.000000
O O12 0.750000 0.250000 0.000000
#
# Coordination Sequence:
#
# PCOD9211504 Si02
#       6
#     4   8   4   8   8   8
#     4  11  24  37  64  95 131 163 213 276 332 384
#     4  10  21  40  63  90 124 171 214 261 321 390
#     4  11  24  39  61 100 131 169 217 271 335 378
#     4  11  21  35  64  87 119 166 214 261 314 378
#     4  11  22  39  63  90 130 167 216 266 320 391
#     4  10  23  39  61  92 129 165 216 263 326 391
#
# _framework density 21.572050999999998
#
# number of rings (size 3 to 8) (size 9 to 14) (size 15 to 20)
#    0.000    1.400    2.000    4.200    2.800    0.800 
#    0.000    4.500    0.000    0.000    0.000    8.400 
#    0.000    0.000    0.000    0.000    0.000    0.000 
#
# Total GULP energy -111612.166025 kJ/mol
# GULP energy per Si atom -5580.608301 kJ/mol
# Density = 2.152295 g / cm^3
# Si number density = 21.572051 Si / 1000 Ang^3
#
#
#
# Elastic Constant Matrix: (Units=GPa)
#
#
# Indices 1 2 3 4 5 6 
#
# 1 138.8110 16.6282 24.2848 0.0009 -24.5910 0.0003
# 2 16.6282 83.5849 7.3506 0.0006 0.4983 0.0003
# 3 24.2848 7.3506 67.1755 0.0004 -10.1222 -0.0001
# 4 0.0009 0.0006 0.0004 19.7483 0.0007 4.3255
# 5 -24.5910 0.4983 -10.1222 0.0007 34.9492 0.0002
# 6 0.0003 0.0003 -0.0001 4.3255 0.0002 5.3370
#
#
#
# Elastic Compliance Matrix: (Units=1/GPa)
#
#
# Indices 1 2 3 4 5 6 
#
# 1 0.008756 -0.001586 -0.002154 0.000000 0.005559 0.000000
# 2 -0.001586 0.012379 -0.001021 0.000000 -0.001588 -0.000001
# 3 -0.002154 -0.001021 0.016260 -0.000001 0.003208 0.000001
# 4 0.000000 0.000000 -0.000001 0.061566 -0.000001 -0.049898
# 5 0.005559 -0.001588 0.003208 -0.000001 0.033477 0.000000
# 6 0.000000 -0.000001 0.000001 -0.049898 0.000000 0.227812
#
#
# Mechanical properties :
#
#
# Convention : Reuss Voigt Hill
#
# Bulk Modulus (GPa) = 35.87564 42.89986 39.38775
# Shear Modulus (GPa) = 13.19049 28.09409 20.64229
#
# Velocity S-wave (km/s) = 2.47546 3.61271 3.09674
# Velocity P-wave (km/s) = 4.98370 6.11000 5.57537
#
# Compressibility (1/GPa) = 0.02787407
#
# Stress axis : x y z
#
# Youngs Moduli (GPa) = 114.21133 80.78510 61.49977
#
# Poissons Ratio (x) = 0.12809 0.13248
# Poissons Ratio (y) = 0.18109 0.06276
# Poissons Ratio (z) = 0.24602 0.08245
#
# Static dielectric constant tensor:
#      x y z
#    x 1.874590 0.000000 -0.029690 
#    y 0.000000 1.744450 0.000000 
#    z -0.029690 0.000000 1.904000 
# 
# From -- ./inp_files/270831.got.cif
#   From: 2010.05.17/outbox.cif.g08.bks.cpg/sg12_136_cif.got.tgz:270831.got - 2010.06.03 13:09:07.
