data_PCOD9211395
_publ_section_title
;
Structure prediction by ZEFSAII (Michael W. Deem and Ramdas Pophale) SiO2 
 PCOD9211395
Probable space group: C 2/M
;
_chemical_formula_sum "Si O2"
_cell_formula_units_Z 48
_cell_length_a 26.512184
_cell_length_b 13.294925
_cell_length_c 20.619367
_cell_angle_alpha 90.000000
_cell_angle_beta 159.979391
_cell_angle_gamma 90.000000
_cell_volume 2488.211903
_symmetry_space_group_name_H-M "C 2/M"
_symmetry_group_IT_number 12
_symmetry_cell_setting 'monoclinic'
loop_
_space_group_symop_operation_xyz
x,y,z
-x,y,-z
-x,-y,-z
x,-y,z
1/2+x,1/2+y,z
1/2-x,1/2+y,-z
1/2-x,1/2-y,-z
1/2+x,1/2-y,z
loop_
_atom_site_type_symbol
_atom_site_label
_atom_site_fract_x
_atom_site_fract_y
_atom_site_fract_z
Si Si1 0.338232 0.753977 0.325739
Si Si2 0.148216 0.612049 0.901346
Si Si3 0.165236 0.617242 0.547577
Si Si4 0.941442 0.615992 0.002837
Si Si5 0.177327 0.181649 0.009366
Si Si6 0.376649 0.716557 0.702127
O O1 0.500000 0.719756 0.500000
O O2 0.344702 0.814694 0.400644
O O3 0.220615 0.664577 0.190652
O O4 0.275333 0.825030 0.192245
O O5 0.156730 0.500000 0.939521
O O6 0.184505 0.701716 0.994121
O O7 0.984153 0.629388 0.674966
O O8 0.257084 0.620689 0.971287
O O9 0.177737 0.500000 0.579919
O O10 0.301638 0.652080 0.668183
O O11 0.943155 0.500000 0.025166
O O12 0.000000 0.621858 0.000000
O O13 0.046351 0.685740 0.173234
O O14 0.008834 0.160131 0.824527
O O15 0.250000 0.750000 0.500000
#
# Coordination Sequence:
#
# PCOD9211395 Si02
#       6
#     8   8   8   8   8   8
#     4  11  22  40  64  92 128 161 205 255 309 367
#     4  10  21  40  62  89 122 157 204 255 306 364
#     4  11  23  40  64  92 123 163 207 254 312 369
#     4  10  22  41  64  88 121 164 205 250 306 365
#     4  10  22  37  63  91 122 162 199 251 309 365
#     4  11  22  40  64  90 127 161 206 255 308 367
#
# _framework density 19.290960999999999
#
# number of rings (size 3 to 8) (size 9 to 14) (size 15 to 20)
#    0.000    1.500    5.000    0.000    0.000    5.333 
#    0.000    5.833    0.000    0.000    0.000    0.000 
#    0.000    0.000    0.000    0.000    0.000    0.000 
#
# Total GULP energy -134095.566447 kJ/mol
# GULP energy per Si atom -5587.315269 kJ/mol
# Density = 1.924705 g / cm^3
# Si number density = 19.290961 Si / 1000 Ang^3
#
#
#
# Elastic Constant Matrix: (Units=GPa)
#
#
# Indices 1 2 3 4 5 6 
#
# 1 105.3027 14.9943 27.0360 0.0001 30.5889 0.0000
# 2 14.9943 87.7810 25.9668 0.0000 5.9979 0.0000
# 3 27.0360 25.9668 103.1064 0.0001 28.2010 0.0000
# 4 0.0001 0.0000 0.0001 20.8760 0.0001 1.0080
# 5 30.5889 5.9979 28.2010 0.0001 41.2819 0.0000
# 6 0.0000 0.0000 0.0000 1.0080 0.0000 4.9611
#
#
#
# Elastic Compliance Matrix: (Units=1/GPa)
#
#
# Indices 1 2 3 4 5 6 
#
# 1 0.012315 -0.001357 -0.000548 0.000000 -0.008554 0.000000
# 2 -0.001357 0.012464 -0.003152 0.000000 0.001348 0.000000
# 3 -0.000548 -0.003152 0.012790 0.000000 -0.007873 0.000000
# 4 0.000000 0.000000 0.000000 0.048376 0.000000 -0.009829
# 5 -0.008554 0.001348 -0.007873 0.000000 0.035744 0.000000
# 6 0.000000 0.000000 0.000000 -0.009829 0.000000 0.203565
#
#
# Mechanical properties :
#
#
# Convention : Reuss Voigt Hill
#
# Bulk Modulus (GPa) = 36.42293 48.02048 42.22171
# Shear Modulus (GPa) = 14.51295 28.63666 21.57480
#
# Velocity S-wave (km/s) = 2.74582 3.85705 3.34786
# Velocity P-wave (km/s) = 5.38280 6.69198 6.07277
#
# Compressibility (1/GPa) = 0.02745523
#
# Stress axis : x y z
#
# Youngs Moduli (GPa) = 81.20131 80.23078 78.18893
#
# Poissons Ratio (x) = 0.10888 0.04284
# Poissons Ratio (y) = 0.11020 0.24643
# Poissons Ratio (z) = 0.04449 0.25287
#
# Static dielectric constant tensor:
#      x y z
#    x 1.688330 0.000000 0.009190 
#    y 0.000000 1.645190 0.000000 
#    z 0.009190 0.000000 1.651260 
# 
# From -- ./inp_files/328007.got.cif
#   From: 2010.05.17/outbox.cif.g08.bks.cpg/sg12_165_cif.got.tgz:328007.got - 2010.06.03 13:09:07.
