data_PCOD9211867
_publ_section_title
;
Structure prediction by ZEFSAII (Michael W. Deem and Ramdas Pophale) SiO2 
 PCOD9211867
Probable space group: C 2/M
;
_chemical_formula_sum "Si O2"
_cell_formula_units_Z 40
_cell_length_a 5.309268
_cell_length_b 31.630485
_cell_length_c 11.786964
_cell_angle_alpha 90.000000
_cell_angle_beta 74.822353
_cell_angle_gamma 90.000000
_cell_volume 1910.395081
_symmetry_space_group_name_H-M "C 2/M"
_symmetry_group_IT_number 12
_symmetry_cell_setting 'monoclinic'
loop_
_space_group_symop_operation_xyz
x,y,z
-x,y,-z
-x,-y,-z
x,-y,z
1/2+x,1/2+y,z
1/2-x,1/2+y,-z
1/2-x,1/2-y,-z
1/2+x,1/2-y,z
loop_
_atom_site_type_symbol
_atom_site_label
_atom_site_fract_x
_atom_site_fract_y
_atom_site_fract_z
Si Si1 0.533926 0.136095 0.697565
Si Si2 0.966354 0.500000 0.864679
Si Si3 0.073788 0.093338 0.623821
Si Si4 0.707327 0.907894 0.076703
Si Si5 0.661703 0.231937 0.634395
Si Si6 0.519788 0.500000 0.358521
O O1 0.802485 0.112435 0.702548
O O2 0.355370 0.129648 0.828904
O O3 0.613684 0.182247 0.645177
O O4 0.339256 0.116484 0.626138
O O5 0.827449 0.454741 0.863642
O O6 0.211947 0.500000 0.747684
O O7 0.000000 0.500000 0.000000
O O8 0.000000 0.095808 0.500000
O O9 0.108048 0.044695 0.654153
O O10 0.500000 0.905668 0.000000
O O11 0.000000 0.905059 0.000000
O O12 0.750000 0.250000 0.500000
O O13 0.392733 0.255412 0.690353
O O14 0.500000 0.500000 0.500000
#
# Coordination Sequence:
#
# PCOD9211867 Si02
#       6
#     8   4   8   8   8   4
#     4  12  24  42  69  96 135 178 224 282 354 409
#     4  10  21  40  66  99 138 192 246 293 331 393
#     4  11  25  39  64  95 139 187 226 265 338 417
#     4  11  24  42  66  98 134 181 241 293 331 396
#     4  10  23  40  64  97 133 163 210 277 350 427
#     4  10  22  44  61  99 150 190 234 293 343 413
#
# _framework density 20.938077
#
# number of rings (size 3 to 8) (size 9 to 14) (size 15 to 20)
#    0.000    1.200    2.000    3.300   11.200    1.600 
#    0.000    3.000    0.000    3.600    0.000    0.000 
#    0.000    0.000    0.000    0.000    0.000    0.000 
#
# Total GULP energy -111489.425510 kJ/mol
# GULP energy per Si atom -5574.471275 kJ/mol
# Density = 2.089042 g / cm^3
# Si number density = 20.938077 Si / 1000 Ang^3
#
#
#
# Elastic Constant Matrix: (Units=GPa)
#
#
# Indices 1 2 3 4 5 6 
#
# 1 156.4287 58.3084 33.3702 0.0000 3.3221 0.0000
# 2 58.3084 163.7503 23.8470 0.0000 -1.0665 0.0000
# 3 33.3702 23.8470 113.8476 0.0000 -1.5094 0.0000
# 4 0.0000 0.0000 0.0000 122.6227 0.0000 285.7918
# 5 3.3221 -1.0665 -1.5094 0.0000 33.8745 0.0000
# 6 0.0000 0.0000 0.0000 285.7918 0.0000 981.5748
#
#
#
# Elastic Compliance Matrix: (Units=1/GPa)
#
#
# Indices 1 2 3 4 5 6 
#
# 1 0.007717 -0.002499 -0.001751 0.000000 -0.000914 0.000000
# 2 -0.002499 0.007109 -0.000751 0.000000 0.000435 0.000000
# 3 -0.001751 -0.000751 0.009462 0.000000 0.000570 0.000000
# 4 0.000000 0.000000 0.000000 0.025373 0.000000 -0.007387
# 5 -0.000914 0.000435 0.000570 0.000000 0.029649 0.000000
# 6 0.000000 0.000000 0.000000 -0.007387 0.000000 0.003170
#
#
# Mechanical properties :
#
#
# Convention : Reuss Voigt Hill
#
# Bulk Modulus (GPa) = 69.99473 73.89753 71.94613
# Shear Modulus (GPa) = 51.41807 248.84781 150.13294
#
# Velocity S-wave (km/s) = 4.96090 10.91363 8.47697
# Velocity P-wave (km/s) = 8.14346 13.93484 11.41262
#
# Compressibility (1/GPa) = 0.01428679
#
# Stress axis : x y z
#
# Youngs Moduli (GPa) = 129.58405 140.66985 105.69009
#
# Poissons Ratio (x) = 0.35152 0.18502
# Poissons Ratio (y) = 0.32382 0.07935
# Poissons Ratio (z) = 0.22685 0.10562
#
# Static dielectric constant tensor:
#      x y z
#    x 1.810460 0.000000 -0.016640 
#    y 0.000000 1.745820 0.000000 
#    z -0.016640 0.000000 1.932150 
# 
# From -- ./inp_files/116030.got.cif
#   From: 2010.05.17/outbox.cif.g08.bks.cpg/sg12_59_cif.got.tgz:116030.got - 2010.06.03 13:09:07.
