data_PCOD9211138
_publ_section_title
;
Structure prediction by ZEFSAII (Michael W. Deem and Ramdas Pophale) SiO2 
 PCOD9211138
Probable space group: C 2/M
;
_chemical_formula_sum "Si O2"
_cell_formula_units_Z 44
_cell_length_a 13.572230
_cell_length_b 18.419393
_cell_length_c 21.306103
_cell_angle_alpha 90.000000
_cell_angle_beta 155.599828
_cell_angle_gamma 90.000000
_cell_volume 2200.357628
_symmetry_space_group_name_H-M "C 2/M"
_symmetry_group_IT_number 12
_symmetry_cell_setting 'monoclinic'
loop_
_space_group_symop_operation_xyz
x,y,z
-x,y,-z
-x,-y,-z
x,-y,z
1/2+x,1/2+y,z
1/2-x,1/2+y,-z
1/2-x,1/2-y,-z
1/2+x,1/2-y,z
loop_
_atom_site_type_symbol
_atom_site_label
_atom_site_fract_x
_atom_site_fract_y
_atom_site_fract_z
Si Si1 0.795012 0.758443 0.600511
Si Si2 0.000000 0.621177 0.500000
Si Si3 0.219260 0.848780 0.840650
Si Si4 0.769717 0.000000 0.735120
Si Si5 0.276362 0.500000 0.080035
Si Si6 0.955624 0.117948 0.558492
Si Si7 0.672198 0.000000 0.265111
Si Si8 0.935289 0.500000 0.655871
O O1 0.750000 0.750000 0.500000
O O2 0.651111 0.826559 0.543343
O O3 0.677527 0.683404 0.554528
O O4 0.065275 0.779815 0.776145
O O5 0.159652 0.569610 0.635885
O O6 0.107523 0.857010 0.706845
O O7 0.184470 0.925793 0.857221
O O8 0.500000 0.834678 0.000000
O O9 0.666980 0.000000 0.746252
O O10 0.046267 0.000000 0.876757
O O11 0.008405 0.500000 0.897823
O O12 0.738016 0.068189 0.457462
O O13 0.150218 0.068083 0.636561
O O14 0.534005 0.000000 0.250991
#
# Coordination Sequence:
#
# PCOD9211138 Si02
#       8
#     8   4   8   4   4   8   4   4
#     4  10  22  37  62  95 131 167 210 260 327 389
#     4  11  22  38  64  95 130 168 218 273 324 380
#     4  11  20  37  65  99 131 162 214 279 329 384
#     4  11  23  38  63  93 134 169 222 272 322 390
#     4  12  21  38  64  99 134 167 217 272 341 381
#     4  10  21  39  66  97 127 166 221 275 320 382
#     4  11  23  39  65  98 125 177 217 276 325 378
#     4  11  24  40  64  95 125 176 230 269 315 381
#
# _framework density 19.996749000000001
#
# number of rings (size 3 to 8) (size 9 to 14) (size 15 to 20)
#    0.000    1.273    3.636    4.636    5.091    0.364 
#    0.000    0.000   12.000    6.545    0.000    0.000 
#    0.000    0.000    0.000    0.000    0.000    0.000 
#
# Total GULP energy -122660.920448 kJ/mol
# GULP energy per Si atom -5575.496384 kJ/mol
# Density = 1.995124 g / cm^3
# Si number density = 19.996749 Si / 1000 Ang^3
#
#
#
# Elastic Constant Matrix: (Units=GPa)
#
#
# Indices 1 2 3 4 5 6 
#
# 1 102.6492 44.4603 30.8570 0.0125 22.7325 -0.0494
# 2 44.4603 148.7326 67.0538 0.0165 16.8577 -0.0044
# 3 30.8570 67.0538 121.2778 0.0533 15.5452 -0.0970
# 4 0.0125 0.0165 0.0533 29.2080 0.0275 -8.0945
# 5 22.7325 16.8577 15.5452 0.0275 35.6672 -0.0864
# 6 -0.0494 -0.0044 -0.0970 -8.0945 -0.0864 52.7835
#
#
#
# Elastic Compliance Matrix: (Units=1/GPa)
#
#
# Indices 1 2 3 4 5 6 
#
# 1 0.012564 -0.002612 -0.000937 0.000004 -0.006365 0.000000
# 2 -0.002612 0.009665 -0.004562 0.000002 -0.000915 -0.000011
# 3 -0.000937 -0.004562 0.011283 -0.000012 -0.002165 0.000014
# 4 0.000004 0.000002 -0.000012 0.035757 -0.000012 0.005483
# 5 -0.006365 -0.000915 -0.002165 -0.000012 0.033470 0.000043
# 6 0.000000 -0.000011 0.000014 0.005483 0.000043 0.019786
#
#
# Mechanical properties :
#
#
# Convention : Reuss Voigt Hill
#
# Bulk Modulus (GPa) = 57.83163 73.04466 65.43814
# Shear Modulus (GPa) = 34.59964 38.88430 36.74197
#
# Velocity S-wave (km/s) = 4.16416 4.41447 4.29114
# Velocity P-wave (km/s) = 7.21828 7.91144 7.57280
#
# Compressibility (1/GPa) = 0.01729158
#
# Stress axis : x y z
#
# Youngs Moduli (GPa) = 79.58937 103.47104 88.62545
#
# Poissons Ratio (x) = 0.27028 0.08302
# Poissons Ratio (y) = 0.20790 0.40427
# Poissons Ratio (z) = 0.07455 0.47199
#
# Static dielectric constant tensor:
#      x y z
#    x 1.828660 -0.000020 0.039040 
#    y -0.000020 1.750540 -0.000020 
#    z 0.039040 -0.000020 1.683170 
# 
# From -- ./inp_files/340938.got.cif
#   From: 2010.05.17/outbox.cif.g08.bks.cpg/sg12_171_cif.got.tgz:340938.got - 2010.06.03 13:09:07.
