data_PCOD9211503
_publ_section_title
;
Structure prediction by ZEFSAII (Michael W. Deem and Ramdas Pophale) SiO2 
 PCOD9211503
Probable space group: C 2/M
;
_chemical_formula_sum "Si O2"
_cell_formula_units_Z 48
_cell_length_a 30.155602
_cell_length_b 8.898432
_cell_length_c 19.023854
_cell_angle_alpha 90.000000
_cell_angle_beta 150.417413
_cell_angle_gamma 90.000000
_cell_volume 2520.132691
_symmetry_space_group_name_H-M "C 2/M"
_symmetry_group_IT_number 12
_symmetry_cell_setting 'monoclinic'
loop_
_space_group_symop_operation_xyz
x,y,z
-x,y,-z
-x,-y,-z
x,-y,z
1/2+x,1/2+y,z
1/2-x,1/2+y,-z
1/2-x,1/2-y,-z
1/2+x,1/2-y,z
loop_
_atom_site_type_symbol
_atom_site_label
_atom_site_fract_x
_atom_site_fract_y
_atom_site_fract_z
Si Si1 0.502631 0.180517 0.920659
Si Si2 0.529008 0.168047 0.620619
Si Si3 0.649695 0.178847 0.536041
Si Si4 0.206615 0.318302 0.160308
Si Si5 0.654708 0.679649 0.390346
Si Si6 0.713078 0.676268 0.878937
O O1 0.424141 0.261244 0.769280
O O2 0.489721 0.000000 0.896538
O O3 0.500000 0.217852 0.000000
O O4 0.601738 0.216933 0.027487
O O5 0.500000 0.162630 0.500000
O O6 0.441727 0.201212 0.546184
O O7 0.607995 0.286515 0.734368
O O8 0.562452 0.000000 0.686680
O O9 0.732016 0.243334 0.695246
O O10 0.639256 0.262782 0.448095
O O11 0.661924 0.000000 0.541839
O O12 0.216441 0.500000 0.178960
O O13 0.242245 0.268687 0.132597
O O14 0.659042 0.500000 0.393670
O O15 0.750000 0.750000 0.500000
O O16 0.729689 0.500000 0.904456
O O17 0.750000 0.750000 0.000000
#
# Coordination Sequence:
#
# PCOD9211503 Si02
#       6
#     8   8   8   8   8   8
#     4  10  22  42  67  93 125 164 202 251 313 373
#     4  10  21  40  63  90 124 167 213 259 311 368
#     4  11  23  40  66  94 126 165 209 261 314 368
#     4  10  22  40  62  91 126 165 208 257 316 373
#     4  12  26  44  67  96 128 162 206 255 308 372
#     4  11  24  39  59  88 126 169 213 263 313 369
#
# _framework density 19.046616
#
# number of rings (size 3 to 8) (size 9 to 14) (size 15 to 20)
#    0.000    1.333    1.667    3.500    2.333    4.667 
#    0.000    0.000    0.000    0.000    0.000    0.000 
#    0.000    0.000    0.000    0.000    0.000    0.000 
#
# Total GULP energy -134143.037020 kJ/mol
# GULP energy per Si atom -5589.293209 kJ/mol
# Density = 1.900327 g / cm^3
# Si number density = 19.046616 Si / 1000 Ang^3
#
#
#
# Elastic Constant Matrix: (Units=GPa)
#
#
# Indices 1 2 3 4 5 6 
#
# 1 141.8467 71.1367 86.6846 0.0000 -8.4718 0.0000
# 2 71.1367 84.6989 79.0711 0.0000 -4.8675 0.0000
# 3 86.6846 79.0711 162.5990 0.0000 -13.0211 0.0000
# 4 0.0000 0.0000 0.0000 42.9520 0.0000 -2.2234
# 5 -8.4718 -4.8675 -13.0211 0.0000 32.5939 0.0000
# 6 0.0000 0.0000 0.0000 -2.2234 0.0000 28.1130
#
#
#
# Elastic Compliance Matrix: (Units=1/GPa)
#
#
# Indices 1 2 3 4 5 6 
#
# 1 0.012940 -0.008141 -0.002859 0.000000 0.001005 0.000000
# 2 -0.008141 0.026777 -0.008812 0.000000 -0.001638 0.000000
# 3 -0.002859 -0.008812 0.012185 0.000000 0.002809 0.000000
# 4 0.000000 0.000000 0.000000 0.023377 0.000000 0.001849
# 5 0.001005 -0.001638 0.002809 0.000000 0.031819 0.000000
# 6 0.000000 0.000000 0.000000 0.001849 0.000000 0.035717
#
#
# Mechanical properties :
#
#
# Convention : Reuss Voigt Hill
#
# Bulk Modulus (GPa) = 81.45783 95.88103 88.66943
# Shear Modulus (GPa) = 26.80502 30.88192 28.84347
#
# Velocity S-wave (km/s) = 3.75552 4.03101 3.89570
# Velocity P-wave (km/s) = 7.85275 8.49205 8.17865
#
# Compressibility (1/GPa) = 0.01227629
#
# Stress axis : x y z
#
# Youngs Moduli (GPa) = 77.28041 37.34579 82.07060
#
# Poissons Ratio (x) = 0.30404 0.23464
# Poissons Ratio (y) = 0.62915 0.72324
# Poissons Ratio (z) = 0.22095 0.32911
#
# Static dielectric constant tensor:
#      x y z
#    x 1.646170 0.000000 0.007600 
#    y 0.000000 1.660000 0.000000 
#    z 0.007600 0.000000 1.592930 
# 
# From -- ./inp_files/295908.got.cif
#   From: 2010.05.17/outbox.cif.g08.bks.cpg/sg12_148_cif.got.tgz:295908.got - 2010.06.03 13:09:07.
