data_PCOD9211669
_publ_section_title
;
Structure prediction by ZEFSAII (Michael W. Deem and Ramdas Pophale) SiO2 
 PCOD9211669
Probable space group: C 2/M
;
_chemical_formula_sum "Si O2"
_cell_formula_units_Z 60
_cell_length_a 12.090933
_cell_length_b 21.426839
_cell_length_c 10.731195
_cell_angle_alpha 90.000000
_cell_angle_beta 92.245215
_cell_angle_gamma 90.000000
_cell_volume 2778.001505
_symmetry_space_group_name_H-M "C 2/M"
_symmetry_group_IT_number 12
_symmetry_cell_setting 'monoclinic'
loop_
_space_group_symop_operation_xyz
x,y,z
-x,y,-z
-x,-y,-z
x,-y,z
1/2+x,1/2+y,z
1/2-x,1/2+y,-z
1/2-x,1/2-y,-z
1/2+x,1/2-y,z
loop_
_atom_site_type_symbol
_atom_site_label
_atom_site_fract_x
_atom_site_fract_y
_atom_site_fract_z
Si Si1 0.014604 0.708743 0.772448
Si Si2 0.348672 0.113968 0.636878
Si Si3 0.657698 0.570157 0.018818
Si Si4 0.791642 0.695509 0.410051
Si Si5 0.391141 0.427294 0.273690
Si Si6 0.581024 0.658594 0.234850
Si Si7 0.904318 0.406522 0.089503
Si Si8 0.989452 0.500000 0.293268
O O1 0.909583 0.668467 0.718822
O O2 0.974563 0.776653 0.808554
O O3 0.104395 0.717119 0.667012
O O4 0.074503 0.665689 0.877562
O O5 0.333603 0.138854 0.497057
O O6 0.226780 0.097175 0.682166
O O7 0.427617 0.054453 0.648483
O O8 0.632606 0.500000 0.062660
O O9 0.614518 0.619455 0.115403
O O10 0.789229 0.579474 0.020343
O O11 0.614977 0.575890 0.877104
O O12 0.750000 0.750000 0.500000
O O13 0.690287 0.674282 0.318997
O O14 0.406048 0.500000 0.310104
O O15 0.493686 0.382551 0.310639
O O16 0.916549 0.445569 0.216564
O O17 0.000000 0.427788 0.000000
#
# Coordination Sequence:
#
# PCOD9211669 Si02
#       8
#     8   8   8   8   8   8   8   4
#     4  11  25  45  68 104 135 176 234 290 351 405
#     4  11  23  43  71 102 135 182 235 282 344 405
#     4  11  23  44  71 103 143 183 226 279 346 416
#     4  12  25  47  71  97 133 185 234 287 347 410
#     4  11  25  46  71 101 144 190 228 273 345 420
#     4  12  26  45  71 100 138 186 237 281 344 419
#     4  11  22  39  71 107 140 177 222 283 353 414
#     4  10  21  40  65 103 138 174 226 281 337 401
#
# _framework density 21.59826
#
# number of rings (size 3 to 8) (size 9 to 14) (size 15 to 20)
#    0.000    0.800    4.000    3.800    1.867    3.733 
#    2.400    8.000    0.000    0.000    0.000    0.000 
#    0.000    0.000    0.000    0.000    0.000    0.000 
#
# Total GULP energy -167407.698128 kJ/mol
# GULP energy per Si atom -5580.256604 kJ/mol
# Density = 2.154910 g / cm^3
# Si number density = 21.598260 Si / 1000 Ang^3
#
#
#
# Elastic Constant Matrix: (Units=GPa)
#
#
# Indices 1 2 3 4 5 6 
#
# 1 99.1978 31.0201 -3.1014 0.0000 -5.8518 0.0000
# 2 31.0201 128.0500 14.7892 0.0000 -12.5762 0.0000
# 3 -3.1014 14.7892 31.6911 0.0000 -7.4849 0.0000
# 4 0.0000 0.0000 0.0000 13.1197 0.0000 -2.6694
# 5 -5.8518 -12.5762 -7.4849 0.0000 26.2614 0.0000
# 6 0.0000 0.0000 0.0000 -2.6694 0.0000 22.2386
#
#
#
# Elastic Compliance Matrix: (Units=1/GPa)
#
#
# Indices 1 2 3 4 5 6 
#
# 1 0.011177 -0.002849 0.002884 0.000000 0.001948 0.000000
# 2 -0.002849 0.009217 -0.003954 0.000000 0.002652 0.000000
# 3 0.002884 -0.003954 0.035796 0.000000 0.008952 0.000000
# 4 0.000000 0.000000 0.000000 0.078129 0.000000 0.009378
# 5 0.001948 0.002652 0.008952 0.000000 0.042334 0.000000
# 6 0.000000 0.000000 0.000000 0.009378 0.000000 0.046093
#
#
# Mechanical properties :
#
#
# Convention : Reuss Voigt Hill
#
# Bulk Modulus (GPa) = 20.68213 38.26162 29.47187
# Shear Modulus (GPa) = 20.26739 26.73934 23.50336
#
# Velocity S-wave (km/s) = 3.06662 3.52239 3.30238
# Velocity P-wave (km/s) = 4.70484 5.85632 5.31188
#
# Compressibility (1/GPa) = 0.04835092
#
# Stress axis : x y z
#
# Youngs Moduli (GPa) = 89.46989 108.49761 27.93607
#
# Poissons Ratio (x) = 0.30915 -0.08056
# Poissons Ratio (y) = 0.25493 0.11045
# Poissons Ratio (z) = -0.25799 0.42896
#
# Static dielectric constant tensor:
#      x y z
#    x 1.795770 0.000000 -0.013330 
#    y 0.000000 1.780180 0.000000 
#    z -0.013330 0.000000 1.786580 
# 
# From -- ./inp_files/133932.got.cif
#   From: 2010.05.17/outbox.cif.g08.bks.cpg/sg12_67_cif.got.tgz:133932.got - 2010.06.03 13:09:07.
