data_PCOD9211397
_publ_section_title
;
Structure prediction by ZEFSAII (Michael W. Deem and Ramdas Pophale) SiO2 
 PCOD9211397
Probable space group: C 2/M
;
_chemical_formula_sum "Si O2"
_cell_formula_units_Z 40
_cell_length_a 27.586129
_cell_length_b 17.191039
_cell_length_c 9.344800
_cell_angle_alpha 90.000000
_cell_angle_beta 153.652642
_cell_angle_gamma 90.000000
_cell_volume 1966.808028
_symmetry_space_group_name_H-M "C 2/M"
_symmetry_group_IT_number 12
_symmetry_cell_setting 'monoclinic'
loop_
_space_group_symop_operation_xyz
x,y,z
-x,y,-z
-x,-y,-z
x,-y,z
1/2+x,1/2+y,z
1/2-x,1/2+y,-z
1/2-x,1/2-y,-z
1/2+x,1/2-y,z
loop_
_atom_site_type_symbol
_atom_site_label
_atom_site_fract_x
_atom_site_fract_y
_atom_site_fract_z
Si Si1 0.208015 0.161304 0.892106
Si Si2 0.149064 0.309744 0.223739
Si Si3 0.375124 0.089024 0.121225
Si Si4 0.786209 0.907682 0.778596
Si Si5 0.985879 0.161549 0.126460
O O1 0.095746 0.153292 0.507678
O O2 0.250000 0.250000 0.000000
O O3 0.297683 0.109715 0.048321
O O4 0.193927 0.132828 0.016644
O O5 0.250000 0.250000 0.500000
O O6 0.175937 0.372001 0.417558
O O7 0.149257 0.353277 0.073390
O O8 0.045732 0.253271 0.961729
O O9 0.500000 0.098021 0.500000
O O10 0.357314 0.000000 0.028263
O O11 0.779674 0.000000 0.775937
O O12 0.887194 0.884194 0.942341
O O13 0.000000 0.135208 0.000000
#
# Coordination Sequence:
#
# PCOD9211397 Si02
#       5
#     8   8   8   8   8
#     4  12  23  40  66  93 128 170 213 262 314 376
#     4  10  21  40  62  89 123 163 211 255 304 368
#     4  11  24  42  65  93 127 167 211 262 320 379
#     4  11  24  41  64  97 133 167 208 261 319 376
#     4  11  23  40  64  94 127 168 215 260 311 376
#
# _framework density 20.337520000000001
#
# number of rings (size 3 to 8) (size 9 to 14) (size 15 to 20)
#    0.000    1.000    0.000    9.000    0.000    2.800 
#    0.000    0.000    0.000    6.000    0.000    0.000 
#    0.000    0.000    0.000    0.000    0.000    0.000 
#
# Total GULP energy -111882.945580 kJ/mol
# GULP energy per Si atom -5594.147279 kJ/mol
# Density = 2.029123 g / cm^3
# Si number density = 20.337520 Si / 1000 Ang^3
#
#
#
# Elastic Constant Matrix: (Units=GPa)
#
#
# Indices 1 2 3 4 5 6 
#
# 1 138.6536 44.6584 40.5636 0.0000 -25.0624 0.0000
# 2 44.6584 132.4741 28.3097 0.0000 -10.5906 0.0000
# 3 40.5636 28.3097 55.0415 0.0000 -2.6742 0.0000
# 4 0.0000 0.0000 0.0000 18.6133 0.0000 -0.1412
# 5 -25.0624 -10.5906 -2.6742 0.0000 38.5473 0.0000
# 6 0.0000 0.0000 0.0000 -0.1412 0.0000 29.1498
#
#
#
# Elastic Compliance Matrix: (Units=1/GPa)
#
#
# Indices 1 2 3 4 5 6 
#
# 1 0.010870 -0.001715 -0.006831 0.000000 0.006122 0.000000
# 2 -0.001715 0.008913 -0.003267 0.000000 0.001107 0.000000
# 3 -0.006831 -0.003267 0.024706 0.000000 -0.003625 0.000000
# 4 0.000000 0.000000 0.000000 0.053727 0.000000 0.000260
# 5 0.006122 0.001107 -0.003625 0.000000 0.029975 0.000000
# 6 0.000000 0.000000 0.000000 0.000260 0.000000 0.034307
#
#
# Mechanical properties :
#
#
# Convention : Reuss Voigt Hill
#
# Bulk Modulus (GPa) = 47.92974 61.47028 54.70001
# Shear Modulus (GPa) = 25.89618 31.43792 28.66705
#
# Velocity S-wave (km/s) = 3.57223 3.93594 3.75849
# Velocity P-wave (km/s) = 6.37438 7.13766 6.76679
#
# Compressibility (1/GPa) = 0.02086387
#
# Stress axis : x y z
#
# Youngs Moduli (GPa) = 91.99930 112.19033 40.47539
#
# Poissons Ratio (x) = 0.19241 0.27649
# Poissons Ratio (y) = 0.15778 0.13222
# Poissons Ratio (z) = 0.62845 0.36650
#
# Static dielectric constant tensor:
#      x y z
#    x 1.700450 0.000000 0.008940 
#    y 0.000000 1.716910 0.000000 
#    z 0.008940 0.000000 1.704250 
# 
# From -- ./inp_files/105879.got.cif
#   From: 2010.05.17/outbox.cif.g08.bks.cpg/sg12_53_cif.got.tgz:105879.got - 2010.06.03 13:09:07.
