data_PCOD9211570
_publ_section_title
;
Structure prediction by ZEFSAII (Michael W. Deem and Ramdas Pophale) SiO2 
 PCOD9211570
Probable space group: C 2/M
;
_chemical_formula_sum "Si O2"
_cell_formula_units_Z 36
_cell_length_a 5.094556
_cell_length_b 20.122070
_cell_length_c 15.352844
_cell_angle_alpha 90.000000
_cell_angle_beta 90.610380
_cell_angle_gamma 90.000000
_cell_volume 1573.776980
_symmetry_space_group_name_H-M "C 2/M"
_symmetry_group_IT_number 12
_symmetry_cell_setting 'monoclinic'
loop_
_space_group_symop_operation_xyz
x,y,z
-x,y,-z
-x,-y,-z
x,-y,z
1/2+x,1/2+y,z
1/2-x,1/2+y,-z
1/2-x,1/2-y,-z
1/2+x,1/2-y,z
loop_
_atom_site_type_symbol
_atom_site_label
_atom_site_fract_x
_atom_site_fract_y
_atom_site_fract_z
Si Si1 0.600842 0.926095 0.769087
Si Si2 0.044308 0.208665 0.632718
Si Si3 0.396261 0.353549 0.185527
Si Si4 0.680107 0.075149 0.416076
Si Si5 0.500000 0.703596 0.000000
O O1 0.406936 0.875023 0.816214
O O2 0.510031 0.921012 0.668698
O O3 0.906071 0.910928 0.781075
O O4 0.543099 0.000000 0.800402
O O5 0.261548 0.263170 0.607594
O O6 0.065352 0.200739 0.738161
O O7 0.121525 0.136758 0.594494
O O8 0.489171 0.335981 0.089936
O O9 0.500000 0.082054 0.500000
O O10 0.798143 0.000000 0.416299
O O11 0.250000 0.750000 0.000000
#
# Coordination Sequence:
#
# PCOD9211570 Si02
#       5
#     8   8   8   8   4
#     4  10  21  40  64  89 123 164 207 254 310 377
#     4  11  22  39  62  89 123 161 203 255 314 371
#     4  11  22  40  62  90 123 162 205 254 317 376
#     4   9  20  40  65  93 126 168 216 263 313 376
#     4  12  24  40  63  90 121 158 208 260 310 378
#
# _framework density 22.874907
#
# number of rings (size 3 to 8) (size 9 to 14) (size 15 to 20)
#    0.000    1.556    0.000    6.000    0.000    1.778 
#    0.000   13.333    0.000   30.667    0.000    0.000 
#    0.000    0.000    0.000    0.000    0.000    0.000 
#
# Total GULP energy -100777.080971 kJ/mol
# GULP energy per Si atom -5598.726721 kJ/mol
# Density = 2.282284 g / cm^3
# Si number density = 22.874907 Si / 1000 Ang^3
#
#
#
# Elastic Constant Matrix: (Units=GPa)
#
#
# Indices 1 2 3 4 5 6 
#
# 1 65.1957 6.3443 2.4007 0.0000 -6.0303 0.0000
# 2 6.3443 91.0952 43.1369 0.0000 -13.8363 0.0000
# 3 2.4007 43.1369 129.9242 0.0000 -16.3997 0.0000
# 4 0.0000 0.0000 0.0000 13.5788 0.0000 -2.7887
# 5 -6.0303 -13.8363 -16.3997 0.0000 30.5559 0.0000
# 6 0.0000 0.0000 0.0000 -2.7887 0.0000 24.0474
#
#
#
# Elastic Compliance Matrix: (Units=1/GPa)
#
#
# Indices 1 2 3 4 5 6 
#
# 1 0.015674 -0.000814 0.000348 0.000000 0.002911 0.000000
# 2 -0.000814 0.013501 -0.003986 0.000000 0.003813 0.000000
# 3 0.000348 -0.003986 0.009434 0.000000 0.003327 0.000000
# 4 0.000000 0.000000 0.000000 0.075441 0.000000 0.008748
# 5 0.002911 0.003813 0.003327 0.000000 0.036814 0.000000
# 6 0.000000 0.000000 0.000000 0.008748 0.000000 0.042599
#
#
# Mechanical properties :
#
#
# Convention : Reuss Voigt Hill
#
# Bulk Modulus (GPa) = 33.66495 43.33101 38.49798
# Shear Modulus (GPa) = 23.55508 29.25866 26.40687
#
# Velocity S-wave (km/s) = 3.21243 3.58029 3.40134
# Velocity P-wave (km/s) = 5.33934 6.00625 5.68259
#
# Compressibility (1/GPa) = 0.02970448
#
# Stress axis : x y z
#
# Youngs Moduli (GPa) = 63.79934 74.06836 106.00217
#
# Poissons Ratio (x) = 0.06031 -0.03692
# Poissons Ratio (y) = 0.05195 0.42254
# Poissons Ratio (z) = -0.02222 0.29525
#
# Static dielectric constant tensor:
#      x y z
#    x 1.790940 0.000000 -0.083660 
#    y 0.000000 1.922620 0.000000 
#    z -0.083660 0.000000 1.514930 
# 
# From -- ./inp_files/191202.got.cif
#   From: 2010.05.17/outbox.cif.g08.bks.cpg/sg12_96_cif.got.tgz:191202.got - 2010.06.03 13:09:07.
