data_PCOD9211745
_publ_section_title
;
Structure prediction by ZEFSAII (Michael W. Deem and Ramdas Pophale) SiO2 
 PCOD9211745
Probable space group: C 2/M
;
_chemical_formula_sum "Si O2"
_cell_formula_units_Z 30
_cell_length_a 17.402524
_cell_length_b 14.706771
_cell_length_c 5.327386
_cell_angle_alpha 90.000000
_cell_angle_beta 117.019308
_cell_angle_gamma 90.000000
_cell_volume 1214.646825
_symmetry_space_group_name_H-M "C 2/M"
_symmetry_group_IT_number 12
_symmetry_cell_setting 'monoclinic'
loop_
_space_group_symop_operation_xyz
x,y,z
-x,y,-z
-x,-y,-z
x,-y,z
1/2+x,1/2+y,z
1/2-x,1/2+y,-z
1/2-x,1/2-y,-z
1/2+x,1/2-y,z
loop_
_atom_site_type_symbol
_atom_site_label
_atom_site_fract_x
_atom_site_fract_y
_atom_site_fract_z
Si Si1 0.000000 0.632511 0.500000
Si Si2 0.810204 0.661034 0.121944
Si Si3 0.500000 0.000000 0.000000
Si Si4 0.757442 0.858943 0.477477
Si Si5 0.043136 0.892007 0.310803
O O1 0.092177 0.682195 0.660906
O O2 0.994834 0.577403 0.758829
O O3 0.770238 0.604852 0.292953
O O4 0.750000 0.750000 0.000000
O O5 0.803073 0.612311 0.842433
O O6 0.750000 0.750000 0.500000
O O7 0.854795 0.881038 0.552096
O O8 0.000000 0.857991 0.500000
O O9 0.025097 0.000000 0.279120
O O10 0.000000 0.849545 0.000000
#
# Coordination Sequence:
#
# PCOD9211745 Si02
#       5
#     4   8   2   8   8
#     4  11  22  46  70  98 142 177 230 282 340 409
#     4  10  22  42  66  98 132 171 227 279 339 397
#     4  10  24  42  68 102 132 196 226 272 332 414
#     4  10  21  41  59  98 134 164 225 271 332 410
#     4  10  21  40  65  93 127 171 217 268 340 404
#
# _framework density 24.698535
#
# number of rings (size 3 to 8) (size 9 to 14) (size 15 to 20)
#    0.000    1.867    0.000    3.200    0.000    0.000 
#   43.200    0.000    0.000    0.000    0.000    0.000 
#    0.000    0.000    0.000    0.000    0.000    0.000 
#
# Total GULP energy -83550.377255 kJ/mol
# GULP energy per Si atom -5570.025150 kJ/mol
# Density = 2.464232 g / cm^3
# Si number density = 24.698535 Si / 1000 Ang^3
#
#
#
# Elastic Constant Matrix: (Units=GPa)
#
#
# Indices 1 2 3 4 5 6 
#
# 1 175.6913 16.8164 118.7904 0.0000 -4.8964 0.0000
# 2 16.8164 70.3223 28.0723 0.0000 -7.4655 0.0000
# 3 118.7904 28.0723 253.2125 0.0000 -29.2632 0.0000
# 4 0.0000 0.0000 0.0000 -4.8256 0.0000 7.4726
# 5 -4.8964 -7.4655 -29.2632 0.0000 80.2164 0.0000
# 6 0.0000 0.0000 0.0000 7.4726 0.0000 2.1239
#
#
#
# Elastic Compliance Matrix: (Units=1/GPa)
#
#
# Indices 1 2 3 4 5 6 
#
# 1 0.008425 -0.000520 -0.004010 0.000000 -0.000997 0.000000
# 2 -0.000520 0.014962 -0.001313 0.000000 0.000882 0.000000
# 3 -0.004010 -0.001313 0.006195 0.000000 0.001893 0.000000
# 4 0.000000 0.000000 0.000000 -0.032137 0.000000 0.113070
# 5 -0.000997 0.000882 0.001893 0.000000 0.013178 0.000000
# 6 0.000000 0.000000 0.000000 0.113070 0.000000 0.073017
#
#
# Mechanical properties :
#
#
# Convention : Reuss Voigt Hill
#
# Bulk Modulus (GPa) = 55.87697 91.84272 73.85984
# Shear Modulus (GPa) = 49.36251 37.87274 43.61763
#
# Velocity S-wave (km/s) = 4.47542 3.92011 4.20694
# Velocity P-wave (km/s) = 7.02699 7.59973 7.31897
#
# Compressibility (1/GPa) = 0.01789646
#
# Stress axis : x y z
#
# Youngs Moduli (GPa) = 118.69265 66.83458 161.42416
#
# Poissons Ratio (x) = 0.03474 0.64733
# Poissons Ratio (y) = 0.06169 0.21196
# Poissons Ratio (z) = 0.47597 0.08776
#
# Static dielectric constant tensor:
#      x y z
#    x 2.058430 0.000000 -0.091120 
#    y 0.000000 1.958450 0.000000 
#    z -0.091120 0.000000 2.013660 
# 
# From -- ./inp_files/6072.got.cif
#   From: 2010.05.17/outbox.cif.g08.bks.cpg/sg12_4_cif.got.tgz:6072.got - 2010.06.03 13:09:07.
