data_PCOD9211026
_publ_section_title
;
Structure prediction by ZEFSAII (Michael W. Deem and Ramdas Pophale) SiO2 
 PCOD9211026
Probable space group: C 2/M
;
_chemical_formula_sum "Si O2"
_cell_formula_units_Z 58
_cell_length_a 27.914095
_cell_length_b 19.085137
_cell_length_c 14.415292
_cell_angle_alpha 90.000000
_cell_angle_beta 156.161559
_cell_angle_gamma 90.000000
_cell_volume 3103.806296
_symmetry_space_group_name_H-M "C 2/M"
_symmetry_group_IT_number 12
_symmetry_cell_setting 'monoclinic'
loop_
_space_group_symop_operation_xyz
x,y,z
-x,y,-z
-x,-y,-z
x,-y,z
1/2+x,1/2+y,z
1/2-x,1/2+y,-z
1/2-x,1/2-y,-z
1/2+x,1/2-y,z
loop_
_atom_site_type_symbol
_atom_site_label
_atom_site_fract_x
_atom_site_fract_y
_atom_site_fract_z
Si Si1 0.636900 0.171135 0.746730
Si Si2 0.753044 0.698503 0.859651
Si Si3 0.324767 0.416646 0.976566
Si Si4 0.443158 0.417496 0.501883
Si Si5 0.175877 0.321256 0.378476
Si Si6 0.138499 0.125925 0.159796
Si Si7 0.500000 0.500000 0.000000
Si Si8 0.577275 0.784528 0.015526
O O1 0.500000 0.152222 0.500000
O O2 0.666330 0.236789 0.731307
O O3 0.725627 0.110941 0.870654
O O4 0.671040 0.189855 0.912303
O O5 0.671122 0.631312 0.695079
O O6 0.841303 0.710812 0.930509
O O7 0.323077 0.500000 0.970448
O O8 0.303327 0.385430 0.837326
O O9 0.454397 0.394998 0.244530
O O10 0.500000 0.410162 0.500000
O O11 0.416483 0.500000 0.468546
O O12 0.250000 0.250000 0.500000
O O13 0.263666 0.374628 0.584882
O O14 0.131648 0.332260 0.194950
O O15 0.059218 0.307611 0.233993
O O16 0.079943 0.203088 0.052777
O O17 0.049415 0.062396 0.018169
#
# Coordination Sequence:
#
# PCOD9211026 Si02
#       8
#     8   8   8   8   8   8   2   8
#     4  11  25  38  59  96 133 167 209 262 318 379
#     4  11  23  38  63  95 128 168 213 262 319 374
#     4  11  23  42  62  91 124 170 214 262 323 372
#     4  10  21  40  64  87 126 168 218 263 302 373
#     4   9  20  38  61  89 120 156 200 256 318 368
#     4  11  22  39  61  93 124 159 202 265 321 373
#     4  12  24  40  64  90 124 160 214 252 316 388
#     4  10  21  39  65  95 122 160 210 262 318 380
#
# _framework density 18.686731999999999
#
# number of rings (size 3 to 8) (size 9 to 14) (size 15 to 20)
#    0.000    1.517    3.448    2.069    3.862    3.586 
#    0.000    0.000    1.517    0.828    0.000    0.000 
#    0.000    0.000    0.000    0.000    0.000    0.000 
#
# Total GULP energy -161576.330946 kJ/mol
# GULP energy per Si atom -5571.597619 kJ/mol
# Density = 1.864420 g / cm^3
# Si number density = 18.686732 Si / 1000 Ang^3
#
#
#
# Elastic Constant Matrix: (Units=GPa)
#
#
# Indices 1 2 3 4 5 6 
#
# 1 115.8975 24.5414 22.4833 0.0000 13.1012 0.0000
# 2 24.5414 50.8496 18.1129 0.0000 2.4668 0.0000
# 3 22.4833 18.1129 69.2890 0.0000 9.0844 0.0000
# 4 0.0000 0.0000 0.0000 10.7261 0.0000 3.0087
# 5 13.1012 2.4668 9.0844 0.0000 28.7078 0.0000
# 6 0.0000 0.0000 0.0000 3.0087 0.0000 30.1431
#
#
#
# Elastic Compliance Matrix: (Units=1/GPa)
#
#
# Indices 1 2 3 4 5 6 
#
# 1 0.010274 -0.004151 -0.001754 0.000000 -0.003777 0.000000
# 2 -0.004151 0.023362 -0.004951 0.000000 0.001453 0.000000
# 3 -0.001754 -0.004951 0.016833 0.000000 -0.004101 0.000000
# 4 0.000000 0.000000 0.000000 0.095916 0.000000 -0.009574
# 5 -0.003777 0.001453 -0.004101 0.000000 0.037730 0.000000
# 6 0.000000 0.000000 0.000000 -0.009574 0.000000 0.034131
#
#
# Mechanical properties :
#
#
# Convention : Reuss Voigt Hill
#
# Bulk Modulus (GPa) = 34.77133 40.70125 37.73629
# Shear Modulus (GPa) = 20.03657 25.30864 22.67261
#
# Velocity S-wave (km/s) = 3.27805 3.68416 3.48702
# Velocity P-wave (km/s) = 5.74242 6.31866 6.03742
#
# Compressibility (1/GPa) = 0.02875932
#
# Stress axis : x y z
#
# Youngs Moduli (GPa) = 97.32900 42.80434 59.40646
#
# Poissons Ratio (x) = 0.17767 0.10418
# Poissons Ratio (y) = 0.40400 0.29411
# Poissons Ratio (z) = 0.17068 0.21191
#
# Static dielectric constant tensor:
#      x y z
#    x 1.672650 0.000000 -0.024380 
#    y 0.000000 1.507440 0.000000 
#    z -0.024380 0.000000 1.659880 
# 
# From -- ./inp_files/247295.got.cif
#   From: 2010.05.17/outbox.cif.g08.bks.cpg/sg12_124_cif.got.tgz:247295.got - 2010.06.03 13:09:07.
