data_PCOD9211657
_publ_section_title
;
Structure prediction by ZEFSAII (Michael W. Deem and Ramdas Pophale) SiO2 
 PCOD9211657
Probable space group: C 2/M
;
_chemical_formula_sum "Si O2"
_cell_formula_units_Z 34
_cell_length_a 13.902183
_cell_length_b 10.735330
_cell_length_c 10.161380
_cell_angle_alpha 90.000000
_cell_angle_beta 88.503021
_cell_angle_gamma 90.000000
_cell_volume 1516.012717
_symmetry_space_group_name_H-M "C 2/M"
_symmetry_group_IT_number 12
_symmetry_cell_setting 'monoclinic'
loop_
_space_group_symop_operation_xyz
x,y,z
-x,y,-z
-x,-y,-z
x,-y,z
1/2+x,1/2+y,z
1/2-x,1/2+y,-z
1/2-x,1/2-y,-z
1/2+x,1/2-y,z
loop_
_atom_site_type_symbol
_atom_site_label
_atom_site_fract_x
_atom_site_fract_y
_atom_site_fract_z
Si Si1 0.132143 0.859043 0.917416
Si Si2 0.797276 0.362503 0.417450
Si Si3 0.816542 0.749265 0.802186
Si Si4 0.000000 0.000000 0.500000
Si Si5 0.514851 0.256022 0.687437
O O1 0.235657 0.850946 0.840804
O O2 0.061143 0.780475 0.828884
O O3 0.099357 0.000000 0.925311
O O4 0.146818 0.804782 0.061775
O O5 0.780682 0.500000 0.474480
O O6 0.750000 0.250000 0.500000
O O7 0.740410 0.352429 0.280937
O O8 0.908947 0.331517 0.389726
O O9 0.907778 0.705710 0.714430
O O10 0.009079 0.888350 0.612447
#
# Coordination Sequence:
#
# PCOD9211657 Si02
#       5
#     8   8   8   2   8
#     4  10  21  40  64  96 131 170 226 274 328 403
#     4  11  26  44  66  98 137 180 225 281 338 405
#     4  10  23  40  64  97 131 175 218 279 342 391
#     4  12  24  40  64 100 128 178 226 282 332 396
#     4  11  24  40  66  95 133 173 226 276 334 404
#
# _framework density 22.427253
#
# number of rings (size 3 to 8) (size 9 to 14) (size 15 to 20)
#    0.000    1.412    1.176    2.824    8.235    2.824 
#    0.000    4.118    0.000    8.471    0.000    0.000 
#    0.000    0.000    0.000    0.000    0.000    0.000 
#
# Total GULP energy -94787.941387 kJ/mol
# GULP energy per Si atom -5575.761258 kJ/mol
# Density = 2.237621 g / cm^3
# Si number density = 22.427253 Si / 1000 Ang^3
#
#
#
# Elastic Constant Matrix: (Units=GPa)
#
#
# Indices 1 2 3 4 5 6 
#
# 1 144.4045 16.3992 40.6362 0.0000 -39.6630 0.0000
# 2 16.3992 103.7672 26.6049 0.0000 -18.0293 0.0000
# 3 40.6362 26.6049 93.9688 0.0000 6.2130 0.0000
# 4 0.0000 0.0000 0.0000 12.8218 0.0000 5.7606
# 5 -39.6630 -18.0293 6.2130 0.0000 43.7908 0.0000
# 6 0.0000 0.0000 0.0000 5.7606 0.0000 3.8264
#
#
#
# Elastic Compliance Matrix: (Units=1/GPa)
#
#
# Indices 1 2 3 4 5 6 
#
# 1 0.012033 0.001990 -0.006604 0.000000 0.012656 0.000000
# 2 0.001990 0.011796 -0.004685 0.000000 0.007324 0.000000
# 3 -0.006604 -0.004685 0.015492 0.000000 -0.010108 0.000000
# 4 0.000000 0.000000 0.000000 0.241011 0.000000 -0.362842
# 5 0.012656 0.007324 -0.010108 0.000000 0.038748 0.000000
# 6 0.000000 0.000000 0.000000 -0.362842 0.000000 0.807605
#
#
# Mechanical properties :
#
#
# Convention : Reuss Voigt Hill
#
# Bulk Modulus (GPa) = 48.25077 56.60234 52.42655
# Shear Modulus (GPa) = 4.33956 29.32113 16.83035
#
# Velocity S-wave (km/s) = 1.39253 3.61971 2.74239
# Velocity P-wave (km/s) = 4.91392 6.53932 5.78400
#
# Compressibility (1/GPa) = 0.02072506
#
# Stress axis : x y z
#
# Youngs Moduli (GPa) = 83.10191 84.77412 64.54782
#
# Poissons Ratio (x) = -0.16873 0.42628
# Poissons Ratio (y) = -0.16540 0.30239
# Poissons Ratio (z) = 0.54881 0.39714
#
# Static dielectric constant tensor:
#      x y z
#    x 1.868200 0.000000 -0.008430 
#    y 0.000000 1.771800 0.000000 
#    z -0.008430 0.000000 1.871550 
# 
# From -- ./inp_files/139526.got.cif
#   From: 2010.05.17/outbox.cif.g08.bks.cpg/sg12_70_cif.got.tgz:139526.got - 2010.06.03 13:09:07.
