data_PCOD9211983
_publ_section_title
;
Structure prediction by ZEFSAII (Michael W. Deem and Ramdas Pophale) SiO2 
 PCOD9211983
Probable space group: C 2/M
;
_chemical_formula_sum "Si O2"
_cell_formula_units_Z 48
_cell_length_a 29.090533
_cell_length_b 10.703495
_cell_length_c 15.924202
_cell_angle_alpha 90.000000
_cell_angle_beta 153.608640
_cell_angle_gamma 90.000000
_cell_volume 2203.975863
_symmetry_space_group_name_H-M "C 2/M"
_symmetry_group_IT_number 12
_symmetry_cell_setting 'monoclinic'
loop_
_space_group_symop_operation_xyz
x,y,z
-x,y,-z
-x,-y,-z
x,-y,z
1/2+x,1/2+y,z
1/2-x,1/2+y,-z
1/2-x,1/2-y,-z
1/2+x,1/2-y,z
loop_
_atom_site_type_symbol
_atom_site_label
_atom_site_fract_x
_atom_site_fract_y
_atom_site_fract_z
Si Si1 0.195225 0.350741 0.475068
Si Si2 0.973208 0.725915 0.052794
Si Si3 0.243180 0.705949 0.261171
Si Si4 0.892870 0.000000 0.261028
Si Si5 0.918265 0.000000 0.552176
Si Si6 0.580996 0.500000 0.968337
Si Si7 0.223133 0.500000 0.832247
Si Si8 0.696224 0.742846 0.821208
O O1 0.216134 0.500000 0.492583
O O2 0.250000 0.250000 0.500000
O O3 0.231700 0.313461 0.628755
O O4 0.072708 0.322836 0.265858
O O5 0.942534 0.870194 0.022791
O O6 0.867287 0.651585 0.893838
O O7 0.000000 0.717334 0.000000
O O8 0.341749 0.616877 0.428362
O O9 0.230270 0.728117 0.139726
O O10 0.999917 0.000000 0.610928
O O11 0.875335 0.875870 0.286009
O O12 0.803186 0.000000 0.042159
O O13 0.993482 0.000000 0.754130
O O14 0.695738 0.500000 0.113155
O O15 0.152655 0.378234 0.726751
O O16 0.750000 0.750000 0.000000
#
# Coordination Sequence:
#
# PCOD9211983 Si02
#       8
#     8   8   8   4   4   4   4   8
#     4  12  30  50  73 111 155 197 252 313 373 449
#     4  12  26  44  73 109 147 197 251 305 372 452
#     4  12  26  44  76 110 148 199 251 313 379 443
#     4   9  21  42  68 101 140 190 250 299 373 447
#     4  11  25  45  76 106 148 195 254 313 376 457
#     4  11  21  43  71 105 144 199 250 303 373 445
#     4   9  18  36  68 101 143 182 245 307 366 435
#     4  10  21  40  69 108 144 192 247 313 371 445
#
# _framework density 21.778822999999999
#
# number of rings (size 3 to 8) (size 9 to 14) (size 15 to 20)
#    0.000    1.000    5.000    0.750    5.833    1.667 
#    0.000    0.000    5.500    1.000    0.000    0.000 
#    0.000    0.000    0.000    0.000    0.000    0.000 
#
# Total GULP energy -133785.821090 kJ/mol
# GULP energy per Si atom -5574.409212 kJ/mol
# Density = 2.172925 g / cm^3
# Si number density = 21.778823 Si / 1000 Ang^3
#
#
#
# Elastic Constant Matrix: (Units=GPa)
#
#
# Indices 1 2 3 4 5 6 
#
# 1 161.7033 64.1016 50.7990 0.0000 -2.5968 0.0000
# 2 64.1016 158.4458 24.4324 0.0000 27.1089 0.0000
# 3 50.7990 24.4324 121.4843 0.0000 2.5656 0.0000
# 4 0.0000 0.0000 0.0000 -26.7392 0.0000 7.7545
# 5 -2.5968 27.1089 2.5656 0.0000 44.3100 0.0000
# 6 0.0000 0.0000 0.0000 7.7545 0.0000 32.3989
#
#
#
# Elastic Compliance Matrix: (Units=1/GPa)
#
#
# Indices 1 2 3 4 5 6 
#
# 1 0.008526 -0.003477 -0.002925 0.000000 0.002796 0.000000
# 2 -0.003477 0.008688 -0.000177 0.000000 -0.005509 0.000000
# 3 -0.002925 -0.000177 0.009503 0.000000 -0.000613 0.000000
# 4 0.000000 0.000000 0.000000 -0.034971 0.000000 0.008370
# 5 0.002796 -0.005509 -0.000613 0.000000 0.026138 0.000000
# 6 0.000000 0.000000 0.000000 0.008370 0.000000 0.028862
#
#
# Mechanical properties :
#
#
# Convention : Reuss Voigt Hill
#
# Bulk Modulus (GPa) = 73.75027 80.03326 76.89177
# Shear Modulus (GPa) = 77.61137 30.14730 53.87934
#
# Velocity S-wave (km/s) = 5.97608 3.72459 4.97926
# Velocity P-wave (km/s) = 9.03077 7.43806 8.27283
#
# Compressibility (1/GPa) = 0.01355927
#
# Stress axis : x y z
#
# Youngs Moduli (GPa) = 117.28524 115.10560 105.22760
#
# Poissons Ratio (x) = 0.40019 0.30780
# Poissons Ratio (y) = 0.40777 0.01863
# Poissons Ratio (z) = 0.34307 0.02038
#
# Static dielectric constant tensor:
#      x y z
#    x 1.825040 0.000000 -0.044160 
#    y 0.000000 1.890510 0.000000 
#    z -0.044160 0.000000 1.795110 
# 
# From -- ./inp_files/246057.got.cif
#   From: 2010.05.17/outbox.cif.g08.bks.cpg/sg12_124_cif.got.tgz:246057.got - 2010.06.03 13:09:07.
