data_PCOD9211360
_publ_section_title
;
Structure prediction by ZEFSAII (Michael W. Deem and Ramdas Pophale) SiO2 
 PCOD9211360
Probable space group: C 2/M
;
_chemical_formula_sum "Si O2"
_cell_formula_units_Z 50
_cell_length_a 24.681816
_cell_length_b 14.068555
_cell_length_c 8.894922
_cell_angle_alpha 90.000000
_cell_angle_beta 60.647192
_cell_angle_gamma 90.000000
_cell_volume 2692.122784
_symmetry_space_group_name_H-M "C 2/M"
_symmetry_group_IT_number 12
_symmetry_cell_setting 'monoclinic'
loop_
_space_group_symop_operation_xyz
x,y,z
-x,y,-z
-x,-y,-z
x,-y,z
1/2+x,1/2+y,z
1/2-x,1/2+y,-z
1/2-x,1/2-y,-z
1/2+x,1/2-y,z
loop_
_atom_site_type_symbol
_atom_site_label
_atom_site_fract_x
_atom_site_fract_y
_atom_site_fract_z
Si Si1 0.303443 0.110337 0.464176
Si Si2 0.500000 0.500000 0.000000
Si Si3 0.679193 0.387342 0.460738
Si Si4 0.459406 0.687328 0.869542
Si Si5 0.656559 0.294679 0.169457
Si Si6 0.727115 0.889725 0.142917
Si Si7 0.591397 0.259775 0.747627
O O1 0.247049 0.139086 0.431407
O O2 0.279768 0.116985 0.667807
O O3 0.362881 0.175642 0.359466
O O4 0.317931 0.000000 0.414997
O O5 0.476410 0.584287 0.914168
O O6 0.677068 0.500000 0.441330
O O7 0.665129 0.333154 0.326334
O O8 0.628389 0.355446 0.652209
O O9 0.412488 0.688124 0.795579
O O10 0.525359 0.738390 0.753284
O O11 0.424162 0.739660 0.055275
O O12 0.678025 0.184517 0.138915
O O13 0.705505 0.352791 0.000538
O O14 0.718413 0.000000 0.110740
#
# Coordination Sequence:
#
# PCOD9211360 Si02
#       7
#     8   2   8   8   8   8   8
#     4  10  21  40  62  85 114 156 202 246 291 363
#     4   8  20  40  60  82 110 168 200 222 276 374
#     4  11  23  35  59  92 120 151 194 249 309 345
#     4  10  24  39  61  84 120 158 203 236 297 358
#     4  11  23  39  58  91 126 152 192 255 300 352
#     4  10  22  39  60  89 119 159 197 237 310 360
#     4  10  21  41  59  82 116 157 199 238 289 360
#
# _framework density 18.572703000000001
#
# number of rings (size 3 to 8) (size 9 to 14) (size 15 to 20)
#    0.000    1.920    1.600    1.920   11.200    0.640 
#    0.000    3.200    0.000    1.920    0.000    0.000 
#    0.000    0.000    0.000    0.000    0.000    0.000 
#
# Total GULP energy -139347.481733 kJ/mol
# GULP energy per Si atom -5573.899269 kJ/mol
# Density = 1.853043 g / cm^3
# Si number density = 18.572703 Si / 1000 Ang^3
#
#
#
# Elastic Constant Matrix: (Units=GPa)
#
#
# Indices 1 2 3 4 5 6 
#
# 1 159.2094 69.6217 42.4991 0.0000 -4.7523 0.0000
# 2 69.6217 111.8720 33.0126 0.0000 1.4854 0.0000
# 3 42.4991 33.0126 60.4148 0.0000 -15.7429 0.0000
# 4 0.0000 0.0000 0.0000 1.1339 0.0000 11.5013
# 5 -4.7523 1.4854 -15.7429 0.0000 21.6384 0.0000
# 6 0.0000 0.0000 0.0000 11.5013 0.0000 9.7576
#
#
#
# Elastic Compliance Matrix: (Units=1/GPa)
#
#
# Indices 1 2 3 4 5 6 
#
# 1 0.009411 -0.004571 -0.004321 0.000000 -0.000763 0.000000
# 2 -0.004571 0.013580 -0.005811 0.000000 -0.006164 0.000000
# 3 -0.004321 -0.005811 0.027916 0.000000 0.019760 0.000000
# 4 0.000000 0.000000 0.000000 -0.080497 0.000000 0.094883
# 5 -0.000763 -0.006164 0.019760 0.000000 0.060846 0.000000
# 6 0.000000 0.000000 0.000000 0.094883 0.000000 -0.009355
#
#
# Mechanical properties :
#
#
# Convention : Reuss Voigt Hill
#
# Bulk Modulus (GPa) = 46.51072 69.08477 57.79774
# Shear Modulus (GPa) = 85.50570 18.93017 52.21793
#
# Velocity S-wave (km/s) = 6.79252 3.19603 5.30815
# Velocity P-wave (km/s) = 9.30670 7.13422 8.29192
#
# Compressibility (1/GPa) = 0.02150042
#
# Stress axis : x y z
#
# Youngs Moduli (GPa) = 106.26160 73.63535 35.82132
#
# Poissons Ratio (x) = 0.33662 0.15478
# Poissons Ratio (y) = 0.48577 0.20817
# Poissons Ratio (z) = 0.45914 0.42791
#
# Static dielectric constant tensor:
#      x y z
#    x 1.631960 0.000000 0.001370 
#    y 0.000000 1.644510 0.000000 
#    z 0.001370 0.000000 1.644020 
# 
# From -- ./inp_files/96211.got.cif
#   From: 2010.05.17/outbox.cif.g08.bks.cpg/sg12_49_cif.got.tgz:96211.got - 2010.06.03 13:09:07.
