data_PCOD9211686
_publ_section_title
;
Structure prediction by ZEFSAII (Michael W. Deem and Ramdas Pophale) SiO2 
 PCOD9211686
Probable space group: C 2/M
;
_chemical_formula_sum "Si O2"
_cell_formula_units_Z 32
_cell_length_a 14.131554
_cell_length_b 13.801762
_cell_length_c 20.231129
_cell_angle_alpha 90.000000
_cell_angle_beta 157.634375
_cell_angle_gamma 90.000000
_cell_volume 1501.471402
_symmetry_space_group_name_H-M "C 2/M"
_symmetry_group_IT_number 12
_symmetry_cell_setting 'monoclinic'
loop_
_space_group_symop_operation_xyz
x,y,z
-x,y,-z
-x,-y,-z
x,-y,z
1/2+x,1/2+y,z
1/2-x,1/2+y,-z
1/2-x,1/2-y,-z
1/2+x,1/2-y,z
loop_
_atom_site_type_symbol
_atom_site_label
_atom_site_fract_x
_atom_site_fract_y
_atom_site_fract_z
Si Si1 0.084999 0.000000 0.158025
Si Si2 0.014120 0.811061 0.819629
Si Si3 0.225650 0.884730 0.817581
Si Si4 0.213801 0.181323 0.540047
Si Si5 0.072761 0.500000 0.744325
O O1 0.322731 0.000000 0.263003
O O2 0.074670 0.099847 0.192650
O O3 0.824683 0.000000 0.949723
O O4 0.096736 0.857464 0.803109
O O5 0.795296 0.737460 0.658021
O O6 0.250000 0.750000 0.000000
O O7 0.068673 0.851859 0.652809
O O8 0.241124 0.000000 0.823740
O O9 0.500000 0.840930 0.000000
O O10 0.250000 0.250000 0.500000
O O11 0.403094 0.092339 0.651296
#
# Coordination Sequence:
#
# PCOD9211686 Si02
#       5
#     4   8   8   8   4
#     4  11  24  41  69 104 133 177 220 278 334 404
#     4  11  22  40  66  98 136 169 218 278 330 391
#     4  10  21  40  65  89 125 176 217 259 329 397
#     4  10  22  40  65  96 132 175 215 275 331 397
#     4  11  22  43  69  96 138 177 224 272 340 399
#
# _framework density 21.312428000000001
#
# number of rings (size 3 to 8) (size 9 to 14) (size 15 to 20)
#    0.000    1.500    5.000    0.000    0.000    4.000 
#    0.000   16.250    0.000    4.500    0.000    0.000 
#    0.000    0.000    0.000    0.000    0.000    0.000 
#
# Total GULP energy -89354.660432 kJ/mol
# GULP energy per Si atom -5584.666277 kJ/mol
# Density = 2.126392 g / cm^3
# Si number density = 21.312428 Si / 1000 Ang^3
#
#
#
# Elastic Constant Matrix: (Units=GPa)
#
#
# Indices 1 2 3 4 5 6 
#
# 1 86.6827 50.6434 43.7791 0.0245 -5.5471 0.0063
# 2 50.6434 145.1538 65.4089 0.0627 -14.4973 -0.0147
# 3 43.7791 65.4089 174.0805 0.0635 -12.8430 0.0030
# 4 0.0245 0.0627 0.0635 36.2164 0.0128 -14.1638
# 5 -5.5471 -14.4973 -12.8430 0.0128 30.2640 0.0069
# 6 0.0063 -0.0147 0.0030 -14.1638 0.0069 10.7828
#
#
#
# Elastic Compliance Matrix: (Units=1/GPa)
#
#
# Indices 1 2 3 4 5 6 
#
# 1 0.015159 -0.004317 -0.002207 -0.000009 -0.000226 -0.000025
# 2 -0.004317 0.009748 -0.002365 -0.000011 0.002875 0.000001
# 3 -0.002207 -0.002365 0.007303 -0.000020 0.001562 -0.000031
# 4 -0.000009 -0.000011 -0.000020 0.056781 -0.000056 0.074585
# 5 -0.000226 0.002875 0.001562 -0.000056 0.035041 -0.000093
# 6 -0.000025 0.000001 -0.000031 0.074585 -0.000093 0.190712
#
#
# Mechanical properties :
#
#
# Convention : Reuss Voigt Hill
#
# Bulk Modulus (GPa) = 69.28770 80.61999 74.95385
# Shear Modulus (GPa) = 14.82217 31.85833 23.34025
#
# Velocity S-wave (km/s) = 2.64004 3.87049 3.31289
# Velocity P-wave (km/s) = 6.47102 7.60816 7.06251
#
# Compressibility (1/GPa) = 0.01443258
#
# Stress axis : x y z
#
# Youngs Moduli (GPa) = 65.96958 102.58262 136.92349
#
# Poissons Ratio (x) = 0.44283 0.30217
# Poissons Ratio (y) = 0.28478 0.32383
# Poissons Ratio (z) = 0.14558 0.24261
#
# Static dielectric constant tensor:
#      x y z
#    x 1.744340 0.000010 0.014370 
#    y 0.000010 1.769140 -0.000040 
#    z 0.014370 -0.000040 1.841900 
# 
# From -- ./inp_files/58279.got.cif
#   From: 2010.05.17/outbox.cif.g08.bks.cpg/sg12_30_cif.got.tgz:58279.got - 2010.06.03 13:09:07.
