data_PCOD9211614
_publ_section_title
;
Structure prediction by ZEFSAII (Michael W. Deem and Ramdas Pophale) SiO2 
 PCOD9211614
Probable space group: C 2/M
;
_chemical_formula_sum "Si O2"
_cell_formula_units_Z 34
_cell_length_a 19.665165
_cell_length_b 14.788252
_cell_length_c 10.521336
_cell_angle_alpha 90.000000
_cell_angle_beta 29.763986
_cell_angle_gamma 90.000000
_cell_volume 1518.944696
_symmetry_space_group_name_H-M "C 2/M"
_symmetry_group_IT_number 12
_symmetry_cell_setting 'monoclinic'
loop_
_space_group_symop_operation_xyz
x,y,z
-x,y,-z
-x,-y,-z
x,-y,z
1/2+x,1/2+y,z
1/2-x,1/2+y,-z
1/2-x,1/2-y,-z
1/2+x,1/2-y,z
loop_
_atom_site_type_symbol
_atom_site_label
_atom_site_fract_x
_atom_site_fract_y
_atom_site_fract_z
Si Si1 0.378824 0.851930 0.848280
Si Si2 0.077985 0.105890 0.752015
Si Si3 0.647346 0.109564 0.817757
Si Si4 0.000000 0.500000 0.500000
Si Si5 0.914619 0.859844 0.760685
O O1 0.496149 0.920304 0.616753
O O2 0.410479 0.749195 0.762662
O O3 0.343794 0.854672 0.053620
O O4 0.243453 0.888216 0.994945
O O5 0.226080 0.143734 0.472369
O O6 0.984384 0.111950 0.778359
O O7 0.101624 0.000000 0.743319
O O8 0.000000 0.146450 0.000000
O O9 0.657458 0.000000 0.809440
O O10 0.500000 0.131970 0.000000
O O11 0.000000 0.892396 0.500000
#
# Coordination Sequence:
#
# PCOD9211614 Si02
#       5
#     8   8   8   2   8
#     4  11  24  41  65 101 131 173 222 276 341 397
#     4  10  23  43  67  97 128 174 228 274 333 402
#     4  10  21  40  64  91 129 168 216 272 329 396
#     4  12  24  40  64 100 138 172 218 274 328 418
#     4  11  23  43  68  96 135 170 221 287 331 397
#
# _framework density 22.383959999999998
#
# number of rings (size 3 to 8) (size 9 to 14) (size 15 to 20)
#    0.000    1.412    4.706    0.000    1.647    3.294 
#    4.235    2.353    0.000    0.000    0.000    0.000 
#    0.000    0.000    0.000    0.000    0.000    0.000 
#
# Total GULP energy -94809.052396 kJ/mol
# GULP energy per Si atom -5577.003082 kJ/mol
# Density = 2.233301 g / cm^3
# Si number density = 22.383960 Si / 1000 Ang^3
#
#
#
# Elastic Constant Matrix: (Units=GPa)
#
#
# Indices 1 2 3 4 5 6 
#
# 1 98.2056 -22.2615 67.6081 0.0000 3.1648 0.0000
# 2 -22.2615 70.4454 -2.5636 0.0000 5.3651 0.0000
# 3 67.6081 -2.5636 174.5647 0.0000 28.6446 0.0000
# 4 0.0000 0.0000 0.0000 -15.9340 0.0000 10.3048
# 5 3.1648 5.3651 28.6446 0.0000 37.6164 0.0000
# 6 0.0000 0.0000 0.0000 10.3048 0.0000 25.2697
#
#
#
# Elastic Compliance Matrix: (Units=1/GPa)
#
#
# Indices 1 2 3 4 5 6 
#
# 1 0.015523 0.004446 -0.006432 0.000000 0.002958 0.000000
# 2 0.004446 0.015685 -0.001215 0.000000 -0.001686 0.000000
# 3 -0.006432 -0.001215 0.009239 0.000000 -0.006321 0.000000
# 4 0.000000 0.000000 0.000000 -0.049662 0.000000 0.020252
# 5 0.002958 -0.001686 -0.006321 0.000000 0.031389 0.000000
# 6 0.000000 0.000000 0.000000 0.020252 0.000000 0.031315
#
#
# Mechanical properties :
#
#
# Convention : Reuss Voigt Hill
#
# Bulk Modulus (GPa) = 29.37277 47.64240 38.50759
# Shear Modulus (GPa) = 70.18556 29.41926 49.80241
#
# Velocity S-wave (km/s) = 5.60565 3.62926 4.72202
# Velocity P-wave (km/s) = 7.41947 6.23638 6.85350
#
# Compressibility (1/GPa) = 0.03404514
#
# Stress axis : x y z
#
# Youngs Moduli (GPa) = 64.41867 63.75667 108.23571
#
# Poissons Ratio (x) = -0.28348 0.69620
# Poissons Ratio (y) = -0.28642 0.13151
# Poissons Ratio (z) = 0.41436 0.07747
#
# Static dielectric constant tensor:
#      x y z
#    x 1.806210 0.000000 -0.025090 
#    y 0.000000 1.825040 0.000000 
#    z -0.025090 0.000000 1.910880 
# 
# From -- ./inp_files/46538.got.cif
#   From: 2010.05.17/outbox.cif.g08.bks.cpg/sg12_24_cif.got.tgz:46538.got - 2010.06.03 13:09:07.
