data_PCOD9211173
_publ_section_title
;
Structure prediction by ZEFSAII (Michael W. Deem and Ramdas Pophale) SiO2 
 PCOD9211173
Probable space group: C 2/M
;
_chemical_formula_sum "Si O2"
_cell_formula_units_Z 56
_cell_length_a 11.539693
_cell_length_b 14.719771
_cell_length_c 17.055033
_cell_angle_alpha 90.000000
_cell_angle_beta 113.878848
_cell_angle_gamma 90.000000
_cell_volume 2649.023027
_symmetry_space_group_name_H-M "C 2/M"
_symmetry_group_IT_number 12
_symmetry_cell_setting 'monoclinic'
loop_
_space_group_symop_operation_xyz
x,y,z
-x,y,-z
-x,-y,-z
x,-y,z
1/2+x,1/2+y,z
1/2-x,1/2+y,-z
1/2-x,1/2-y,-z
1/2+x,1/2-y,z
loop_
_atom_site_type_symbol
_atom_site_label
_atom_site_fract_x
_atom_site_fract_y
_atom_site_fract_z
Si Si1 0.992617 0.601581 0.818573
Si Si2 0.550332 0.100027 0.653020
Si Si3 0.269603 0.798703 0.814752
Si Si4 0.367149 0.191540 0.000078
Si Si5 0.807797 0.103321 0.779192
Si Si6 0.097672 0.230064 0.453391
Si Si7 0.511925 0.606067 0.706620
O O1 0.946653 0.500000 0.822653
O O2 0.048472 0.601168 0.747263
O O3 0.876466 0.670679 0.783748
O O4 0.084968 0.631535 0.914122
O O5 0.700216 0.112677 0.681735
O O6 0.462866 0.177146 0.596264
O O7 0.511105 0.000000 0.615242
O O8 0.287449 0.690393 0.829028
O O9 0.134812 0.830233 0.747936
O O10 0.305569 0.850568 0.904924
O O11 0.500000 0.232599 0.000000
O O12 0.250000 0.250000 0.000000
O O13 0.939915 0.110483 0.770065
O O14 0.797979 0.000000 0.809292
O O15 0.250000 0.250000 0.500000
O O16 0.073160 0.149214 0.384934
O O17 0.000000 0.210063 0.500000
O O18 0.542653 0.500000 0.699776
#
# Coordination Sequence:
#
# PCOD9211173 Si02
#       7
#     8   8   8   8   8   8   8
#     4  10  22  40  66  98 132 175 223 270 324 397
#     4  10  21  41  70  95 125 172 221 267 327 404
#     4  11  22  38  69  94 136 174 222 269 333 388
#     4  10  23  38  62  96 132 174 219 270 325 383
#     4  10  21  39  67  97 128 174 221 270 324 396
#     4  12  27  44  67  97 132 174 217 279 344 404
#     4  11  25  43  67  99 135 174 221 275 337 401
#
# _framework density 21.139869999999998
#
# number of rings (size 3 to 8) (size 9 to 14) (size 15 to 20)
#    0.000    1.429    1.429    3.000    6.000    4.286 
#    0.000    0.000    0.000    4.286    0.000    0.000 
#    0.000    0.000    0.000    0.000    0.000    0.000 
#
# Total GULP energy -156015.879454 kJ/mol
# GULP energy per Si atom -5571.995695 kJ/mol
# Density = 2.109175 g / cm^3
# Si number density = 21.139870 Si / 1000 Ang^3
#
#
#
# Elastic Constant Matrix: (Units=GPa)
#
#
# Indices 1 2 3 4 5 6 
#
# 1 85.2099 27.9006 24.0906 0.0000 2.1533 0.0000
# 2 27.9006 110.1125 17.0845 0.0000 6.9647 0.0000
# 3 24.0906 17.0845 64.2754 0.0000 11.2504 0.0000
# 4 0.0000 0.0000 0.0000 24.7029 0.0000 1.0347
# 5 2.1533 6.9647 11.2504 0.0000 32.8478 0.0000
# 6 0.0000 0.0000 0.0000 1.0347 0.0000 26.9314
#
#
#
# Elastic Compliance Matrix: (Units=1/GPa)
#
#
# Indices 1 2 3 4 5 6 
#
# 1 0.013979 -0.002896 -0.004699 0.000000 0.001307 0.000000
# 2 -0.002896 0.010118 -0.001342 0.000000 -0.001496 0.000000
# 3 -0.004699 -0.001342 0.018693 0.000000 -0.005810 0.000000
# 4 0.000000 0.000000 0.000000 0.040546 0.000000 -0.001558
# 5 0.001307 -0.001496 -0.005810 0.000000 0.032665 0.000000
# 6 0.000000 0.000000 0.000000 -0.001558 0.000000 0.037191
#
#
# Mechanical properties :
#
#
# Convention : Reuss Voigt Hill
#
# Bulk Modulus (GPa) = 40.13306 44.19435 42.16370
# Shear Modulus (GPa) = 27.87513 29.59789 28.73651
#
# Velocity S-wave (km/s) = 3.63520 3.74585 3.69094
# Velocity P-wave (km/s) = 6.05354 6.29758 6.17677
#
# Compressibility (1/GPa) = 0.02491711
#
# Stress axis : x y z
#
# Youngs Moduli (GPa) = 71.53466 98.83155 53.49668
#
# Poissons Ratio (x) = 0.28619 0.25135
# Poissons Ratio (y) = 0.20715 0.07181
# Poissons Ratio (z) = 0.33611 0.13266
#
# Static dielectric constant tensor:
#      x y z
#    x 1.933320 0.000000 -0.024880 
#    y 0.000000 1.769260 0.000000 
#    z -0.024880 0.000000 1.775740 
# 
# From -- ./inp_files/263418.got.cif
#   From: 2010.05.17/outbox.cif.g08.bks.cpg/sg12_132_cif.got.tgz:263418.got - 2010.06.03 13:09:07.
