data_PCOD9211775
_publ_section_title
;
Structure prediction by ZEFSAII (Michael W. Deem and Ramdas Pophale) SiO2 
 PCOD9211775
Probable space group: C 2/M
;
_chemical_formula_sum "Si O2"
_cell_formula_units_Z 56
_cell_length_a 13.516177
_cell_length_b 21.514884
_cell_length_c 9.970371
_cell_angle_alpha 90.000000
_cell_angle_beta 114.635949
_cell_angle_gamma 90.000000
_cell_volume 2635.457484
_symmetry_space_group_name_H-M "C 2/M"
_symmetry_group_IT_number 12
_symmetry_cell_setting 'monoclinic'
loop_
_space_group_symop_operation_xyz
x,y,z
-x,y,-z
-x,-y,-z
x,-y,z
1/2+x,1/2+y,z
1/2-x,1/2+y,-z
1/2-x,1/2-y,-z
1/2+x,1/2-y,z
loop_
_atom_site_type_symbol
_atom_site_label
_atom_site_fract_x
_atom_site_fract_y
_atom_site_fract_z
Si Si1 0.584078 0.387710 0.362263
Si Si2 0.337556 0.742425 0.664236
Si Si3 0.621552 0.426597 0.096072
Si Si4 0.841538 0.889854 0.296017
Si Si5 0.694488 0.249375 0.823860
Si Si6 0.316264 0.928380 0.013209
Si Si7 0.510397 0.823747 0.854441
O O1 0.583560 0.313418 0.335047
O O2 0.639337 0.418040 0.264267
O O3 0.459541 0.410877 0.305235
O O4 0.646123 0.397998 0.537582
O O5 0.250000 0.750000 0.500000
O O6 0.276404 0.720325 0.763314
O O7 0.392710 0.808852 0.727376
O O8 0.615538 0.500000 0.060416
O O9 0.721278 0.403624 0.060415
O O10 0.500000 0.399284 0.000000
O O11 0.829448 0.817600 0.247937
O O12 0.741141 0.922353 0.164572
O O13 0.586226 0.211830 0.791798
O O14 0.750000 0.250000 0.000000
O O15 0.425681 0.888004 0.087347
O O16 0.339142 0.000000 0.056044
O O17 0.500000 0.796101 0.000000
#
# Coordination Sequence:
#
# PCOD9211775 Si02
#       7
#     8   8   8   8   8   8   8
#     4  11  23  36  62  95 137 175 215 278 346 408
#     4  12  25  41  65  99 138 178 218 270 344 415
#     4  10  21  40  65  96 132 177 232 283 336 397
#     4  11  22  38  58  98 138 171 221 276 338 410
#     4  12  22  40  65  97 137 172 222 273 332 409
#     4  11  24  44  70  97 130 180 240 287 332 398
#     4  12  25  42  69  98 137 178 224 280 340 402
#
# _framework density 21.248683
#
# number of rings (size 3 to 8) (size 9 to 14) (size 15 to 20)
#    0.000    0.714    7.143    0.857    0.000    2.000 
#    0.000    1.429    0.000    0.000    0.000    3.000 
#    0.000    0.000    0.000    0.000    0.000    0.000 
#
# Total GULP energy -156329.544460 kJ/mol
# GULP energy per Si atom -5583.198016 kJ/mol
# Density = 2.120032 g / cm^3
# Si number density = 21.248683 Si / 1000 Ang^3
#
#
#
# Elastic Constant Matrix: (Units=GPa)
#
#
# Indices 1 2 3 4 5 6 
#
# 1 108.5155 29.5420 49.9805 0.0000 -5.0753 0.0000
# 2 29.5420 48.2188 13.9508 0.0000 12.1719 0.0000
# 3 49.9805 13.9508 141.0990 0.0000 -3.3348 0.0000
# 4 0.0000 0.0000 0.0000 22.7775 0.0000 1.7346
# 5 -5.0753 12.1719 -3.3348 0.0000 37.4976 0.0000
# 6 0.0000 0.0000 0.0000 1.7346 0.0000 26.5655
#
#
#
# Elastic Compliance Matrix: (Units=1/GPa)
#
#
# Indices 1 2 3 4 5 6 
#
# 1 0.013390 -0.008130 -0.003842 0.000000 0.004110 0.000000
# 2 -0.008130 0.028375 -0.000170 0.000000 -0.010326 0.000000
# 3 -0.003842 -0.000170 0.008472 0.000000 0.000289 0.000000
# 4 0.000000 0.000000 0.000000 0.044122 0.000000 -0.002881
# 5 0.004110 -0.010326 0.000289 0.000000 0.030602 0.000000
# 6 0.000000 0.000000 0.000000 -0.002881 0.000000 0.037831
#
#
# Mechanical properties :
#
#
# Convention : Reuss Voigt Hill
#
# Bulk Modulus (GPa) = 38.52959 53.86444 46.19701
# Shear Modulus (GPa) = 25.54569 30.99212 28.26890
#
# Velocity S-wave (km/s) = 3.47107 3.82323 3.65140
# Velocity P-wave (km/s) = 5.85120 6.70030 6.29009
#
# Compressibility (1/GPa) = 0.02595408
#
# Stress axis : x y z
#
# Youngs Moduli (GPa) = 74.68090 35.24195 118.03798
#
# Poissons Ratio (x) = 0.28650 0.45353
# Poissons Ratio (y) = 0.60712 0.02006
# Poissons Ratio (z) = 0.28694 0.00599
#
# Static dielectric constant tensor:
#      x y z
#    x 1.860730 0.000000 0.035130 
#    y 0.000000 1.792600 0.000000 
#    z 0.035130 0.000000 1.762570 
# 
# From -- ./inp_files/65969.got.cif
#   From: 2010.05.17/outbox.cif.g08.bks.cpg/sg12_33_cif.got.tgz:65969.got - 2010.06.03 13:09:07.
