data_PCOD9211075
_publ_section_title
;
Structure prediction by ZEFSAII (Michael W. Deem and Ramdas Pophale) SiO2 
 PCOD9211075
Probable space group: C 2/M
;
_chemical_formula_sum "Si O2"
_cell_formula_units_Z 56
_cell_length_a 14.073935
_cell_length_b 29.092489
_cell_length_c 11.175917
_cell_angle_alpha 90.000000
_cell_angle_beta 33.618678
_cell_angle_gamma 90.000000
_cell_volume 2533.524598
_symmetry_space_group_name_H-M "C 2/M"
_symmetry_group_IT_number 12
_symmetry_cell_setting 'monoclinic'
loop_
_space_group_symop_operation_xyz
x,y,z
-x,y,-z
-x,-y,-z
x,-y,z
1/2+x,1/2+y,z
1/2-x,1/2+y,-z
1/2-x,1/2-y,-z
1/2+x,1/2-y,z
loop_
_atom_site_type_symbol
_atom_site_label
_atom_site_fract_x
_atom_site_fract_y
_atom_site_fract_z
Si Si1 0.206235 0.370881 0.799710
Si Si2 0.895290 0.282212 0.985646
Si Si3 0.123958 0.905047 0.625140
Si Si4 0.774554 0.051628 0.919320
Si Si5 0.460242 0.172983 0.668339
Si Si6 0.555580 0.071602 0.573817
Si Si7 0.920668 0.176395 0.952668
O O1 0.243455 0.320688 0.823465
O O2 0.289829 0.387805 0.589076
O O3 0.257564 0.409538 0.838187
O O4 0.000000 0.370942 0.000000
O O5 0.981743 0.303223 0.774843
O O6 0.869996 0.229202 0.973247
O O7 0.000000 0.277347 0.000000
O O8 0.260037 0.935711 0.558339
O O9 0.953140 0.935933 0.795235
O O10 0.054162 0.855753 0.745804
O O11 0.782705 0.000000 0.862089
O O12 0.601930 0.056256 0.178464
O O13 0.500000 0.198822 0.500000
O O14 0.569360 0.127135 0.553682
O O15 0.266129 0.154441 0.862234
O O16 0.500000 0.055645 0.500000
O O17 0.000000 0.178277 0.000000
#
# Coordination Sequence:
#
# PCOD9211075 Si02
#       7
#     8   8   8   8   8   8   8
#     4  11  22  46  72 101 146 188 231 292 357 421
#     4  10  21  39  66 102 144 183 241 287 344 422
#     4  12  25  44  73 104 142 189 233 292 360 415
#     4  12  27  47  74 107 138 179 240 298 357 432
#     4  11  21  39  64  93 136 185 232 284 345 415
#     4  11  23  45  73  98 139 186 228 287 358 422
#     4  11  23  39  66 105 141 185 237 286 342 423
#
# _framework density 22.103594000000001
#
# number of rings (size 3 to 8) (size 9 to 14) (size 15 to 20)
#    0.000    0.857    4.286    3.429    0.000    3.429 
#    0.000    7.857    0.000    0.000    0.000    0.000 
#    0.000    0.000    0.000    0.000    0.000    0.000 
#
# Total GULP energy -155955.306815 kJ/mol
# GULP energy per Si atom -5569.832386 kJ/mol
# Density = 2.205328 g / cm^3
# Si number density = 22.103594 Si / 1000 Ang^3
#
#
#
# Elastic Constant Matrix: (Units=GPa)
#
#
# Indices 1 2 3 4 5 6 
#
# 1 100.6295 6.3988 55.5822 0.0003 -10.4658 0.0003
# 2 6.3988 85.8581 5.5037 0.0000 -11.4905 0.0000
# 3 55.5822 5.5037 106.3759 0.0007 -11.0367 0.0007
# 4 0.0003 0.0000 0.0007 -448.0808 -0.0005 -408.8159
# 5 -10.4658 -11.4905 -11.0367 -0.0005 47.0664 -0.0005
# 6 0.0003 0.0000 0.0007 -408.8159 -0.0005 -308.4269
#
#
#
# Elastic Compliance Matrix: (Units=1/GPa)
#
#
# Indices 1 2 3 4 5 6 
#
# 1 0.014077 -0.000408 -0.007195 0.000000 0.001343 0.000000
# 2 -0.000408 0.012063 -0.000118 0.000000 0.002827 0.000000
# 3 -0.007195 -0.000118 0.013321 0.000000 0.001495 0.000000
# 4 0.000000 0.000000 0.000000 0.010661 0.000000 -0.014131
# 5 0.001343 0.002827 0.001495 0.000000 0.022586 0.000000
# 6 0.000000 0.000000 0.000000 -0.014131 0.000000 0.015488
#
#
# Mechanical properties :
#
#
# Convention : Reuss Voigt Hill
#
# Bulk Modulus (GPa) = 41.63115 47.53699 44.58407
# Shear Modulus (GPa) = 44.78462 -126.86301 -41.03919
#
# Velocity S-wave (km/s) = 4.50613 -7.58415 -4.31359
# Velocity P-wave (km/s) = 6.77858 7.42559 2.14362
#
# Compressibility (1/GPa) = 0.02402047
#
# Stress axis : x y z
#
# Youngs Moduli (GPa) = 71.03669 82.89548 75.06795
#
# Poissons Ratio (x) = 0.03383 0.54011
# Poissons Ratio (y) = 0.02899 0.00883
# Poissons Ratio (z) = 0.51111 0.00975
#
# Static dielectric constant tensor:
#      x y z
#    x 2.173070 0.000000 -0.379160 
#    y 0.000000 1.849680 0.000000 
#    z -0.379160 0.000000 2.329770 
# 
# From -- ./inp_files/150425.got.cif
#   From: 2010.05.17/outbox.cif.g08.bks.cpg/sg12_76_cif.got.tgz:150425.got - 2010.06.03 13:09:07.
