data_PCOD9211068
_publ_section_title
;
Structure prediction by ZEFSAII (Michael W. Deem and Ramdas Pophale) SiO2 
 PCOD9211068
Probable space group: C 2/M
;
_chemical_formula_sum "Si O2"
_cell_formula_units_Z 56
_cell_length_a 11.281743
_cell_length_b 27.593263
_cell_length_c 9.452073
_cell_angle_alpha 90.000000
_cell_angle_beta 116.105986
_cell_angle_gamma 90.000000
_cell_volume 2642.249178
_symmetry_space_group_name_H-M "C 2/M"
_symmetry_group_IT_number 12
_symmetry_cell_setting 'monoclinic'
loop_
_space_group_symop_operation_xyz
x,y,z
-x,y,-z
-x,-y,-z
x,-y,z
1/2+x,1/2+y,z
1/2-x,1/2+y,-z
1/2-x,1/2-y,-z
1/2+x,1/2-y,z
loop_
_atom_site_type_symbol
_atom_site_label
_atom_site_fract_x
_atom_site_fract_y
_atom_site_fract_z
Si Si1 0.727765 0.179172 0.385264
Si Si2 0.976515 0.365909 0.319558
Si Si3 0.238706 0.304290 0.936780
Si Si4 0.608966 0.055931 0.934793
Si Si5 0.363266 0.715565 0.727707
Si Si6 0.069470 0.944818 0.880791
Si Si7 0.592497 0.347672 0.751119
O O1 0.619762 0.138207 0.326562
O O2 0.670086 0.227670 0.281607
O O3 0.757779 0.194675 0.561109
O O4 0.857486 0.159086 0.380351
O O5 0.893924 0.320143 0.213832
O O6 0.909071 0.412316 0.215880
O O7 0.000000 0.365544 0.500000
O O8 0.346750 0.308390 0.870602
O O9 0.250000 0.250000 0.000000
O O10 0.276369 0.339624 0.083642
O O11 0.574763 0.000000 0.889569
O O12 0.500000 0.071491 0.000000
O O13 0.768840 0.056438 0.043760
O O14 0.501877 0.698462 0.740128
O O15 0.029067 0.898592 0.763175
O O16 0.031678 0.000000 0.817036
O O17 0.000000 0.937992 0.000000
#
# Coordination Sequence:
#
# PCOD9211068 Si02
#       7
#     8   8   8   8   8   8   8
#     4  11  25  41  63  91 131 175 212 266 337 398
#     4  12  25  41  64  91 135 171 212 266 336 397
#     4  12  23  40  61  94 121 164 214 268 313 380
#     4  10  22  42  69  99 130 168 222 279 332 395
#     4  11  24  42  61  89 131 170 214 263 332 399
#     4  10  21  39  65  98 133 171 222 282 340 392
#     4  12  23  40  67  94 127 170 223 277 326 393
#
# _framework density 21.194065999999999
#
# number of rings (size 3 to 8) (size 9 to 14) (size 15 to 20)
#    0.000    0.857    4.286    3.429    0.000    0.286 
#    0.000    0.000    0.000    2.571    0.000    0.000 
#    0.000    0.000    0.000    0.000    0.000    0.000 
#
# Total GULP energy -156126.164684 kJ/mol
# GULP energy per Si atom -5575.934453 kJ/mol
# Density = 2.114583 g / cm^3
# Si number density = 21.194066 Si / 1000 Ang^3
#
#
#
# Elastic Constant Matrix: (Units=GPa)
#
#
# Indices 1 2 3 4 5 6 
#
# 1 106.5058 5.5674 1.6978 0.0000 -8.1161 0.0000
# 2 5.5674 120.3283 20.8747 0.0000 -10.3647 0.0000
# 3 1.6978 20.8747 59.9401 0.0000 -3.4023 0.0000
# 4 0.0000 0.0000 0.0000 17.5917 0.0000 -0.9939
# 5 -8.1161 -10.3647 -3.4023 0.0000 28.3724 0.0000
# 6 0.0000 0.0000 0.0000 -0.9939 0.0000 26.7814
#
#
#
# Elastic Compliance Matrix: (Units=1/GPa)
#
#
# Indices 1 2 3 4 5 6 
#
# 1 0.009604 -0.000206 -0.000049 0.000000 0.002666 0.000000
# 2 -0.000206 0.009090 -0.002995 0.000000 0.002902 0.000000
# 3 -0.000049 -0.002995 0.017786 0.000000 0.001025 0.000000
# 4 0.000000 0.000000 0.000000 0.056964 0.000000 0.002114
# 5 0.002666 0.002902 0.001025 0.000000 0.037191 0.000000
# 6 0.000000 0.000000 0.000000 0.002114 0.000000 0.037418
#
#
# Mechanical properties :
#
#
# Convention : Reuss Voigt Hill
#
# Bulk Modulus (GPa) = 33.35632 38.11710 35.73671
# Shear Modulus (GPa) = 27.09345 31.79137 29.44241
#
# Velocity S-wave (km/s) = 3.57928 3.87720 3.73122
# Velocity P-wave (km/s) = 5.73187 6.16988 5.95491
#
# Compressibility (1/GPa) = 0.02997933
#
# Stress axis : x y z
#
# Youngs Moduli (GPa) = 104.12460 110.01441 56.22428
#
# Poissons Ratio (x) = 0.02269 0.00275
# Poissons Ratio (y) = 0.02147 0.16839
# Poissons Ratio (z) = 0.00509 0.32949
#
# Static dielectric constant tensor:
#      x y z
#    x 1.812980 0.000000 0.044950 
#    y 0.000000 1.762970 0.000000 
#    z 0.044950 0.000000 1.794770 
# 
# From -- ./inp_files/54798.got.cif
#   From: 2010.05.17/outbox.cif.g08.bks.cpg/sg12_28_cif.got.tgz:54798.got - 2010.06.03 13:09:07.
