data_PCOD9211446
_publ_section_title
;
Structure prediction by ZEFSAII (Michael W. Deem and Ramdas Pophale) SiO2 
 PCOD9211446
Probable space group: C 2/M
;
_chemical_formula_sum "Si O2"
_cell_formula_units_Z 44
_cell_length_a 28.525948
_cell_length_b 16.180437
_cell_length_c 5.174408
_cell_angle_alpha 90.000000
_cell_angle_beta 82.595068
_cell_angle_gamma 90.000000
_cell_volume 2368.393333
_symmetry_space_group_name_H-M "C 2/M"
_symmetry_group_IT_number 12
_symmetry_cell_setting 'monoclinic'
loop_
_space_group_symop_operation_xyz
x,y,z
-x,y,-z
-x,-y,-z
x,-y,z
1/2+x,1/2+y,z
1/2-x,1/2+y,-z
1/2-x,1/2-y,-z
1/2+x,1/2-y,z
loop_
_atom_site_type_symbol
_atom_site_label
_atom_site_fract_x
_atom_site_fract_y
_atom_site_fract_z
Si Si1 0.350723 0.598281 0.392107
Si Si2 0.380028 0.302907 0.883471
Si Si3 0.033555 0.318386 0.226306
Si Si4 0.966419 0.500000 0.773689
Si Si5 0.791735 0.685975 0.035869
Si Si6 0.738073 0.904352 0.433447
O O1 0.358150 0.500000 0.408751
O O2 0.365279 0.645025 0.642445
O O3 0.294548 0.611886 0.383652
O O4 0.378755 0.636945 0.131559
O O5 0.428692 0.254565 0.807459
O O6 0.340490 0.233511 0.965921
O O7 0.058061 0.410088 0.210147
O O8 0.000000 0.312798 0.500000
O O9 0.000000 0.314299 0.000000
O O10 0.000000 0.500000 0.500000
O O11 0.000000 0.500000 0.000000
O O12 0.784726 0.615288 0.826499
O O13 0.750000 0.750000 0.000000
O O14 0.784388 0.651979 0.328350
O O15 0.731805 0.000000 0.506409
#
# Coordination Sequence:
#
# PCOD9211446 Si02
#       6
#     8   8   8   4   8   8
#     4  11  22  38  60  87 117 158 203 238 280 357
#     4  12  23  37  64  89 116 154 198 244 298 344
#     4  10  21  40  63  86 115 150 194 240 289 349
#     4   8  16  34  60  82 108 146 184 228 280 344
#     4  12  21  37  58  86 121 151 194 246 287 342
#     4  11  22  38  56  80 121 165 195 231 286 345
#
# _framework density 18.577995999999999
#
# number of rings (size 3 to 8) (size 9 to 14) (size 15 to 20)
#    0.000    1.091    3.636    3.818    0.000    2.909 
#    3.273    0.000    4.000   10.909    0.000    0.000 
#    0.000    0.000    0.000    0.000    0.000    0.000 
#
# Total GULP energy -122910.052520 kJ/mol
# GULP energy per Si atom -5586.820569 kJ/mol
# Density = 1.853571 g / cm^3
# Si number density = 18.577996 Si / 1000 Ang^3
#
#
#
# Elastic Constant Matrix: (Units=GPa)
#
#
# Indices 1 2 3 4 5 6 
#
# 1 58.5036 43.5430 10.9771 0.0000 -15.1455 0.0000
# 2 43.5430 111.1344 27.5707 0.0000 -14.1757 0.0000
# 3 10.9771 27.5707 95.7444 0.0000 -14.7555 0.0000
# 4 0.0000 0.0000 0.0000 34.7646 0.0000 3.1588
# 5 -15.1455 -14.1757 -14.7555 0.0000 15.6331 0.0000
# 6 0.0000 0.0000 0.0000 3.1588 0.0000 26.7186
#
#
#
# Elastic Compliance Matrix: (Units=1/GPa)
#
#
# Indices 1 2 3 4 5 6 
#
# 1 0.029359 -0.009310 0.002805 0.000000 0.022649 0.000000
# 2 -0.009310 0.013389 -0.002700 0.000000 0.000573 0.000000
# 3 0.002805 -0.002700 0.012804 0.000000 0.012355 0.000000
# 4 0.000000 0.000000 0.000000 0.029077 0.000000 -0.003438
# 5 0.022649 0.000573 0.012355 0.000000 0.098091 0.000000
# 6 0.000000 0.000000 0.000000 -0.003438 0.000000 0.037833
#
#
# Mechanical properties :
#
#
# Convention : Reuss Voigt Hill
#
# Bulk Modulus (GPa) = 26.92252 47.72933 37.32592
# Shear Modulus (GPa) = 19.89306 27.64273 23.76790
#
# Velocity S-wave (km/s) = 3.27584 3.86155 3.58069
# Velocity P-wave (km/s) = 5.36947 6.75494 6.10166
#
# Compressibility (1/GPa) = 0.03714363
#
# Stress axis : x y z
#
# Youngs Moduli (GPa) = 34.06065 74.69004 78.09822
#
# Poissons Ratio (x) = 0.69537 -0.21910
# Poissons Ratio (y) = 0.31711 0.21085
# Poissons Ratio (z) = -0.09556 0.20165
#
# Static dielectric constant tensor:
#      x y z
#    x 1.611810 0.000000 -0.002210 
#    y 0.000000 1.667640 0.000000 
#    z -0.002210 0.000000 1.646930 
# 
# From -- ./inp_files/27970.got.cif
#   From: 2010.05.17/outbox.cif.g08.bks.cpg/sg12_14_cif.got.tgz:27970.got - 2010.06.03 13:09:07.
