data_PCOD9211390
_publ_section_title
;
Structure prediction by ZEFSAII (Michael W. Deem and Ramdas Pophale) SiO2 
 PCOD9211390
Probable space group: C 2/M
;
_chemical_formula_sum "Si O2"
_cell_formula_units_Z 60
_cell_length_a 8.667620
_cell_length_b 11.425886
_cell_length_c 30.161841
_cell_angle_alpha 90.000000
_cell_angle_beta 102.303979
_cell_angle_gamma 90.000000
_cell_volume 2918.474081
_symmetry_space_group_name_H-M "C 2/M"
_symmetry_group_IT_number 12
_symmetry_cell_setting 'monoclinic'
loop_
_space_group_symop_operation_xyz
x,y,z
-x,y,-z
-x,-y,-z
x,-y,z
1/2+x,1/2+y,z
1/2-x,1/2+y,-z
1/2-x,1/2-y,-z
1/2+x,1/2-y,z
loop_
_atom_site_type_symbol
_atom_site_label
_atom_site_fract_x
_atom_site_fract_y
_atom_site_fract_z
Si Si1 0.414888 0.772430 0.406431
Si Si2 0.232636 0.636341 0.466608
Si Si3 0.528752 0.000000 0.159260
Si Si4 0.365238 0.633039 0.750971
Si Si5 0.965631 0.868372 0.049801
Si Si6 0.603847 0.635934 0.347493
Si Si7 0.196562 0.697695 0.896164
Si Si8 0.714482 0.315835 0.804421
O O1 0.358750 0.668751 0.435993
O O2 0.556136 0.847195 0.436362
O O3 0.477099 0.713544 0.365315
O O4 0.263100 0.849753 0.385812
O O5 0.252762 0.500000 0.483157
O O6 0.250000 0.750000 0.500000
O O7 0.429004 0.101593 0.126346
O O8 0.636775 0.099861 0.191054
O O9 0.308605 0.500000 0.746304
O O10 0.365560 0.678595 0.700643
O O11 0.545718 0.636510 0.778852
O O12 0.255849 0.702815 0.778003
O O13 0.855145 0.769482 0.063699
O O14 0.132249 0.857434 0.085367
O O15 0.900721 0.000000 0.052237
O O16 0.000000 0.852026 0.000000
O O17 0.556207 0.500000 0.342275
O O18 0.204533 0.787455 0.855801
#
# Coordination Sequence:
#
# PCOD9211390 Si02
#       8
#     8   8   4   8   8   8   8   8
#     4  10  22  40  63  87 126 163 209 253 311 369
#     4  11  24  40  63  95 126 164 210 263 317 372
#     4  12  24  40  62  90 123 160 199 244 302 357
#     4  11  24  39  63  92 124 159 205 251 301 356
#     4  11  25  43  65  91 121 155 198 248 298 359
#     4  10  21  40  62  88 120 164 205 251 302 364
#     4  12  24  42  64  89 123 159 200 243 302 359
#     4  12  24  40  62  91 123 159 201 248 302 354
#
# _framework density 20.558688
#
# number of rings (size 3 to 8) (size 9 to 14) (size 15 to 20)
#    0.000    0.933    4.000    2.400    1.867    5.333 
#    0.000    0.333    1.467    0.000    0.000    0.000 
#    0.000    0.000    0.000    0.000    0.000    0.000 
#
# Total GULP energy -167060.201637 kJ/mol
# GULP energy per Si atom -5568.673388 kJ/mol
# Density = 2.051190 g / cm^3
# Si number density = 20.558688 Si / 1000 Ang^3
#
#
#
# Elastic Constant Matrix: (Units=GPa)
#
#
# Indices 1 2 3 4 5 6 
#
# 1 36.4216 8.1071 -11.7956 0.0000 -3.4188 0.0000
# 2 8.1071 51.2317 -3.8244 0.0000 0.2228 0.0000
# 3 -11.7956 -3.8244 52.9726 0.0000 -0.1833 0.0000
# 4 0.0000 0.0000 0.0000 30.1135 0.0000 -0.1279
# 5 -3.4188 0.2228 -0.1833 0.0000 25.0134 0.0000
# 6 0.0000 0.0000 0.0000 -0.1279 0.0000 -2.1670
#
#
#
# Elastic Compliance Matrix: (Units=1/GPa)
#
#
# Indices 1 2 3 4 5 6 
#
# 1 0.030984 -0.004430 0.006594 0.000000 0.004323 0.000000
# 2 -0.004430 0.020259 0.000474 0.000000 -0.000782 0.000000
# 3 0.006594 0.000474 0.020384 0.000000 0.001046 0.000000
# 4 0.000000 0.000000 0.000000 0.033199 0.000000 -0.001960
# 5 0.004323 -0.000782 0.001046 0.000000 0.040584 0.000000
# 6 0.000000 0.000000 0.000000 -0.001960 0.000000 -0.461349
#
#
# Mechanical properties :
#
#
# Convention : Reuss Voigt Hill
#
# Bulk Modulus (GPa) = 13.00335 13.95558 13.47947
# Shear Modulus (GPa) = -16.91576 20.46791 1.77608
#
# Velocity S-wave (km/s) = -2.87157 3.15871 0.93047
# Velocity P-wave (km/s) = 2.15773 4.48399 2.77942
#
# Compressibility (1/GPa) = 0.07690325
#
# Stress axis : x y z
#
# Youngs Moduli (GPa) = 32.27510 49.36115 49.05838
#
# Poissons Ratio (x) = 0.21865 -0.32351
# Poissons Ratio (y) = 0.14296 -0.02323
# Poissons Ratio (z) = -0.21283 -0.02338
#
# Static dielectric constant tensor:
#      x y z
#    x 1.737330 0.000000 -0.020800 
#    y 0.000000 1.743110 0.000000 
#    z -0.020800 0.000000 1.729540 
# 
# From -- ./inp_files/372187.got.cif
#   From: 2010.05.17/outbox.cif.g08.bks.cpg/sg12_187_cif.got.tgz:372187.got - 2010.06.03 13:09:07.
