data_PCOD9211339
_publ_section_title
;
Structure prediction by ZEFSAII (Michael W. Deem and Ramdas Pophale) SiO2 
 PCOD9211339
Probable space group: C 2/M
;
_chemical_formula_sum "Si O2"
_cell_formula_units_Z 40
_cell_length_a 12.647988
_cell_length_b 17.050416
_cell_length_c 13.742911
_cell_angle_alpha 90.000000
_cell_angle_beta 142.872994
_cell_angle_gamma 90.000000
_cell_volume 1788.845258
_symmetry_space_group_name_H-M "C 2/M"
_symmetry_group_IT_number 12
_symmetry_cell_setting 'monoclinic'
loop_
_space_group_symop_operation_xyz
x,y,z
-x,y,-z
-x,-y,-z
x,-y,z
1/2+x,1/2+y,z
1/2-x,1/2+y,-z
1/2-x,1/2-y,-z
1/2+x,1/2-y,z
loop_
_atom_site_type_symbol
_atom_site_label
_atom_site_fract_x
_atom_site_fract_y
_atom_site_fract_z
Si Si1 0.323063 0.816560 0.124787
Si Si2 0.810040 0.298271 0.342355
Si Si3 0.684612 0.000000 0.183296
Si Si4 0.284425 0.135633 0.636979
Si Si5 0.499581 0.414130 0.881824
Si Si6 0.451255 0.500000 0.582888
O O1 0.291092 0.788939 0.212227
O O2 0.525872 0.840155 0.264097
O O3 0.250000 0.750000 0.000000
O O4 0.197616 0.889233 0.005956
O O5 0.806350 0.215906 0.396279
O O6 0.644904 0.350258 0.253724
O O7 0.000000 0.336407 0.500000
O O8 0.687854 0.078976 0.250379
O O9 0.851735 0.000000 0.234861
O O10 0.500000 0.000000 0.000000
O O11 0.160270 0.078750 0.481425
O O12 0.451227 0.500000 0.809733
O O13 0.500000 0.416320 0.000000
O O14 0.500000 0.500000 0.500000
#
# Coordination Sequence:
#
# PCOD9211339 Si02
#       6
#     8   8   4   8   8   4
#     4  11  23  39  64  93 121 161 214 259 310 372
#     4  11  23  41  64  87 124 168 206 259 316 373
#     4  10  22  36  66  94 120 167 205 249 316 382
#     4  10  21  40  61  90 126 162 202 256 314 373
#     4   9  20  39  61  86 121 163 207 259 308 364
#     4   8  18  40  60  88 126 161 190 253 321 367
#
# _framework density 22.360795
#
# number of rings (size 3 to 8) (size 9 to 14) (size 15 to 20)
#    0.000    2.200    2.000    1.800    5.600    1.200 
#    0.000    0.000    0.000    0.000    0.000    0.000 
#    0.000    0.000    0.000    0.000    0.000    0.000 
#
# Total GULP energy -111673.259089 kJ/mol
# GULP energy per Si atom -5583.662954 kJ/mol
# Density = 2.230990 g / cm^3
# Si number density = 22.360795 Si / 1000 Ang^3
#
#
#
# Elastic Constant Matrix: (Units=GPa)
#
#
# Indices 1 2 3 4 5 6 
#
# 1 82.0670 32.0426 37.3267 0.0000 22.5442 0.0000
# 2 32.0426 123.3646 33.6938 0.0000 15.8651 0.0000
# 3 37.3267 33.6938 119.6187 -0.0002 31.5218 0.0001
# 4 0.0000 0.0000 -0.0002 28.5690 0.0000 4.9403
# 5 22.5442 15.8651 31.5218 0.0000 52.0478 0.0000
# 6 0.0000 0.0000 0.0001 4.9403 0.0000 15.4382
#
#
#
# Elastic Compliance Matrix: (Units=1/GPa)
#
#
# Indices 1 2 3 4 5 6 
#
# 1 0.015784 -0.002729 -0.003063 0.000000 -0.004150 0.000000
# 2 -0.002729 0.009341 -0.001595 0.000000 -0.000699 0.000000
# 3 -0.003063 -0.001595 0.011051 0.000000 -0.004880 0.000000
# 4 0.000000 0.000000 0.000000 0.037053 0.000000 -0.011857
# 5 -0.004150 -0.000699 -0.004880 0.000000 0.024179 0.000000
# 6 0.000000 0.000000 0.000000 -0.011857 0.000000 0.068568
#
#
# Mechanical properties :
#
#
# Convention : Reuss Voigt Hill
#
# Bulk Modulus (GPa) = 46.72838 59.01962 52.87400
# Shear Modulus (GPa) = 26.61205 34.01015 30.31110
#
# Velocity S-wave (km/s) = 3.45356 3.90420 3.68577
# Velocity P-wave (km/s) = 6.07005 6.83924 6.46609
#
# Compressibility (1/GPa) = 0.02140027
#
# Stress axis : x y z
#
# Youngs Moduli (GPa) = 63.35548 107.06011 90.49007
#
# Poissons Ratio (x) = 0.29222 0.27717
# Poissons Ratio (y) = 0.17293 0.14434
# Poissons Ratio (z) = 0.19406 0.17078
#
# Static dielectric constant tensor:
#      x y z
#    x 1.884450 0.000000 -0.036680 
#    y 0.000000 1.806150 0.000000 
#    z -0.036680 0.000000 1.896860 
# 
# From -- ./inp_files/270814.got.cif
#   From: 2010.05.17/outbox.cif.g08.bks.cpg/sg12_136_cif.got.tgz:270814.got - 2010.06.03 13:09:07.
