data_PCOD9211672
_publ_section_title
;
Structure prediction by ZEFSAII (Michael W. Deem and Ramdas Pophale) SiO2 
 PCOD9211672
Probable space group: C 2/M
;
_chemical_formula_sum "Si O2"
_cell_formula_units_Z 64
_cell_length_a 10.177329
_cell_length_b 14.266850
_cell_length_c 32.538846
_cell_angle_alpha 90.000000
_cell_angle_beta 42.935872
_cell_angle_gamma 90.000000
_cell_volume 3218.292712
_symmetry_space_group_name_H-M "C 2/M"
_symmetry_group_IT_number 12
_symmetry_cell_setting 'monoclinic'
loop_
_space_group_symop_operation_xyz
x,y,z
-x,y,-z
-x,-y,-z
x,-y,z
1/2+x,1/2+y,z
1/2-x,1/2+y,-z
1/2-x,1/2-y,-z
1/2+x,1/2-y,z
loop_
_atom_site_type_symbol
_atom_site_label
_atom_site_fract_x
_atom_site_fract_y
_atom_site_fract_z
Si Si1 0.775636 0.386009 0.550942
Si Si2 0.075161 0.111872 0.681456
Si Si3 0.809029 0.114296 0.520197
Si Si4 0.367155 0.753652 0.843283
Si Si5 0.064277 0.612333 0.342098
Si Si6 0.275017 0.388203 0.053666
Si Si7 0.466398 0.888413 0.055798
Si Si8 0.193185 0.273498 0.237232
O O1 0.773593 0.500000 0.552110
O O2 0.658876 0.357963 0.617990
O O3 0.690417 0.354520 0.527086
O O4 0.000000 0.359147 0.500000
O O5 0.241601 0.133316 0.676653
O O6 0.884621 0.168957 0.735805
O O7 0.044504 0.000000 0.688282
O O8 0.618431 0.142534 0.588714
O O9 0.000000 0.143665 0.500000
O O10 0.805698 0.000000 0.520060
O O11 0.320032 0.833855 0.886985
O O12 0.211191 0.671523 0.886369
O O13 0.582383 0.718323 0.803171
O O14 0.345459 0.790554 0.801842
O O15 0.053111 0.500000 0.340052
O O16 0.076287 0.660210 0.295123
O O17 0.264600 0.500000 0.062247
O O18 0.156051 0.366375 0.039447
O O19 0.500000 0.362112 0.000000
O O20 0.428661 0.000000 0.068336
O O21 0.500000 0.868309 0.000000
#
# Coordination Sequence:
#
# PCOD9211672 Si02
#       8
#     8   8   8   8   8   8   8   8
#     4   9  15  29  58  88 110 148 204 251 309 387
#     4  10  21  40  65  87 119 165 208 258 314 372
#     4   9  17  31  56  89 119 148 193 257 324 378
#     4  12  25  42  65  91 129 174 208 253 302 360
#     4  10  21  41  64  86 122 165 204 258 319 371
#     4  10  23  43  68 100 133 162 201 257 312 357
#     4  10  23  43  69 100 131 164 205 251 305 369
#     4  12  26  42  61  93 125 164 222 259 291 361
#
# _framework density 19.886320000000001
#
# number of rings (size 3 to 8) (size 9 to 14) (size 15 to 20)
#    0.000    1.750    3.750    0.375    1.750    4.000 
#    0.000    2.500    0.000    0.000    0.000    0.000 
#    0.000    0.000    0.000    0.000    0.000    0.000 
#
# Total GULP energy -178880.002787 kJ/mol
# GULP energy per Si atom -5590.000087 kJ/mol
# Density = 1.984106 g / cm^3
# Si number density = 19.886320 Si / 1000 Ang^3
#
#
#
# Elastic Constant Matrix: (Units=GPa)
#
#
# Indices 1 2 3 4 5 6 
#
# 1 138.1097 25.6689 50.6626 -0.0001 21.8911 0.0005
# 2 25.6689 56.7723 26.1889 -0.0003 8.1190 0.0002
# 3 50.6626 26.1889 99.0237 -0.0004 24.2688 0.0003
# 4 -0.0001 -0.0003 -0.0004 21.6636 0.0002 0.6838
# 5 21.8911 8.1190 24.2688 0.0002 49.7202 -0.0003
# 6 0.0005 0.0002 0.0003 0.6838 -0.0003 2.5178
#
#
#
# Elastic Compliance Matrix: (Units=1/GPa)
#
#
# Indices 1 2 3 4 5 6 
#
# 1 0.009320 -0.002228 -0.003706 0.000000 -0.001931 -0.000001
# 2 -0.002228 0.020621 -0.004235 0.000000 -0.000319 -0.000001
# 3 -0.003706 -0.004235 0.014250 0.000000 -0.004632 -0.000001
# 4 0.000000 0.000000 0.000000 0.046559 0.000000 -0.012646
# 5 -0.001931 -0.000319 -0.004632 0.000000 0.023276 0.000004
# 6 -0.000001 -0.000001 -0.000001 -0.012646 0.000004 0.400611
#
#
# Mechanical properties :
#
#
# Convention : Reuss Voigt Hill
#
# Bulk Modulus (GPa) = 41.92530 55.43851 48.68190
# Shear Modulus (GPa) = 9.20933 27.53933 18.37433
#
# Velocity S-wave (km/s) = 2.15431 3.72538 3.04298
# Velocity P-wave (km/s) = 5.22650 6.81490 6.07285
#
# Compressibility (1/GPa) = 0.02385195
#
# Stress axis : x y z
#
# Youngs Moduli (GPa) = 107.29313 48.49382 70.17530
#
# Poissons Ratio (x) = 0.10806 0.26006
# Poissons Ratio (y) = 0.23909 0.29723
# Poissons Ratio (z) = 0.39762 0.20539
#
# Static dielectric constant tensor:
#      x y z
#    x 1.682520 0.000000 0.002570 
#    y 0.000000 1.716580 0.000000 
#    z 0.002570 0.000000 1.668980 
# 
# From -- ./inp_files/372562.got.cif
#   From: 2010.05.17/outbox.cif.g08.bks.cpg/sg12_187_cif.got.tgz:372562.got - 2010.06.03 13:09:07.
