data_PCOD9211314
_publ_section_title
;
Structure prediction by ZEFSAII (Michael W. Deem and Ramdas Pophale) SiO2 
 PCOD9211314
Probable space group: C 2/M
;
_chemical_formula_sum "Si O2"
_cell_formula_units_Z 56
_cell_length_a 15.553487
_cell_length_b 8.591055
_cell_length_c 28.538700
_cell_angle_alpha 90.000000
_cell_angle_beta 130.370364
_cell_angle_gamma 90.000000
_cell_volume 2905.302056
_symmetry_space_group_name_H-M "C 2/M"
_symmetry_group_IT_number 12
_symmetry_cell_setting 'monoclinic'
loop_
_space_group_symop_operation_xyz
x,y,z
-x,y,-z
-x,-y,-z
x,-y,z
1/2+x,1/2+y,z
1/2-x,1/2+y,-z
1/2-x,1/2-y,-z
1/2+x,1/2-y,z
loop_
_atom_site_type_symbol
_atom_site_label
_atom_site_fract_x
_atom_site_fract_y
_atom_site_fract_z
Si Si1 0.251563 0.811843 0.141093
Si Si2 0.453566 0.814210 0.880306
Si Si3 0.143223 0.186151 0.433166
Si Si4 0.337884 0.686044 0.992984
Si Si5 0.302373 0.187528 0.650122
Si Si6 0.497464 0.189414 0.789896
Si Si7 0.949743 0.686732 0.430952
O O1 0.172433 0.737246 0.152037
O O2 0.201141 0.765701 0.072546
O O3 0.381942 0.763031 0.188426
O O4 0.245886 0.000000 0.142496
O O5 0.487601 0.759680 0.840319
O O6 0.463950 0.000000 0.885554
O O7 0.539156 0.743336 0.948418
O O8 0.250000 0.250000 0.500000
O O9 0.154834 0.252694 0.385035
O O10 0.030540 0.241115 0.420016
O O11 0.148259 0.000000 0.433718
O O12 0.335245 0.500000 0.993242
O O13 0.250000 0.750000 0.000000
O O14 0.391953 0.237883 0.721256
O O15 0.177975 0.253034 0.616141
O O16 0.297265 0.000000 0.647477
O O17 0.497674 0.000000 0.790778
O O18 0.951769 0.500000 0.427471
O O19 0.000000 0.727753 0.500000
#
# Coordination Sequence:
#
# PCOD9211314 Si02
#       7
#     8   8   8   8   8   8   8
#     4  10  21  40  61  85 121 162 201 248 305 361
#     4  11  22  39  61  89 123 158 203 253 301 358
#     4  12  24  40  64  94 126 159 200 248 305 364
#     4  11  21  36  61  89 120 157 202 252 308 361
#     4  11  23  41  66  93 125 163 205 252 307 365
#     4   9  21  42  62  84 122 166 201 245 304 362
#     4  11  23  40  64  93 126 160 200 248 302 363
#
# _framework density 19.275103000000001
#
# number of rings (size 3 to 8) (size 9 to 14) (size 15 to 20)
#    0.000    1.286    2.857    3.429    0.000    4.571 
#    0.000    7.143    0.000    0.000    0.000    0.000 
#    0.000    0.000    0.000    0.000    0.000    0.000 
#
# Total GULP energy -156558.732869 kJ/mol
# GULP energy per Si atom -5591.383317 kJ/mol
# Density = 1.923123 g / cm^3
# Si number density = 19.275103 Si / 1000 Ang^3
#
#
#
# Elastic Constant Matrix: (Units=GPa)
#
#
# Indices 1 2 3 4 5 6 
#
# 1 126.5079 14.0881 23.3075 0.0000 25.6585 0.0000
# 2 14.0881 43.9164 14.8848 0.0000 6.6931 0.0000
# 3 23.3075 14.8848 86.1768 0.0000 31.4312 0.0000
# 4 0.0000 0.0000 0.0000 19.1643 0.0000 1.8898
# 5 25.6585 6.6931 31.4312 0.0000 29.9312 0.0000
# 6 0.0000 0.0000 0.0000 1.8898 0.0000 39.1892
#
#
#
# Elastic Compliance Matrix: (Units=1/GPa)
#
#
# Indices 1 2 3 4 5 6 
#
# 1 0.009771 -0.002105 0.000979 0.000000 -0.008933 0.000000
# 2 -0.002105 0.024691 -0.003792 0.000000 0.000265 0.000000
# 3 0.000979 -0.003792 0.019435 0.000000 -0.020400 0.000000
# 4 0.000000 0.000000 0.000000 0.052430 0.000000 -0.002528
# 5 -0.008933 0.000265 -0.020400 0.000000 0.062431 0.000000
# 6 0.000000 0.000000 0.000000 -0.002528 0.000000 0.025639
#
#
# Mechanical properties :
#
#
# Convention : Reuss Voigt Hill
#
# Bulk Modulus (GPa) = 22.69601 40.12911 31.41256
# Shear Modulus (GPa) = 22.83960 31.27831 27.05895
#
# Velocity S-wave (km/s) = 3.44601 4.03268 3.75084
# Velocity P-wave (km/s) = 5.25677 6.52286 5.92374
#
# Compressibility (1/GPa) = 0.04406062
#
# Stress axis : x y z
#
# Youngs Moduli (GPa) = 102.34877 40.50129 51.45436
#
# Poissons Ratio (x) = 0.08524 -0.05039
# Poissons Ratio (y) = 0.21542 0.19512
# Poissons Ratio (z) = -0.10023 0.15359
#
# Static dielectric constant tensor:
#      x y z
#    x 1.663350 0.000000 0.004500 
#    y 0.000000 1.653600 0.000000 
#    z 0.004500 0.000000 1.657510 
# 
# From -- ./inp_files/360022.got.cif
#   From: 2010.05.17/outbox.cif.g08.bks.cpg/sg12_181_cif.got.tgz:360022.got - 2010.06.03 13:09:07.
