data_PCOD9211200
_publ_section_title
;
Structure prediction by ZEFSAII (Michael W. Deem and Ramdas Pophale) SiO2 
 PCOD9211200
Probable space group: C 2/M
;
_chemical_formula_sum "Si O2"
_cell_formula_units_Z 48
_cell_length_a 23.341325
_cell_length_b 19.250075
_cell_length_c 7.712287
_cell_angle_alpha 90.000000
_cell_angle_beta 36.577440
_cell_angle_gamma 90.000000
_cell_volume 2065.003807
_symmetry_space_group_name_H-M "C 2/M"
_symmetry_group_IT_number 12
_symmetry_cell_setting 'monoclinic'
loop_
_space_group_symop_operation_xyz
x,y,z
-x,y,-z
-x,-y,-z
x,-y,z
1/2+x,1/2+y,z
1/2-x,1/2+y,-z
1/2-x,1/2-y,-z
1/2+x,1/2-y,z
loop_
_atom_site_type_symbol
_atom_site_label
_atom_site_fract_x
_atom_site_fract_y
_atom_site_fract_z
Si Si1 0.441191 0.195876 0.791798
Si Si2 0.257901 0.922555 0.779743
Si Si3 0.431992 0.295938 0.332810
Si Si4 0.758966 0.773593 0.278101
Si Si5 0.286777 0.577907 0.718519
Si Si6 0.116800 0.576311 0.847617
O O1 0.500000 0.158295 0.500000
O O2 0.496887 0.266794 0.696759
O O3 0.333665 0.220596 0.009970
O O4 0.439564 0.144434 0.958829
O O5 0.207111 0.852286 0.835062
O O6 0.351348 0.922441 0.429319
O O7 0.213877 0.000000 0.856443
O O8 0.267232 0.915433 0.964165
O O9 0.348131 0.237950 0.528633
O O10 0.371275 0.365887 0.504778
O O11 0.500000 0.301143 0.000000
O O12 0.750000 0.750000 0.500000
O O13 0.327710 0.500000 0.614685
O O14 0.212639 0.581917 0.737439
O O15 0.074203 0.500000 0.988712
#
# Coordination Sequence:
#
# PCOD9211200 Si02
#       6
#     8   8   8   8   8   8
#     4  12  26  41  65 104 133 174 229 277 344 407
#     4  10  21  39  68  96 128 180 224 270 342 410
#     4  12  24  41  69 100 134 178 227 284 343 406
#     4  12  22  44  68  95 139 176 224 287 337 404
#     4  10  22  41  68 100 133 180 230 278 346 408
#     4  10  21  43  69  96 136 181 224 281 346 404
#
# _framework density 23.244509999999998
#
# number of rings (size 3 to 8) (size 9 to 14) (size 15 to 20)
#    0.000    1.000    5.000    1.000    2.333    2.000 
#    0.000    1.667    0.000    6.000    0.000    0.000 
#    0.000    0.000    0.000    0.000    0.000    0.000 
#
# Total GULP energy -134019.378114 kJ/mol
# GULP energy per Si atom -5584.140755 kJ/mol
# Density = 2.319160 g / cm^3
# Si number density = 23.244510 Si / 1000 Ang^3
#
#
#
# Elastic Constant Matrix: (Units=GPa)
#
#
# Indices 1 2 3 4 5 6 
#
# 1 64.6646 28.0576 51.1733 0.0000 7.4373 0.0000
# 2 28.0576 179.1239 41.8468 0.0000 -5.6197 0.0000
# 3 51.1733 41.8468 131.9629 0.0000 16.0472 0.0000
# 4 0.0000 0.0000 0.0000 7.9247 0.0000 7.3527
# 5 7.4373 -5.6197 16.0472 0.0000 36.1967 0.0000
# 6 0.0000 0.0000 0.0000 7.3527 0.0000 26.2519
#
#
#
# Elastic Compliance Matrix: (Units=1/GPa)
#
#
# Indices 1 2 3 4 5 6 
#
# 1 0.022800 -0.001713 -0.008135 0.000000 -0.001344 0.000000
# 2 -0.001713 0.006282 -0.001574 0.000000 0.002025 0.000000
# 3 -0.008135 -0.001574 0.011688 0.000000 -0.003755 0.000000
# 4 0.000000 0.000000 0.000000 0.170494 0.000000 -0.047753
# 5 -0.001344 0.002025 -0.003755 0.000000 0.029882 0.000000
# 6 0.000000 0.000000 0.000000 -0.047753 0.000000 0.051467
#
#
# Mechanical properties :
#
#
# Convention : Reuss Voigt Hill
#
# Bulk Modulus (GPa) = 55.78356 68.65632 62.21994
# Shear Modulus (GPa) = 15.55535 31.05289 23.30412
#
# Velocity S-wave (km/s) = 2.58971 3.65899 3.16976
# Velocity P-wave (km/s) = 5.74394 6.88852 6.34210
#
# Compressibility (1/GPa) = 0.01792643
#
# Stress axis : x y z
#
# Youngs Moduli (GPa) = 43.85983 159.17595 85.55621
#
# Poissons Ratio (x) = 0.27268 0.69598
# Poissons Ratio (y) = 0.07513 0.13468
# Poissons Ratio (z) = 0.35679 0.25057
#
# Static dielectric constant tensor:
#      x y z
#    x 1.893380 0.000000 0.038460 
#    y 0.000000 1.913730 0.000000 
#    z 0.038460 0.000000 1.971720 
# 
# From -- ./inp_files/106492.got.cif
#   From: 2010.05.17/outbox.cif.g08.bks.cpg/sg12_54_cif.got.tgz:106492.got - 2010.06.03 13:09:07.
