data_PCOD9211128
_publ_section_title
;
Structure prediction by ZEFSAII (Michael W. Deem and Ramdas Pophale) SiO2 
 PCOD9211128
Probable space group: C 2/M
;
_chemical_formula_sum "Si O2"
_cell_formula_units_Z 40
_cell_length_a 19.594782
_cell_length_b 17.804487
_cell_length_c 14.967725
_cell_angle_alpha 90.000000
_cell_angle_beta 159.741893
_cell_angle_gamma 90.000000
_cell_volume 1808.069957
_symmetry_space_group_name_H-M "C 2/M"
_symmetry_group_IT_number 12
_symmetry_cell_setting 'monoclinic'
loop_
_space_group_symop_operation_xyz
x,y,z
-x,y,-z
-x,-y,-z
x,-y,z
1/2+x,1/2+y,z
1/2-x,1/2+y,-z
1/2-x,1/2-y,-z
1/2+x,1/2-y,z
loop_
_atom_site_type_symbol
_atom_site_label
_atom_site_fract_x
_atom_site_fract_y
_atom_site_fract_z
Si Si1 0.146112 0.084796 0.437390
Si Si2 0.171225 0.910267 0.281627
Si Si3 0.141090 0.157631 0.799151
Si Si4 0.450524 0.166765 0.334692
Si Si5 0.411245 0.913579 0.982037
O O1 0.078562 0.118576 0.260829
O O2 0.380799 0.083322 0.710622
O O3 0.069707 0.124034 0.432035
O O4 0.073158 0.000000 0.354529
O O5 0.353795 0.860203 0.475906
O O6 0.222863 0.000000 0.352428
O O7 0.000000 0.905267 0.000000
O O8 0.099731 0.244858 0.730564
O O9 0.274851 0.138243 0.051753
O O10 0.250914 0.124426 0.847940
O O11 0.500000 0.145816 0.500000
O O12 0.349640 0.000000 0.885738
O O13 0.500000 0.878150 0.000000
#
# Coordination Sequence:
#
# PCOD9211128 Si02
#       5
#     8   8   8   8   8
#     4  10  21  39  66  96 125 166 215 264 323 383
#     4  10  21  41  67  97 130 167 216 272 326 383
#     4  11  24  43  64  95 134 170 213 266 324 389
#     4  11  25  43  61  95 131 170 219 261 326 391
#     4  10  22  41  67  97 129 170 216 265 323 383
#
# _framework density 22.123038000000001
#
# number of rings (size 3 to 8) (size 9 to 14) (size 15 to 20)
#    0.000    1.600    2.000    1.800    2.800    2.000 
#    3.600    3.000    0.000    0.000    0.000    0.000 
#    0.000    0.000    0.000    0.000    0.000    0.000 
#
# Total GULP energy -111403.095965 kJ/mol
# GULP energy per Si atom -5570.154798 kJ/mol
# Density = 2.207268 g / cm^3
# Si number density = 22.123038 Si / 1000 Ang^3
#
#
#
# Elastic Constant Matrix: (Units=GPa)
#
#
# Indices 1 2 3 4 5 6 
#
# 1 199.1275 41.9590 48.6449 0.0000 21.6786 0.0000
# 2 41.9590 40.0143 20.2647 0.0000 29.8340 0.0000
# 3 48.6449 20.2647 83.9640 0.0000 14.6833 0.0000
# 4 0.0000 0.0000 0.0000 31.9511 0.0000 15.6769
# 5 21.6786 29.8340 14.6833 0.0000 57.9931 0.0000
# 6 0.0000 0.0000 0.0000 15.6769 0.0000 30.9686
#
#
#
# Elastic Compliance Matrix: (Units=1/GPa)
#
#
# Indices 1 2 3 4 5 6 
#
# 1 0.007020 -0.007428 -0.002599 0.000000 0.001855 0.000000
# 2 -0.007428 0.052005 -0.004243 0.000000 -0.022902 0.000000
# 3 -0.002599 -0.004243 0.014531 0.000000 -0.000525 0.000000
# 4 0.000000 0.000000 0.000000 0.041640 0.000000 -0.021079
# 5 0.001855 -0.022902 -0.000525 0.000000 0.028465 0.000000
# 6 0.000000 0.000000 0.000000 -0.021079 0.000000 0.042961
#
#
# Mechanical properties :
#
#
# Convention : Reuss Voigt Hill
#
# Bulk Modulus (GPa) = 22.21401 60.53811 41.37606
# Shear Modulus (GPa) = 21.72333 38.33172 30.02753
#
# Velocity S-wave (km/s) = 3.13698 4.16704 3.68815
# Velocity P-wave (km/s) = 4.81495 7.11168 6.07288
#
# Compressibility (1/GPa) = 0.04501664
#
# Stress axis : x y z
#
# Youngs Moduli (GPa) = 142.44967 19.22904 68.81740
#
# Poissons Ratio (x) = 0.14284 0.17883
# Poissons Ratio (y) = 1.05817 0.29196
# Poissons Ratio (z) = 0.37018 0.08158
#
# Static dielectric constant tensor:
#      x y z
#    x 1.886860 0.000000 -0.083360 
#    y 0.000000 1.796120 0.000000 
#    z -0.083360 0.000000 2.004320 
# 
# From -- ./inp_files/105705.got.cif
#   From: 2010.05.17/outbox.cif.g08.bks.cpg/sg12_53_cif.got.tgz:105705.got - 2010.06.03 13:09:07.
