data_PCOD9211681
_publ_section_title
;
Structure prediction by ZEFSAII (Michael W. Deem and Ramdas Pophale) SiO2 
 PCOD9211681
Probable space group: C 2/M
;
_chemical_formula_sum "Si O2"
_cell_formula_units_Z 56
_cell_length_a 22.944277
_cell_length_b 14.046174
_cell_length_c 23.920047
_cell_angle_alpha 90.000000
_cell_angle_beta 159.448463
_cell_angle_gamma 90.000000
_cell_volume 2706.220247
_symmetry_space_group_name_H-M "C 2/M"
_symmetry_group_IT_number 12
_symmetry_cell_setting 'monoclinic'
loop_
_space_group_symop_operation_xyz
x,y,z
-x,y,-z
-x,-y,-z
x,-y,z
1/2+x,1/2+y,z
1/2-x,1/2+y,-z
1/2-x,1/2-y,-z
1/2+x,1/2-y,z
loop_
_atom_site_type_symbol
_atom_site_label
_atom_site_fract_x
_atom_site_fract_y
_atom_site_fract_z
Si Si1 0.948315 0.605565 0.124139
Si Si2 0.442037 0.112286 0.661320
Si Si3 0.373362 0.897346 0.835249
Si Si4 0.167948 0.115114 0.324052
Si Si5 0.162112 0.895575 0.107463
Si Si6 0.310865 0.699806 0.980746
Si Si7 0.313787 0.200571 0.339432
O O1 0.876053 0.500000 0.069489
O O2 0.082675 0.622777 0.294089
O O3 0.817121 0.690913 0.005411
O O4 0.034751 0.605578 0.141897
O O5 0.292022 0.144913 0.486371
O O6 0.459028 0.000000 0.664281
O O7 0.625714 0.157497 0.819584
O O8 0.284738 0.796920 0.760943
O O9 0.279307 0.000000 0.752057
O O10 0.500000 0.901050 0.000000
O O11 0.247956 0.156480 0.338489
O O12 0.976386 0.151340 0.156573
O O13 0.163741 0.000000 0.317065
O O14 0.299882 0.876399 0.277111
O O15 0.176793 0.000000 0.093716
O O16 0.154596 0.815567 0.054123
O O17 0.000000 0.893731 0.000000
O O18 0.500000 0.232323 0.500000
#
# Coordination Sequence:
#
# PCOD9211681 Si02
#       7
#     8   8   8   8   8   8   8
#     4  10  21  40  65  89 119 158 206 261 306 360
#     4  10  23  40  61  93 127 161 205 252 304 364
#     4  10  21  41  66  87 114 157 204 252 307 360
#     4  11  23  39  60  90 127 166 203 245 303 371
#     4  11  21  35  58  86 121 159 199 244 295 362
#     4  12  21  39  64  89 123 167 207 251 305 363
#     4  12  23  36  57  90 125 158 198 250 303 365
#
# _framework density 20.693069000000001
#
# number of rings (size 3 to 8) (size 9 to 14) (size 15 to 20)
#    0.000    1.143    2.857    4.286    0.000    3.143 
#    0.000    0.000    0.000    3.429    0.000    0.000 
#    0.000    0.000    0.000    0.000    0.000    0.000 
#
# Total GULP energy -156125.536959 kJ/mol
# GULP energy per Si atom -5575.912034 kJ/mol
# Density = 2.064597 g / cm^3
# Si number density = 20.693069 Si / 1000 Ang^3
#
#
#
# Elastic Constant Matrix: (Units=GPa)
#
#
# Indices 1 2 3 4 5 6 
#
# 1 69.3191 15.9395 57.8493 0.0120 -22.5652 0.0058
# 2 15.9395 107.3716 36.9282 0.0251 -8.1248 0.0134
# 3 57.8493 36.9282 119.6075 0.0281 -20.0067 0.0144
# 4 0.0120 0.0251 0.0281 27.5699 0.0089 -10.3938
# 5 -22.5652 -8.1248 -20.0067 0.0089 35.2749 0.0028
# 6 0.0058 0.0134 0.0144 -10.3938 0.0028 17.8274
#
#
#
# Elastic Compliance Matrix: (Units=1/GPa)
#
#
# Indices 1 2 3 4 5 6 
#
# 1 0.027731 0.000783 -0.011774 -0.000007 0.011242 -0.000006
# 2 0.000783 0.010455 -0.003447 -0.000011 0.000954 -0.000012
# 3 -0.011774 -0.003447 0.015166 -0.000012 0.000276 -0.000013
# 4 -0.000007 -0.000011 -0.000012 0.046490 -0.000028 0.027105
# 5 0.011242 0.000954 0.000276 -0.000028 0.035917 -0.000026
# 6 -0.000006 -0.000012 -0.000013 0.027105 -0.000026 0.071896
#
#
# Mechanical properties :
#
#
# Convention : Reuss Voigt Hill
#
# Bulk Modulus (GPa) = 40.85561 57.52580 49.19070
# Shear Modulus (GPa) = 20.43411 28.50653 24.47032
#
# Velocity S-wave (km/s) = 3.14584 3.71561 3.44253
# Velocity P-wave (km/s) = 5.74296 6.80203 6.29481
#
# Compressibility (1/GPa) = 0.02447644
#
# Stress axis : x y z
#
# Youngs Moduli (GPa) = 36.06037 95.64851 65.93853
#
# Poissons Ratio (x) = -0.07492 0.77635
# Poissons Ratio (y) = -0.02825 0.22730
# Poissons Ratio (z) = 0.42457 0.32972
#
# Static dielectric constant tensor:
#      x y z
#    x 1.771830 0.000000 -0.011390 
#    y 0.000000 1.769790 -0.000010 
#    z -0.011390 -0.000010 1.641780 
# 
# From -- ./inp_files/349820.got.cif
#   From: 2010.05.17/outbox.cif.g08.bks.cpg/sg12_175_cif.got.tgz:349820.got - 2010.06.03 13:09:07.
