data_PCOD9211806
_publ_section_title
;
Structure prediction by ZEFSAII (Michael W. Deem and Ramdas Pophale) SiO2 
 PCOD9211806
Probable space group: C 2/M
;
_chemical_formula_sum "Si O2"
_cell_formula_units_Z 64
_cell_length_a 20.143985
_cell_length_b 8.137819
_cell_length_c 32.136932
_cell_angle_alpha 90.000000
_cell_angle_beta 35.805647
_cell_angle_gamma 90.000000
_cell_volume 3082.063734
_symmetry_space_group_name_H-M "C 2/M"
_symmetry_group_IT_number 12
_symmetry_cell_setting 'monoclinic'
loop_
_space_group_symop_operation_xyz
x,y,z
-x,y,-z
-x,-y,-z
x,-y,z
1/2+x,1/2+y,z
1/2-x,1/2+y,-z
1/2-x,1/2-y,-z
1/2+x,1/2-y,z
loop_
_atom_site_type_symbol
_atom_site_label
_atom_site_fract_x
_atom_site_fract_y
_atom_site_fract_z
Si Si1 0.769674 0.198656 0.377880
Si Si2 0.725413 0.698981 0.718486
Si Si3 0.352960 0.802415 0.477609
Si Si4 0.581327 0.690082 0.317836
Si Si5 0.309435 0.690735 0.895359
Si Si6 0.560414 0.694120 0.010369
Si Si7 0.973216 0.688037 0.743041
Si Si8 0.980376 0.201054 0.876544
O O1 0.743306 0.251316 0.344244
O O2 0.681794 0.250538 0.458147
O O3 0.895552 0.259500 0.325020
O O4 0.772871 0.000000 0.376717
O O5 0.731151 0.500000 0.717221
O O6 0.810726 0.768646 0.709042
O O7 0.596433 0.748044 0.794519
O O8 0.250000 0.750000 0.500000
O O9 0.468904 0.728101 0.401660
O O10 0.363154 0.000000 0.471578
O O11 0.580840 0.500000 0.305937
O O12 0.576449 0.792392 0.277869
O O13 0.279702 0.500000 0.916609
O O14 0.195542 0.783253 0.940597
O O15 0.402612 0.705589 0.811652
O O16 0.371321 0.755630 0.905487
O O17 0.533759 0.500000 0.024738
O O18 0.500000 0.764620 0.000000
O O19 0.520836 0.760384 0.075345
O O20 0.965102 0.500000 0.760860
O O21 0.976651 0.000000 0.878372
#
# Coordination Sequence:
#
# PCOD9211806 Si02
#       8
#     8   8   8   8   8   8   8   8
#     4  10  21  40  66  92 124 161 206 261 313 372
#     4  10  21  41  65  90 124 167 210 254 314 374
#     4  11  22  38  63  93 123 164 210 259 315 372
#     4  12  26  42  60  90 129 166 207 260 315 371
#     4  11  22  40  64  90 123 164 209 257 311 368
#     4  10  22  39  60  92 128 164 209 254 303 365
#     4  12  24  39  64  93 122 160 210 262 314 375
#     4   9  19  38  64  89 122 166 205 250 306 368
#
# _framework density 20.765305999999999
#
# number of rings (size 3 to 8) (size 9 to 14) (size 15 to 20)
#    0.000    1.375    2.500    3.375    1.750    1.750 
#    0.000    3.750    0.000    0.000    0.000    0.000 
#    0.000    0.000    0.000    0.000    0.000    0.000 
#
# Total GULP energy -178909.517705 kJ/mol
# GULP energy per Si atom -5590.922428 kJ/mol
# Density = 2.071804 g / cm^3
# Si number density = 20.765306 Si / 1000 Ang^3
#
#
#
# Elastic Constant Matrix: (Units=GPa)
#
#
# Indices 1 2 3 4 5 6 
#
# 1 130.4349 -6.9662 24.9429 -0.0035 12.1027 0.0307
# 2 -6.9662 18.5977 -6.7606 -0.0039 5.2517 0.0094
# 3 24.9429 -6.7606 63.3349 0.0030 12.9329 0.0012
# 4 -0.0035 -0.0039 0.0030 21.3332 0.0013 -3.2698
# 5 12.1027 5.2517 12.9329 0.0013 35.5784 0.0023
# 6 0.0307 0.0094 0.0012 -3.2698 0.0023 21.3145
#
#
#
# Elastic Compliance Matrix: (Units=1/GPa)
#
#
# Indices 1 2 3 4 5 6 
#
# 1 0.008536 0.002949 -0.002555 0.000000 -0.002411 -0.000013
# 2 0.002949 0.061476 0.008057 0.000007 -0.013006 -0.000029
# 3 -0.002555 0.008057 0.019141 -0.000001 -0.007278 0.000000
# 4 0.000000 0.000007 -0.000001 0.048004 -0.000003 0.007364
# 5 -0.002411 -0.013006 -0.007278 -0.000003 0.033493 0.000006
# 6 -0.000013 -0.000029 0.000000 0.007364 0.000006 0.048046
#
#
# Mechanical properties :
#
#
# Convention : Reuss Voigt Hill
#
# Bulk Modulus (GPa) = 9.42890 26.08885 17.75888
# Shear Modulus (GPa) = 21.08400 29.05531 25.06965
#
# Velocity S-wave (km/s) = 3.18991 3.74468 3.47837
# Velocity P-wave (km/s) = 4.25651 5.59355 4.97020
#
# Compressibility (1/GPa) = 0.10605686
#
# Stress axis : x y z
#
# Youngs Moduli (GPa) = 117.14543 16.26638 52.24276
#
# Poissons Ratio (x) = -0.04798 0.13347
# Poissons Ratio (y) = -0.34552 -0.42090
# Poissons Ratio (z) = 0.29928 -0.13105
#
# Static dielectric constant tensor:
#      x y z
#    x 1.750130 0.000010 0.046950 
#    y 0.000010 1.762760 0.000010 
#    z 0.046950 0.000010 1.731330 
# 
# From -- ./inp_files/378063.got.cif
#   From: 2010.05.17/outbox.cif.g08.bks.cpg/sg12_190_cif.got.tgz:378063.got - 2010.06.03 13:09:07.
