data_PCOD9211440
_publ_section_title
;
Structure prediction by ZEFSAII (Michael W. Deem and Ramdas Pophale) SiO2 
 PCOD9211440
Probable space group: C 2/M
;
_chemical_formula_sum "Si O2"
_cell_formula_units_Z 64
_cell_length_a 19.267867
_cell_length_b 8.900796
_cell_length_c 31.711339
_cell_angle_alpha 90.000000
_cell_angle_beta 139.714667
_cell_angle_gamma 90.000000
_cell_volume 3516.487601
_symmetry_space_group_name_H-M "C 2/M"
_symmetry_group_IT_number 12
_symmetry_cell_setting 'monoclinic'
loop_
_space_group_symop_operation_xyz
x,y,z
-x,y,-z
-x,-y,-z
x,-y,z
1/2+x,1/2+y,z
1/2-x,1/2+y,-z
1/2-x,1/2-y,-z
1/2+x,1/2-y,z
loop_
_atom_site_type_symbol
_atom_site_label
_atom_site_fract_x
_atom_site_fract_y
_atom_site_fract_z
Si Si1 0.632943 0.821600 0.442814
Si Si2 0.822714 0.679033 0.922877
Si Si3 0.484255 0.821051 0.923166
Si Si4 0.943535 0.177784 0.814888
Si Si5 0.212372 0.177575 0.705038
Si Si6 0.040123 0.820170 0.697909
Si Si7 0.907711 0.678788 0.187672
Si Si8 0.512722 0.322569 0.555336
O O1 0.750000 0.750000 0.500000
O O2 0.563612 0.750247 0.372744
O O3 0.567819 0.776516 0.454661
O O4 0.639296 0.000000 0.440950
O O5 0.799345 0.500000 0.911441
O O6 0.884381 0.714909 0.907773
O O7 0.714153 0.769881 0.877592
O O8 0.908473 0.706376 0.999837
O O9 0.479657 0.730808 0.878027
O O10 0.479060 0.000000 0.911934
O O11 0.819937 0.227802 0.752841
O O12 0.015295 0.258942 0.813063
O O13 0.954418 0.000000 0.815535
O O14 0.141235 0.210634 0.713703
O O15 0.132197 0.204484 0.628648
O O16 0.239620 0.000000 0.718679
O O17 0.059559 0.750684 0.752464
O O18 0.028898 0.000000 0.695252
O O19 0.915084 0.500000 0.193278
O O20 0.500000 0.296201 0.500000
O O21 0.490008 0.500000 0.553355
#
# Coordination Sequence:
#
# PCOD9211440 Si02
#       8
#     8   8   8   8   8   8   8   8
#     4  11  22  37  58  85 118 153 192 235 281 335
#     4   9  19  38  63  88 114 147 186 228 278 337
#     4   9  19  38  63  87 113 147 186 229 280 338
#     4  12  25  38  55  81 115 152 191 236 282 332
#     4   9  19  37  60  83 111 147 185 231 285 340
#     4  10  21  40  63  85 112 147 189 235 284 338
#     4  12  25  39  57  83 116 152 189 232 284 337
#     4   9  19  37  60  85 114 149 189 234 286 340
#
# _framework density 18.199978999999999
#
# number of rings (size 3 to 8) (size 9 to 14) (size 15 to 20)
#    0.000    1.875    0.000    6.000    0.000    8.250 
#    0.000    5.000    0.000    0.000    0.000    0.000 
#    0.000    0.000    0.000    0.000    0.000    0.000 
#
# Total GULP energy -178829.187194 kJ/mol
# GULP energy per Si atom -5588.412100 kJ/mol
# Density = 1.815856 g / cm^3
# Si number density = 18.199979 Si / 1000 Ang^3
#
#
#
# Elastic Constant Matrix: (Units=GPa)
#
#
# Indices 1 2 3 4 5 6 
#
# 1 105.3701 82.3300 84.6771 0.0000 -0.5190 0.0000
# 2 82.3300 124.3812 78.1185 0.0000 6.4588 0.0000
# 3 84.6771 78.1185 102.0672 0.0000 1.4489 0.0000
# 4 0.0000 0.0000 0.0000 33.8563 0.0000 2.1422
# 5 -0.5190 6.4588 1.4489 0.0000 33.0536 0.0000
# 6 0.0000 0.0000 0.0000 2.1422 0.0000 33.7320
#
#
#
# Elastic Compliance Matrix: (Units=1/GPa)
#
#
# Indices 1 2 3 4 5 6 
#
# 1 0.033268 -0.009293 -0.020534 0.000000 0.003238 0.000000
# 2 -0.009293 0.018288 -0.006239 0.000000 -0.003446 0.000000
# 3 -0.020534 -0.006239 0.031615 0.000000 -0.000489 0.000000
# 4 0.000000 0.000000 0.000000 0.029656 0.000000 -0.001883
# 5 0.003238 -0.003446 -0.000489 0.000000 0.031000 0.000000
# 6 0.000000 0.000000 0.000000 -0.001883 0.000000 0.029765
#
#
# Mechanical properties :
#
#
# Convention : Reuss Voigt Hill
#
# Bulk Modulus (GPa) = 90.57480 91.34106 90.95793
# Shear Modulus (GPa) = 20.04799 25.90791 22.97795
#
# Velocity S-wave (km/s) = 3.32254 3.77704 3.55706
# Velocity P-wave (km/s) = 8.03701 8.32573 8.18264
#
# Compressibility (1/GPa) = 0.01104060
#
# Stress axis : x y z
#
# Youngs Moduli (GPa) = 30.05858 54.68114 31.63093
#
# Poissons Ratio (x) = 0.50813 0.64951
# Poissons Ratio (y) = 0.27932 0.19733
# Poissons Ratio (z) = 0.61722 0.34114
#
# Static dielectric constant tensor:
#      x y z
#    x 1.595490 0.000000 -0.002300 
#    y 0.000000 1.606440 0.000000 
#    z -0.002300 0.000000 1.614160 
# 
# From -- ./inp_files/378362.got.cif
#   From: 2010.05.17/outbox.cif.g08.bks.cpg/sg12_190_cif.got.tgz:378362.got - 2010.06.03 13:09:07.
