data_PCOD9211610
_publ_section_title
;
Structure prediction by ZEFSAII (Michael W. Deem and Ramdas Pophale) SiO2 
 PCOD9211610
Probable space group: C 2/M
;
_chemical_formula_sum "Si O2"
_cell_formula_units_Z 48
_cell_length_a 29.732483
_cell_length_b 8.790623
_cell_length_c 14.675195
_cell_angle_alpha 90.000000
_cell_angle_beta 39.031171
_cell_angle_gamma 90.000000
_cell_volume 2415.450425
_symmetry_space_group_name_H-M "C 2/M"
_symmetry_group_IT_number 12
_symmetry_cell_setting 'monoclinic'
loop_
_space_group_symop_operation_xyz
x,y,z
-x,y,-z
-x,-y,-z
x,-y,z
1/2+x,1/2+y,z
1/2-x,1/2+y,-z
1/2-x,1/2-y,-z
1/2+x,1/2-y,z
loop_
_atom_site_type_symbol
_atom_site_label
_atom_site_fract_x
_atom_site_fract_y
_atom_site_fract_z
Si Si1 0.053214 0.318923 0.174789
Si Si2 0.549263 0.815202 0.505622
Si Si3 0.070831 0.181778 0.946587
Si Si4 0.794997 0.677591 0.689574
Si Si5 0.780790 0.319828 0.358952
Si Si6 0.306153 0.323253 0.980143
O O1 0.052648 0.500000 0.162345
O O2 0.985318 0.274168 0.342750
O O3 0.059441 0.239550 0.067486
O O4 0.121562 0.271518 0.127225
O O5 0.500000 0.758289 0.500000
O O6 0.632015 0.770032 0.376574
O O7 0.547980 0.000000 0.501529
O O8 0.141747 0.253528 0.790766
O O9 0.079895 0.000000 0.933597
O O10 0.000000 0.219230 0.000000
O O11 0.804378 0.500000 0.647588
O O12 0.773106 0.774677 0.637320
O O13 0.731005 0.683033 0.862464
O O14 0.786433 0.500000 0.358641
O O15 0.750000 0.250000 0.500000
O O16 0.319731 0.500000 0.936576
O O17 0.250000 0.250000 0.000000
#
# Coordination Sequence:
#
# PCOD9211610 Si02
#       6
#     8   8   8   8   8   8
#     4  11  22  38  63  94 126 163 211 262 318 382
#     4   9  19  37  61  91 126 167 212 255 306 372
#     4  11  25  45  67  94 129 167 210 264 325 384
#     4  10  21  40  64  91 126 168 211 260 314 373
#     4  12  26  44  68  96 128 166 213 263 320 388
#     4  11  22  37  62  90 124 165 210 262 319 379
#
# _framework density 19.872070999999998
#
# number of rings (size 3 to 8) (size 9 to 14) (size 15 to 20)
#    0.000    1.333    1.667    4.000    2.333    4.667 
#    0.000    0.833    0.000    3.500    0.000    0.000 
#    0.000    0.000    0.000    0.000    0.000    0.000 
#
# Total GULP energy -134170.709349 kJ/mol
# GULP energy per Si atom -5590.446223 kJ/mol
# Density = 1.982684 g / cm^3
# Si number density = 19.872071 Si / 1000 Ang^3
#
#
#
# Elastic Constant Matrix: (Units=GPa)
#
#
# Indices 1 2 3 4 5 6 
#
# 1 85.9297 27.8128 8.1185 -0.0001 -0.4295 0.0000
# 2 27.8128 64.1888 20.7213 -0.0006 4.5796 0.0001
# 3 8.1185 20.7213 71.3028 -0.0001 -5.7218 0.0000
# 4 -0.0001 -0.0006 -0.0001 20.6371 0.0001 4.4916
# 5 -0.4295 4.5796 -5.7218 0.0001 36.1725 0.0000
# 6 0.0000 0.0001 0.0000 4.4916 0.0000 35.3960
#
#
#
# Elastic Compliance Matrix: (Units=1/GPa)
#
#
# Indices 1 2 3 4 5 6 
#
# 1 0.013571 -0.006043 0.000289 0.000000 0.000972 0.000000
# 2 -0.006043 0.020211 -0.005466 0.000001 -0.003495 0.000000
# 3 0.000289 -0.005466 0.015837 0.000000 0.003201 0.000000
# 4 0.000000 0.000001 0.000000 0.049833 0.000000 -0.006324
# 5 0.000972 -0.003495 0.003201 0.000000 0.028606 0.000000
# 6 0.000000 0.000000 0.000000 -0.006324 0.000000 0.029054
#
#
# Mechanical properties :
#
#
# Convention : Reuss Voigt Hill
#
# Bulk Modulus (GPa) = 36.79260 37.19183 36.99222
# Shear Modulus (GPa) = 26.50953 29.42571 27.96762
#
# Velocity S-wave (km/s) = 3.65637 3.85224 3.75558
# Velocity P-wave (km/s) = 6.03161 6.20826 6.12058
#
# Compressibility (1/GPa) = 0.02717938
#
# Stress axis : x y z
#
# Youngs Moduli (GPa) = 73.68730 49.47726 63.14276
#
# Poissons Ratio (x) = 0.29898 -0.01824
# Poissons Ratio (y) = 0.44528 0.34514
# Poissons Ratio (z) = -0.02129 0.27045
#
# Static dielectric constant tensor:
#      x y z
#    x 1.705590 0.000000 -0.008560 
#    y 0.000000 1.674460 0.000000 
#    z -0.008560 0.000000 1.690910 
# 
# From -- ./inp_files/244677.got.cif
#   From: 2010.05.17/outbox.cif.g08.bks.cpg/sg12_123_cif.got.tgz:244677.got - 2010.06.03 13:09:07.
