data_PCOD9211097
_publ_section_title
;
Structure prediction by ZEFSAII (Michael W. Deem and Ramdas Pophale) SiO2 
 PCOD9211097
Probable space group: C 2/M
;
_chemical_formula_sum "Si O2"
_cell_formula_units_Z 48
_cell_length_a 14.999150
_cell_length_b 25.706927
_cell_length_c 10.770720
_cell_angle_alpha 90.000000
_cell_angle_beta 143.726548
_cell_angle_gamma 90.000000
_cell_volume 2457.077462
_symmetry_space_group_name_H-M "C 2/M"
_symmetry_group_IT_number 12
_symmetry_cell_setting 'monoclinic'
loop_
_space_group_symop_operation_xyz
x,y,z
-x,y,-z
-x,-y,-z
x,-y,z
1/2+x,1/2+y,z
1/2-x,1/2+y,-z
1/2-x,1/2-y,-z
1/2+x,1/2-y,z
loop_
_atom_site_type_symbol
_atom_site_label
_atom_site_fract_x
_atom_site_fract_y
_atom_site_fract_z
Si Si1 0.849638 0.841696 0.910510
Si Si2 0.654112 0.852324 0.126453
Si Si3 0.167564 0.442369 0.632572
Si Si4 0.594574 0.886628 0.309523
Si Si5 0.133240 0.791183 0.812524
Si Si6 0.656957 0.777330 0.507144
O O1 0.758959 0.895241 0.795395
O O2 0.754160 0.795547 0.735216
O O3 0.889429 0.829777 0.096735
O O4 0.000000 0.846206 0.000000
O O5 0.699177 0.879665 0.305246
O O6 0.782916 0.820390 0.205333
O O7 0.500000 0.821086 0.000000
O O8 0.572794 0.891139 0.937500
O O9 0.231490 0.500000 0.723920
O O10 0.148399 0.429502 0.465145
O O11 0.000000 0.440956 0.500000
O O12 0.594886 0.831926 0.383503
O O13 0.979877 0.760586 0.614769
O O14 0.250000 0.750000 0.000000
O O15 0.750000 0.750000 0.500000
#
# Coordination Sequence:
#
# PCOD9211097 Si02
#       6
#     8   8   8   8   8   8
#     4  11  25  41  59  89 126 164 215 257 308 375
#     4   8  18  35  55  81 120 162 202 248 293 365
#     4  10  21  39  66  94 117 151 208 275 329 372
#     4   8  18  36  54  80 124 152 201 255 302 367
#     4  12  22  36  59  89 124 174 204 255 303 371
#     4  11  22  36  56  86 123 166 206 251 302 369
#
# _framework density 19.535404
#
# number of rings (size 3 to 8) (size 9 to 14) (size 15 to 20)
#    1.000    0.833    3.333    1.000    4.667    1.000 
#    0.000    1.667    0.000    1.000    0.000    1.167 
#    0.000    0.000    0.000    0.000    0.000    0.000 
#
# Total GULP energy -133855.394381 kJ/mol
# GULP energy per Si atom -5577.308099 kJ/mol
# Density = 1.949094 g / cm^3
# Si number density = 19.535404 Si / 1000 Ang^3
#
#
#
# Elastic Constant Matrix: (Units=GPa)
#
#
# Indices 1 2 3 4 5 6 
#
# 1 101.3838 29.0727 14.9982 0.0000 10.0237 0.0000
# 2 29.0727 91.5993 29.6752 0.0000 5.4149 0.0000
# 3 14.9982 29.6752 50.0583 0.0000 5.9013 0.0000
# 4 0.0000 0.0000 0.0000 -24.2778 0.0000 46.3972
# 5 10.0237 5.4149 5.9013 0.0000 36.3242 0.0000
# 6 0.0000 0.0000 0.0000 46.3972 0.0000 -33.2995
#
#
#
# Elastic Compliance Matrix: (Units=1/GPa)
#
#
# Indices 1 2 3 4 5 6 
#
# 1 0.011148 -0.002977 -0.001289 0.000000 -0.002423 0.000000
# 2 -0.002977 0.014326 -0.007591 0.000000 -0.000081 0.000000
# 3 -0.001289 -0.007591 0.025170 0.000000 -0.002602 0.000000
# 4 0.000000 0.000000 0.000000 0.024772 0.000000 0.034515
# 5 -0.002423 -0.000081 -0.002602 0.000000 0.028633 0.000000
# 6 0.000000 0.000000 0.000000 0.034515 0.000000 0.018060
#
#
# Mechanical properties :
#
#
# Convention : Reuss Voigt Hill
#
# Bulk Modulus (GPa) = 37.13610 43.39263 40.26436
# Shear Modulus (GPa) = 32.29974 7.03574 19.66774
#
# Velocity S-wave (km/s) = 4.07061 1.89983 3.17641
# Velocity P-wave (km/s) = 6.41436 5.20317 5.84025
#
# Compressibility (1/GPa) = 0.02692798
#
# Stress axis : x y z
#
# Youngs Moduli (GPa) = 89.70599 69.80261 39.73000
#
# Poissons Ratio (x) = 0.20781 0.05123
# Poissons Ratio (y) = 0.26707 0.30160
# Poissons Ratio (z) = 0.11567 0.52988
#
# Static dielectric constant tensor:
#      x y z
#    x 1.736330 0.000000 -0.019570 
#    y 0.000000 1.684840 0.000000 
#    z -0.019570 0.000000 1.757440 
# 
# From -- ./inp_files/149842.got.cif
#   From: 2010.05.17/outbox.cif.g08.bks.cpg/sg12_75_cif.got.tgz:149842.got - 2010.06.03 13:09:07.
