data_PCOD9211894
_publ_section_title
;
Structure prediction by ZEFSAII (Michael W. Deem and Ramdas Pophale) SiO2 
 PCOD9211894
Probable space group: C 2/M
;
_chemical_formula_sum "Si O2"
_cell_formula_units_Z 56
_cell_length_a 19.564163
_cell_length_b 14.562315
_cell_length_c 9.727558
_cell_angle_alpha 90.000000
_cell_angle_beta 60.346289
_cell_angle_gamma 90.000000
_cell_volume 2408.413462
_symmetry_space_group_name_H-M "C 2/M"
_symmetry_group_IT_number 12
_symmetry_cell_setting 'monoclinic'
loop_
_space_group_symop_operation_xyz
x,y,z
-x,y,-z
-x,-y,-z
x,-y,z
1/2+x,1/2+y,z
1/2-x,1/2+y,-z
1/2-x,1/2-y,-z
1/2+x,1/2-y,z
loop_
_atom_site_type_symbol
_atom_site_label
_atom_site_fract_x
_atom_site_fract_y
_atom_site_fract_z
Si Si1 0.964890 0.108793 0.325372
Si Si2 0.943102 0.700017 0.432730
Si Si3 0.957167 0.393685 0.896613
Si Si4 0.779172 0.647290 0.493616
Si Si5 0.211288 0.608544 0.838157
Si Si6 0.648869 0.610269 0.115666
Si Si7 0.135079 0.896728 0.826472
O O1 0.927192 0.189910 0.452881
O O2 0.935424 0.135315 0.201325
O O3 0.058001 0.119497 0.247251
O O4 0.944522 0.000000 0.371857
O O5 0.860650 0.648231 0.495928
O O6 0.000000 0.673902 0.500000
O O7 0.994115 0.672364 0.249633
O O8 0.956333 0.500000 0.844471
O O9 0.869233 0.358600 0.012085
O O10 0.000000 0.396667 0.000000
O O11 0.750000 0.750000 0.500000
O O12 0.789801 0.615378 0.326078
O O13 0.710758 0.602069 0.651816
O O14 0.209903 0.500000 0.864495
O O15 0.287973 0.648286 0.838620
O O16 0.662831 0.500000 0.097513
O O17 0.655707 0.646853 0.952206
O O18 0.110491 0.000000 0.885992
#
# Coordination Sequence:
#
# PCOD9211894 Si02
#       7
#     8   8   8   8   8   8   8
#     4  10  22  43  68  95 133 179 222 269 330 397
#     4  12  28  44  65 101 137 173 225 277 329 393
#     4  10  22  45  71  94 128 175 222 269 330 395
#     4  12  25  42  60  92 135 171 213 268 329 393
#     4  10  22  43  69  96 126 171 222 273 330 398
#     4   9  20  38  67 100 126 161 220 273 324 394
#     4  10  21  40  67  95 128 171 214 271 333 389
#
# _framework density 23.251821
#
# number of rings (size 3 to 8) (size 9 to 14) (size 15 to 20)
#    0.000    1.571    2.857    0.857    4.000    5.143 
#    0.000    1.429    0.000    0.000    0.000    0.000 
#    0.000    0.000    0.000    0.000    0.000    0.000 
#
# Total GULP energy -156383.161967 kJ/mol
# GULP energy per Si atom -5585.112927 kJ/mol
# Density = 2.319890 g / cm^3
# Si number density = 23.251821 Si / 1000 Ang^3
#
#
#
# Elastic Constant Matrix: (Units=GPa)
#
#
# Indices 1 2 3 4 5 6 
#
# 1 177.9243 18.9037 13.9213 0.0000 16.4565 0.0000
# 2 18.9037 69.6840 17.4072 0.0000 -1.8816 0.0000
# 3 13.9213 17.4072 40.5651 0.0000 6.5870 0.0000
# 4 0.0000 0.0000 0.0000 47.9775 0.0000 -6.8456
# 5 16.4565 -1.8816 6.5870 0.0000 32.9489 0.0000
# 6 0.0000 0.0000 0.0000 -6.8456 0.0000 25.5095
#
#
#
# Elastic Compliance Matrix: (Units=1/GPa)
#
#
# Indices 1 2 3 4 5 6 
#
# 1 0.006129 -0.001497 -0.000982 0.000000 -0.002950 0.000000
# 2 -0.001497 0.016621 -0.007125 0.000000 0.003121 0.000000
# 3 -0.000982 -0.007125 0.028973 0.000000 -0.005709 0.000000
# 4 0.000000 0.000000 0.000000 0.021673 0.000000 0.005816
# 5 -0.002950 0.003121 -0.005709 0.000000 0.033143 0.000000
# 6 0.000000 0.000000 0.000000 0.005816 0.000000 0.040762
#
#
# Mechanical properties :
#
#
# Convention : Reuss Voigt Hill
#
# Bulk Modulus (GPa) = 30.75545 43.18197 36.96871
# Shear Modulus (GPa) = 28.19317 37.14993 32.67155
#
# Velocity S-wave (km/s) = 3.48590 4.00149 3.75256
# Velocity P-wave (km/s) = 5.42750 6.32147 5.89147
#
# Compressibility (1/GPa) = 0.03251456
#
# Stress axis : x y z
#
# Youngs Moduli (GPa) = 163.15492 60.16553 34.51459
#
# Poissons Ratio (x) = 0.09007 0.03389
# Poissons Ratio (y) = 0.24426 0.24593
# Poissons Ratio (z) = 0.16020 0.42870
#
# Static dielectric constant tensor:
#      x y z
#    x 1.859380 0.000000 0.030170 
#    y 0.000000 1.954390 0.000000 
#    z 0.030170 0.000000 2.125880 
# 
# From -- ./inp_files/75890.got.cif
#   From: 2010.05.17/outbox.cif.g08.bks.cpg/sg12_38_cif.got.tgz:75890.got - 2010.06.03 13:09:07.
