data_PCOD9211963
_publ_section_title
;
Structure prediction by ZEFSAII (Michael W. Deem and Ramdas Pophale) SiO2 
 PCOD9211963
Probable space group: C 2/M
;
_chemical_formula_sum "Si O2"
_cell_formula_units_Z 56
_cell_length_a 18.247673
_cell_length_b 17.872199
_cell_length_c 9.148010
_cell_angle_alpha 90.000000
_cell_angle_beta 111.586358
_cell_angle_gamma 90.000000
_cell_volume 2774.160585
_symmetry_space_group_name_H-M "C 2/M"
_symmetry_group_IT_number 12
_symmetry_cell_setting 'monoclinic'
loop_
_space_group_symop_operation_xyz
x,y,z
-x,y,-z
-x,-y,-z
x,-y,z
1/2+x,1/2+y,z
1/2-x,1/2+y,-z
1/2-x,1/2-y,-z
1/2+x,1/2-y,z
loop_
_atom_site_type_symbol
_atom_site_label
_atom_site_fract_x
_atom_site_fract_y
_atom_site_fract_z
Si Si1 0.151488 0.087633 0.816728
Si Si2 0.964815 0.336166 0.133109
Si Si3 0.999002 0.815480 0.674320
Si Si4 0.283868 0.823135 0.435499
Si Si5 0.348959 0.413198 0.528466
Si Si6 0.438139 0.084577 0.585500
Si Si7 0.783301 0.672433 0.084028
O O1 0.169169 0.101602 0.656850
O O2 0.072754 0.135539 0.783577
O O3 0.135181 0.000000 0.820967
O O4 0.221989 0.111989 0.974829
O O5 0.870844 0.342166 0.085465
O O6 0.991625 0.264241 0.245925
O O7 0.008913 0.407372 0.232311
O O8 0.000000 0.324114 0.000000
O O9 0.918599 0.860686 0.639018
O O10 0.000000 0.807037 0.500000
O O11 0.250000 0.750000 0.500000
O O12 0.227124 0.891028 0.437503
O O13 0.370788 0.852314 0.540053
O O14 0.284645 0.817200 0.260363
O O15 0.371426 0.500000 0.556912
O O16 0.500000 0.097866 0.500000
O O17 0.406062 0.000000 0.546047
O O18 0.750000 0.750000 0.000000
#
# Coordination Sequence:
#
# PCOD9211963 Si02
#       7
#     8   8   8   8   8   8   8
#     4  10  22  41  66  96 136 176 211 268 333 391
#     4  12  27  43  69  97 131 173 222 273 331 396
#     4  10  21  40  68  97 131 174 222 266 320 390
#     4  12  26  43  71  99 132 175 226 277 332 390
#     4  10  22  40  66  99 131 170 219 268 323 394
#     4  11  25  48  71  96 132 179 230 283 333 392
#     4  12  26  44  63  98 135 173 220 271 334 399
#
# _framework density 20.186287
#
# number of rings (size 3 to 8) (size 9 to 14) (size 15 to 20)
#    0.000    1.000    2.857    3.000    8.000    3.714 
#    0.000    0.000    0.000    2.571    0.000    0.000 
#    0.000    0.000    0.000    0.000    0.000    0.000 
#
# Total GULP energy -156397.000436 kJ/mol
# GULP energy per Si atom -5585.607158 kJ/mol
# Density = 2.014034 g / cm^3
# Si number density = 20.186287 Si / 1000 Ang^3
#
#
#
# Elastic Constant Matrix: (Units=GPa)
#
#
# Indices 1 2 3 4 5 6 
#
# 1 129.4414 35.8892 57.7300 0.0000 15.3209 0.0000
# 2 35.8892 83.5567 27.6270 0.0000 11.2947 0.0000
# 3 57.7300 27.6270 69.5025 0.0000 28.7574 0.0000
# 4 0.0000 0.0000 0.0000 29.4891 0.0000 24.7141
# 5 15.3209 11.2947 28.7574 0.0000 22.0836 0.0000
# 6 0.0000 0.0000 0.0000 24.7141 0.0000 69.1322
#
#
#
# Elastic Compliance Matrix: (Units=1/GPa)
#
#
# Indices 1 2 3 4 5 6 
#
# 1 0.013885 -0.002454 -0.015376 0.000000 0.011645 0.000000
# 2 -0.002454 0.014213 -0.002836 0.000000 -0.001874 0.000000
# 3 -0.015376 -0.002836 0.050462 0.000000 -0.053594 0.000000
# 4 0.000000 0.000000 0.000000 0.048417 0.000000 -0.017308
# 5 0.011645 -0.001874 -0.053594 0.000000 0.107952 0.000000
# 6 0.000000 0.000000 0.000000 -0.017308 0.000000 0.020653
#
#
# Mechanical properties :
#
#
# Convention : Reuss Voigt Hill
#
# Bulk Modulus (GPa) = 26.86144 58.33255 42.59700
# Shear Modulus (GPa) = 16.16437 34.89129 25.52783
#
# Velocity S-wave (km/s) = 2.83284 4.16199 3.56000
# Velocity P-wave (km/s) = 4.90262 7.21499 6.16813
#
# Compressibility (1/GPa) = 0.03722808
#
# Stress axis : x y z
#
# Youngs Moduli (GPa) = 72.01926 70.35837 19.81707
#
# Poissons Ratio (x) = 0.17267 0.30470
# Poissons Ratio (y) = 0.17675 0.05620
# Poissons Ratio (z) = 1.10735 0.19953
#
# Static dielectric constant tensor:
#      x y z
#    x 1.778920 0.000000 -0.038760 
#    y 0.000000 1.723140 0.000000 
#    z -0.038760 0.000000 1.776830 
# 
# From -- ./inp_files/75960.got.cif
#   From: 2010.05.17/outbox.cif.g08.bks.cpg/sg12_38_cif.got.tgz:75960.got - 2010.06.03 13:09:07.
