data_PCOD9211381
_publ_section_title
;
Structure prediction by ZEFSAII (Michael W. Deem and Ramdas Pophale) SiO2 
 PCOD9211381
Probable space group: C 2/M
;
_chemical_formula_sum "Si O2"
_cell_formula_units_Z 44
_cell_length_a 15.668451
_cell_length_b 18.073673
_cell_length_c 8.138312
_cell_angle_alpha 90.000000
_cell_angle_beta 76.079118
_cell_angle_gamma 90.000000
_cell_volume 2236.969288
_symmetry_space_group_name_H-M "C 2/M"
_symmetry_group_IT_number 12
_symmetry_cell_setting 'monoclinic'
loop_
_space_group_symop_operation_xyz
x,y,z
-x,y,-z
-x,-y,-z
x,-y,z
1/2+x,1/2+y,z
1/2-x,1/2+y,-z
1/2-x,1/2-y,-z
1/2+x,1/2-y,z
loop_
_atom_site_type_symbol
_atom_site_label
_atom_site_fract_x
_atom_site_fract_y
_atom_site_fract_z
Si Si1 0.770910 0.323932 0.392680
Si Si2 0.899678 0.080520 0.108667
Si Si3 0.561327 0.911453 0.627589
Si Si4 0.840941 0.758463 0.048489
Si Si5 0.598187 0.585502 0.497335
Si Si6 0.500000 0.838252 0.000000
O O1 0.750000 0.250000 0.500000
O O2 0.840732 0.378499 0.445275
O O3 0.823158 0.289157 0.218347
O O4 0.680013 0.366440 0.395531
O O5 0.856019 0.154641 0.063807
O O6 0.896210 0.084880 0.307603
O O7 0.861885 0.000000 0.076319
O O8 0.000000 0.081454 0.000000
O O9 0.500000 0.888169 0.500000
O O10 0.564872 0.000000 0.624984
O O11 0.529726 0.886537 0.826461
O O12 0.750000 0.750000 0.000000
O O13 0.928844 0.717626 0.948688
O O14 0.500000 0.613160 0.500000
O O15 0.604379 0.500000 0.435499
#
# Coordination Sequence:
#
# PCOD9211381 Si02
#       6
#     8   8   8   8   8   4
#     4  11  23  39  60  93 123 158 207 260 305 370
#     4  10  21  40  62  87 122 160 205 251 302 368
#     4  10  23  43  68  93 125 170 213 259 318 376
#     4  11  24  40  62  93 124 164 206 253 317 370
#     4  10  22  39  62  90 122 161 200 251 309 364
#     4  10  23  42  65  94 132 160 212 268 307 380
#
# _framework density 19.669471000000001
#
# number of rings (size 3 to 8) (size 9 to 14) (size 15 to 20)
#    0.000    1.636    2.727    0.818    5.091    0.727 
#    0.000    4.545    0.000    0.000    0.000    0.000 
#    0.000    0.000    0.000    0.000    0.000    0.000 
#
# Total GULP energy -122535.584580 kJ/mol
# GULP energy per Si atom -5569.799299 kJ/mol
# Density = 1.962470 g / cm^3
# Si number density = 19.669471 Si / 1000 Ang^3
#
#
#
# Elastic Constant Matrix: (Units=GPa)
#
#
# Indices 1 2 3 4 5 6 
#
# 1 122.9095 81.2442 -4.1015 0.0000 3.7564 0.0000
# 2 81.2442 152.7631 21.9927 0.0000 0.2958 0.0000
# 3 -4.1015 21.9927 32.3197 0.0000 -1.9846 0.0000
# 4 0.0000 0.0000 0.0000 16.6022 0.0000 -9.8206
# 5 3.7564 0.2958 -1.9846 0.0000 24.5386 0.0000
# 6 0.0000 0.0000 0.0000 -9.8206 0.0000 37.5037
#
#
#
# Elastic Compliance Matrix: (Units=1/GPa)
#
#
# Indices 1 2 3 4 5 6 
#
# 1 0.014108 -0.008586 0.007544 0.000000 -0.001446 0.000000
# 2 -0.008586 0.012489 -0.009564 0.000000 0.000390 0.000000
# 3 0.007544 -0.009564 0.038534 0.000000 0.002077 0.000000
# 4 0.000000 0.000000 0.000000 0.071273 0.000000 0.018663
# 5 -0.001446 0.000390 0.002077 0.000000 0.041137 0.000000
# 6 0.000000 0.000000 0.000000 0.018663 0.000000 0.031551
#
#
# Mechanical properties :
#
#
# Convention : Reuss Voigt Hill
#
# Bulk Modulus (GPa) = 22.76961 56.25146 39.51054
# Shear Modulus (GPa) = 20.41309 29.65271 25.03290
#
# Velocity S-wave (km/s) = 3.22499 3.88693 3.57133
# Velocity P-wave (km/s) = 5.04665 6.98604 6.09399
#
# Compressibility (1/GPa) = 0.04391818
#
# Stress axis : x y z
#
# Youngs Moduli (GPa) = 70.88426 80.07334 25.95136
#
# Poissons Ratio (x) = 0.68752 -0.19578
# Poissons Ratio (y) = 0.60862 0.24819
# Poissons Ratio (z) = -0.53476 0.76580
#
# Static dielectric constant tensor:
#      x y z
#    x 1.836660 0.000000 -0.063270 
#    y 0.000000 1.723840 0.000000 
#    z -0.063270 0.000000 1.742710 
# 
# From -- ./inp_files/61057.got.cif
#   From: 2010.05.17/outbox.cif.g08.bks.cpg/sg12_31_cif.got.tgz:61057.got - 2010.06.03 13:09:07.
