data_PCOD9211649
_publ_section_title
;
Structure prediction by ZEFSAII (Michael W. Deem and Ramdas Pophale) SiO2 
 PCOD9211649
Probable space group: C 2/M
;
_chemical_formula_sum "Si O2"
_cell_formula_units_Z 48
_cell_length_a 8.325999
_cell_length_b 21.707826
_cell_length_c 11.743483
_cell_angle_alpha 90.000000
_cell_angle_beta 105.025851
_cell_angle_gamma 90.000000
_cell_volume 2049.938521
_symmetry_space_group_name_H-M "C 2/M"
_symmetry_group_IT_number 12
_symmetry_cell_setting 'monoclinic'
loop_
_space_group_symop_operation_xyz
x,y,z
-x,y,-z
-x,-y,-z
x,-y,z
1/2+x,1/2+y,z
1/2-x,1/2+y,-z
1/2-x,1/2-y,-z
1/2+x,1/2-y,z
loop_
_atom_site_type_symbol
_atom_site_label
_atom_site_fract_x
_atom_site_fract_y
_atom_site_fract_z
Si Si1 0.540880 0.339920 0.318269
Si Si2 0.564459 0.266443 0.882176
Si Si3 0.176888 0.355459 0.987708
Si Si4 0.484453 0.068508 0.632965
Si Si5 0.249341 0.319201 0.441431
Si Si6 0.836326 0.068875 0.830453
O O1 0.567272 0.282000 0.238850
O O2 0.385604 0.321278 0.367199
O O3 0.680670 0.355455 0.435286
O O4 0.537067 0.394515 0.226621
O O5 0.625411 0.197132 0.887225
O O6 0.500000 0.274632 0.000000
O O7 0.719084 0.314237 0.902904
O O8 0.296634 0.401761 0.945450
O O9 0.000000 0.380564 0.000000
O O10 0.500000 0.064324 0.500000
O O11 0.395610 0.135586 0.631170
O O12 0.658538 0.070478 0.732174
O O13 0.407636 0.000000 0.652993
O O14 0.250000 0.250000 0.500000
O O15 0.893314 0.000000 0.853604
#
# Coordination Sequence:
#
# PCOD9211649 Si02
#       6
#     8   8   8   8   8   8
#     4  11  25  41  62  96 134 170 216 275 330 399
#     4  10  21  40  64  94 126 168 214 263 348 395
#     4  10  23  39  64  95 126 169 214 274 329 403
#     4  10  22  42  65  88 127 178 222 262 323 400
#     4  11  27  40  64 103 134 176 219 281 340 385
#     4  11  24  43  67  93 130 181 223 271 331 395
#
# _framework density 23.415337000000001
#
# number of rings (size 3 to 8) (size 9 to 14) (size 15 to 20)
#    0.000    1.500    3.333    0.000    9.333    1.000 
#    0.000    3.333    0.000    0.000    0.000    0.000 
#    0.000    0.000    0.000    0.000    0.000    0.000 
#
# Total GULP energy -133740.021523 kJ/mol
# GULP energy per Si atom -5572.500897 kJ/mol
# Density = 2.336204 g / cm^3
# Si number density = 23.415337 Si / 1000 Ang^3
#
#
#
# Elastic Constant Matrix: (Units=GPa)
#
#
# Indices 1 2 3 4 5 6 
#
# 1 70.8322 40.6568 20.5374 0.0000 -15.6974 0.0000
# 2 40.6568 159.3955 20.4049 0.0000 -25.1485 0.0000
# 3 20.5374 20.4049 93.9650 0.0000 -6.2239 0.0000
# 4 0.0000 0.0000 0.0000 20.7230 0.0000 1.3922
# 5 -15.6974 -25.1485 -6.2239 0.0000 41.9951 0.0000
# 6 0.0000 0.0000 0.0000 1.3922 0.0000 30.4333
#
#
#
# Elastic Compliance Matrix: (Units=1/GPa)
#
#
# Indices 1 2 3 4 5 6 
#
# 1 0.017903 -0.003546 -0.002869 0.000000 0.004144 0.000000
# 2 -0.003546 0.007777 -0.000700 0.000000 0.003228 0.000000
# 3 -0.002869 -0.000700 0.011435 0.000000 0.000203 0.000000
# 4 0.000000 0.000000 0.000000 0.048404 0.000000 -0.002214
# 5 0.004144 0.003228 0.000203 0.000000 0.027324 0.000000
# 6 0.000000 0.000000 0.000000 -0.002214 0.000000 0.032960
#
#
# Mechanical properties :
#
#
# Convention : Reuss Voigt Hill
#
# Bulk Modulus (GPa) = 43.69413 54.15455 48.92434
# Shear Modulus (GPa) = 29.82217 34.80319 32.31268
#
# Velocity S-wave (km/s) = 3.57265 3.85949 3.71884
# Velocity P-wave (km/s) = 5.97657 6.56041 6.27528
#
# Compressibility (1/GPa) = 0.02288637
#
# Stress axis : x y z
#
# Youngs Moduli (GPa) = 55.85672 128.58448 87.45309
#
# Poissons Ratio (x) = 0.45590 0.25086
# Poissons Ratio (y) = 0.19804 0.06122
# Poissons Ratio (z) = 0.16023 0.09002
#
# Static dielectric constant tensor:
#      x y z
#    x 2.009000 0.000000 0.050220 
#    y 0.000000 1.945270 0.000000 
#    z 0.050220 0.000000 1.886910 
# 
# From -- ./inp_files/121966.got.cif
#   From: 2010.05.17/outbox.cif.g08.bks.cpg/sg12_61_cif.got.tgz:121966.got - 2010.06.03 13:09:07.
