data_PCOD9211229
_publ_section_title
;
Structure prediction by ZEFSAII (Michael W. Deem and Ramdas Pophale) SiO2 
 PCOD9211229
Probable space group: C 2/M
;
_chemical_formula_sum "Si O2"
_cell_formula_units_Z 28
_cell_length_a 16.207712
_cell_length_b 15.796318
_cell_length_c 6.863664
_cell_angle_alpha 90.000000
_cell_angle_beta 38.237775
_cell_angle_gamma 90.000000
_cell_volume 1087.608478
_symmetry_space_group_name_H-M "C 2/M"
_symmetry_group_IT_number 12
_symmetry_cell_setting 'monoclinic'
loop_
_space_group_symop_operation_xyz
x,y,z
-x,y,-z
-x,-y,-z
x,-y,z
1/2+x,1/2+y,z
1/2-x,1/2+y,-z
1/2-x,1/2-y,-z
1/2+x,1/2-y,z
loop_
_atom_site_type_symbol
_atom_site_label
_atom_site_fract_x
_atom_site_fract_y
_atom_site_fract_z
Si Si1 0.811972 0.643923 0.157149
Si Si2 0.135605 0.818672 0.861964
Si Si3 0.331683 0.500000 0.199933
Si Si4 0.982186 0.500000 0.300716
Si Si5 0.377797 0.500000 0.581230
O O1 0.836501 0.740475 0.047862
O O2 0.750591 0.662483 0.486691
O O3 0.708573 0.586143 0.230611
O O4 0.941444 0.584134 0.914684
O O5 0.117444 0.911803 0.981986
O O6 0.000000 0.795983 0.000000
O O7 0.171950 0.500000 0.471168
O O8 0.622642 0.500000 0.657786
O O9 0.000000 0.500000 0.500000
O O10 0.500000 0.500000 0.500000
#
# Coordination Sequence:
#
# PCOD9211229 Si02
#       5
#     8   8   4   4   4
#     4   9  22  40  71 104 141 191 242 315 370 437
#     4  10  21  39  71 112 142 180 252 316 383 446
#     4  10  23  42  73 103 141 200 248 314 370 441
#     4  11  25  48  69 104 154 201 260 299 365 460
#     4   9  19  39  67 105 142 183 243 310 378 438
#
# _framework density 25.74456
#
# number of rings (size 3 to 8) (size 9 to 14) (size 15 to 20)
#    0.000    2.286    0.000    1.286   12.000    4.571 
#   20.571    2.857    0.000    0.000    0.000    0.000 
#    0.000    0.000    0.000    0.000    0.000    0.000 
#
# Total GULP energy -78216.762400 kJ/mol
# GULP energy per Si atom -5586.911600 kJ/mol
# Density = 2.568596 g / cm^3
# Si number density = 25.744560 Si / 1000 Ang^3
#
#
#
# Elastic Constant Matrix: (Units=GPa)
#
#
# Indices 1 2 3 4 5 6 
#
# 1 195.1998 104.1058 63.1969 0.0000 -33.8459 0.0000
# 2 104.1058 315.0528 32.2966 0.0000 -30.0178 0.0000
# 3 63.1969 32.2966 88.0470 0.0000 -16.8975 0.0000
# 4 0.0000 0.0000 0.0000 6.7526 0.0000 -12.8345
# 5 -33.8459 -30.0178 -16.8975 0.0000 53.0810 0.0000
# 6 0.0000 0.0000 0.0000 -12.8345 0.0000 0.7867
#
#
#
# Elastic Compliance Matrix: (Units=1/GPa)
#
#
# Indices 1 2 3 4 5 6 
#
# 1 0.008109 -0.001960 -0.004603 0.000000 0.002597 0.000000
# 2 -0.001960 0.003901 0.000170 0.000000 0.001010 0.000000
# 3 -0.004603 0.000170 0.014969 0.000000 0.001926 0.000000
# 4 0.000000 0.000000 0.000000 -0.004935 0.000000 -0.080512
# 5 0.002597 0.001010 0.001926 0.000000 0.021679 0.000000
# 6 0.000000 0.000000 0.000000 -0.080512 0.000000 -0.042359
#
#
# Mechanical properties :
#
#
# Convention : Reuss Voigt Hill
#
# Bulk Modulus (GPa) = 70.46222 110.83314 90.64768
# Shear Modulus (GPa) = 264.83646 38.70406 151.77026
#
# Velocity S-wave (km/s) = 10.15353 3.88156 7.68637
# Velocity P-wave (km/s) = 12.84087 7.95193 10.67992
#
# Compressibility (1/GPa) = 0.01419200
#
# Stress axis : x y z
#
# Youngs Moduli (GPa) = 123.32226 256.36991 66.80628
#
# Poissons Ratio (x) = 0.50254 0.30750
# Poissons Ratio (y) = 0.24174 -0.01136
# Poissons Ratio (z) = 0.56764 -0.04359
#
# Static dielectric constant tensor:
#      x y z
#    x 1.939320 0.000000 0.007230 
#    y 0.000000 2.163860 0.000000 
#    z 0.007230 0.000000 2.221890 
# 
# From -- ./inp_files/86229.got.cif
#   From: 2010.05.17/outbox.cif.g08.bks.cpg/sg12_44_cif.got.tgz:86229.got - 2010.06.03 13:09:07.
