data_PCOD9211090
_publ_section_title
;
Structure prediction by ZEFSAII (Michael W. Deem and Ramdas Pophale) SiO2 
 PCOD9211090
Probable space group: C 2/M
;
_chemical_formula_sum "Si O2"
_cell_formula_units_Z 48
_cell_length_a 11.685472
_cell_length_b 14.157310
_cell_length_c 17.877477
_cell_angle_alpha 90.000000
_cell_angle_beta 132.638367
_cell_angle_gamma 90.000000
_cell_volume 2175.708601
_symmetry_space_group_name_H-M "C 2/M"
_symmetry_group_IT_number 12
_symmetry_cell_setting 'monoclinic'
loop_
_space_group_symop_operation_xyz
x,y,z
-x,y,-z
-x,-y,-z
x,-y,z
1/2+x,1/2+y,z
1/2-x,1/2+y,-z
1/2-x,1/2-y,-z
1/2+x,1/2-y,z
loop_
_atom_site_type_symbol
_atom_site_label
_atom_site_fract_x
_atom_site_fract_y
_atom_site_fract_z
Si Si1 0.980659 0.615191 0.906273
Si Si2 0.861652 0.886781 0.261572
Si Si3 0.932807 0.750270 0.556159
Si Si4 0.825599 0.387036 0.271072
Si Si5 0.723985 0.384990 0.060750
Si Si6 0.001580 0.114625 0.834950
O O1 0.980749 0.500000 0.908263
O O2 0.814748 0.643574 0.799527
O O3 0.126812 0.642320 0.921952
O O4 0.000000 0.646932 0.000000
O O5 0.986598 0.841577 0.371131
O O6 0.897456 0.858190 0.191749
O O7 0.869383 0.000000 0.268392
O O8 0.250000 0.750000 0.500000
O O9 0.018335 0.663151 0.635287
O O10 0.000000 0.746449 0.500000
O O11 0.845927 0.500000 0.280232
O O12 0.763751 0.356722 0.162172
O O13 0.678072 0.361087 0.257436
O O14 0.712307 0.500000 0.058890
O O15 0.575525 0.353253 0.946461
O O16 0.006033 0.000000 0.840605
#
# Coordination Sequence:
#
# PCOD9211090 Si02
#       6
#     8   8   8   8   8   8
#     4   9  15  28  54  91 129 163 194 233 291 366
#     4  10  21  39  66  93 123 162 202 247 310 374
#     4  12  29  49  66  88 120 158 214 281 321 352
#     4  10  22  40  65  91 122 164 205 247 306 371
#     4   9  16  29  57  95 129 159 195 237 291 365
#     4   9  16  33  62  96 130 164 196 235 295 375
#
# _framework density 22.061779000000001
#
# number of rings (size 3 to 8) (size 9 to 14) (size 15 to 20)
#    0.000    2.167    1.667    1.500    2.333    3.333 
#    0.000    2.500    0.000    0.000    0.000    0.000 
#    0.000    0.000    0.000    0.000    0.000    0.000 
#
# Total GULP energy -134051.118470 kJ/mol
# GULP energy per Si atom -5585.463270 kJ/mol
# Density = 2.201157 g / cm^3
# Si number density = 22.061779 Si / 1000 Ang^3
#
#
#
# Elastic Constant Matrix: (Units=GPa)
#
#
# Indices 1 2 3 4 5 6 
#
# 1 140.5574 18.7117 67.8534 0.0000 32.4603 0.0000
# 2 18.7117 85.2699 26.8609 0.0000 6.8883 0.0000
# 3 67.8534 26.8609 118.3254 0.0000 20.0169 0.0000
# 4 0.0000 0.0000 0.0000 58.3700 0.0000 22.5172
# 5 32.4603 6.8883 20.0169 0.0000 46.2158 0.0000
# 6 0.0000 0.0000 0.0000 22.5172 0.0000 32.4616
#
#
#
# Elastic Compliance Matrix: (Units=1/GPa)
#
#
# Indices 1 2 3 4 5 6 
#
# 1 0.010952 -0.000299 -0.005307 0.000000 -0.005349 0.000000
# 2 -0.000299 0.012659 -0.002610 0.000000 -0.000546 0.000000
# 3 -0.005307 -0.002610 0.012291 0.000000 -0.001207 0.000000
# 4 0.000000 0.000000 0.000000 0.023391 0.000000 -0.016226
# 5 -0.005349 -0.000546 -0.001207 0.000000 0.025999 0.000000
# 6 0.000000 0.000000 0.000000 -0.016226 0.000000 0.042061
#
#
# Mechanical properties :
#
#
# Convention : Reuss Voigt Hill
#
# Bulk Modulus (GPa) = 51.36222 63.44494 57.40358
# Shear Modulus (GPa) = 33.27210 42.79127 38.03169
#
# Velocity S-wave (km/s) = 3.88768 4.40888 4.15646
# Velocity P-wave (km/s) = 6.59422 7.39851 7.00791
#
# Compressibility (1/GPa) = 0.01946956
#
# Stress axis : x y z
#
# Youngs Moduli (GPa) = 91.30944 78.99285 81.35743
#
# Poissons Ratio (x) = 0.02364 0.43180
# Poissons Ratio (y) = 0.02733 0.21232
# Poissons Ratio (z) = 0.48462 0.20615
#
# Static dielectric constant tensor:
#      x y z
#    x 1.818910 0.000000 -0.018130 
#    y 0.000000 1.880470 0.000000 
#    z -0.018130 0.000000 1.767830 
# 
# From -- ./inp_files/204853.got.cif
#   From: 2010.05.17/outbox.cif.g08.bks.cpg/sg12_103_cif.got.tgz:204853.got - 2010.06.03 13:09:07.
