data_PCOD9211266
_publ_section_title
;
Structure prediction by ZEFSAII (Michael W. Deem and Ramdas Pophale) SiO2 
 PCOD9211266
Probable space group: C 2/M
;
_chemical_formula_sum "Si O2"
_cell_formula_units_Z 44
_cell_length_a 17.494367
_cell_length_b 17.462092
_cell_length_c 21.540312
_cell_angle_alpha 90.000000
_cell_angle_beta 18.187172
_cell_angle_gamma 90.000000
_cell_volume 2053.861635
_symmetry_space_group_name_H-M "C 2/M"
_symmetry_group_IT_number 12
_symmetry_cell_setting 'monoclinic'
loop_
_space_group_symop_operation_xyz
x,y,z
-x,y,-z
-x,-y,-z
x,-y,z
1/2+x,1/2+y,z
1/2-x,1/2+y,-z
1/2-x,1/2-y,-z
1/2+x,1/2-y,z
loop_
_atom_site_type_symbol
_atom_site_label
_atom_site_fract_x
_atom_site_fract_y
_atom_site_fract_z
Si Si1 0.535858 0.826808 0.097028
Si Si2 0.418967 0.300144 0.701531
Si Si3 0.883201 0.500000 0.723799
Si Si4 0.897452 0.000000 0.180009
Si Si5 0.518407 0.656180 0.158367
Si Si6 0.500000 0.672378 0.500000
Si Si7 0.841163 0.349343 0.450094
O O1 0.501731 0.734708 0.132460
O O2 0.267483 0.865222 0.305605
O O3 0.685574 0.836445 0.916714
O O4 0.713054 0.852138 0.017144
O O5 0.427697 0.286734 0.621103
O O6 0.660433 0.349716 0.531310
O O7 0.466133 0.219382 0.699484
O O8 0.833965 0.500000 0.687998
O O9 0.027843 0.426607 0.634766
O O10 0.629195 0.500000 0.955673
O O11 0.928162 0.921346 0.194801
O O12 0.339093 0.669593 0.354255
#
# Coordination Sequence:
#
# PCOD9211266 Si02
#       7
#     8   8   4   4   8   4   8
#     4  10  22  38  62  90 124 159 206 251 300 359
#     4  10  22  38  62  90 124 159 206 251 300 359
#     4  11  25  37  57  91 128 163 202 248 301 367
#     4  11  25  37  57  91 128 163 202 248 301 367
#     4  10  21  40  59  86 124 169 201 244 306 368
#     4  12  22  36  64  96 112 164 198 272 290 352
#     4  10  21  40  59  86 124 169 201 244 306 368
#
# _framework density 21.423058000000001
#
# number of rings (size 3 to 8) (size 9 to 14) (size 15 to 20)
#    0.000    1.636    1.818    2.182    7.636    1.455 
#    0.000    0.000    0.000    2.182    0.000    5.091 
#    0.000    0.000    0.000    0.000    0.000    0.000 
#
# Total GULP energy -122676.979453 kJ/mol
# GULP energy per Si atom -5576.226339 kJ/mol
# Density = 2.137430 g / cm^3
# Si number density = 21.423058 Si / 1000 Ang^3
#
#
#
# Elastic Constant Matrix: (Units=GPa)
#
#
# Indices 1 2 3 4 5 6 
#
# 1 127.0785 43.5674 26.1740 0.0202 -3.3370 -0.0391
# 2 43.5674 81.3137 -6.4135 -0.1597 -13.7769 0.0158
# 3 26.1740 -6.4135 93.4774 -0.0365 -3.1578 0.0011
# 4 0.0202 -0.1597 -0.0365 21.7245 0.0005 6.5880
# 5 -3.3370 -13.7769 -3.1578 0.0005 46.4934 0.0308
# 6 -0.0391 0.0158 0.0011 6.5880 0.0308 12.1643
#
#
#
# Elastic Compliance Matrix: (Units=1/GPa)
#
#
# Indices 1 2 3 4 5 6 
#
# 1 0.010679 -0.006217 -0.003461 -0.000090 -0.001311 0.000095
# 2 -0.006217 0.016666 0.003043 0.000179 0.004699 -0.000151
# 3 -0.003461 0.003043 0.011925 0.000062 0.001463 -0.000053
# 4 -0.000090 0.000179 0.000062 0.055079 0.000070 -0.029830
# 5 -0.001311 0.004699 0.001463 0.000070 0.022906 -0.000106
# 6 0.000095 -0.000151 -0.000053 -0.029830 -0.000106 0.098364
#
#
# Mechanical properties :
#
#
# Convention : Reuss Voigt Hill
#
# Bulk Modulus (GPa) = 38.46201 47.61392 43.03796
# Shear Modulus (GPa) = 21.04770 31.97921 26.51346
#
# Velocity S-wave (km/s) = 3.13785 3.86780 3.52179
# Velocity P-wave (km/s) = 5.57859 6.49772 6.05562
#
# Compressibility (1/GPa) = 0.02599968
#
# Stress axis : x y z
#
# Youngs Moduli (GPa) = 93.64092 60.00365 83.85658
#
# Poissons Ratio (x) = 0.37305 0.29023
# Poissons Ratio (y) = 0.58217 -0.25518
# Poissons Ratio (z) = 0.32410 -0.18259
#
# Static dielectric constant tensor:
#      x y z
#    x 1.872570 -0.000060 -0.031980 
#    y -0.000060 1.880460 0.000130 
#    z -0.031980 0.000130 1.831130 
# 
# From -- ./inp_files/317315.got.cif
#   From: 2010.05.17/outbox.cif.g08.bks.cpg/sg12_159_cif.got.tgz:317315.got - 2010.06.03 13:09:07.
