data_PCOD9211362
_publ_section_title
;
Structure prediction by ZEFSAII (Michael W. Deem and Ramdas Pophale) SiO2 
 PCOD9211362
Probable space group: C 2/M
;
_chemical_formula_sum "Si O2"
_cell_formula_units_Z 48
_cell_length_a 18.769416
_cell_length_b 9.555918
_cell_length_c 28.623785
_cell_angle_alpha 90.000000
_cell_angle_beta 154.258172
_cell_angle_gamma 90.000000
_cell_volume 2229.753490
_symmetry_space_group_name_H-M "C 2/M"
_symmetry_group_IT_number 12
_symmetry_cell_setting 'monoclinic'
loop_
_space_group_symop_operation_xyz
x,y,z
-x,y,-z
-x,-y,-z
x,-y,z
1/2+x,1/2+y,z
1/2-x,1/2+y,-z
1/2-x,1/2-y,-z
1/2+x,1/2-y,z
loop_
_atom_site_type_symbol
_atom_site_label
_atom_site_fract_x
_atom_site_fract_y
_atom_site_fract_z
Si Si1 0.917193 0.838790 0.900195
Si Si2 0.011282 0.160221 0.763255
Si Si3 0.969889 0.839472 0.560163
Si Si4 0.024215 0.662947 0.678914
Si Si5 0.836157 0.338263 0.010134
Si Si6 0.268986 0.839695 0.670326
O O1 0.721530 0.824432 0.788842
O O2 0.953429 0.000000 0.907669
O O3 0.000000 0.817401 0.000000
O O4 0.000637 0.733769 0.913092
O O5 0.981026 0.252554 0.699827
O O6 0.202584 0.163439 0.889390
O O7 0.912205 0.229866 0.747330
O O8 0.960692 0.000000 0.726585
O O9 0.942153 0.732392 0.585321
O O10 0.148426 0.814726 0.642404
O O11 0.844561 0.828175 0.443113
O O12 0.965012 0.000000 0.574473
O O13 0.982288 0.500000 0.659187
O O14 0.861368 0.500000 0.038628
O O15 0.750000 0.250000 0.000000
O O16 0.328865 0.000000 0.707755
#
# Coordination Sequence:
#
# PCOD9211362 Si02
#       6
#     8   8   8   8   8   8
#     4  10  21  40  62  85 118 156 195 240 287 344
#     4  11  24  40  59  87 120 153 196 245 289 343
#     4   9  20  40  63  89 118 151 194 241 291 351
#     4  11  23  38  61  89 118 156 197 239 293 349
#     4  11  25  41  60  87 120 157 197 241 290 345
#     4   9  20  40  64  87 117 155 193 238 294 350
#
# _framework density 21.527044
#
# number of rings (size 3 to 8) (size 9 to 14) (size 15 to 20)
#    0.000    1.833    1.667    2.500    2.333    5.667 
#    0.000    1.667    0.000    0.000    0.000    0.000 
#    0.000    0.000    0.000    0.000    0.000    0.000 
#
# Total GULP energy -134270.955663 kJ/mol
# GULP energy per Si atom -5594.623153 kJ/mol
# Density = 2.147805 g / cm^3
# Si number density = 21.527044 Si / 1000 Ang^3
#
#
#
# Elastic Constant Matrix: (Units=GPa)
#
#
# Indices 1 2 3 4 5 6 
#
# 1 78.1274 72.5971 5.6354 -0.0002 0.4858 -0.0001
# 2 72.5971 140.3965 14.6029 -0.0011 8.3343 0.0003
# 3 5.6354 14.6029 50.5271 -0.0026 -0.2267 0.0008
# 4 -0.0002 -0.0011 -0.0026 25.8882 0.0004 2.9911
# 5 0.4858 8.3343 -0.2267 0.0004 40.1727 0.0000
# 6 -0.0001 0.0003 0.0008 2.9911 0.0000 29.1942
#
#
#
# Elastic Compliance Matrix: (Units=1/GPa)
#
#
# Indices 1 2 3 4 5 6 
#
# 1 0.024915 -0.013134 0.001028 0.000000 0.002429 0.000000
# 2 -0.013134 0.014363 -0.002699 0.000000 -0.002836 0.000000
# 3 0.001028 -0.002699 0.020460 0.000002 0.000663 -0.000001
# 4 0.000000 0.000000 0.000002 0.039090 0.000000 -0.004005
# 5 0.002429 -0.002836 0.000663 0.000000 0.025455 0.000000
# 6 0.000000 0.000000 -0.000001 -0.004005 0.000000 0.034664
#
#
# Mechanical properties :
#
#
# Convention : Reuss Voigt Hill
#
# Bulk Modulus (GPa) = 33.19228 50.52463 41.85846
# Shear Modulus (GPa) = 25.17617 30.79873 27.98745
#
# Velocity S-wave (km/s) = 3.42353 3.78656 3.60961
# Velocity P-wave (km/s) = 5.57492 6.52983 6.07118
#
# Compressibility (1/GPa) = 0.03012748
#
# Stress axis : x y z
#
# Youngs Moduli (GPa) = 40.13651 69.62154 48.87657
#
# Poissons Ratio (x) = 0.91443 -0.05025
# Poissons Ratio (y) = 0.52717 0.13192
# Poissons Ratio (z) = -0.04126 0.18791
#
# Static dielectric constant tensor:
#      x y z
#    x 1.746980 0.000000 -0.001020 
#    y 0.000000 1.732550 0.000000 
#    z -0.001020 0.000000 1.824020 
# 
# From -- ./inp_files/244699.got.cif
#   From: 2010.05.17/outbox.cif.g08.bks.cpg/sg12_123_cif.got.tgz:244699.got - 2010.06.03 13:09:07.
