data_PCOD9211421
_publ_section_title
;
Structure prediction by ZEFSAII (Michael W. Deem and Ramdas Pophale) SiO2 
 PCOD9211421
Probable space group: C 2/M
;
_chemical_formula_sum "Si O2"
_cell_formula_units_Z 58
_cell_length_a 22.212933
_cell_length_b 20.309891
_cell_length_c 8.804631
_cell_angle_alpha 90.000000
_cell_angle_beta 136.459659
_cell_angle_gamma 90.000000
_cell_volume 2736.269438
_symmetry_space_group_name_H-M "C 2/M"
_symmetry_group_IT_number 12
_symmetry_cell_setting 'monoclinic'
loop_
_space_group_symop_operation_xyz
x,y,z
-x,y,-z
-x,-y,-z
x,-y,z
1/2+x,1/2+y,z
1/2-x,1/2+y,-z
1/2-x,1/2-y,-z
1/2+x,1/2-y,z
loop_
_atom_site_type_symbol
_atom_site_label
_atom_site_fract_x
_atom_site_fract_y
_atom_site_fract_z
Si Si1 0.968185 0.079063 0.612512
Si Si2 0.687970 0.371385 0.485673
Si Si3 0.560639 0.885486 0.306872
Si Si4 0.000000 0.500000 0.000000
Si Si5 0.858273 0.923078 0.921163
Si Si6 0.192102 0.579768 0.813568
Si Si7 0.399703 0.245899 0.807368
Si Si8 0.141659 0.352576 0.029435
O O1 0.878838 0.111855 0.501539
O O2 0.000000 0.092431 0.500000
O O3 0.956029 0.000000 0.604209
O O4 0.046312 0.103757 0.864347
O O5 0.666988 0.413999 0.299044
O O6 0.665256 0.298280 0.384311
O O7 0.785266 0.381398 0.723268
O O8 0.614830 0.906008 0.552864
O O9 0.593228 0.818302 0.288517
O O10 0.562664 0.943151 0.188931
O O11 0.457383 0.879016 0.153697
O O12 0.781332 0.900278 0.891062
O O13 0.865681 0.000000 0.967729
O O14 0.193326 0.500000 0.851913
O O15 0.177947 0.626601 0.932040
O O16 0.369844 0.220752 0.919811
O O17 0.500000 0.270836 0.000000
#
# Coordination Sequence:
#
# PCOD9211421 Si02
#       8
#     8   8   8   2   8   8   8   8
#     4  10  21  40  62  92 129 164 212 276 333 388
#     4  12  23  40  67  91 126 179 219 264 326 394
#     4  11  23  41  65  97 130 168 220 275 329 406
#     4  12  20  40  74  92 132 170 220 272 352 388
#     4  10  22  38  60  91 124 162 220 273 324 392
#     4  11  24  40  63  95 133 172 216 278 343 401
#     4  10  22  43  64  89 127 167 226 270 320 396
#     4  11  24  39  59  93 127 165 211 266 328 390
#
# _framework density 21.196743000000001
#
# number of rings (size 3 to 8) (size 9 to 14) (size 15 to 20)
#    0.000    1.241    2.759    4.138    0.966    3.862 
#    0.000    6.897    0.000    0.000    0.000    0.000 
#    0.000    0.000    0.000    0.000    0.000    0.000 
#
# Total GULP energy -161633.693880 kJ/mol
# GULP energy per Si atom -5573.575651 kJ/mol
# Density = 2.114850 g / cm^3
# Si number density = 21.196743 Si / 1000 Ang^3
#
#
#
# Elastic Constant Matrix: (Units=GPa)
#
#
# Indices 1 2 3 4 5 6 
#
# 1 110.2394 26.4034 14.6494 0.0000 7.9393 0.0000
# 2 26.4034 54.4123 8.9497 0.0000 -0.3447 0.0000
# 3 14.6494 8.9497 98.1138 0.0000 5.8796 0.0000
# 4 0.0000 0.0000 0.0000 18.2810 0.0000 -4.4838
# 5 7.9393 -0.3447 5.8796 0.0000 37.3527 0.0000
# 6 0.0000 0.0000 0.0000 -4.4838 0.0000 27.2203
#
#
#
# Elastic Compliance Matrix: (Units=1/GPa)
#
#
# Indices 1 2 3 4 5 6 
#
# 1 0.010547 -0.004968 -0.000994 0.000000 -0.002131 0.000000
# 2 -0.004968 0.021005 -0.001261 0.000000 0.001448 0.000000
# 3 -0.000994 -0.001261 0.010543 0.000000 -0.001460 0.000000
# 4 0.000000 0.000000 0.000000 0.057005 0.000000 0.009390
# 5 -0.002131 0.001448 -0.001460 0.000000 0.027468 0.000000
# 6 0.000000 0.000000 0.000000 0.009390 0.000000 0.038284
#
#
# Mechanical properties :
#
#
# Convention : Reuss Voigt Hill
#
# Bulk Modulus (GPa) = 36.16673 40.30783 38.23728
# Shear Modulus (GPa) = 26.52331 30.75500 28.63916
#
# Velocity S-wave (km/s) = 3.54120 3.81324 3.67973
# Velocity P-wave (km/s) = 5.81546 6.20041 6.01102
#
# Compressibility (1/GPa) = 0.02764972
#
# Stress axis : x y z
#
# Youngs Moduli (GPa) = 94.81796 47.60690 94.84815
#
# Poissons Ratio (x) = 0.23650 0.09427
# Poissons Ratio (y) = 0.47103 0.11961
# Poissons Ratio (z) = 0.09424 0.06004
#
# Static dielectric constant tensor:
#      x y z
#    x 1.776380 0.000000 0.014580 
#    y 0.000000 1.744250 0.000000 
#    z 0.014580 0.000000 1.760950 
# 
# From -- ./inp_files/99315.got.cif
#   From: 2010.05.17/outbox.cif.g08.bks.cpg/sg12_50_cif.got.tgz:99315.got - 2010.06.03 13:09:07.
