data_PCOD9211980
_publ_section_title
;
Structure prediction by ZEFSAII (Michael W. Deem and Ramdas Pophale) SiO2 
 PCOD9211980
Probable space group: C 2/M
;
_chemical_formula_sum "Si O2"
_cell_formula_units_Z 48
_cell_length_a 13.986843
_cell_length_b 19.531068
_cell_length_c 12.105734
_cell_angle_alpha 90.000000
_cell_angle_beta 40.898317
_cell_angle_gamma 90.000000
_cell_volume 2165.167529
_symmetry_space_group_name_H-M "C 2/M"
_symmetry_group_IT_number 12
_symmetry_cell_setting 'monoclinic'
loop_
_space_group_symop_operation_xyz
x,y,z
-x,y,-z
-x,-y,-z
x,-y,z
1/2+x,1/2+y,z
1/2-x,1/2+y,-z
1/2-x,1/2-y,-z
1/2+x,1/2-y,z
loop_
_atom_site_type_symbol
_atom_site_label
_atom_site_fract_x
_atom_site_fract_y
_atom_site_fract_z
Si Si1 0.412495 0.147766 0.976061
Si Si2 0.804800 0.418342 0.842804
Si Si3 0.170124 0.419816 0.423870
Si Si4 0.080857 0.181605 0.314383
Si Si5 0.496353 0.420766 0.810044
Si Si6 0.399906 0.793443 0.361947
O O1 0.370819 0.105521 0.902057
O O2 0.531678 0.200326 0.820373
O O3 0.500000 0.112291 0.000000
O O4 0.256685 0.175701 0.156163
O O5 0.809674 0.500000 0.836137
O O6 0.868515 0.398264 0.667975
O O7 0.635430 0.397087 0.997066
O O8 0.128338 0.500000 0.480895
O O9 0.346473 0.418550 0.273072
O O10 0.129243 0.366731 0.555772
O O11 0.000000 0.169382 0.500000
O O12 0.015891 0.126314 0.286138
O O13 0.025712 0.254712 0.319945
O O14 0.468603 0.500000 0.803148
O O15 0.250000 0.750000 0.500000
#
# Coordination Sequence:
#
# PCOD9211980 Si02
#       6
#     8   8   8   8   8   8
#     4  11  26  46  65  94 138 184 232 279 341 408
#     4   9  20  40  68 102 136 176 229 284 346 407
#     4  10  21  40  69 103 139 178 223 282 349 415
#     4  11  24  44  69 100 137 180 233 283 339 410
#     4   9  18  38  67 102 140 178 222 278 343 415
#     4  12  25  45  68 103 140 179 229 284 346 414
#
# _framework density 22.169184000000001
#
# number of rings (size 3 to 8) (size 9 to 14) (size 15 to 20)
#    0.000    1.667    1.667    2.000    2.333    3.333 
#    6.000    1.667    0.000    0.000    0.000    0.000 
#    0.000    0.667    0.000    0.000    0.000    0.000 
#
# Total GULP energy -133985.189276 kJ/mol
# GULP energy per Si atom -5582.716220 kJ/mol
# Density = 2.211873 g / cm^3
# Si number density = 22.169184 Si / 1000 Ang^3
#
#
#
# Elastic Constant Matrix: (Units=GPa)
#
#
# Indices 1 2 3 4 5 6 
#
# 1 110.1601 30.7032 49.2737 -0.0003 -2.4465 0.0002
# 2 30.7032 67.5358 28.6174 -0.0003 15.3664 0.0004
# 3 49.2737 28.6174 168.3437 -0.0001 20.3232 0.0003
# 4 -0.0003 -0.0003 -0.0001 24.2999 0.0004 2.8749
# 5 -2.4465 15.3664 20.3232 0.0004 31.8291 -0.0005
# 6 0.0002 0.0004 0.0003 2.8749 -0.0005 30.2817
#
#
#
# Elastic Compliance Matrix: (Units=1/GPa)
#
#
# Indices 1 2 3 4 5 6 
#
# 1 0.012211 -0.005432 -0.003338 0.000000 0.005693 0.000000
# 2 -0.005432 0.019705 -0.000608 0.000000 -0.009543 0.000000
# 3 -0.003338 -0.000608 0.007602 0.000000 -0.004817 0.000000
# 4 0.000000 0.000000 0.000000 0.041620 -0.000001 -0.003951
# 5 0.005693 -0.009543 -0.004817 -0.000001 0.039538 0.000001
# 6 0.000000 0.000000 0.000000 -0.003951 0.000001 0.033398
#
#
# Mechanical properties :
#
#
# Convention : Reuss Voigt Hill
#
# Bulk Modulus (GPa) = 48.16315 62.58093 55.37204
# Shear Modulus (GPa) = 27.81610 33.11183 30.46397
#
# Velocity S-wave (km/s) = 3.54604 3.86890 3.71099
# Velocity P-wave (km/s) = 6.20793 6.94607 6.58735
#
# Compressibility (1/GPa) = 0.02076276
#
# Stress axis : x y z
#
# Youngs Moduli (GPa) = 81.89196 50.74756 131.54260
#
# Poissons Ratio (x) = 0.27567 0.43908
# Poissons Ratio (y) = 0.44486 0.07994
# Poissons Ratio (z) = 0.27335 0.03084
#
# Static dielectric constant tensor:
#      x y z
#    x 1.842090 0.000000 -0.050790 
#    y 0.000000 1.806340 0.000000 
#    z -0.050790 0.000000 1.892220 
# 
# From -- ./inp_files/147938.got.cif
#   From: 2010.05.17/outbox.cif.g08.bks.cpg/sg12_74_cif.got.tgz:147938.got - 2010.06.03 13:09:07.
