data_PCOD9211976
_publ_section_title
;
Structure prediction by ZEFSAII (Michael W. Deem and Ramdas Pophale) SiO2 
 PCOD9211976
Probable space group: C 2/M
;
_chemical_formula_sum "Si O2"
_cell_formula_units_Z 56
_cell_length_a 25.861060
_cell_length_b 16.301316
_cell_length_c 8.853408
_cell_angle_alpha 90.000000
_cell_angle_beta 37.558679
_cell_angle_gamma 90.000000
_cell_volume 2275.126914
_symmetry_space_group_name_H-M "C 2/M"
_symmetry_group_IT_number 12
_symmetry_cell_setting 'monoclinic'
loop_
_space_group_symop_operation_xyz
x,y,z
-x,y,-z
-x,-y,-z
x,-y,z
1/2+x,1/2+y,z
1/2-x,1/2+y,-z
1/2-x,1/2-y,-z
1/2+x,1/2-y,z
loop_
_atom_site_type_symbol
_atom_site_label
_atom_site_fract_x
_atom_site_fract_y
_atom_site_fract_z
Si Si1 0.339909 0.594040 0.429658
Si Si2 0.636562 0.092063 0.916674
Si Si3 0.598790 0.094904 0.654460
Si Si4 0.659976 0.789132 0.092272
Si Si5 0.058483 0.230307 0.612486
Si Si6 0.874314 0.849551 0.012747
Si Si7 0.241888 0.087834 0.937341
O O1 0.367301 0.500000 0.403377
O O2 0.238858 0.598880 0.684927
O O3 0.387948 0.665419 0.410409
O O4 0.355680 0.610679 0.215769
O O5 0.610839 0.109746 0.804583
O O6 0.612198 0.000000 0.005108
O O7 0.603989 0.146102 0.129573
O O8 0.555551 0.178088 0.692269
O O9 0.688226 0.091252 0.358168
O O10 0.565117 0.000000 0.714336
O O11 0.603934 0.744708 0.347357
O O12 0.732921 0.838991 0.009716
O O13 0.686246 0.726880 0.897861
O O14 0.967400 0.188327 0.802896
O O15 0.848982 0.907964 0.932979
O O16 0.251144 0.000000 0.995229
#
# Coordination Sequence:
#
# PCOD9211976 Si02
#       7
#     8   8   8   8   8   8   8
#     4  11  25  44  70 104 140 184 241 299 356 420
#     4  10  21  40  70 105 135 174 236 302 355 409
#     4   9  19  41  71 105 139 180 240 299 351 417
#     4  11  25  42  65 100 141 184 234 286 348 427
#     4  11  26  43  66 103 148 194 234 281 360 440
#     4  12  24  42  67  99 140 185 233 285 356 426
#     4  10  21  40  69 101 134 181 239 297 353 410
#
# _framework density 24.614011000000001
#
# number of rings (size 3 to 8) (size 9 to 14) (size 15 to 20)
#    0.000    1.429    1.429    3.000    6.000    3.429 
#    0.000    2.143    0.000   13.714    0.000    0.000 
#    0.000    0.000    0.000    0.000    0.000    0.000 
#
# Total GULP energy -156599.535685 kJ/mol
# GULP energy per Si atom -5592.840560 kJ/mol
# Density = 2.455799 g / cm^3
# Si number density = 24.614011 Si / 1000 Ang^3
#
#
#
# Elastic Constant Matrix: (Units=GPa)
#
#
# Indices 1 2 3 4 5 6 
#
# 1 140.4106 82.0844 40.7793 0.0000 -1.1623 0.0000
# 2 82.0844 169.3464 53.1674 0.0000 5.2541 0.0000
# 3 40.7793 53.1674 82.0325 0.0000 11.4762 0.0000
# 4 0.0000 0.0000 0.0000 35.5418 0.0000 12.0966
# 5 -1.1623 5.2541 11.4762 0.0000 41.1991 0.0000
# 6 0.0000 0.0000 0.0000 12.0966 0.0000 31.4557
#
#
#
# Elastic Compliance Matrix: (Units=1/GPa)
#
#
# Indices 1 2 3 4 5 6 
#
# 1 0.010387 -0.004260 -0.002621 0.000000 0.001567 0.000000
# 2 -0.004260 0.009168 -0.003791 0.000000 -0.000233 0.000000
# 3 -0.002621 -0.003791 0.016538 0.000000 -0.004197 0.000000
# 4 0.000000 0.000000 0.000000 0.032373 0.000000 -0.012449
# 5 0.001567 -0.000233 -0.004197 0.000000 0.025515 0.000000
# 6 0.000000 0.000000 0.000000 -0.012449 0.000000 0.036578
#
#
# Mechanical properties :
#
#
# Convention : Reuss Voigt Hill
#
# Bulk Modulus (GPa) = 67.81334 82.65020 75.23177
# Shear Modulus (GPa) = 31.88365 36.02322 33.95344
#
# Velocity S-wave (km/s) = 3.60300 3.82975 3.71810
# Velocity P-wave (km/s) = 6.70219 7.29434 7.00452
#
# Compressibility (1/GPa) = 0.01474636
#
# Stress axis : x y z
#
# Youngs Moduli (GPa) = 96.27597 109.07997 60.46741
#
# Poissons Ratio (x) = 0.46470 0.15851
# Poissons Ratio (y) = 0.41016 0.22925
# Poissons Ratio (z) = 0.25238 0.41356
#
# Static dielectric constant tensor:
#      x y z
#    x 1.987920 0.000000 -0.030100 
#    y 0.000000 2.079260 0.000000 
#    z -0.030100 0.000000 1.928500 
# 
# From -- ./inp_files/105548.got.cif
#   From: 2010.05.17/outbox.cif.g08.bks.cpg/sg12_53_cif.got.tgz:105548.got - 2010.06.03 13:09:07.
