data_PCOD9211449
_publ_section_title
;
Structure prediction by ZEFSAII (Michael W. Deem and Ramdas Pophale) SiO2 
 PCOD9211449
Probable space group: C 2/M
;
_chemical_formula_sum "Si O2"
_cell_formula_units_Z 48
_cell_length_a 24.588102
_cell_length_b 9.034461
_cell_length_c 11.788848
_cell_angle_alpha 90.000000
_cell_angle_beta 69.105871
_cell_angle_gamma 90.000000
_cell_volume 2446.569490
_symmetry_space_group_name_H-M "C 2/M"
_symmetry_group_IT_number 12
_symmetry_cell_setting 'monoclinic'
loop_
_space_group_symop_operation_xyz
x,y,z
-x,y,-z
-x,-y,-z
x,-y,z
1/2+x,1/2+y,z
1/2-x,1/2+y,-z
1/2-x,1/2-y,-z
1/2+x,1/2-y,z
loop_
_atom_site_type_symbol
_atom_site_label
_atom_site_fract_x
_atom_site_fract_y
_atom_site_fract_z
Si Si1 0.941292 0.328496 0.969019
Si Si2 0.380980 0.177139 0.646671
Si Si3 0.157542 0.177334 0.806383
Si Si4 0.769510 0.323210 0.868567
Si Si5 0.478646 0.676110 0.709979
Si Si6 0.616233 0.323089 0.589353
O O1 0.928968 0.500000 0.949884
O O2 0.952829 0.237429 0.846593
O O3 0.889429 0.259927 0.080956
O O4 0.000000 0.322620 0.000000
O O5 0.332399 0.223333 0.775066
O O6 0.442219 0.247289 0.637577
O O7 0.363344 0.236828 0.536657
O O8 0.384595 0.000000 0.642909
O O9 0.221078 0.208712 0.809001
O O10 0.148352 0.218512 0.682020
O O11 0.147111 0.000000 0.822294
O O12 0.770997 0.500000 0.883913
O O13 0.750000 0.250000 0.000000
O O14 0.471514 0.500000 0.707744
O O15 0.547362 0.708942 0.655851
O O16 0.622425 0.500000 0.567630
#
# Coordination Sequence:
#
# PCOD9211449 Si02
#       6
#     8   8   8   8   8   8
#     4  11  22  35  56  89 124 152 187 239 299 352
#     4  11  24  40  59  87 122 156 194 243 299 350
#     4  10  21  40  63  86 117 158 201 244 288 345
#     4  10  23  42  63  87 116 152 196 243 292 348
#     4  11  22  38  61  87 118 158 203 244 287 347
#     4  10  22  39  60  87 117 153 201 246 289 350
#
# _framework density 19.619308
#
# number of rings (size 3 to 8) (size 9 to 14) (size 15 to 20)
#    0.000    1.500    1.667    3.000    0.000   10.000 
#    0.000    0.000    0.000    0.000    0.000    0.000 
#    0.000    0.000    0.000    0.000    0.000    0.000 
#
# Total GULP energy -134203.400132 kJ/mol
# GULP energy per Si atom -5591.808339 kJ/mol
# Density = 1.957465 g / cm^3
# Si number density = 19.619308 Si / 1000 Ang^3
#
#
#
# Elastic Constant Matrix: (Units=GPa)
#
#
# Indices 1 2 3 4 5 6 
#
# 1 89.8255 34.0508 31.3694 0.0000 11.7899 0.0000
# 2 34.0508 38.9418 35.5036 0.0000 1.5483 0.0000
# 3 31.3694 35.5036 111.9955 0.0000 16.5436 0.0000
# 4 0.0000 0.0000 0.0000 35.1507 0.0000 2.2962
# 5 11.7899 1.5483 16.5436 0.0000 24.6336 0.0000
# 6 0.0000 0.0000 0.0000 2.2962 0.0000 20.1732
#
#
#
# Elastic Compliance Matrix: (Units=1/GPa)
#
#
# Indices 1 2 3 4 5 6 
#
# 1 0.018152 -0.016964 0.001575 0.000000 -0.008680 0.000000
# 2 -0.016964 0.052792 -0.014091 0.000000 0.014264 0.000000
# 3 0.001575 -0.014091 0.014360 0.000000 -0.009512 0.000000
# 4 0.000000 0.000000 0.000000 0.028662 0.000000 -0.003262
# 5 -0.008680 0.014264 -0.009512 0.000000 0.050241 0.000000
# 6 0.000000 0.000000 0.000000 -0.003262 0.000000 0.049942
#
#
# Mechanical properties :
#
#
# Convention : Reuss Voigt Hill
#
# Bulk Modulus (GPa) = 37.95717 49.17893 43.56805
# Shear Modulus (GPa) = 17.73739 25.31411 21.52575
#
# Velocity S-wave (km/s) = 3.01005 3.59592 3.31595
# Velocity P-wave (km/s) = 5.60976 6.50860 6.07582
#
# Compressibility (1/GPa) = 0.02634549
#
# Stress axis : x y z
#
# Youngs Moduli (GPa) = 55.08948 18.94209 69.63855
#
# Poissons Ratio (x) = 0.32133 -0.10971
# Poissons Ratio (y) = 0.93452 0.98130
# Poissons Ratio (z) = -0.08679 0.26692
#
# Static dielectric constant tensor:
#      x y z
#    x 1.689170 0.000000 0.012910 
#    y 0.000000 1.651800 0.000000 
#    z 0.012910 0.000000 1.666100 
# 
# From -- ./inp_files/172869.got.cif
#   From: 2010.05.17/outbox.cif.g08.bks.cpg/sg12_87_cif.got.tgz:172869.got - 2010.06.03 13:09:07.
