data_PCOD9211516
_publ_section_title
;
Structure prediction by ZEFSAII (Michael W. Deem and Ramdas Pophale) SiO2 
 PCOD9211516
Probable space group: C 2/M
;
_chemical_formula_sum "Si O2"
_cell_formula_units_Z 48
_cell_length_a 24.158929
_cell_length_b 12.568508
_cell_length_c 9.370077
_cell_angle_alpha 90.000000
_cell_angle_beta 120.920519
_cell_angle_gamma 90.000000
_cell_volume 2440.796555
_symmetry_space_group_name_H-M "C 2/M"
_symmetry_group_IT_number 12
_symmetry_cell_setting 'monoclinic'
loop_
_space_group_symop_operation_xyz
x,y,z
-x,y,-z
-x,-y,-z
x,-y,z
1/2+x,1/2+y,z
1/2-x,1/2+y,-z
1/2-x,1/2-y,-z
1/2+x,1/2-y,z
loop_
_atom_site_type_symbol
_atom_site_label
_atom_site_fract_x
_atom_site_fract_y
_atom_site_fract_z
Si Si1 0.921546 0.619488 0.336510
Si Si2 0.316342 0.267160 0.166652
Si Si3 0.271187 0.374452 0.394843
Si Si4 0.526081 0.222437 0.316462
Si Si5 0.584818 0.625655 0.911688
Si Si6 0.356947 0.744688 0.735056
O O1 0.927914 0.500000 0.398324
O O2 0.849659 0.651638 0.207808
O O3 0.940609 0.704530 0.484973
O O4 0.967527 0.637860 0.260727
O O5 0.302002 0.312075 0.303095
O O6 0.365268 0.344740 0.148137
O O7 0.250000 0.250000 0.000000
O O8 0.273504 0.500000 0.377323
O O9 0.314802 0.340508 0.588265
O O10 0.197105 0.334526 0.308285
O O11 0.485581 0.328740 0.227053
O O12 0.582759 0.211615 0.277388
O O13 0.582264 0.500000 0.934354
O O14 0.612439 0.689305 0.085243
#
# Coordination Sequence:
#
# PCOD9211516 Si02
#       6
#     8   8   8   8   8   8
#     4  10  22  42  68  93 125 171 213 259 323 377
#     4  11  22  45  65  95 129 160 217 270 305 385
#     4  11  24  42  65  94 131 169 208 264 321 371
#     4  10  21  40  63  91 127 158 216 264 297 381
#     4  11  24  41  67  94 126 172 211 259 322 373
#     4  11  23  43  62  95 133 166 213 259 313 393
#
# _framework density 19.665711000000002
#
# number of rings (size 3 to 8) (size 9 to 14) (size 15 to 20)
#    0.000    1.333    3.333    2.500    0.000    4.667 
#    0.000    3.333    0.000    6.000    0.000    0.000 
#    0.000    0.000    0.000    0.000    0.000    0.000 
#
# Total GULP energy -133779.816279 kJ/mol
# GULP energy per Si atom -5574.159012 kJ/mol
# Density = 1.962095 g / cm^3
# Si number density = 19.665711 Si / 1000 Ang^3
#
#
#
# Elastic Constant Matrix: (Units=GPa)
#
#
# Indices 1 2 3 4 5 6 
#
# 1 162.4886 33.8902 34.6019 0.0000 0.5033 0.0000
# 2 33.8902 86.2955 27.9331 0.0000 8.9148 0.0000
# 3 34.6019 27.9331 68.4526 0.0000 12.4282 0.0000
# 4 0.0000 0.0000 0.0000 14.2236 0.0000 1.1475
# 5 0.5033 8.9148 12.4282 0.0000 37.3435 0.0000
# 6 0.0000 0.0000 0.0000 1.1475 0.0000 5.9610
#
#
#
# Elastic Compliance Matrix: (Units=1/GPa)
#
#
# Indices 1 2 3 4 5 6 
#
# 1 0.007222 -0.001979 -0.003099 0.000000 0.001406 0.000000
# 2 -0.001979 0.013969 -0.004363 0.000000 -0.001856 0.000000
# 3 -0.003099 -0.004363 0.018901 0.000000 -0.005207 0.000000
# 4 0.000000 0.000000 0.000000 0.071414 0.000000 -0.013747
# 5 0.001406 -0.001856 -0.005207 0.000000 0.028935 0.000000
# 6 0.000000 0.000000 0.000000 -0.013747 0.000000 0.170404
#
#
# Mechanical properties :
#
#
# Convention : Reuss Voigt Hill
#
# Bulk Modulus (GPa) = 47.14457 56.67634 51.91045
# Shear Modulus (GPa) = 14.84567 26.22640 20.53603
#
# Velocity S-wave (km/s) = 2.75053 3.65582 3.23500
# Velocity P-wave (km/s) = 5.84057 6.83392 6.35668
#
# Compressibility (1/GPa) = 0.02121135
#
# Stress axis : x y z
#
# Youngs Moduli (GPa) = 138.45631 71.58594 52.90757
#
# Poissons Ratio (x) = 0.14165 0.16395
# Poissons Ratio (y) = 0.27396 0.23085
# Poissons Ratio (z) = 0.42905 0.31234
#
# Static dielectric constant tensor:
#      x y z
#    x 1.728990 0.000000 0.044510 
#    y 0.000000 1.701510 0.000000 
#    z 0.044510 0.000000 1.800130 
# 
# From -- ./inp_files/94974.got.cif
#   From: 2010.05.17/outbox.cif.g08.bks.cpg/sg12_48_cif.got.tgz:94974.got - 2010.06.03 13:09:07.
