data_PCOD9211496
_publ_section_title
;
Structure prediction by ZEFSAII (Michael W. Deem and Ramdas Pophale) SiO2 
 PCOD9211496
Probable space group: C 2/M
;
_chemical_formula_sum "Si O2"
_cell_formula_units_Z 48
_cell_length_a 19.512213
_cell_length_b 24.476555
_cell_length_c 7.242468
_cell_angle_alpha 90.000000
_cell_angle_beta 36.879635
_cell_angle_gamma 90.000000
_cell_volume 2075.836045
_symmetry_space_group_name_H-M "C 2/M"
_symmetry_group_IT_number 12
_symmetry_cell_setting 'monoclinic'
loop_
_space_group_symop_operation_xyz
x,y,z
-x,y,-z
-x,-y,-z
x,-y,z
1/2+x,1/2+y,z
1/2-x,1/2+y,-z
1/2-x,1/2-y,-z
1/2+x,1/2-y,z
loop_
_atom_site_type_symbol
_atom_site_label
_atom_site_fract_x
_atom_site_fract_y
_atom_site_fract_z
Si Si1 0.781774 0.854677 0.215049
Si Si2 0.434264 0.941544 0.833515
Si Si3 0.688575 0.563473 0.184559
Si Si4 0.261994 0.737405 0.694658
Si Si5 0.033585 0.159558 0.637496
Si Si6 0.093699 0.336447 0.919733
O O1 0.745910 0.796830 0.196702
O O2 0.695228 0.859754 0.571473
O O3 0.782955 0.904066 0.066966
O O4 0.912385 0.845775 0.000278
O O5 0.500000 0.942691 0.500000
O O6 0.453160 0.000000 0.886648
O O7 0.301214 0.935970 0.068226
O O8 0.471478 0.888235 0.859813
O O9 0.657564 0.500000 0.219064
O O10 0.592683 0.600152 0.490079
O O11 0.250000 0.750000 0.500000
O O12 0.374400 0.703136 0.492861
O O13 0.150987 0.699228 0.956715
O O14 0.000000 0.175132 0.500000
O O15 0.000000 0.304708 0.000000
#
# Coordination Sequence:
#
# PCOD9211496 Si02
#       6
#     8   8   8   8   8   8
#     4  10  24  39  65  95 129 171 217 266 328 384
#     4  10  21  40  63  89 127 171 218 273 325 384
#     4  10  21  42  65  94 131 171 217 272 328 387
#     4  10  23  41  62  93 136 169 212 265 331 388
#     4  10  22  42  66  98 131 175 219 270 324 393
#     4  11  23  40  62  95 129 172 220 268 328 395
#
# _framework density 23.123211000000001
#
# number of rings (size 3 to 8) (size 9 to 14) (size 15 to 20)
#    0.000    1.833    1.667    1.000    4.667    8.667 
#    0.000    0.000    0.000    2.000    0.000    0.000 
#    0.000    0.000    0.000    0.000    0.000    0.000 
#
# Total GULP energy -134124.783379 kJ/mol
# GULP energy per Si atom -5588.532641 kJ/mol
# Density = 2.307058 g / cm^3
# Si number density = 23.123211 Si / 1000 Ang^3
#
#
#
# Elastic Constant Matrix: (Units=GPa)
#
#
# Indices 1 2 3 4 5 6 
#
# 1 95.5091 40.1752 18.4175 0.0000 -26.0169 0.0000
# 2 40.1752 177.8581 22.5751 0.0000 -0.5144 0.0000
# 3 18.4175 22.5751 92.1924 0.0000 -12.0710 0.0000
# 4 0.0000 0.0000 0.0000 13.1443 0.0000 14.4181
# 5 -26.0169 -0.5144 -12.0710 0.0000 27.0848 0.0000
# 6 0.0000 0.0000 0.0000 14.4181 0.0000 26.4362
#
#
#
# Elastic Compliance Matrix: (Units=1/GPa)
#
#
# Indices 1 2 3 4 5 6 
#
# 1 0.016227 -0.003576 -0.000355 0.000000 0.015362 0.000000
# 2 -0.003576 0.006599 -0.001418 0.000000 -0.003941 0.000000
# 3 -0.000355 -0.001418 0.011912 0.000000 0.004941 0.000000
# 4 0.000000 0.000000 0.000000 0.189365 0.000000 -0.103278
# 5 0.015362 -0.003941 0.004941 0.000000 0.053804 0.000000
# 6 0.000000 0.000000 0.000000 -0.103278 0.000000 0.094154
#
#
# Mechanical properties :
#
#
# Convention : Reuss Voigt Hill
#
# Bulk Modulus (GPa) = 41.59511 58.65502 50.12506
# Shear Modulus (GPa) = 12.79522 32.29252 22.54387
#
# Velocity S-wave (km/s) = 2.35489 3.74109 3.12580
# Velocity P-wave (km/s) = 5.04198 6.63945 5.89508
#
# Compressibility (1/GPa) = 0.02404129
#
# Stress axis : x y z
#
# Youngs Moduli (GPa) = 61.62420 151.54398 83.95028
#
# Poissons Ratio (x) = 0.54193 0.02979
# Poissons Ratio (y) = 0.22037 0.11900
# Poissons Ratio (z) = 0.02186 0.21481
#
# Static dielectric constant tensor:
#      x y z
#    x 1.918350 0.000000 0.002140 
#    y 0.000000 1.946620 0.000000 
#    z 0.002140 0.000000 1.929110 
# 
# From -- ./inp_files/99752.got.cif
#   From: 2010.05.17/outbox.cif.g08.bks.cpg/sg12_50_cif.got.tgz:99752.got - 2010.06.03 13:09:07.
