data_PCOD9211203
_publ_section_title
;
Structure prediction by ZEFSAII (Michael W. Deem and Ramdas Pophale) SiO2 
 PCOD9211203
Probable space group: C 2/M
;
_chemical_formula_sum "Si O2"
_cell_formula_units_Z 64
_cell_length_a 19.811468
_cell_length_b 27.560076
_cell_length_c 13.497721
_cell_angle_alpha 90.000000
_cell_angle_beta 152.806076
_cell_angle_gamma 90.000000
_cell_volume 3368.039229
_symmetry_space_group_name_H-M "C 2/M"
_symmetry_group_IT_number 12
_symmetry_cell_setting 'monoclinic'
loop_
_space_group_symop_operation_xyz
x,y,z
-x,y,-z
-x,-y,-z
x,-y,z
1/2+x,1/2+y,z
1/2-x,1/2+y,-z
1/2-x,1/2-y,-z
1/2+x,1/2-y,z
loop_
_atom_site_type_symbol
_atom_site_label
_atom_site_fract_x
_atom_site_fract_y
_atom_site_fract_z
Si Si1 0.967201 0.646320 0.569911
Si Si2 0.160933 0.137946 0.474935
Si Si3 0.609854 0.056351 0.852287
Si Si4 0.597871 0.386322 0.726390
Si Si5 0.339288 0.215990 0.821196
Si Si6 0.096340 0.555064 0.224815
Si Si7 0.339726 0.675759 0.747321
Si Si8 0.307235 0.793300 0.006750
O O1 0.795271 0.648458 0.374630
O O2 0.000000 0.661721 0.500000
O O3 0.052515 0.681951 0.757214
O O4 0.039466 0.593527 0.681846
O O5 0.219980 0.176746 0.632164
O O6 0.276680 0.094526 0.614199
O O7 0.154966 0.164248 0.361695
O O8 0.008789 0.117038 0.318218
O O9 0.775395 0.073511 0.094182
O O10 0.605675 0.000000 0.817978
O O11 0.510708 0.062905 0.821524
O O12 0.500000 0.393974 0.500000
O O13 0.684722 0.335263 0.835143
O O14 0.315884 0.267069 0.736244
O O15 0.500000 0.196467 0.000000
O O16 0.341450 0.224644 0.941185
O O17 0.155274 0.500000 0.308002
O O18 0.000000 0.558805 0.000000
O O19 0.500000 0.662896 0.000000
O O20 0.250000 0.750000 0.000000
#
# Coordination Sequence:
#
# PCOD9211203 Si02
#       8
#     8   8   8   8   8   8   8   8
#     4  11  24  43  69  93 127 172 220 265 323 381
#     4  12  23  40  66  91 138 161 215 265 321 383
#     4  10  23  44  67  95 128 165 216 265 324 400
#     4  11  24  39  62  98 129 171 207 265 332 377
#     4  11  24  39  65  93 128 172 217 260 322 378
#     4  10  21  39  68  97 124 165 209 264 330 391
#     4  11  26  42  62  94 130 175 216 266 318 378
#     4  11  25  41  63  92 133 172 219 265 313 386
#
# _framework density 19.002153
#
# number of rings (size 3 to 8) (size 9 to 14) (size 15 to 20)
#    0.000    1.125    2.500    3.000   12.250    1.500 
#    0.000    0.000    0.000    0.750    0.000    0.000 
#    0.000    0.000    0.000    0.000    0.000    0.000 
#
# Total GULP energy -178926.314325 kJ/mol
# GULP energy per Si atom -5591.447323 kJ/mol
# Density = 1.895890 g / cm^3
# Si number density = 19.002153 Si / 1000 Ang^3
#
#
#
# Elastic Constant Matrix: (Units=GPa)
#
#
# Indices 1 2 3 4 5 6 
#
# 1 118.2021 29.7635 34.5953 0.0000 -4.8221 0.0000
# 2 29.7635 86.1011 42.0704 0.0000 2.4589 0.0000
# 3 34.5953 42.0704 94.1245 0.0000 10.6445 0.0000
# 4 0.0000 0.0000 0.0000 16.0829 0.0000 -1.0224
# 5 -4.8221 2.4589 10.6445 0.0000 37.8940 0.0000
# 6 0.0000 0.0000 0.0000 -1.0224 0.0000 22.8088
#
#
#
# Elastic Compliance Matrix: (Units=1/GPa)
#
#
# Indices 1 2 3 4 5 6 
#
# 1 0.009941 -0.002036 -0.002997 0.000000 0.002239 0.000000
# 2 -0.002036 0.015308 -0.006148 0.000000 0.000474 0.000000
# 3 -0.002997 -0.006148 0.014946 0.000000 -0.004181 0.000000
# 4 0.000000 0.000000 0.000000 0.062356 0.000000 0.002795
# 5 0.002239 0.000474 -0.004181 0.000000 0.027818 0.000000
# 6 0.000000 0.000000 0.000000 0.002795 0.000000 0.043968
#
#
# Mechanical properties :
#
#
# Convention : Reuss Voigt Hill
#
# Bulk Modulus (GPa) = 56.07089 56.80957 56.44023
# Shear Modulus (GPa) = 24.67382 28.15704 26.41543
#
# Velocity S-wave (km/s) = 3.60735 3.85357 3.73249
# Velocity P-wave (km/s) = 6.84998 7.05417 6.95283
#
# Compressibility (1/GPa) = 0.01783457
#
# Stress axis : x y z
#
# Youngs Moduli (GPa) = 100.59054 65.32382 66.90572
#
# Poissons Ratio (x) = 0.13300 0.20052
# Poissons Ratio (y) = 0.20481 0.41131
# Poissons Ratio (z) = 0.30148 0.40159
#
# Static dielectric constant tensor:
#      x y z
#    x 1.648250 0.000000 -0.006600 
#    y 0.000000 1.645940 0.000000 
#    z -0.006600 0.000000 1.631250 
# 
# From -- ./inp_files/161251.got.cif
#   From: 2010.05.17/outbox.cif.g08.bks.cpg/sg12_81_cif.got.tgz:161251.got - 2010.06.03 13:09:07.
