data_PCOD9211453
_publ_section_title
;
Structure prediction by ZEFSAII (Michael W. Deem and Ramdas Pophale) SiO2 
 PCOD9211453
Probable space group: C 2/M
;
_chemical_formula_sum "Si O2"
_cell_formula_units_Z 40
_cell_length_a 16.720310
_cell_length_b 7.661617
_cell_length_c 14.323402
_cell_angle_alpha 90.000000
_cell_angle_beta 58.763439
_cell_angle_gamma 90.000000
_cell_volume 1568.895759
_symmetry_space_group_name_H-M "C 2/M"
_symmetry_group_IT_number 12
_symmetry_cell_setting 'monoclinic'
loop_
_space_group_symop_operation_xyz
x,y,z
-x,y,-z
-x,-y,-z
x,-y,z
1/2+x,1/2+y,z
1/2-x,1/2+y,-z
1/2-x,1/2-y,-z
1/2+x,1/2-y,z
loop_
_atom_site_type_symbol
_atom_site_label
_atom_site_fract_x
_atom_site_fract_y
_atom_site_fract_z
Si Si1 0.167441 0.706637 0.482555
Si Si2 0.476265 0.698941 0.617965
Si Si3 0.155065 0.305461 0.148251
Si Si4 0.221059 0.789790 0.767123
Si Si5 0.506203 0.790335 0.889738
O O1 0.149903 0.500000 0.488923
O O2 0.250000 0.750000 0.500000
O O3 0.082366 0.800494 0.586254
O O4 0.203740 0.766735 0.357862
O O5 0.500000 0.766797 0.500000
O O6 0.442493 0.500000 0.635655
O O7 0.415016 0.814453 0.721231
O O8 0.182412 0.500000 0.099164
O O9 0.245268 0.225989 0.149053
O O10 0.083265 0.221592 0.116288
O O11 0.115631 0.743171 0.800184
O O12 0.225164 0.000000 0.768878
O O13 0.495243 0.000000 0.892676
O O14 0.500000 0.727976 0.000000
#
# Coordination Sequence:
#
# PCOD9211453 Si02
#       5
#     8   8   8   8   8
#     4  11  22  36  56  83 119 158 199 242 290 349
#     4  11  22  35  55  86 121 154 195 240 285 344
#     4  10  21  40  63  86 119 162 200 240 296 359
#     4  10  22  39  60  86 116 154 200 243 291 356
#     4  10  23  42  63  88 117 150 194 250 307 358
#
# _framework density 25.495640000000002
#
# number of rings (size 3 to 8) (size 9 to 14) (size 15 to 20)
#    0.000    1.600    2.000    2.400    0.000    8.400 
#    0.000    0.000    0.000    0.000    0.000    0.000 
#    0.000    0.000    0.000    0.000    0.000    0.000 
#
# Total GULP energy -111502.675261 kJ/mol
# GULP energy per Si atom -5575.133763 kJ/mol
# Density = 2.543761 g / cm^3
# Si number density = 25.495640 Si / 1000 Ang^3
#
#
#
# Elastic Constant Matrix: (Units=GPa)
#
#
# Indices 1 2 3 4 5 6 
#
# 1 142.5439 12.9812 11.7789 0.0000 40.8130 0.0000
# 2 12.9812 93.8235 6.5578 0.0000 5.3167 0.0001
# 3 11.7789 6.5578 76.7647 0.0000 4.1470 0.0000
# 4 0.0000 0.0000 0.0000 3.8203 0.0000 -5.2064
# 5 40.8130 5.3167 4.1470 0.0000 48.3916 0.0000
# 6 0.0000 0.0001 0.0000 -5.2064 0.0000 47.3281
#
#
#
# Elastic Compliance Matrix: (Units=1/GPa)
#
#
# Indices 1 2 3 4 5 6 
#
# 1 0.009384 -0.000793 -0.000954 0.000000 -0.007746 0.000000
# 2 -0.000793 0.010848 -0.000780 0.000000 -0.000456 0.000000
# 3 -0.000954 -0.000780 0.013253 0.000000 -0.000246 0.000000
# 4 0.000000 0.000000 0.000000 0.307920 0.000000 0.033873
# 5 -0.007746 -0.000456 -0.000246 0.000000 0.027269 0.000000
# 6 0.000000 0.000000 0.000000 0.033873 0.000000 0.024855
#
#
# Mechanical properties :
#
#
# Convention : Reuss Voigt Hill
#
# Bulk Modulus (GPa) = 35.17205 41.75200 38.46202
# Shear Modulus (GPa) = 12.25309 38.69561 25.47435
#
# Velocity S-wave (km/s) = 2.19463 3.90004 3.16439
# Velocity P-wave (km/s) = 4.49968 6.05740 5.33569
#
# Compressibility (1/GPa) = 0.02843167
#
# Stress axis : x y z
#
# Youngs Moduli (GPa) = 106.56305 92.17944 75.45405
#
# Poissons Ratio (x) = 0.07308 0.07196
# Poissons Ratio (y) = 0.08448 0.05889
# Poissons Ratio (z) = 0.10163 0.07194
#
# Static dielectric constant tensor:
#      x y z
#    x 3.606580 0.000000 -0.101480 
#    y 0.000000 2.061370 0.000000 
#    z -0.101480 0.000000 2.004810 
# 
# From -- ./inp_files/220611.got.cif
#   From: 2010.05.17/outbox.cif.g08.bks.cpg/sg12_111_cif.got.tgz:220611.got - 2010.06.03 13:09:07.
