data_PCOD9211886
_publ_section_title
;
Structure prediction by ZEFSAII (Michael W. Deem and Ramdas Pophale) SiO2 
 PCOD9211886
Probable space group: C 2/M
;
_chemical_formula_sum "Si O2"
_cell_formula_units_Z 36
_cell_length_a 13.906997
_cell_length_b 26.151203
_cell_length_c 8.045730
_cell_angle_alpha 90.000000
_cell_angle_beta 143.305713
_cell_angle_gamma 90.000000
_cell_volume 1748.482332
_symmetry_space_group_name_H-M "C 2/M"
_symmetry_group_IT_number 12
_symmetry_cell_setting 'monoclinic'
loop_
_space_group_symop_operation_xyz
x,y,z
-x,y,-z
-x,-y,-z
x,-y,z
1/2+x,1/2+y,z
1/2-x,1/2+y,-z
1/2-x,1/2-y,-z
1/2+x,1/2-y,z
loop_
_atom_site_type_symbol
_atom_site_label
_atom_site_fract_x
_atom_site_fract_y
_atom_site_fract_z
Si Si1 0.809534 0.500000 0.766716
Si Si2 0.674540 0.390600 0.453710
Si Si3 0.181899 0.891687 0.067182
Si Si4 0.879768 0.293835 0.693894
Si Si5 0.817807 0.500000 0.173729
Si Si6 0.000000 0.327956 0.500000
O O1 0.731151 0.447360 0.587632
O O2 0.804334 0.500000 0.957534
O O3 0.000000 0.500000 0.000000
O O4 0.668459 0.386223 0.246042
O O5 0.802877 0.345935 0.666406
O O6 0.490514 0.379906 0.254862
O O7 0.224919 0.950352 0.102520
O O8 0.339670 0.860424 0.232483
O O9 0.750000 0.250000 0.500000
O O10 0.953552 0.301345 0.610958
O O11 0.000000 0.274764 0.000000
O O12 0.000000 0.500000 0.500000
#
# Coordination Sequence:
#
# PCOD9211886 Si02
#       6
#     4   8   8   8   4   4
#     4  12  25  38  63  96 138 179 228 275 346 406
#     4  10  23  43  67  97 137 177 227 282 340 411
#     4  10  21  40  67  93 136 179 225 274 342 406
#     4  11  27  48  74 104 140 181 235 290 351 415
#     4  12  23  36  59  97 133 179 228 271 332 409
#     4  10  24  45  72 102 136 181 232 282 354 412
#
# _framework density 20.589283999999999
#
# number of rings (size 3 to 8) (size 9 to 14) (size 15 to 20)
#    0.000    1.333    1.111    3.333   12.444    4.444 
#    0.000    0.000    0.000    0.000    0.000    0.000 
#    0.000    0.000    0.000    0.000    0.000    0.000 
#
# Total GULP energy -100396.795322 kJ/mol
# GULP energy per Si atom -5577.599740 kJ/mol
# Density = 2.054242 g / cm^3
# Si number density = 20.589284 Si / 1000 Ang^3
#
#
#
# Elastic Constant Matrix: (Units=GPa)
#
#
# Indices 1 2 3 4 5 6 
#
# 1 76.2960 39.3180 41.8320 0.0000 29.1336 0.0000
# 2 39.3180 81.2092 41.2275 0.0000 10.0058 0.0000
# 3 41.8320 41.2275 140.9015 0.0000 20.0696 0.0000
# 4 0.0000 0.0000 0.0000 90.4270 0.0000 76.0973
# 5 29.1336 10.0058 20.0696 0.0000 32.5993 0.0000
# 6 0.0000 0.0000 0.0000 76.0973 0.0000 133.6780
#
#
#
# Elastic Compliance Matrix: (Units=1/GPa)
#
#
# Indices 1 2 3 4 5 6 
#
# 1 0.026654 -0.009273 -0.002425 0.000000 -0.019481 0.000000
# 2 -0.009273 0.017810 -0.003135 0.000000 0.004751 0.000000
# 3 -0.002425 -0.003135 0.009085 0.000000 -0.002464 0.000000
# 4 0.000000 0.000000 0.000000 0.021228 0.000000 -0.012084
# 5 -0.019481 0.004751 -0.002464 0.000000 0.048144 0.000000
# 6 0.000000 0.000000 0.000000 -0.012084 0.000000 0.014360
#
#
# Mechanical properties :
#
#
# Convention : Reuss Voigt Hill
#
# Bulk Modulus (GPa) = 41.87082 60.35131 51.11106
# Shear Modulus (GPa) = 28.58635 63.07612 45.83124
#
# Velocity S-wave (km/s) = 3.73018 5.54093 4.72314
# Velocity P-wave (km/s) = 6.23961 8.38520 7.39068
#
# Compressibility (1/GPa) = 0.02388298
#
# Stress axis : x y z
#
# Youngs Moduli (GPa) = 37.51728 56.14926 110.06824
#
# Poissons Ratio (x) = 0.52070 0.26693
# Poissons Ratio (y) = 0.34792 0.34502
# Poissons Ratio (z) = 0.09098 0.17601
#
# Static dielectric constant tensor:
#      x y z
#    x 1.718620 0.000000 0.060350 
#    y 0.000000 1.717410 0.000000 
#    z 0.060350 0.000000 1.782010 
# 
# From -- ./inp_files/40280.got.cif
#   From: 2010.05.17/outbox.cif.g08.bks.cpg/sg12_21_cif.got.tgz:40280.got - 2010.06.03 13:09:07.
