data_PCOD9211934
_publ_section_title
;
Structure prediction by ZEFSAII (Michael W. Deem and Ramdas Pophale) SiO2 
 PCOD9211934
Probable space group: C 2/M
;
_chemical_formula_sum "Si O2"
_cell_formula_units_Z 52
_cell_length_a 17.506613
_cell_length_b 23.247046
_cell_length_c 5.018489
_cell_angle_alpha 90.000000
_cell_angle_beta 77.567430
_cell_angle_gamma 90.000000
_cell_volume 1994.515387
_symmetry_space_group_name_H-M "C 2/M"
_symmetry_group_IT_number 12
_symmetry_cell_setting 'monoclinic'
loop_
_space_group_symop_operation_xyz
x,y,z
-x,y,-z
-x,-y,-z
x,-y,z
1/2+x,1/2+y,z
1/2-x,1/2+y,-z
1/2-x,1/2-y,-z
1/2+x,1/2-y,z
loop_
_atom_site_type_symbol
_atom_site_label
_atom_site_fract_x
_atom_site_fract_y
_atom_site_fract_z
Si Si1 0.190668 0.408331 0.338627
Si Si2 0.212210 0.062802 0.223491
Si Si3 0.799978 0.271706 0.713340
Si Si4 0.912434 0.125499 0.447124
Si Si5 0.949160 0.367152 0.286341
Si Si6 0.555591 0.500000 0.712598
Si Si7 0.577539 0.256705 0.753286
O O1 0.246952 0.431271 0.523264
O O2 0.197954 0.340070 0.287695
O O3 0.105251 0.413818 0.531936
O O4 0.218857 0.433975 0.042248
O O5 0.150506 0.115100 0.269939
O O6 0.173310 0.000000 0.220223
O O7 0.750000 0.250000 0.500000
O O8 0.888744 0.248512 0.587747
O O9 0.750000 0.250000 0.000000
O O10 0.895024 0.176858 0.255261
O O11 0.000000 0.134714 0.500000
O O12 0.906256 0.063028 0.312866
O O13 0.902497 0.311061 0.202223
O O14 0.000000 0.344492 0.500000
O O15 0.000000 0.388310 0.000000
O O16 0.500000 0.500000 0.500000
O O17 0.500000 0.500000 0.000000
O O18 0.500000 0.259678 0.000000
#
# Coordination Sequence:
#
# PCOD9211934 Si02
#       7
#     8   8   8   8   8   4   8
#     4  11  24  43  69  98 131 176 218 275 343 405
#     4  12  26  46  68  95 131 179 234 287 333 386
#     4  11  23  41  65  96 136 175 222 272 338 413
#     4  11  23  41  62  92 129 177 227 275 324 374
#     4  10  21  40  68 101 134 168 206 257 334 418
#     4  10  22  38  56  78 112 160 214 262 306 348
#     4  10  22  37  62  98 136 172 216 271 328 396
#
# _framework density 26.071494999999999
#
# number of rings (size 3 to 8) (size 9 to 14) (size 15 to 20)
#    0.000    1.231    0.769    5.077    0.000   12.308 
#    0.000    0.000    0.000    9.231    0.000    0.000 
#    0.000    0.000    0.000    0.000    0.000    0.000 
#
# Total GULP energy -144816.910311 kJ/mol
# GULP energy per Si atom -5569.881166 kJ/mol
# Density = 2.601215 g / cm^3
# Si number density = 26.071495 Si / 1000 Ang^3
#
#
#
# Elastic Constant Matrix: (Units=GPa)
#
#
# Indices 1 2 3 4 5 6 
#
# 1 78.0710 10.8851 39.2792 0.0000 -13.7754 0.0000
# 2 10.8851 87.9856 30.8896 0.0000 -13.3007 0.0000
# 3 39.2792 30.8896 208.7028 0.0000 -33.5003 0.0000
# 4 0.0000 0.0000 0.0000 65.9235 0.0000 -29.3217
# 5 -13.7754 -13.3007 -33.5003 0.0000 56.3656 0.0000
# 6 0.0000 0.0000 0.0000 -29.3217 0.0000 36.3514
#
#
#
# Elastic Compliance Matrix: (Units=1/GPa)
#
#
# Indices 1 2 3 4 5 6 
#
# 1 0.014409 -0.000676 -0.002291 0.000000 0.002000 0.000000
# 2 -0.000676 0.012220 -0.001376 0.000000 0.001900 0.000000
# 3 -0.002291 -0.001376 0.005842 0.000000 0.002587 0.000000
# 4 0.000000 0.000000 0.000000 0.023656 0.000000 0.019082
# 5 0.002000 0.001900 0.002587 0.000000 0.020216 0.000000
# 6 0.000000 0.000000 0.000000 0.019082 0.000000 0.042901
#
#
# Mechanical properties :
#
#
# Convention : Reuss Voigt Hill
#
# Bulk Modulus (GPa) = 42.04527 59.65191 50.84859
# Shear Modulus (GPa) = 36.80334 51.30844 44.05589
#
# Velocity S-wave (km/s) = 3.76124 4.44102 4.11519
# Velocity P-wave (km/s) = 5.91815 7.01617 6.49042
#
# Compressibility (1/GPa) = 0.02378389
#
# Stress axis : x y z
#
# Youngs Moduli (GPa) = 69.40328 81.83579 171.18506
#
# Poissons Ratio (x) = 0.05532 0.39212
# Poissons Ratio (y) = 0.04691 0.23561
# Poissons Ratio (z) = 0.15898 0.11263
#
# Static dielectric constant tensor:
#      x y z
#    x 2.404730 0.000000 -0.062960 
#    y 0.000000 2.039960 0.000000 
#    z -0.062960 0.000000 2.122410 
# 
# From -- ./inp_files/21812.got.cif
#   From: 2010.05.17/outbox.cif.g08.bks.cpg/sg12_11_cif.got.tgz:21812.got - 2010.06.03 13:09:07.
