data_PCOD9211964
_publ_section_title
;
Structure prediction by ZEFSAII (Michael W. Deem and Ramdas Pophale) SiO2 
 PCOD9211964
Probable space group: C 2/M
;
_chemical_formula_sum "Si O2"
_cell_formula_units_Z 40
_cell_length_a 16.086498
_cell_length_b 15.260908
_cell_length_c 8.267909
_cell_angle_alpha 90.000000
_cell_angle_beta 64.143840
_cell_angle_gamma 90.000000
_cell_volume 1826.534311
_symmetry_space_group_name_H-M "C 2/M"
_symmetry_group_IT_number 12
_symmetry_cell_setting 'monoclinic'
loop_
_space_group_symop_operation_xyz
x,y,z
-x,y,-z
-x,-y,-z
x,-y,z
1/2+x,1/2+y,z
1/2-x,1/2+y,-z
1/2-x,1/2-y,-z
1/2+x,1/2-y,z
loop_
_atom_site_type_symbol
_atom_site_label
_atom_site_fract_x
_atom_site_fract_y
_atom_site_fract_z
Si Si1 0.836888 0.337953 0.864584
Si Si2 0.939024 0.101474 0.290165
Si Si3 0.151075 0.738819 0.502107
Si Si4 0.864056 0.846162 0.000270
Si Si5 0.025277 0.402813 0.791418
O O1 0.835489 0.295038 0.689215
O O2 0.855050 0.258454 0.975732
O O3 0.925169 0.399453 0.793264
O O4 0.736085 0.380049 0.971779
O O5 0.900427 0.168293 0.453764
O O6 0.047657 0.118166 0.170547
O O7 0.921739 0.000000 0.337366
O O8 0.887754 0.129218 0.165305
O O9 0.250000 0.750000 0.500000
O O10 0.089250 0.670796 0.657896
O O11 0.066900 0.500000 0.741468
O O12 0.000000 0.386600 0.000000
#
# Coordination Sequence:
#
# PCOD9211964 Si02
#       5
#     8   8   8   8   8
#     4  11  23  40  71 101 131 177 220 272 339 398
#     4  11  23  43  68  97 134 177 222 271 329 393
#     4  12  25  43  68  96 138 174 219 275 334 394
#     4  10  21  40  68  97 131 174 223 265 328 400
#     4  11  26  47  71  98 133 176 225 280 337 399
#
# _framework density 21.899397
#
# number of rings (size 3 to 8) (size 9 to 14) (size 15 to 20)
#    0.000    1.000    4.000    3.000    2.800    4.000 
#    0.000    3.000    0.000    0.000    0.000    0.000 
#    0.000    0.000    0.000    0.000    0.000    0.000 
#
# Total GULP energy -111879.470523 kJ/mol
# GULP energy per Si atom -5593.973526 kJ/mol
# Density = 2.184955 g / cm^3
# Si number density = 21.899397 Si / 1000 Ang^3
#
#
#
# Elastic Constant Matrix: (Units=GPa)
#
#
# Indices 1 2 3 4 5 6 
#
# 1 139.1091 54.1526 31.5445 0.0000 -20.0400 0.0000
# 2 54.1526 126.6743 41.9169 0.0000 -13.0600 0.0000
# 3 31.5445 41.9169 58.7818 0.0000 -5.3696 0.0000
# 4 0.0000 0.0000 0.0000 -8.2311 0.0000 8.9395
# 5 -20.0400 -13.0600 -5.3696 0.0000 36.5619 0.0000
# 6 0.0000 0.0000 0.0000 8.9395 0.0000 11.7957
#
#
#
# Elastic Compliance Matrix: (Units=1/GPa)
#
#
# Indices 1 2 3 4 5 6 
#
# 1 0.009421 -0.002721 -0.002770 0.000000 0.003785 0.000000
# 2 -0.002721 0.011377 -0.006505 0.000000 0.001617 0.000000
# 3 -0.002770 -0.006505 0.023096 0.000000 -0.000450 0.000000
# 4 0.000000 0.000000 0.000000 -0.066640 0.000000 0.050504
# 5 0.003785 0.001617 -0.000450 0.000000 0.029937 0.000000
# 6 0.000000 0.000000 0.000000 0.050504 0.000000 0.046502
#
#
# Mechanical properties :
#
#
# Convention : Reuss Voigt Hill
#
# Bulk Modulus (GPa) = 50.24388 64.42147 57.33267
# Shear Modulus (GPa) = 59.29959 21.15537 40.22748
#
# Velocity S-wave (km/s) = 5.20932 3.11147 4.29058
# Velocity P-wave (km/s) = 7.69256 6.51070 7.12617
#
# Compressibility (1/GPa) = 0.01990292
#
# Stress axis : x y z
#
# Youngs Moduli (GPa) = 106.14479 87.90040 43.29771
#
# Poissons Ratio (x) = 0.23915 0.11993
# Poissons Ratio (y) = 0.28878 0.28164
# Poissons Ratio (z) = 0.29400 0.57177
#
# Static dielectric constant tensor:
#      x y z
#    x 1.836650 0.000000 0.011490 
#    y 0.000000 1.792410 0.000000 
#    z 0.011490 0.000000 1.782430 
# 
# From -- ./inp_files/58935.got.cif
#   From: 2010.05.17/outbox.cif.g08.bks.cpg/sg12_30_cif.got.tgz:58935.got - 2010.06.03 13:09:07.
