data_PCOD9211926
_publ_section_title
;
Structure prediction by ZEFSAII (Michael W. Deem and Ramdas Pophale) SiO2 
 PCOD9211926
Probable space group: C 2/M
;
_chemical_formula_sum "Si O2"
_cell_formula_units_Z 36
_cell_length_a 10.305054
_cell_length_b 29.756565
_cell_length_c 5.025465
_cell_angle_alpha 90.000000
_cell_angle_beta 81.356900
_cell_angle_gamma 90.000000
_cell_volume 1523.523252
_symmetry_space_group_name_H-M "C 2/M"
_symmetry_group_IT_number 12
_symmetry_cell_setting 'monoclinic'
loop_
_space_group_symop_operation_xyz
x,y,z
-x,y,-z
-x,-y,-z
x,-y,z
1/2+x,1/2+y,z
1/2-x,1/2+y,-z
1/2-x,1/2-y,-z
1/2+x,1/2-y,z
loop_
_atom_site_type_symbol
_atom_site_label
_atom_site_fract_x
_atom_site_fract_y
_atom_site_fract_z
Si Si1 0.000000 0.641744 0.000000
Si Si2 0.146640 0.187912 0.355074
Si Si3 0.769502 0.595411 0.311940
Si Si4 0.865755 0.716196 0.714689
Si Si5 0.648728 0.552030 0.870702
O O1 0.895996 0.676372 0.906876
O O2 0.079812 0.611387 0.765776
O O3 0.186958 0.139105 0.246340
O O4 0.148226 0.232756 0.173551
O O5 0.247230 0.201383 0.560492
O O6 0.000000 0.183420 0.500000
O O7 0.715563 0.580727 0.615022
O O8 0.736999 0.557724 0.105691
O O9 0.000000 0.717998 0.500000
O O10 0.642307 0.500000 0.786679
O O11 0.500000 0.565362 0.000000
#
# Coordination Sequence:
#
# PCOD9211926 Si02
#       5
#     4   8   8   8   8
#     4  12  26  42  69 100 152 206 237 290 362 442
#     4  10  21  40  67  99 138 186 255 307 350 425
#     4  12  25  44  72 107 142 191 247 297 364 450
#     4  10  21  43  62  94 145 202 244 293 364 420
#     4  11  25  48  77 107 141 179 234 314 387 436
#
# _framework density 23.629435999999998
#
# number of rings (size 3 to 8) (size 9 to 14) (size 15 to 20)
#    0.000    1.111    2.222    4.000    0.000    2.667 
#   10.000    3.333    0.000    0.000    0.000    0.000 
#    0.000    0.000    0.000    0.000    0.000    0.000 
#
# Total GULP energy -100663.545187 kJ/mol
# GULP energy per Si atom -5592.419177 kJ/mol
# Density = 2.357565 g / cm^3
# Si number density = 23.629436 Si / 1000 Ang^3
#
#
#
# Elastic Constant Matrix: (Units=GPa)
#
#
# Indices 1 2 3 4 5 6 
#
# 1 113.0407 31.3992 21.0236 0.0000 -12.5889 0.0000
# 2 31.3992 102.5831 41.6183 0.0000 -24.2527 0.0000
# 3 21.0236 41.6183 111.3088 0.0000 -22.2547 0.0000
# 4 0.0000 0.0000 0.0000 27.0076 0.0000 10.2200
# 5 -12.5889 -24.2527 -22.2547 0.0000 39.1655 0.0000
# 6 0.0000 0.0000 0.0000 10.2200 0.0000 23.3679
#
#
#
# Elastic Compliance Matrix: (Units=1/GPa)
#
#
# Indices 1 2 3 4 5 6 
#
# 1 0.009787 -0.002417 -0.000694 0.000000 0.001255 0.000000
# 2 -0.002417 0.013143 -0.003368 0.000000 0.005447 0.000000
# 3 -0.000694 -0.003368 0.011183 0.000000 0.004046 0.000000
# 4 0.000000 0.000000 0.000000 0.044370 0.000000 -0.019405
# 5 0.001255 0.005447 0.004046 0.000000 0.031608 0.000000
# 6 0.000000 0.000000 0.000000 -0.019405 0.000000 0.051281
#
#
# Mechanical properties :
#
#
# Convention : Reuss Voigt Hill
#
# Bulk Modulus (GPa) = 47.27348 57.22388 52.24868
# Shear Modulus (GPa) = 27.56626 33.43430 30.50028
#
# Velocity S-wave (km/s) = 3.41927 3.76565 3.59663
# Velocity P-wave (km/s) = 5.96977 6.57089 6.27753
#
# Compressibility (1/GPa) = 0.02115351
#
# Stress axis : x y z
#
# Youngs Moduli (GPa) = 102.18048 76.08887 89.41862
#
# Poissons Ratio (x) = 0.18394 0.06203
# Poissons Ratio (y) = 0.24702 0.30118
# Poissons Ratio (z) = 0.07089 0.25629
#
# Static dielectric constant tensor:
#      x y z
#    x 1.980390 0.000000 -0.168160 
#    y 0.000000 1.917230 0.000000 
#    z -0.168160 0.000000 2.187980 
# 
# From -- ./inp_files/7498.got.cif
#   From: 2010.05.17/outbox.cif.g08.bks.cpg/sg12_4_cif.got.tgz:7498.got - 2010.06.03 13:09:07.
