data_PCOD9211795
_publ_section_title
;
Structure prediction by ZEFSAII (Michael W. Deem and Ramdas Pophale) SiO2 
 PCOD9211795
Probable space group: C 2/M
;
_chemical_formula_sum "Si O2"
_cell_formula_units_Z 64
_cell_length_a 32.771571
_cell_length_b 9.395432
_cell_length_c 20.327434
_cell_angle_alpha 90.000000
_cell_angle_beta 30.869687
_cell_angle_gamma 90.000000
_cell_volume 3211.350908
_symmetry_space_group_name_H-M "C 2/M"
_symmetry_group_IT_number 12
_symmetry_cell_setting 'monoclinic'
loop_
_space_group_symop_operation_xyz
x,y,z
-x,y,-z
-x,-y,-z
x,-y,z
1/2+x,1/2+y,z
1/2-x,1/2+y,-z
1/2-x,1/2-y,-z
1/2+x,1/2-y,z
loop_
_atom_site_type_symbol
_atom_site_label
_atom_site_fract_x
_atom_site_fract_y
_atom_site_fract_z
Si Si1 0.939755 0.832150 0.644040
Si Si2 0.271129 0.342694 0.532570
Si Si3 0.675944 0.168640 0.902638
Si Si4 0.256379 0.330267 0.921575
Si Si5 0.974826 0.331066 0.362023
Si Si6 0.688849 0.669494 0.386404
Si Si7 0.462330 0.668378 0.983141
Si Si8 0.460345 0.343271 0.258877
O O1 0.844972 0.812573 0.767514
O O2 0.000000 0.799285 0.500000
O O3 0.963771 0.734764 0.671868
O O4 0.952914 0.000000 0.640726
O O5 0.236622 0.500000 0.572212
O O6 0.250000 0.250000 0.500000
O O7 0.254956 0.291195 0.628859
O O8 0.366570 0.349855 0.400427
O O9 0.691738 0.215888 0.955952
O O10 0.759996 0.185948 0.749267
O O11 0.611916 0.251033 0.947040
O O12 0.656662 0.000000 0.929588
O O13 0.245941 0.500000 0.946717
O O14 0.250000 0.250000 0.000000
O O15 0.972460 0.500000 0.366903
O O16 0.889976 0.263234 0.501099
O O17 0.992432 0.274118 0.264248
O O18 0.669054 0.500000 0.420052
O O19 0.443318 0.500000 0.017669
O O20 0.500000 0.719349 0.000000
O O21 0.526633 0.682554 0.835815
O O22 0.494646 0.500000 0.227222
#
# Coordination Sequence:
#
# PCOD9211795 Si02
#       8
#     8   8   8   8   8   8   8   8
#     4  10  21  40  66  90 119 165 211 248 301 377
#     4   9  18  31  52  79 107 143 185 238 295 351
#     4  10  22  41  64  89 120 158 203 251 298 358
#     4  10  23  41  63  92 125 163 206 254 308 370
#     4  11  22  35  58  92 123 152 194 255 304 345
#     4   9  19  38  59  81 115 159 199 237 296 369
#     4  10  23  41  62  88 118 158 204 250 302 359
#     4   9  20  39  57  77 114 159 198 236 292 369
#
# _framework density 19.929307000000001
#
# number of rings (size 3 to 8) (size 9 to 14) (size 15 to 20)
#    0.000    2.250    0.000    2.625    3.500    6.500 
#    0.000    1.250    0.000    0.000    0.000    0.000 
#    0.000    0.000    0.000    0.000    0.000    0.000 
#
# Total GULP energy -178425.609884 kJ/mol
# GULP energy per Si atom -5575.800309 kJ/mol
# Density = 1.988395 g / cm^3
# Si number density = 19.929307 Si / 1000 Ang^3
#
#
#
# Elastic Constant Matrix: (Units=GPa)
#
#
# Indices 1 2 3 4 5 6 
#
# 1 162.0025 70.1305 35.7884 0.0004 23.2712 0.0004
# 2 70.1305 59.9602 17.6880 0.0021 10.9318 0.0005
# 3 35.7884 17.6880 68.8844 0.0001 17.7101 0.0012
# 4 0.0004 0.0021 0.0001 15.3907 -0.0003 -6.3170
# 5 23.2712 10.9318 17.7101 -0.0003 26.5522 -0.0002
# 6 0.0004 0.0005 0.0012 -6.3170 -0.0002 29.1439
#
#
#
# Elastic Compliance Matrix: (Units=1/GPa)
#
#
# Indices 1 2 3 4 5 6 
#
# 1 0.013503 -0.014333 -0.002184 0.000002 -0.004477 0.000000
# 2 -0.014333 0.033882 -0.001083 -0.000005 -0.000666 -0.000001
# 3 -0.002184 -0.001083 0.018495 0.000000 -0.009976 -0.000001
# 4 0.000002 -0.000005 0.000000 0.071319 0.000002 0.015459
# 5 -0.004477 -0.000666 -0.009976 0.000002 0.048513 0.000001
# 6 0.000000 -0.000001 -0.000001 0.015459 0.000001 0.037663
#
#
# Mechanical properties :
#
#
# Convention : Reuss Voigt Hill
#
# Bulk Modulus (GPa) = 32.59340 59.78455 46.18897
# Shear Modulus (GPa) = 18.60110 25.36670 21.98390
#
# Velocity S-wave (km/s) = 3.05840 3.57155 3.32489
# Velocity P-wave (km/s) = 5.37231 6.86086 6.16170
#
# Compressibility (1/GPa) = 0.03068106
#
# Stress axis : x y z
#
# Youngs Moduli (GPa) = 74.05806 29.51388 54.07007
#
# Poissons Ratio (x) = 0.42302 0.11809
# Poissons Ratio (y) = 1.06146 0.05853
# Poissons Ratio (z) = 0.16175 0.03195
#
# Static dielectric constant tensor:
#      x y z
#    x 1.740440 0.000000 0.011940 
#    y 0.000000 1.688140 0.000000 
#    z 0.011940 0.000000 1.754930 
# 
# From -- ./inp_files/295599.got.cif
#   From: 2010.05.17/outbox.cif.g08.bks.cpg/sg12_148_cif.got.tgz:295599.got - 2010.06.03 13:09:07.
