data_PCOD9211150
_publ_section_title
;
Structure prediction by ZEFSAII (Michael W. Deem and Ramdas Pophale) SiO2 
 PCOD9211150
Probable space group: C 2/M
;
_chemical_formula_sum "Si O2"
_cell_formula_units_Z 40
_cell_length_a 11.717357
_cell_length_b 26.612747
_cell_length_c 5.405456
_cell_angle_alpha 90.000000
_cell_angle_beta 100.545239
_cell_angle_gamma 90.000000
_cell_volume 1657.120663
_symmetry_space_group_name_H-M "C 2/M"
_symmetry_group_IT_number 12
_symmetry_cell_setting 'monoclinic'
loop_
_space_group_symop_operation_xyz
x,y,z
-x,y,-z
-x,-y,-z
x,-y,z
1/2+x,1/2+y,z
1/2-x,1/2+y,-z
1/2-x,1/2-y,-z
1/2+x,1/2-y,z
loop_
_atom_site_type_symbol
_atom_site_label
_atom_site_fract_x
_atom_site_fract_y
_atom_site_fract_z
Si Si1 0.171842 0.440807 0.507960
Si Si2 0.811698 0.804577 0.003935
Si Si3 0.058308 0.060668 0.273653
Si Si4 0.380067 0.113909 0.031813
Si Si5 0.620364 0.724648 0.472425
O O1 0.151510 0.500000 0.471361
O O2 0.304499 0.432466 0.650616
O O3 0.100862 0.420322 0.717661
O O4 0.157607 0.415672 0.232064
O O5 0.866332 0.812903 0.293517
O O6 0.750000 0.750000 0.000000
O O7 0.713075 0.845292 0.928499
O O8 0.892098 0.800837 0.797616
O O9 0.000000 0.079950 0.500000
O O10 0.039210 0.000000 0.262430
O O11 0.000000 0.080744 0.000000
O O12 0.500000 0.139732 0.000000
O O13 0.500000 0.753858 0.500000
O O14 0.750000 0.750000 0.500000
#
# Coordination Sequence:
#
# PCOD9211150 Si02
#       5
#     8   8   8   8   8
#     4  11  24  43  68 102 140 179 231 288 346 423
#     4  10  23  43  67  96 132 177 232 287 342 409
#     4   9  17  33  59  88 121 166 215 267 333 401
#     4  12  26  44  68  99 137 186 237 287 354 429
#     4  10  21  39  67 101 137 179 227 282 350 420
#
# _framework density 24.138255000000001
#
# number of rings (size 3 to 8) (size 9 to 14) (size 15 to 20)
#    0.000    1.600    0.000    4.200    0.000   12.000 
#    0.000   10.000    0.000    0.000    0.000    0.000 
#    0.000    0.000    0.000    0.000    0.000    0.000 
#
# Total GULP energy -111710.123475 kJ/mol
# GULP energy per Si atom -5585.506174 kJ/mol
# Density = 2.408332 g / cm^3
# Si number density = 24.138255 Si / 1000 Ang^3
#
#
#
# Elastic Constant Matrix: (Units=GPa)
#
#
# Indices 1 2 3 4 5 6 
#
# 1 148.7656 26.9835 51.9470 0.0000 -31.1385 0.0000
# 2 26.9835 92.9471 35.4913 0.0000 -9.0914 0.0000
# 3 51.9470 35.4913 221.1645 0.0000 -30.7797 0.0000
# 4 0.0000 0.0000 0.0000 20.1960 0.0000 4.3230
# 5 -31.1385 -9.0914 -30.7797 0.0000 46.7565 0.0000
# 6 0.0000 0.0000 0.0000 4.3230 0.0000 15.5084
#
#
#
# Elastic Compliance Matrix: (Units=1/GPa)
#
#
# Indices 1 2 3 4 5 6 
#
# 1 0.008330 -0.001564 -0.001074 0.000000 0.004536 0.000000
# 2 -0.001564 0.011808 -0.001489 0.000000 0.000274 0.000000
# 3 -0.001074 -0.001489 0.005364 0.000000 0.002526 0.000000
# 4 0.000000 0.000000 0.000000 0.052657 0.000000 -0.014678
# 5 0.004536 0.000274 0.002526 0.000000 0.026125 0.000000
# 6 0.000000 0.000000 0.000000 -0.014678 0.000000 0.068573
#
#
# Mechanical properties :
#
#
# Convention : Reuss Voigt Hill
#
# Bulk Modulus (GPa) = 57.98090 76.85787 67.41939
# Shear Modulus (GPa) = 26.75760 39.72255 33.24007
#
# Velocity S-wave (km/s) = 3.33305 4.06103 3.71492
# Velocity P-wave (km/s) = 6.23576 7.34160 6.81116
#
# Compressibility (1/GPa) = 0.01724706
#
# Stress axis : x y z
#
# Youngs Moduli (GPa) = 120.04233 84.68491 186.41232
#
# Poissons Ratio (x) = 0.13249 0.20025
# Poissons Ratio (y) = 0.18780 0.27764
# Poissons Ratio (z) = 0.12895 0.12613
#
# Static dielectric constant tensor:
#      x y z
#    x 1.974210 0.000000 0.018940 
#    y 0.000000 1.891590 0.000000 
#    z 0.018940 0.000000 1.978730 
# 
# From -- ./inp_files/8526.got.cif
#   From: 2010.05.17/outbox.cif.g08.bks.cpg/sg12_5_cif.got.tgz:8526.got - 2010.06.03 13:09:07.
