data_PCOD9211685
_publ_section_title
;
Structure prediction by ZEFSAII (Michael W. Deem and Ramdas Pophale) SiO2 
 PCOD9211685
Probable space group: C 2/M
;
_chemical_formula_sum "Si O2"
_cell_formula_units_Z 48
_cell_length_a 16.678219
_cell_length_b 23.822197
_cell_length_c 11.850113
_cell_angle_alpha 90.000000
_cell_angle_beta 151.126721
_cell_angle_gamma 90.000000
_cell_volume 2273.462705
_symmetry_space_group_name_H-M "C 2/M"
_symmetry_group_IT_number 12
_symmetry_cell_setting 'monoclinic'
loop_
_space_group_symop_operation_xyz
x,y,z
-x,y,-z
-x,-y,-z
x,-y,z
1/2+x,1/2+y,z
1/2-x,1/2+y,-z
1/2-x,1/2-y,-z
1/2+x,1/2-y,z
loop_
_atom_site_type_symbol
_atom_site_label
_atom_site_fract_x
_atom_site_fract_y
_atom_site_fract_z
Si Si1 0.917850 0.654213 0.097669
Si Si2 0.920715 0.236158 0.773850
Si Si3 0.763887 0.641558 0.350783
Si Si4 0.409869 0.565920 0.682984
Si Si5 0.188674 0.932964 0.686874
Si Si6 0.819061 0.851485 0.996819
O O1 0.976761 0.706267 0.094020
O O2 0.074044 0.640441 0.371222
O O3 0.830656 0.603987 0.921674
O O4 0.780482 0.671166 0.020287
O O5 0.750000 0.250000 0.500000
O O6 0.838540 0.200390 0.773241
O O7 0.032023 0.192124 0.841986
O O8 0.648998 0.596728 0.275440
O O9 0.788714 0.636119 0.248205
O O10 0.409957 0.500000 0.700632
O O11 0.304056 0.578460 0.439237
O O12 0.590165 0.589305 0.871424
O O13 0.000000 0.919629 0.500000
O O14 0.211888 0.000000 0.733027
#
# Coordination Sequence:
#
# PCOD9211685 Si02
#       6
#     8   8   8   8   8   8
#     4  11  22  40  64  91 119 167 210 251 314 372
#     4   9  20  40  60  85 123 161 207 252 303 367
#     4  10  23  41  59  90 130 159 202 262 308 363
#     4  10  21  40  65  89 124 167 207 250 310 370
#     4  10  21  41  64  92 126 160 206 265 310 363
#     4  11  21  40  63  91 126 163 203 260 310 366
#
# _framework density 21.113167000000001
#
# number of rings (size 3 to 8) (size 9 to 14) (size 15 to 20)
#    0.000    1.833    1.667    3.000    0.000    2.667 
#   24.000    1.667    0.000    3.000    0.000    0.000 
#    0.000    0.000    0.000    0.000    0.000    0.000 
#
# Total GULP energy -133741.105854 kJ/mol
# GULP energy per Si atom -5572.546077 kJ/mol
# Density = 2.106511 g / cm^3
# Si number density = 21.113167 Si / 1000 Ang^3
#
#
#
# Elastic Constant Matrix: (Units=GPa)
#
#
# Indices 1 2 3 4 5 6 
#
# 1 89.2050 31.4493 29.0584 0.0000 -10.0863 0.0000
# 2 31.4493 88.0498 59.0030 0.0000 -11.5388 0.0000
# 3 29.0584 59.0030 121.3695 0.0000 -7.2556 0.0000
# 4 0.0000 0.0000 0.0000 38.7423 0.0000 4.9561
# 5 -10.0863 -11.5388 -7.2556 0.0000 33.8807 0.0000
# 6 0.0000 0.0000 0.0000 4.9561 0.0000 13.2051
#
#
#
# Elastic Compliance Matrix: (Units=1/GPa)
#
#
# Indices 1 2 3 4 5 6 
#
# 1 0.013145 -0.003506 -0.001297 0.000000 0.002441 0.000000
# 2 -0.003506 0.018343 -0.007867 0.000000 0.003518 0.000000
# 3 -0.001297 -0.007867 0.012349 0.000000 -0.000421 0.000000
# 4 0.000000 0.000000 0.000000 0.027113 0.000000 -0.010176
# 5 0.002441 0.003518 -0.000421 0.000000 0.031350 0.000000
# 6 0.000000 0.000000 0.000000 -0.010176 0.000000 0.079548
#
#
# Mechanical properties :
#
#
# Convention : Reuss Voigt Hill
#
# Bulk Modulus (GPa) = 54.06510 59.73839 56.90175
# Shear Modulus (GPa) = 23.43532 29.10654 26.27093
#
# Velocity S-wave (km/s) = 3.33526 3.71697 3.53128
# Velocity P-wave (km/s) = 6.36355 6.83937 6.60575
#
# Compressibility (1/GPa) = 0.01849622
#
# Stress axis : x y z
#
# Youngs Moduli (GPa) = 76.07664 54.51806 80.97655
#
# Poissons Ratio (x) = 0.19114 0.10500
# Poissons Ratio (y) = 0.26673 0.63707
# Poissons Ratio (z) = 0.09865 0.42891
#
# Static dielectric constant tensor:
#      x y z
#    x 1.813680 0.000000 -0.038390 
#    y 0.000000 1.757800 0.000000 
#    z -0.038390 0.000000 1.853530 
# 
# From -- ./inp_files/160528.got.cif
#   From: 2010.05.17/outbox.cif.g08.bks.cpg/sg12_81_cif.got.tgz:160528.got - 2010.06.03 13:09:07.
