data_PCOD9211353
_publ_section_title
;
Structure prediction by ZEFSAII (Michael W. Deem and Ramdas Pophale) SiO2 
 PCOD9211353
Probable space group: C 2/M
;
_chemical_formula_sum "Si O2"
_cell_formula_units_Z 48
_cell_length_a 10.080203
_cell_length_b 17.897818
_cell_length_c 15.146776
_cell_angle_alpha 90.000000
_cell_angle_beta 107.207907
_cell_angle_gamma 90.000000
_cell_volume 2610.363283
_symmetry_space_group_name_H-M "C 2/M"
_symmetry_group_IT_number 12
_symmetry_cell_setting 'monoclinic'
loop_
_space_group_symop_operation_xyz
x,y,z
-x,y,-z
-x,-y,-z
x,-y,z
1/2+x,1/2+y,z
1/2-x,1/2+y,-z
1/2-x,1/2-y,-z
1/2+x,1/2-y,z
loop_
_atom_site_type_symbol
_atom_site_label
_atom_site_fract_x
_atom_site_fract_y
_atom_site_fract_z
Si Si1 0.422750 0.584881 0.078372
Si Si2 0.087192 0.324061 0.765480
Si Si3 0.084627 0.341257 0.432705
Si Si4 0.874033 0.409873 0.042598
Si Si5 0.102618 0.822820 0.249465
Si Si6 0.611905 0.659318 0.451948
O O1 0.402551 0.500000 0.104766
O O2 0.522912 0.625341 0.165415
O O3 0.500000 0.584557 0.000000
O O4 0.269416 0.617192 0.030773
O O5 0.105910 0.370302 0.859121
O O6 0.239384 0.307236 0.752653
O O7 0.995193 0.363747 0.671463
O O8 0.994318 0.250779 0.766063
O O9 0.242792 0.362994 0.476327
O O10 0.092487 0.250039 0.441228
O O11 0.000000 0.368447 0.500000
O O12 0.863613 0.500000 0.053868
O O13 0.000000 0.395320 0.000000
O O14 0.106509 0.860367 0.347459
O O15 0.500000 0.631693 0.500000
#
# Coordination Sequence:
#
# PCOD9211353 Si02
#       6
#     8   8   8   8   8   8
#     4  10  21  40  62  79 105 149 192 225 268 336
#     4  11  23  35  56  86 116 145 182 233 278 323
#     4   9  16  30  49  74 110 146 180 216 266 327
#     4  10  23  42  61  81 108 147 189 227 275 334
#     4  11  23  35  55  88 115 143 186 230 280 323
#     4   9  18  30  50  77 111 146 182 219 268 328
#
# _framework density 18.388245000000001
#
# number of rings (size 3 to 8) (size 9 to 14) (size 15 to 20)
#    0.000    2.000    3.333    0.000    9.333    1.333 
#    0.000    0.000    0.000    2.000    0.000    0.000 
#    0.000    0.000    0.000    0.000    0.000    0.000 
#
# Total GULP energy -133719.082014 kJ/mol
# GULP energy per Si atom -5571.628417 kJ/mol
# Density = 1.834639 g / cm^3
# Si number density = 18.388245 Si / 1000 Ang^3
#
#
#
# Elastic Constant Matrix: (Units=GPa)
#
#
# Indices 1 2 3 4 5 6 
#
# 1 172.8148 23.0794 80.5312 0.0000 13.8577 0.0000
# 2 23.0794 14.6824 34.8309 0.0000 1.9689 0.0000
# 3 80.5312 34.8309 157.8814 0.0000 12.3231 0.0000
# 4 0.0000 0.0000 0.0000 -30.5268 0.0000 -1.3503
# 5 13.8577 1.9689 12.3231 0.0000 35.6120 0.0000
# 6 0.0000 0.0000 0.0000 -1.3503 0.0000 -30.2368
#
#
#
# Elastic Compliance Matrix: (Units=1/GPa)
#
#
# Indices 1 2 3 4 5 6 
#
# 1 0.007950 -0.006236 -0.002533 0.000000 -0.001872 0.000000
# 2 -0.006236 0.148119 -0.029853 0.000000 0.004568 0.000000
# 3 -0.002533 -0.029853 0.014395 0.000000 -0.002345 0.000000
# 4 0.000000 0.000000 0.000000 -0.032823 0.000000 0.001466
# 5 -0.001872 0.004568 -0.002345 0.000000 0.029368 0.000000
# 6 0.000000 0.000000 0.000000 0.001466 0.000000 -0.033138
#
#
# Mechanical properties :
#
#
# Convention : Reuss Voigt Hill
#
# Bulk Modulus (GPa) = 10.72737 69.14018 39.93378
# Shear Modulus (GPa) = 20.64508 8.76548 14.70528
#
# Velocity S-wave (km/s) = 3.35436 2.18569 2.83098
# Velocity P-wave (km/s) = 4.56604 6.63713 5.69650
#
# Compressibility (1/GPa) = 0.09321952
#
# Stress axis : x y z
#
# Youngs Moduli (GPa) = 125.78679 6.75133 69.46897
#
# Poissons Ratio (x) = 0.04210 0.17597
# Poissons Ratio (y) = 0.78445 2.07384
# Poissons Ratio (z) = 0.31863 0.20155
#
# Static dielectric constant tensor:
#      x y z
#    x 1.617630 0.000000 0.003580 
#    y 0.000000 1.636910 0.000000 
#    z 0.003580 0.000000 1.634070 
# 
# From -- ./inp_files/197168.got.cif
#   From: 2010.05.17/outbox.cif.g08.bks.cpg/sg12_99_cif.got.tgz:197168.got - 2010.06.03 13:09:07.
