data_PCOD9211675
_publ_section_title
;
Structure prediction by ZEFSAII (Michael W. Deem and Ramdas Pophale) SiO2 
 PCOD9211675
Probable space group: C 2/M
;
_chemical_formula_sum "Si O2"
_cell_formula_units_Z 64
_cell_length_a 30.098582
_cell_length_b 8.997675
_cell_length_c 14.961149
_cell_angle_alpha 90.000000
_cell_angle_beta 127.748536
_cell_angle_gamma 90.000000
_cell_volume 3203.729867
_symmetry_space_group_name_H-M "C 2/M"
_symmetry_group_IT_number 12
_symmetry_cell_setting 'monoclinic'
loop_
_space_group_symop_operation_xyz
x,y,z
-x,y,-z
-x,-y,-z
x,-y,z
1/2+x,1/2+y,z
1/2-x,1/2+y,-z
1/2-x,1/2-y,-z
1/2+x,1/2-y,z
loop_
_atom_site_type_symbol
_atom_site_label
_atom_site_fract_x
_atom_site_fract_y
_atom_site_fract_z
Si Si1 0.907777 0.820710 0.750460
Si Si2 0.066539 0.666956 0.580237
Si Si3 0.463141 0.324951 0.098755
Si Si4 0.905794 0.170422 0.208356
Si Si5 0.799649 0.326504 0.113300
Si Si6 0.128510 0.176929 0.496320
Si Si7 0.139964 0.678347 0.134536
Si Si8 0.768572 0.177037 0.256623
O O1 0.885965 0.786549 0.623797
O O2 0.871360 0.740167 0.780367
O O3 0.973424 0.776383 0.844342
O O4 0.905090 0.000000 0.758152
O O5 0.089960 0.500000 0.628201
O O6 0.077766 0.785219 0.671946
O O7 0.090320 0.728594 0.516857
O O8 0.000000 0.652975 0.500000
O O9 0.458649 0.500000 0.069890
O O10 0.453907 0.311709 0.194129
O O11 0.411408 0.242562 0.987776
O O12 0.855192 0.282170 0.127628
O O13 0.886181 0.000000 0.179945
O O14 0.791788 0.500000 0.107150
O O15 0.798753 0.259500 0.211848
O O16 0.750000 0.250000 0.000000
O O17 0.192924 0.202112 0.608113
O O18 0.117111 0.000000 0.494367
O O19 0.137847 0.500000 0.130280
O O20 0.203325 0.723435 0.183613
O O21 0.769458 0.000000 0.239669
#
# Coordination Sequence:
#
# PCOD9211675 Si02
#       8
#     8   8   8   8   8   8   8   8
#     4  10  22  41  64  90 118 156 207 259 309 366
#     4  11  23  37  56  88 127 162 200 249 301 358
#     4  10  22  40  62  89 121 157 205 257 304 366
#     4  11  22  38  61  89 120 158 203 245 299 363
#     4  12  24  38  59  88 123 161 203 248 302 361
#     4  10  21  40  65  88 118 162 209 254 305 367
#     4  11  24  40  61  90 122 158 202 255 316 371
#     4  10  22  41  62  88 123 161 205 255 304 366
#
# _framework density 19.976714000000001
#
# number of rings (size 3 to 8) (size 9 to 14) (size 15 to 20)
#    0.000    1.375    1.250    4.125    0.000    9.000 
#    0.000    0.000    0.000    0.000    0.000    0.000 
#    0.000    0.000    0.000    0.000    0.000    0.000 
#
# Total GULP energy -178737.971971 kJ/mol
# GULP energy per Si atom -5585.561624 kJ/mol
# Density = 1.993125 g / cm^3
# Si number density = 19.976714 Si / 1000 Ang^3
#
#
#
# Elastic Constant Matrix: (Units=GPa)
#
#
# Indices 1 2 3 4 5 6 
#
# 1 77.3956 28.6851 9.0187 0.0000 5.1140 0.0000
# 2 28.6851 54.8149 24.6214 0.0000 0.5756 0.0000
# 3 9.0187 24.6214 72.3784 0.0000 1.2264 0.0000
# 4 0.0000 0.0000 0.0000 23.8054 0.0000 -0.6041
# 5 5.1140 0.5756 1.2264 0.0000 35.4418 0.0000
# 6 0.0000 0.0000 0.0000 -0.6041 0.0000 27.5558
#
#
#
# Elastic Compliance Matrix: (Units=1/GPa)
#
#
# Indices 1 2 3 4 5 6 
#
# 1 0.016268 -0.008966 0.001061 0.000000 -0.002238 0.000000
# 2 -0.008966 0.026476 -0.007908 0.000000 0.001137 0.000000
# 3 0.001061 -0.007908 0.016384 0.000000 -0.000592 0.000000
# 4 0.000000 0.000000 0.000000 0.042031 0.000000 0.000921
# 5 -0.002238 0.001137 -0.000592 0.000000 0.028540 0.000000
# 6 0.000000 0.000000 0.000000 0.000921 0.000000 0.036310
#
#
# Mechanical properties :
#
#
# Convention : Reuss Voigt Hill
#
# Bulk Modulus (GPa) = 36.36280 36.58213 36.47247
# Shear Modulus (GPa) = 24.17752 26.84484 25.51118
#
# Velocity S-wave (km/s) = 3.48269 3.66977 3.57745
# Velocity P-wave (km/s) = 5.86637 6.02565 5.94654
#
# Compressibility (1/GPa) = 0.02750063
#
# Stress axis : x y z
#
# Youngs Moduli (GPa) = 61.47001 37.77048 61.03380
#
# Poissons Ratio (x) = 0.33866 -0.06476
# Poissons Ratio (y) = 0.55116 0.48268
# Poissons Ratio (z) = -0.06522 0.29871
#
# Static dielectric constant tensor:
#      x y z
#    x 1.678550 0.000000 0.040250 
#    y 0.000000 1.693090 0.000000 
#    z 0.040250 0.000000 1.686560 
# 
# From -- ./inp_files/250070.got.cif
#   From: 2010.05.17/outbox.cif.g08.bks.cpg/sg12_126_cif.got.tgz:250070.got - 2010.06.03 13:09:07.
