data_PCOD9211073
_publ_section_title
;
Structure prediction by ZEFSAII (Michael W. Deem and Ramdas Pophale) SiO2 
 PCOD9211073
Probable space group: C 2/M
;
_chemical_formula_sum "Si O2"
_cell_formula_units_Z 42
_cell_length_a 17.615376
_cell_length_b 15.236960
_cell_length_c 15.023492
_cell_angle_alpha 90.000000
_cell_angle_beta 154.634213
_cell_angle_gamma 90.000000
_cell_volume 1727.452786
_symmetry_space_group_name_H-M "C 2/M"
_symmetry_group_IT_number 12
_symmetry_cell_setting 'monoclinic'
loop_
_space_group_symop_operation_xyz
x,y,z
-x,y,-z
-x,-y,-z
x,-y,z
1/2+x,1/2+y,z
1/2-x,1/2+y,-z
1/2-x,1/2-y,-z
1/2+x,1/2-y,z
loop_
_atom_site_type_symbol
_atom_site_label
_atom_site_fract_x
_atom_site_fract_y
_atom_site_fract_z
Si Si1 0.704082 0.142064 0.201208
Si Si2 0.100858 0.392530 0.903745
Si Si3 0.354595 0.605780 0.015839
Si Si4 0.000000 0.000000 0.500000
Si Si5 0.697599 0.833870 0.669365
Si Si6 0.233610 0.102782 0.452117
O O1 0.745085 0.234469 0.288684
O O2 0.859434 0.075089 0.386791
O O3 0.500000 0.112320 0.000000
O O4 0.705912 0.150598 0.095556
O O5 0.112704 0.500000 0.928030
O O6 0.193450 0.370020 0.909117
O O7 0.896907 0.363809 0.683249
O O8 0.364151 0.500000 0.026171
O O9 0.324342 0.633679 0.882939
O O10 0.537506 0.641088 0.251011
O O11 0.500000 0.838024 0.500000
O O12 0.714184 0.888060 0.596441
O O13 0.222526 0.000000 0.462795
#
# Coordination Sequence:
#
# PCOD9211073 Si02
#       6
#     8   8   8   2   8   8
#     4  12  27  48  70  97 129 174 225 276 331 393
#     4  10  22  41  65  96 129 167 222 277 328 381
#     4  10  21  39  66 100 136 176 216 266 325 399
#     4  12  26  48  72  94 122 170 222 278 328 386
#     4  12  23  42  66  97 139 176 220 268 331 397
#     4  10  21  40  68 101 133 177 215 266 330 394
#
# _framework density 24.313254000000001
#
# number of rings (size 3 to 8) (size 9 to 14) (size 15 to 20)
#    0.000    1.143    3.810    2.571    0.000    4.571 
#    3.429    1.905    0.000    0.000    0.000    0.000 
#    0.000    0.000    0.000    0.000    0.000    0.000 
#
# Total GULP energy -117293.464858 kJ/mol
# GULP energy per Si atom -5585.403088 kJ/mol
# Density = 2.425792 g / cm^3
# Si number density = 24.313254 Si / 1000 Ang^3
#
#
#
# Elastic Constant Matrix: (Units=GPa)
#
#
# Indices 1 2 3 4 5 6 
#
# 1 41.4921 -7.7456 -2.0670 0.0019 3.3984 0.0031
# 2 -7.7456 41.5093 14.2616 0.0019 6.8794 0.0031
# 3 -2.0670 14.2616 94.6269 -0.0019 23.8363 -0.0004
# 4 0.0019 0.0019 -0.0019 20.9244 0.0003 4.9260
# 5 3.3984 6.8794 23.8363 0.0003 53.0786 0.0022
# 6 0.0031 0.0031 -0.0004 4.9260 0.0022 14.4552
#
#
#
# Elastic Compliance Matrix: (Units=1/GPa)
#
#
# Indices 1 2 3 4 5 6 
#
# 1 0.025251 0.004974 0.000419 -0.000001 -0.002450 -0.000006
# 2 0.004974 0.026535 -0.003320 -0.000002 -0.002267 -0.000006
# 3 0.000419 -0.003320 0.012376 0.000001 -0.005154 0.000001
# 4 -0.000001 -0.000002 0.000001 0.051960 0.000000 -0.017707
# 5 -0.002450 -0.002267 -0.005154 0.000000 0.021605 -0.000002
# 6 -0.000006 -0.000006 0.000001 -0.017707 -0.000002 0.075213
#
#
# Mechanical properties :
#
#
# Convention : Reuss Voigt Hill
#
# Bulk Modulus (GPa) = 14.63948 20.72512 17.68230
# Shear Modulus (GPa) = 21.59240 29.23693 25.41467
#
# Velocity S-wave (km/s) = 2.98332 3.47148 3.23662
# Velocity P-wave (km/s) = 4.23098 4.96095 4.61043
#
# Compressibility (1/GPa) = 0.06830844
#
# Stress axis : x y z
#
# Youngs Moduli (GPa) = 39.60242 37.68562 80.80421
#
# Poissons Ratio (x) = -0.18744 -0.03386
# Poissons Ratio (y) = -0.19698 0.26823
# Poissons Ratio (z) = -0.01659 0.12510
#
# Static dielectric constant tensor:
#      x y z
#    x 1.914520 0.000000 0.008770 
#    y 0.000000 1.911150 0.000000 
#    z 0.008770 0.000000 1.945770 
# 
# From -- ./inp_files/285106.got.cif
#   From: 2010.05.17/outbox.cif.g08.bks.cpg/sg12_143_cif.got.tgz:285106.got - 2010.06.03 13:09:07.
