data_PCOD9211374
_publ_section_title
;
Structure prediction by ZEFSAII (Michael W. Deem and Ramdas Pophale) SiO2 
 PCOD9211374
Probable space group: C 2/M
;
_chemical_formula_sum "Si O2"
_cell_formula_units_Z 40
_cell_length_a 20.644349
_cell_length_b 21.219610
_cell_length_c 12.570988
_cell_angle_alpha 90.000000
_cell_angle_beta 159.755280
_cell_angle_gamma 90.000000
_cell_volume 1905.559462
_symmetry_space_group_name_H-M "C 2/M"
_symmetry_group_IT_number 12
_symmetry_cell_setting 'monoclinic'
loop_
_space_group_symop_operation_xyz
x,y,z
-x,y,-z
-x,-y,-z
x,-y,z
1/2+x,1/2+y,z
1/2-x,1/2+y,-z
1/2-x,1/2-y,-z
1/2+x,1/2-y,z
loop_
_atom_site_type_symbol
_atom_site_label
_atom_site_fract_x
_atom_site_fract_y
_atom_site_fract_z
Si Si1 0.692409 0.299142 0.500936
Si Si2 0.220965 0.752590 0.145098
Si Si3 0.347628 0.428559 0.092136
Si Si4 0.000000 0.844052 0.500000
Si Si5 0.918281 0.071690 0.756608
Si Si6 0.500000 0.146799 0.500000
O O1 0.750000 0.250000 0.500000
O O2 0.800714 0.281611 0.775075
O O3 0.707107 0.369871 0.477237
O O4 0.473955 0.282949 0.189166
O O5 0.317736 0.700568 0.219270
O O6 0.374454 0.808455 0.381820
O O7 0.342650 0.500000 0.123274
O O8 0.490677 0.388193 0.383033
O O9 0.416229 0.429265 0.075904
O O10 0.145522 0.396734 0.786303
O O11 0.837815 0.000000 0.633532
O O12 0.000000 0.084932 0.000000
#
# Coordination Sequence:
#
# PCOD9211374 Si02
#       6
#     8   8   8   4   8   4
#     4  12  23  39  64  92 118 159 210 256 303 362
#     4  11  22  38  60  90 124 158 197 254 311 356
#     4  11  22  38  63  90 123 162 204 246 303 372
#     4  11  21  40  60  88 129 161 196 246 312 369
#     4  10  21  40  62  86 119 162 205 252 304 355
#     4  11  21  38  60  90 127 155 204 250 302 359
#
# _framework density 20.991211
#
# number of rings (size 3 to 8) (size 9 to 14) (size 15 to 20)
#    0.000    1.000    4.000    3.600    0.000    3.200 
#    0.000    0.000    0.000    3.600    0.000    0.000 
#    0.000    0.000    0.000    0.000    0.000    0.000 
#
# Total GULP energy -111709.166888 kJ/mol
# GULP energy per Si atom -5585.458344 kJ/mol
# Density = 2.094343 g / cm^3
# Si number density = 20.991211 Si / 1000 Ang^3
#
#
#
# Elastic Constant Matrix: (Units=GPa)
#
#
# Indices 1 2 3 4 5 6 
#
# 1 75.4345 19.9748 -4.4834 0.0000 -10.2218 0.0000
# 2 19.9748 161.1743 18.2734 0.0000 -9.7388 0.0000
# 3 -4.4834 18.2734 46.3226 -0.0001 -1.9510 0.0000
# 4 0.0000 0.0000 -0.0001 18.1926 0.0000 0.8569
# 5 -10.2218 -9.7388 -1.9510 0.0000 28.6804 0.0000
# 6 0.0000 0.0000 0.0000 0.8569 0.0000 25.0408
#
#
#
# Elastic Compliance Matrix: (Units=1/GPa)
#
#
# Indices 1 2 3 4 5 6 
#
# 1 0.014503 -0.001773 0.002302 0.000000 0.004723 0.000000
# 2 -0.001773 0.006833 -0.002804 0.000000 0.001497 0.000000
# 3 0.002302 -0.002804 0.022977 0.000000 0.001431 0.000000
# 4 0.000000 0.000000 0.000000 0.055056 0.000000 -0.001884
# 5 0.004723 0.001497 0.001431 0.000000 0.037156 0.000000
# 6 0.000000 0.000000 0.000000 -0.001884 0.000000 0.039999
#
#
# Mechanical properties :
#
#
# Convention : Reuss Voigt Hill
#
# Bulk Modulus (GPa) = 25.14916 38.94011 32.04463
# Shear Modulus (GPa) = 25.72971 30.99387 28.36179
#
# Velocity S-wave (km/s) = 3.50485 3.84672 3.67976
# Velocity P-wave (km/s) = 5.32780 6.19036 5.77521
#
# Compressibility (1/GPa) = 0.03976276
#
# Stress axis : x y z
#
# Youngs Moduli (GPa) = 68.95187 146.35788 43.52199
#
# Poissons Ratio (x) = 0.25949 -0.10019
# Poissons Ratio (y) = 0.12225 0.12203
# Poissons Ratio (z) = -0.15873 0.41037
#
# Static dielectric constant tensor:
#      x y z
#    x 1.771990 0.000000 0.011170 
#    y 0.000000 1.783010 0.000000 
#    z 0.011170 0.000000 1.731990 
# 
# From -- ./inp_files/241350.got.cif
#   From: 2010.05.17/outbox.cif.g08.bks.cpg/sg12_121_cif.got.tgz:241350.got - 2010.06.03 13:09:07.
