data_PCOD9211139
_publ_section_title
;
Structure prediction by ZEFSAII (Michael W. Deem and Ramdas Pophale) SiO2 
 PCOD9211139
Probable space group: C 2/M
;
_chemical_formula_sum "Si O2"
_cell_formula_units_Z 64
_cell_length_a 15.069706
_cell_length_b 17.583714
_cell_length_c 15.183070
_cell_angle_alpha 90.000000
_cell_angle_beta 41.511269
_cell_angle_gamma 90.000000
_cell_volume 2666.466211
_symmetry_space_group_name_H-M "C 2/M"
_symmetry_group_IT_number 12
_symmetry_cell_setting 'monoclinic'
loop_
_space_group_symop_operation_xyz
x,y,z
-x,y,-z
-x,-y,-z
x,-y,z
1/2+x,1/2+y,z
1/2-x,1/2+y,-z
1/2-x,1/2-y,-z
1/2+x,1/2-y,z
loop_
_atom_site_type_symbol
_atom_site_label
_atom_site_fract_x
_atom_site_fract_y
_atom_site_fract_z
Si Si1 0.338627 0.838230 0.198239
Si Si2 0.189148 0.832195 0.821304
Si Si3 0.506124 0.828890 0.624012
Si Si4 0.037480 0.586675 0.166773
Si Si5 0.144616 0.912650 0.034862
Si Si6 0.253719 0.588406 0.395965
Si Si7 0.866511 0.837175 0.487151
Si Si8 0.121146 0.910166 0.242436
O O1 0.367098 0.749960 0.161198
O O2 0.470147 0.884648 0.127369
O O3 0.237731 0.845572 0.356615
O O4 0.252754 0.870125 0.181196
O O5 0.350438 0.823121 0.714279
O O6 0.132929 0.864951 0.954582
O O7 0.176851 0.888031 0.747098
O O8 0.507679 0.855379 0.723961
O O9 0.595722 0.891643 0.507675
O O10 0.576138 0.748122 0.557045
O O11 0.991546 0.500000 0.218875
O O12 0.197513 0.586077 0.055734
O O13 0.103780 0.000000 0.048709
O O14 0.082702 0.883071 0.172176
O O15 0.276618 0.500000 0.397770
O O16 0.300304 0.639251 0.443760
O O17 0.996419 0.890601 0.396827
O O18 0.143026 0.000000 0.221439
#
# Coordination Sequence:
#
# PCOD9211139 Si02
#       8
#     8   8   8   8   8   8   8   8
#     4  12  23  39  64  97 135 167 213 263 329 387
#     4  11  23  40  66  95 128 170 214 268 324 381
#     4  11  21  39  62  91 132 170 208 258 326 384
#     4  10  21  39  66  97 130 166 210 272 325 376
#     4   9  22  46  69  94 128 168 222 275 316 372
#     4  12  24  37  63  97 129 170 215 262 326 391
#     4  12  24  42  61  95 139 170 209 269 322 389
#     4  11  25  43  68  92 126 180 222 263 318 382
#
# _framework density 24.001804
#
# number of rings (size 3 to 8) (size 9 to 14) (size 15 to 20)
#    0.000    1.000    3.750    3.375    0.000    5.000 
#    0.000    2.500    2.750    2.250    0.000    0.000 
#    0.000    0.000    0.000    0.000    0.000    0.000 
#
# Total GULP energy -179285.325961 kJ/mol
# GULP energy per Si atom -5602.666436 kJ/mol
# Density = 2.394717 g / cm^3
# Si number density = 24.001804 Si / 1000 Ang^3
#
#
#
# Elastic Constant Matrix: (Units=GPa)
#
#
# Indices 1 2 3 4 5 6 
#
# 1 108.4959 18.2619 22.5385 0.0000 14.4791 0.0000
# 2 18.2619 76.6708 23.9143 0.0000 13.4236 0.0000
# 3 22.5385 23.9143 120.0616 0.0000 19.1077 0.0000
# 4 0.0000 0.0000 0.0000 5.3324 0.0000 25.7609
# 5 14.4791 13.4236 19.1077 0.0000 45.5311 0.0000
# 6 0.0000 0.0000 0.0000 25.7609 0.0000 15.0330
#
#
#
# Elastic Compliance Matrix: (Units=1/GPa)
#
#
# Indices 1 2 3 4 5 6 
#
# 1 0.010036 -0.001627 -0.001209 0.000000 -0.002204 0.000000
# 2 -0.001627 0.014605 -0.002144 0.000000 -0.002889 0.000000
# 3 -0.001209 -0.002144 0.009453 0.000000 -0.002950 0.000000
# 4 0.000000 0.000000 0.000000 -0.025765 0.000000 0.044152
# 5 -0.002204 -0.002889 -0.002950 0.000000 0.024754 0.000000
# 6 0.000000 0.000000 0.000000 0.044152 0.000000 -0.009139
#
#
# Mechanical properties :
#
#
# Convention : Reuss Voigt Hill
#
# Bulk Modulus (GPa) = 41.43697 48.29529 44.86613
# Shear Modulus (GPa) = 119.19525 29.21352 74.20439
#
# Velocity S-wave (km/s) = 7.05470 3.49254 5.56626
# Velocity P-wave (km/s) = 9.14658 6.03564 7.74884
#
# Compressibility (1/GPa) = 0.02413304
#
# Stress axis : x y z
#
# Youngs Moduli (GPa) = 99.63920 68.47056 105.79108
#
# Poissons Ratio (x) = 0.11143 0.12791
# Poissons Ratio (y) = 0.16216 0.22680
# Poissons Ratio (z) = 0.12047 0.14679
#
# Static dielectric constant tensor:
#      x y z
#    x 1.956470 0.000000 -0.036650 
#    y 0.000000 1.826830 0.000000 
#    z -0.036650 0.000000 1.957000 
# 
# From -- ./inp_files/216782.got.cif
#   From: 2010.05.17/outbox.cif.g08.bks.cpg/sg12_109_cif.got.tgz:216782.got - 2010.06.03 13:09:07.
