data_PCOD9211712
_publ_section_title
;
Structure prediction by ZEFSAII (Michael W. Deem and Ramdas Pophale) SiO2 
 PCOD9211712
Probable space group: C 2/M
;
_chemical_formula_sum "Si O2"
_cell_formula_units_Z 56
_cell_length_a 9.471822
_cell_length_b 19.103629
_cell_length_c 18.415637
_cell_angle_alpha 90.000000
_cell_angle_beta 118.713171
_cell_angle_gamma 90.000000
_cell_volume 2922.492765
_symmetry_space_group_name_H-M "C 2/M"
_symmetry_group_IT_number 12
_symmetry_cell_setting 'monoclinic'
loop_
_space_group_symop_operation_xyz
x,y,z
-x,y,-z
-x,-y,-z
x,-y,z
1/2+x,1/2+y,z
1/2-x,1/2+y,-z
1/2-x,1/2-y,-z
1/2+x,1/2-y,z
loop_
_atom_site_type_symbol
_atom_site_label
_atom_site_fract_x
_atom_site_fract_y
_atom_site_fract_z
Si Si1 0.649303 0.831479 0.081631
Si Si2 0.017662 0.185687 0.921461
Si Si3 0.844049 0.077615 0.775267
Si Si4 0.837945 0.323611 0.508118
Si Si5 0.265157 0.083303 0.754879
Si Si6 0.464947 0.918623 0.668702
Si Si7 0.431210 0.579944 0.630285
O O1 0.566709 0.761759 0.094733
O O2 0.714141 0.877465 0.164254
O O3 0.799918 0.813666 0.065524
O O4 0.500000 0.865269 0.000000
O O5 0.917001 0.136180 0.843922
O O6 0.000000 0.159162 0.000000
O O7 0.656151 0.086860 0.713443
O O8 0.921097 0.079412 0.714918
O O9 0.870324 0.000000 0.813411
O O10 0.750000 0.250000 0.500000
O O11 0.887596 0.364379 0.593732
O O12 0.707655 0.372503 0.435774
O O13 0.000000 0.315569 0.500000
O O14 0.415514 0.094941 0.739419
O O15 0.113988 0.105507 0.666565
O O16 0.247421 0.000000 0.763302
O O17 0.419814 0.000000 0.640026
O O18 0.413587 0.500000 0.599263
#
# Coordination Sequence:
#
# PCOD9211712 Si02
#       7
#     8   8   8   8   8   8   8
#     4  11  24  41  62  88 125 165 202 249 302 362
#     4  11  24  40  62  90 123 164 205 247 303 363
#     4  10  21  40  65  92 120 156 205 254 301 357
#     4  12  27  42  61  92 126 161 204 252 303 358
#     4  10  23  42  65  94 123 157 202 251 307 361
#     4  10  23  42  66  92 120 160 206 250 301 362
#     4  10  21  42  67  88 120 162 202 249 304 361
#
# _framework density 19.161722999999999
#
# number of rings (size 3 to 8) (size 9 to 14) (size 15 to 20)
#    0.000    1.429    2.857    2.143    6.000    3.429 
#    0.000    2.143    0.000    0.000    0.000    0.000 
#    0.000    0.000    0.000    0.000    0.000    0.000 
#
# Total GULP energy -156234.457376 kJ/mol
# GULP energy per Si atom -5579.802049 kJ/mol
# Density = 1.911811 g / cm^3
# Si number density = 19.161723 Si / 1000 Ang^3
#
#
#
# Elastic Constant Matrix: (Units=GPa)
#
#
# Indices 1 2 3 4 5 6 
#
# 1 76.5686 34.7474 25.4529 0.0000 -9.7040 0.0000
# 2 34.7474 74.3387 52.9228 0.0000 9.3480 0.0000
# 3 25.4529 52.9228 82.0043 0.0000 3.9009 0.0000
# 4 0.0000 0.0000 0.0000 43.5111 0.0000 3.7898
# 5 -9.7040 9.3480 3.9009 0.0000 29.5486 0.0000
# 6 0.0000 0.0000 0.0000 3.7898 0.0000 28.4275
#
#
#
# Elastic Compliance Matrix: (Units=1/GPa)
#
#
# Indices 1 2 3 4 5 6 
#
# 1 0.018749 -0.010133 0.000277 0.000000 0.009327 0.000000
# 2 -0.010133 0.031387 -0.016584 0.000000 -0.011068 0.000000
# 3 0.000277 -0.016584 0.022700 0.000000 0.002341 0.000000
# 4 0.000000 0.000000 0.000000 0.023253 0.000000 -0.003100
# 5 0.009327 -0.011068 0.002341 0.000000 0.040098 0.000000
# 6 0.000000 0.000000 0.000000 -0.003100 0.000000 0.035590
#
#
# Mechanical properties :
#
#
# Convention : Reuss Voigt Hill
#
# Bulk Modulus (GPa) = 50.11525 51.01754 50.56639
# Shear Modulus (GPa) = 21.61600 28.28334 24.94967
#
# Velocity S-wave (km/s) = 3.36234 3.84609 3.61232
# Velocity P-wave (km/s) = 6.42529 6.81217 6.62156
#
# Compressibility (1/GPa) = 0.01995401
#
# Stress axis : x y z
#
# Youngs Moduli (GPa) = 53.33675 31.86045 44.05250
#
# Poissons Ratio (x) = 0.32285 -0.01219
# Poissons Ratio (y) = 0.54048 0.73058
# Poissons Ratio (z) = -0.01476 0.52838
#
# Static dielectric constant tensor:
#      x y z
#    x 1.681630 0.000000 0.004650 
#    y 0.000000 1.659070 0.000000 
#    z 0.004650 0.000000 1.642390 
# 
# From -- ./inp_files/257210.got.cif
#   From: 2010.05.17/outbox.cif.g08.bks.cpg/sg12_129_cif.got.tgz:257210.got - 2010.06.03 13:09:07.
