data_PCOD9211332
_publ_section_title
;
Structure prediction by ZEFSAII (Michael W. Deem and Ramdas Pophale) SiO2 
 PCOD9211332
Probable space group: C 2/M
;
_chemical_formula_sum "Si O2"
_cell_formula_units_Z 40
_cell_length_a 19.722701
_cell_length_b 7.416946
_cell_length_c 21.907057
_cell_angle_alpha 90.000000
_cell_angle_beta 38.858135
_cell_angle_gamma 90.000000
_cell_volume 2010.555539
_symmetry_space_group_name_H-M "C 2/M"
_symmetry_group_IT_number 12
_symmetry_cell_setting 'monoclinic'
loop_
_space_group_symop_operation_xyz
x,y,z
-x,y,-z
-x,-y,-z
x,-y,z
1/2+x,1/2+y,z
1/2-x,1/2+y,-z
1/2-x,1/2-y,-z
1/2+x,1/2-y,z
loop_
_atom_site_type_symbol
_atom_site_label
_atom_site_fract_x
_atom_site_fract_y
_atom_site_fract_z
Si Si1 0.492237 0.793960 0.224796
Si Si2 0.976131 0.293934 0.451887
Si Si3 0.502894 0.000000 0.099349
Si Si4 0.635229 0.782112 0.233221
Si Si5 0.759179 0.714162 0.421851
Si Si6 0.681464 0.000000 0.868735
O O1 0.589105 0.724165 0.198837
O O2 0.374143 0.712447 0.317942
O O3 0.479287 0.000000 0.259197
O O4 0.513420 0.830141 0.138585
O O5 0.014922 0.500000 0.428868
O O6 0.040953 0.227145 0.347402
O O7 0.000000 0.204660 0.500000
O O8 0.848536 0.292293 0.531697
O O9 0.387873 0.000000 0.145281
O O10 0.594904 0.000000 0.984275
O O11 0.741464 0.673426 0.177833
O O12 0.653774 0.000000 0.220940
O O13 0.754694 0.500000 0.413104
O O14 0.750000 0.750000 0.500000
#
# Coordination Sequence:
#
# PCOD9211332 Si02
#       6
#     8   8   4   8   8   4
#     4   8  18  37  58  78 120 159 188 245 301 342
#     4  10  22  36  52  83 124 157 191 240 290 343
#     4   9  22  44  61  88 119 153 197 263 314 353
#     4  10  21  40  61  89 125 156 198 252 298 355
#     4  11  20  32  56  81 114 158 194 232 283 350
#     4  11  24  40  70  89 115 156 206 253 314 363
#
# _framework density 19.894998999999999
#
# number of rings (size 3 to 8) (size 9 to 14) (size 15 to 20)
#    0.600    1.600    2.000    0.600    4.200    1.200 
#    1.800    2.000    2.200    0.000    0.000    0.000 
#    0.000    0.000    0.000    0.000    0.000    0.000 
#
# Total GULP energy -111378.907352 kJ/mol
# GULP energy per Si atom -5568.945368 kJ/mol
# Density = 1.984972 g / cm^3
# Si number density = 19.894999 Si / 1000 Ang^3
#
#
#
# Elastic Constant Matrix: (Units=GPa)
#
#
# Indices 1 2 3 4 5 6 
#
# 1 154.2418 22.7595 18.4352 0.0002 1.1460 -0.0013
# 2 22.7595 77.5860 19.5408 0.0005 -4.2861 -0.0022
# 3 18.4352 19.5408 25.2671 0.0002 -3.1277 -0.0018
# 4 0.0002 0.0005 0.0002 -4.9821 0.0000 -15.8646
# 5 1.1460 -4.2861 -3.1277 0.0000 35.0688 0.0005
# 6 -0.0013 -0.0022 -0.0018 -15.8646 0.0005 9.0110
#
#
#
# Elastic Compliance Matrix: (Units=1/GPa)
#
#
# Indices 1 2 3 4 5 6 
#
# 1 0.007182 -0.001000 -0.004561 0.000000 -0.000764 0.000000
# 2 -0.001000 0.016172 -0.011657 -0.000001 0.000970 0.000001
# 3 -0.004561 -0.011657 0.052340 -0.000003 0.003392 0.000001
# 4 0.000000 -0.000001 -0.000003 -0.030383 0.000000 -0.053492
# 5 -0.000764 0.000970 0.003392 0.000000 0.028961 0.000000
# 6 0.000000 0.000001 0.000001 -0.053492 0.000000 0.016798
#
#
# Mechanical properties :
#
#
# Convention : Reuss Voigt Hill
#
# Bulk Modulus (GPa) = 24.23815 42.06289 33.15052
# Shear Modulus (GPa) = 35.90440 20.91019 28.40730
#
# Velocity S-wave (km/s) = 4.25278 3.24547 3.78280
# Velocity P-wave (km/s) = 6.02697 5.93569 5.98150
#
# Compressibility (1/GPa) = 0.04125728
#
# Stress axis : x y z
#
# Youngs Moduli (GPa) = 139.24254 61.83598 19.10587
#
# Poissons Ratio (x) = 0.06185 0.08714
# Poissons Ratio (y) = 0.13927 0.22272
# Poissons Ratio (z) = 0.63507 0.72082
#
# Static dielectric constant tensor:
#      x y z
#    x 1.725730 0.000000 0.010560 
#    y 0.000000 1.743510 0.000000 
#    z 0.010560 0.000000 1.689110 
# 
# From -- ./inp_files/308188.got.cif
#   From: 2010.05.17/outbox.cif.g08.bks.cpg/sg12_155_cif.got.tgz:308188.got - 2010.06.03 13:09:07.
