data_PCOD9211055
_publ_section_title
;
Structure prediction by ZEFSAII (Michael W. Deem and Ramdas Pophale) SiO2 
 PCOD9211055
Probable space group: C 2/M
;
_chemical_formula_sum "Si O2"
_cell_formula_units_Z 56
_cell_length_a 11.152003
_cell_length_b 27.780186
_cell_length_c 15.261809
_cell_angle_alpha 90.000000
_cell_angle_beta 33.614777
_cell_angle_gamma 90.000000
_cell_volume 2617.550696
_symmetry_space_group_name_H-M "C 2/M"
_symmetry_group_IT_number 12
_symmetry_cell_setting 'monoclinic'
loop_
_space_group_symop_operation_xyz
x,y,z
-x,y,-z
-x,-y,-z
x,-y,z
1/2+x,1/2+y,z
1/2-x,1/2+y,-z
1/2-x,1/2-y,-z
1/2+x,1/2-y,z
loop_
_atom_site_type_symbol
_atom_site_label
_atom_site_fract_x
_atom_site_fract_y
_atom_site_fract_z
Si Si1 0.697117 0.390940 0.814582
Si Si2 0.241331 0.201817 0.672165
Si Si3 0.106311 0.301534 0.841437
Si Si4 0.951451 0.850532 0.374189
Si Si5 0.436182 0.871586 0.270401
Si Si6 0.958323 0.944714 0.250763
Si Si7 0.464328 0.944618 0.925081
O O1 0.672152 0.339704 0.782021
O O2 0.694314 0.429422 0.737383
O O3 0.910451 0.386532 0.743184
O O4 0.500000 0.400856 0.000000
O O5 0.500000 0.199579 0.500000
O O6 0.175088 0.252789 0.751768
O O7 0.126528 0.187873 0.651151
O O8 0.315217 0.334355 0.734980
O O9 0.964903 0.332404 0.857788
O O10 0.000000 0.291792 0.000000
O O11 0.780597 0.850628 0.556627
O O12 0.943380 0.903463 0.333936
O O13 0.405758 0.917896 0.228561
O O14 0.921393 0.000000 0.301674
O O15 0.206988 0.941931 0.064839
O O16 0.531551 0.000000 0.887909
O O17 0.500000 0.923125 0.000000
#
# Coordination Sequence:
#
# PCOD9211055 Si02
#       7
#     8   8   8   8   8   8   8
#     4  11  23  40  65  97 131 172 215 271 322 385
#     4  11  24  44  68  95 135 171 214 271 330 390
#     4  12  28  44  68  97 128 173 223 270 329 394
#     4  11  25  44  68  98 133 175 216 272 333 389
#     4  12  23  41  67  95 132 169 217 273 322 387
#     4  10  22  41  65  96 136 177 218 271 326 389
#     4  10  21  39  65  96 133 176 222 272 326 382
#
# _framework density 21.394044999999998
#
# number of rings (size 3 to 8) (size 9 to 14) (size 15 to 20)
#    0.000    1.000    2.857    3.857    4.000    3.143 
#    0.000    0.714    0.000    4.286    0.000    0.000 
#    0.000    0.000    0.000    0.000    0.000    0.000 
#
# Total GULP energy -156600.655394 kJ/mol
# GULP energy per Si atom -5592.880550 kJ/mol
# Density = 2.134535 g / cm^3
# Si number density = 21.394045 Si / 1000 Ang^3
#
#
#
# Elastic Constant Matrix: (Units=GPa)
#
#
# Indices 1 2 3 4 5 6 
#
# 1 127.3509 38.5616 17.2776 0.0000 12.2917 0.0000
# 2 38.5616 112.6997 11.9579 0.0000 21.0587 0.0000
# 3 17.2776 11.9579 50.6050 0.0000 19.6127 0.0000
# 4 0.0000 0.0000 0.0000 21.8702 0.0000 3.1206
# 5 12.2917 21.0587 19.6127 0.0000 36.0656 0.0000
# 6 0.0000 0.0000 0.0000 3.1206 0.0000 22.5708
#
#
#
# Elastic Compliance Matrix: (Units=1/GPa)
#
#
# Indices 1 2 3 4 5 6 
#
# 1 0.009040 -0.002814 -0.002362 0.000000 -0.000153 0.000000
# 2 -0.002814 0.010836 0.000609 0.000000 -0.005699 0.000000
# 3 -0.002362 0.000609 0.025657 0.000000 -0.013503 0.000000
# 4 0.000000 0.000000 0.000000 0.046645 0.000000 -0.006449
# 5 -0.000153 -0.005699 -0.013503 0.000000 0.038450 0.000000
# 6 0.000000 0.000000 0.000000 -0.006449 0.000000 0.045197
#
#
# Mechanical properties :
#
#
# Convention : Reuss Voigt Hill
#
# Bulk Modulus (GPa) = 27.47323 47.36109 37.41716
# Shear Modulus (GPa) = 25.36907 30.95854 28.16381
#
# Velocity S-wave (km/s) = 3.44728 3.80816 3.63220
# Velocity P-wave (km/s) = 5.35858 6.44373 5.92605
#
# Compressibility (1/GPa) = 0.03639908
#
# Stress axis : x y z
#
# Youngs Moduli (GPa) = 110.62483 92.28281 38.97630
#
# Poissons Ratio (x) = 0.25966 0.09206
# Poissons Ratio (y) = 0.31127 -0.02374
# Poissons Ratio (z) = 0.26129 -0.05620
#
# Static dielectric constant tensor:
#      x y z
#    x 1.813380 0.000000 -0.002180 
#    y 0.000000 1.770920 0.000000 
#    z -0.002180 0.000000 1.748900 
# 
# From -- ./inp_files/209984.got.cif
#   From: 2010.05.17/outbox.cif.g08.bks.cpg/sg12_105_cif.got.tgz:209984.got - 2010.06.03 13:09:07.
