data_PCOD9211960
_publ_section_title
;
Structure prediction by ZEFSAII (Michael W. Deem and Ramdas Pophale) SiO2 
 PCOD9211960
Probable space group: C 2/M
;
_chemical_formula_sum "Si O2"
_cell_formula_units_Z 64
_cell_length_a 31.668411
_cell_length_b 17.489892
_cell_length_c 12.377200
_cell_angle_alpha 90.000000
_cell_angle_beta 151.788273
_cell_angle_gamma 90.000000
_cell_volume 3240.783479
_symmetry_space_group_name_H-M "C 2/M"
_symmetry_group_IT_number 12
_symmetry_cell_setting 'monoclinic'
loop_
_space_group_symop_operation_xyz
x,y,z
-x,y,-z
-x,-y,-z
x,-y,z
1/2+x,1/2+y,z
1/2-x,1/2+y,-z
1/2-x,1/2-y,-z
1/2+x,1/2-y,z
loop_
_atom_site_type_symbol
_atom_site_label
_atom_site_fract_x
_atom_site_fract_y
_atom_site_fract_z
Si Si1 0.324009 0.408050 0.778111
Si Si2 0.184798 0.408389 0.277835
Si Si3 0.810122 0.591174 0.340277
Si Si4 0.316549 0.408435 0.378705
Si Si5 0.006876 0.176929 0.143885
Si Si6 0.998637 0.348589 0.188105
Si Si7 0.423205 0.085953 0.239675
Si Si8 0.728109 0.163114 0.979379
O O1 0.333404 0.500000 0.794898
O O2 0.257044 0.385445 0.530451
O O3 0.273815 0.386640 0.775049
O O4 0.419474 0.369999 0.980638
O O5 0.172894 0.500000 0.256536
O O6 0.232372 0.390935 0.269440
O O7 0.087811 0.371060 0.078594
O O8 0.816038 0.500000 0.349110
O O9 0.901434 0.620001 0.602355
O O10 0.794050 0.621734 0.183494
O O11 0.327153 0.500000 0.400763
O O12 0.403736 0.369558 0.626554
O O13 0.301384 0.375879 0.223539
O O14 0.006589 0.257716 0.204177
O O15 0.000000 0.190925 0.000000
O O16 0.967989 0.387006 0.230974
O O17 0.500000 0.078027 0.500000
O O18 0.381641 0.000000 0.134712
O O19 0.358248 0.149630 0.141029
O O20 0.750000 0.250000 0.000000
#
# Coordination Sequence:
#
# PCOD9211960 Si02
#       8
#     8   8   8   8   8   8   8   8
#     4  10  24  45  68  92 127 181 229 274 335 403
#     4  10  21  40  68  97 125 166 226 283 324 387
#     4  11  24  44  68  94 138 184 220 265 334 413
#     4  11  23  43  71  99 126 170 238 288 320 388
#     4  12  27  44  66  97 135 179 224 282 349 397
#     4  12  25  38  64 102 141 170 215 275 342 401
#     4  11  22  41  69  95 127 179 230 268 318 400
#     4  12  25  41  66 103 140 173 217 276 342 392
#
# _framework density 19.74831
#
# number of rings (size 3 to 8) (size 9 to 14) (size 15 to 20)
#    0.000    0.875    3.750    3.375    3.500    2.000 
#    0.000    2.500    0.000    2.250    0.000    0.000 
#    0.000    0.000    0.000    0.000    0.000    0.000 
#
# Total GULP energy -178738.482006 kJ/mol
# GULP energy per Si atom -5585.577563 kJ/mol
# Density = 1.970336 g / cm^3
# Si number density = 19.748310 Si / 1000 Ang^3
#
#
#
# Elastic Constant Matrix: (Units=GPa)
#
#
# Indices 1 2 3 4 5 6 
#
# 1 44.5103 11.4575 -0.5017 0.0000 10.6401 0.0000
# 2 11.4575 72.8194 18.6612 0.0000 8.5623 0.0000
# 3 -0.5017 18.6612 91.1522 0.0000 4.6231 0.0000
# 4 0.0000 0.0000 0.0000 42.4685 0.0000 28.3492
# 5 10.6401 8.5623 4.6231 0.0000 34.0549 0.0000
# 6 0.0000 0.0000 0.0000 28.3492 0.0000 41.1553
#
#
#
# Elastic Compliance Matrix: (Units=1/GPa)
#
#
# Indices 1 2 3 4 5 6 
#
# 1 0.025064 -0.003412 0.001198 0.000000 -0.007136 0.000000
# 2 -0.003412 0.015327 -0.003036 0.000000 -0.002375 0.000000
# 3 0.001198 -0.003036 0.011659 0.000000 -0.001194 0.000000
# 4 0.000000 0.000000 0.000000 0.043591 0.000000 -0.030027
# 5 -0.007136 -0.002375 -0.001194 0.000000 0.032353 0.000000
# 6 0.000000 0.000000 0.000000 -0.030027 0.000000 0.044982
#
#
# Mechanical properties :
#
#
# Convention : Reuss Voigt Hill
#
# Bulk Modulus (GPa) = 24.06649 29.74623 26.90636
# Shear Modulus (GPa) = 25.33885 35.46006 30.39946
#
# Velocity S-wave (km/s) = 3.58591 4.24205 3.92770
# Velocity P-wave (km/s) = 5.41831 6.25209 5.85007
#
# Compressibility (1/GPa) = 0.04155155
#
# Stress axis : x y z
#
# Youngs Moduli (GPa) = 39.89741 65.24537 85.76793
#
# Poissons Ratio (x) = 0.22260 -0.10278
# Poissons Ratio (y) = 0.13612 0.26040
# Poissons Ratio (z) = -0.04781 0.19809
#
# Static dielectric constant tensor:
#      x y z
#    x 1.692990 0.000000 -0.022880 
#    y 0.000000 1.661980 0.000000 
#    z -0.022880 0.000000 1.731740 
# 
# From -- ./inp_files/190107.got.cif
#   From: 2010.05.17/outbox.cif.g08.bks.cpg/sg12_96_cif.got.tgz:190107.got - 2010.06.03 13:09:07.
