data_PCOD9211529
_publ_section_title
;
Structure prediction by ZEFSAII (Michael W. Deem and Ramdas Pophale) SiO2 
 PCOD9211529
Probable space group: C 2/M
;
_chemical_formula_sum "Si O2"
_cell_formula_units_Z 34
_cell_length_a 5.213805
_cell_length_b 14.068758
_cell_length_c 24.499640
_cell_angle_alpha 90.000000
_cell_angle_beta 51.796819
_cell_angle_gamma 90.000000
_cell_volume 1412.195224
_symmetry_space_group_name_H-M "C 2/M"
_symmetry_group_IT_number 12
_symmetry_cell_setting 'monoclinic'
loop_
_space_group_symop_operation_xyz
x,y,z
-x,y,-z
-x,-y,-z
x,-y,z
1/2+x,1/2+y,z
1/2-x,1/2+y,-z
1/2-x,1/2-y,-z
1/2+x,1/2-y,z
loop_
_atom_site_type_symbol
_atom_site_label
_atom_site_fract_x
_atom_site_fract_y
_atom_site_fract_z
Si Si1 0.659809 0.842195 0.548093
Si Si2 0.774584 0.310315 0.928385
Si Si3 0.000000 0.500000 0.500000
Si Si4 0.793700 0.387425 0.225117
Si Si5 0.040592 0.615349 0.309318
O O1 0.750000 0.750000 0.500000
O O2 0.586966 0.829102 0.620772
O O3 0.000000 0.900577 0.500000
O O4 0.400400 0.914310 0.556429
O O5 0.561220 0.224177 0.930769
O O6 0.944682 0.356627 0.854093
O O7 0.500000 0.365331 0.000000
O O8 0.819446 0.500000 0.226526
O O9 0.426978 0.367115 0.254398
O O10 0.872017 0.352298 0.275719
O O11 0.990807 0.500000 0.324440
#
# Coordination Sequence:
#
# PCOD9211529 Si02
#       5
#     8   8   2   8   8
#     4  12  27  46  70 100 132 183 240 288 361 442
#     4  10  21  40  63  94 136 176 214 265 327 391
#     4  12  26  48  72  92 144 172 228 310 366 398
#     4  10  22  42  67  98 129 173 221 270 338 400
#     4  10  23  42  68  93 136 174 215 288 354 398
#
# _framework density 24.075990999999998
#
# number of rings (size 3 to 8) (size 9 to 14) (size 15 to 20)
#    0.000    1.412    2.353    1.765    3.294    0.471 
#   12.706    0.000    0.000    8.471    0.000    0.000 
#    0.000    0.000    0.000    0.000    0.000    0.000 
#
# Total GULP energy -94788.419656 kJ/mol
# GULP energy per Si atom -5575.789392 kJ/mol
# Density = 2.402119 g / cm^3
# Si number density = 24.075991 Si / 1000 Ang^3
#
#
#
# Elastic Constant Matrix: (Units=GPa)
#
#
# Indices 1 2 3 4 5 6 
#
# 1 89.9251 3.8891 3.3226 -0.0060 15.5678 0.0031
# 2 3.8891 123.0092 19.0679 -0.0038 6.7700 0.0048
# 3 3.3226 19.0679 142.8292 -0.0049 -0.7594 0.0067
# 4 -0.0060 -0.0038 -0.0049 32.9100 0.0009 -4.5844
# 5 15.5678 6.7700 -0.7594 0.0009 41.3096 -0.0013
# 6 0.0031 0.0048 0.0067 -4.5844 -0.0013 -30.8503
#
#
#
# Elastic Compliance Matrix: (Units=1/GPa)
#
#
# Indices 1 2 3 4 5 6 
#
# 1 0.011910 -0.000085 -0.000290 0.000002 -0.004480 0.000001
# 2 -0.000085 0.008381 -0.001124 0.000001 -0.001362 0.000001
# 3 -0.000290 -0.001124 0.007160 0.000001 0.000425 0.000001
# 4 0.000002 0.000001 0.000001 0.029770 -0.000002 -0.004424
# 5 -0.004480 -0.001362 0.000425 -0.000002 0.026127 -0.000001
# 6 0.000001 0.000001 0.000001 -0.004424 -0.000001 -0.031757
#
#
# Mechanical properties :
#
#
# Convention : Reuss Voigt Hill
#
# Bulk Modulus (GPa) = 40.89231 45.36917 43.13074
# Shear Modulus (GPa) = 79.69325 30.63943 55.16634
#
# Velocity S-wave (km/s) = 5.75956 3.57124 4.79199
# Velocity P-wave (km/s) = 7.82634 5.99083 6.96928
#
# Compressibility (1/GPa) = 0.02445447
#
# Stress axis : x y z
#
# Youngs Moduli (GPa) = 83.96090 119.31183 139.65608
#
# Poissons Ratio (x) = 0.01016 0.04043
# Poissons Ratio (y) = 0.00715 0.15700
# Poissons Ratio (z) = 0.02431 0.13413
#
# Static dielectric constant tensor:
#      x y z
#    x 2.654940 0.000000 -0.103140 
#    y 0.000000 1.958160 0.000000 
#    z -0.103140 0.000000 1.971560 
# 
# From -- ./inp_files/354753.got.cif
#   From: 2010.05.17/outbox.cif.g08.bks.cpg/sg12_178_cif.got.tgz:354753.got - 2010.06.03 13:09:07.
