data_PCOD9211717
_publ_section_title
;
Structure prediction by ZEFSAII (Michael W. Deem and Ramdas Pophale) SiO2 
 PCOD9211717
Probable space group: C 2/M
;
_chemical_formula_sum "Si O2"
_cell_formula_units_Z 56
_cell_length_a 16.353881
_cell_length_b 8.942436
_cell_length_c 20.215663
_cell_angle_alpha 90.000000
_cell_angle_beta 78.407544
_cell_angle_gamma 90.000000
_cell_volume 2896.104314
_symmetry_space_group_name_H-M "C 2/M"
_symmetry_group_IT_number 12
_symmetry_cell_setting 'monoclinic'
loop_
_space_group_symop_operation_xyz
x,y,z
-x,y,-z
-x,-y,-z
x,-y,z
1/2+x,1/2+y,z
1/2-x,1/2+y,-z
1/2-x,1/2-y,-z
1/2+x,1/2-y,z
loop_
_atom_site_type_symbol
_atom_site_label
_atom_site_fract_x
_atom_site_fract_y
_atom_site_fract_z
Si Si1 0.258784 0.323328 0.795482
Si Si2 0.510966 0.826888 0.072867
Si Si3 0.137009 0.178588 0.349146
Si Si4 0.456295 0.318427 0.346988
Si Si5 0.228213 0.180281 0.574175
Si Si6 0.414499 0.321266 0.208262
Si Si7 0.292681 0.827633 0.930372
O O1 0.244377 0.500000 0.804003
O O2 0.334127 0.300904 0.731684
O O3 0.177874 0.245791 0.777663
O O4 0.273519 0.255023 0.865097
O O5 0.461341 0.736569 0.135896
O O6 0.608286 0.824852 0.074202
O O7 0.481220 0.000000 0.078425
O O8 0.500000 0.769244 0.000000
O O9 0.203162 0.261424 0.384806
O O10 0.040799 0.230399 0.370109
O O11 0.141392 0.000000 0.362624
O O12 0.458121 0.500000 0.348305
O O13 0.366308 0.273236 0.390257
O O14 0.458379 0.273701 0.269473
O O15 0.250000 0.250000 0.500000
O O16 0.230221 0.000000 0.571701
O O17 0.410273 0.500000 0.208157
O O18 0.264901 0.000000 0.930415
O O19 0.250000 0.750000 0.000000
#
# Coordination Sequence:
#
# PCOD9211717 Si02
#       7
#     8   8   8   8   8   8   8
#     4  11  22  37  60  88 122 158 202 256 310 370
#     4  10  22  39  56  80 116 155 197 251 314 368
#     4  10  21  40  65  92 122 164 211 252 307 373
#     4   9  20  39  63  90 124 163 203 252 308 371
#     4  11  23  42  65  92 129 165 205 257 312 372
#     4  11  21  37  62  89 118 156 206 253 307 371
#     4  11  23  38  58  84 118 158 203 254 312 374
#
# _framework density 19.336320000000001
#
# number of rings (size 3 to 8) (size 9 to 14) (size 15 to 20)
#    0.000    1.571    1.429    3.429    0.000    4.857 
#    0.000    5.714    0.000    0.000    0.000    0.000 
#    0.000    0.000    0.000    0.000    0.000    0.000 
#
# Total GULP energy -156439.600355 kJ/mol
# GULP energy per Si atom -5587.128584 kJ/mol
# Density = 1.929231 g / cm^3
# Si number density = 19.336320 Si / 1000 Ang^3
#
#
#
# Elastic Constant Matrix: (Units=GPa)
#
#
# Indices 1 2 3 4 5 6 
#
# 1 135.4901 40.6964 52.2681 0.0000 -3.1024 0.0000
# 2 40.6964 72.0332 48.3444 0.0000 -5.6956 0.0000
# 3 52.2681 48.3444 115.5182 0.0000 -4.0036 0.0000
# 4 0.0000 0.0000 0.0000 20.6174 0.0000 -11.5499
# 5 -3.1024 -5.6956 -4.0036 0.0000 24.3958 0.0000
# 6 0.0000 0.0000 0.0000 -11.5499 0.0000 11.1778
#
#
#
# Elastic Compliance Matrix: (Units=1/GPa)
#
#
# Indices 1 2 3 4 5 6 
#
# 1 0.009524 -0.003466 -0.002861 0.000000 -0.000068 0.000000
# 2 -0.003466 0.020817 -0.007031 0.000000 0.003266 0.000000
# 3 -0.002861 -0.007031 0.012897 0.000000 0.000111 0.000000
# 4 0.000000 0.000000 0.000000 0.115169 0.000000 0.119003
# 5 -0.000068 0.003266 0.000111 0.000000 0.041763 0.000000
# 6 0.000000 0.000000 0.000000 0.119003 0.000000 0.212429
#
#
# Mechanical properties :
#
#
# Convention : Reuss Voigt Hill
#
# Bulk Modulus (GPa) = 60.52049 67.29548 63.90798
# Shear Modulus (GPa) = 11.24046 23.35370 17.29708
#
# Velocity S-wave (km/s) = 2.41366 3.47906 2.99413
# Velocity P-wave (km/s) = 6.25576 7.14259 6.71383
#
# Compressibility (1/GPa) = 0.01652333
#
# Stress axis : x y z
#
# Youngs Moduli (GPa) = 105.00019 48.03685 77.53485
#
# Poissons Ratio (x) = 0.16648 0.22184
# Poissons Ratio (y) = 0.36391 0.54513
# Poissons Ratio (z) = 0.30042 0.33773
#
# Static dielectric constant tensor:
#      x y z
#    x 1.681240 0.000000 -0.007030 
#    y 0.000000 1.657530 0.000000 
#    z -0.007030 0.000000 1.670240 
# 
# From -- ./inp_files/308902.got.cif
#   From: 2010.05.17/outbox.cif.g08.bks.cpg/sg12_155_cif.got.tgz:308902.got - 2010.06.03 13:09:07.
