data_PCOD9211500
_publ_section_title
;
Structure prediction by ZEFSAII (Michael W. Deem and Ramdas Pophale) SiO2 
 PCOD9211500
Probable space group: C 2/M
;
_chemical_formula_sum "Si O2"
_cell_formula_units_Z 64
_cell_length_a 19.191999
_cell_length_b 29.378004
_cell_length_c 9.179533
_cell_angle_alpha 90.000000
_cell_angle_beta 140.945574
_cell_angle_gamma 90.000000
_cell_volume 3260.947762
_symmetry_space_group_name_H-M "C 2/M"
_symmetry_group_IT_number 12
_symmetry_cell_setting 'monoclinic'
loop_
_space_group_symop_operation_xyz
x,y,z
-x,y,-z
-x,-y,-z
x,-y,z
1/2+x,1/2+y,z
1/2-x,1/2+y,-z
1/2-x,1/2-y,-z
1/2+x,1/2-y,z
loop_
_atom_site_type_symbol
_atom_site_label
_atom_site_fract_x
_atom_site_fract_y
_atom_site_fract_z
Si Si1 0.286125 0.051960 0.335776
Si Si2 0.499710 0.920534 0.165614
Si Si3 0.123651 0.723618 0.632589
Si Si4 0.298624 0.052145 0.034343
Si Si5 0.387590 0.598470 0.404805
Si Si6 0.504774 0.186369 0.171894
Si Si7 0.107837 0.946206 0.276521
Si Si8 0.261573 0.185460 0.917077
O O1 0.409194 0.052924 0.595919
O O2 0.291448 0.073342 0.184082
O O3 0.207910 0.070809 0.335755
O O4 0.245262 0.000000 0.248496
O O5 0.384337 0.925383 0.062049
O O6 0.531519 0.867416 0.214023
O O7 0.500000 0.937178 0.000000
O O8 0.183998 0.771748 0.751386
O O9 0.000000 0.724831 0.500000
O O10 0.095765 0.709842 0.422316
O O11 0.200997 0.689208 0.852012
O O12 0.334999 0.000000 0.108450
O O13 0.177457 0.056160 0.771208
O O14 0.500000 0.606706 0.500000
O O15 0.404112 0.584841 0.599855
O O16 0.305615 0.640975 0.241231
O O17 0.500000 0.204010 0.000000
O O18 0.379933 0.190079 0.030102
O O19 0.126703 0.000000 0.346761
O O20 0.000000 0.944584 0.000000
#
# Coordination Sequence:
#
# PCOD9211500 Si02
#       8
#     8   8   8   8   8   8   8   8
#     4  10  22  37  58  84 116 159 205 251 297 352
#     4  11  22  36  57  88 124 159 199 245 299 359
#     4   9  20  40  66  89 118 158 196 241 302 372
#     4  11  23  38  58  87 120 159 206 252 298 353
#     4  12  24  38  60  89 117 154 204 258 304 360
#     4  10  22  38  61  92 122 160 196 240 303 366
#     4  10  22  42  61  81 118 165 207 250 306 363
#     4  10  21  40  63  90 121 154 201 248 301 363
#
# _framework density 19.626194999999999
#
# number of rings (size 3 to 8) (size 9 to 14) (size 15 to 20)
#    0.000    1.625    1.250    3.000    3.500    6.500 
#    0.000    0.625    0.000    0.000    0.000    0.000 
#    0.000    0.000    0.000    0.000    0.000    0.000 
#
# Total GULP energy -178493.328767 kJ/mol
# GULP energy per Si atom -5577.916524 kJ/mol
# Density = 1.958153 g / cm^3
# Si number density = 19.626195 Si / 1000 Ang^3
#
#
#
# Elastic Constant Matrix: (Units=GPa)
#
#
# Indices 1 2 3 4 5 6 
#
# 1 120.8158 23.4666 70.4058 0.0000 -18.8042 0.0000
# 2 23.4666 67.3783 39.6776 0.0000 -11.1198 0.0000
# 3 70.4058 39.6776 134.7023 0.0000 -20.5217 0.0000
# 4 0.0000 0.0000 0.0000 39.6182 0.0000 41.1126
# 5 -18.8042 -11.1198 -20.5217 0.0000 44.8996 0.0000
# 6 0.0000 0.0000 0.0000 41.1126 0.0000 21.1867
#
#
#
# Elastic Compliance Matrix: (Units=1/GPa)
#
#
# Indices 1 2 3 4 5 6 
#
# 1 0.012136 -0.000385 -0.005879 0.000000 0.002300 0.000000
# 2 -0.000385 0.018169 -0.004826 0.000000 0.002133 0.000000
# 3 -0.005879 -0.004826 0.012211 0.000000 0.001924 0.000000
# 4 0.000000 0.000000 0.000000 -0.024900 0.000000 0.048319
# 5 0.002300 0.002133 0.001924 0.000000 0.024643 0.000000
# 6 0.000000 0.000000 0.000000 0.048319 0.000000 -0.046562
#
#
# Mechanical properties :
#
#
# Convention : Reuss Voigt Hill
#
# Bulk Modulus (GPa) = 49.17242 65.55513 57.36378
# Shear Modulus (GPa) = 202.78634 33.76402 118.27518
#
# Velocity S-wave (km/s) = 10.17588 4.15222 7.77141
# Velocity P-wave (km/s) = 12.77395 7.51414 10.47941
#
# Compressibility (1/GPa) = 0.02033660
#
# Stress axis : x y z
#
# Youngs Moduli (GPa) = 82.39890 55.03740 81.89065
#
# Poissons Ratio (x) = 0.02118 0.48147
# Poissons Ratio (y) = 0.03171 0.39519
# Poissons Ratio (z) = 0.48446 0.26560
#
# Static dielectric constant tensor:
#      x y z
#    x 1.754140 0.000000 -0.027680 
#    y 0.000000 1.707680 0.000000 
#    z -0.027680 0.000000 1.682290 
# 
# From -- ./inp_files/80767.got.cif
#   From: 2010.05.17/outbox.cif.g08.bks.cpg/sg12_41_cif.got.tgz:80767.got - 2010.06.03 13:09:07.
