data_PCOD9211851
_publ_section_title
;
Structure prediction by ZEFSAII (Michael W. Deem and Ramdas Pophale) SiO2 
 PCOD9211851
Probable space group: C 2/M
;
_chemical_formula_sum "Si O2"
_cell_formula_units_Z 40
_cell_length_a 16.188694
_cell_length_b 25.337774
_cell_length_c 9.448472
_cell_angle_alpha 90.000000
_cell_angle_beta 155.207997
_cell_angle_gamma 90.000000
_cell_volume 1625.148300
_symmetry_space_group_name_H-M "C 2/M"
_symmetry_group_IT_number 12
_symmetry_cell_setting 'monoclinic'
loop_
_space_group_symop_operation_xyz
x,y,z
-x,y,-z
-x,-y,-z
x,-y,z
1/2+x,1/2+y,z
1/2-x,1/2+y,-z
1/2-x,1/2-y,-z
1/2+x,1/2-y,z
loop_
_atom_site_type_symbol
_atom_site_label
_atom_site_fract_x
_atom_site_fract_y
_atom_site_fract_z
Si Si1 0.787959 0.293563 0.733281
Si Si2 0.937450 0.287447 0.256110
Si Si3 0.714517 0.061316 0.902362
Si Si4 0.535219 0.610534 0.220978
Si Si5 0.151567 0.440788 0.129161
O O1 0.632366 0.246071 0.514608
O O2 0.661725 0.337291 0.453968
O O3 0.857748 0.316277 0.993766
O O4 0.000000 0.276565 0.000000
O O5 0.000000 0.314472 0.500000
O O6 0.750000 0.250000 0.000000
O O7 0.500000 0.059991 0.500000
O O8 0.788877 0.000000 0.010134
O O9 0.703863 0.075498 0.051713
O O10 0.839102 0.103933 0.007935
O O11 0.658589 0.562177 0.477200
O O12 0.500000 0.607155 0.000000
O O13 0.073642 0.500000 0.984938
O O14 0.000000 0.411801 0.000000
#
# Coordination Sequence:
#
# PCOD9211851 Si02
#       5
#     8   8   8   8   8
#     4  11  24  44  68  96 132 171 218 270 329 397
#     4   9  21  43  71 100 126 165 219 271 333 400
#     4  10  22  42  68  96 129 174 223 274 336 398
#     4  12  26  41  60  95 135 177 224 272 325 389
#     4  10  21  40  66  96 130 169 217 273 334 401
#
# _framework density 24.613137999999999
#
# number of rings (size 3 to 8) (size 9 to 14) (size 15 to 20)
#    0.000    1.600    0.000    3.600    0.000   13.600 
#    0.000    4.000    0.000    0.000    0.000    0.000 
#    0.000    0.000    0.000    0.000    0.000    0.000 
#
# Total GULP energy -111627.194573 kJ/mol
# GULP energy per Si atom -5581.359729 kJ/mol
# Density = 2.455712 g / cm^3
# Si number density = 24.613138 Si / 1000 Ang^3
#
#
#
# Elastic Constant Matrix: (Units=GPa)
#
#
# Indices 1 2 3 4 5 6 
#
# 1 229.3996 43.2165 107.8657 0.0000 -24.6585 0.0000
# 2 43.2165 85.2003 35.3241 0.0000 10.5742 0.0000
# 3 107.8657 35.3241 159.4461 0.0000 -18.1476 0.0000
# 4 0.0000 0.0000 0.0000 36.2719 0.0000 3.7666
# 5 -24.6585 10.5742 -18.1476 0.0000 89.5176 0.0000
# 6 0.0000 0.0000 0.0000 3.7666 0.0000 16.5887
#
#
#
# Elastic Compliance Matrix: (Units=1/GPa)
#
#
# Indices 1 2 3 4 5 6 
#
# 1 0.006731 -0.001921 -0.003983 0.000000 0.001274 0.000000
# 2 -0.001921 0.013892 -0.002073 0.000000 -0.002590 0.000000
# 3 -0.003983 -0.002073 0.009549 0.000000 0.001084 0.000000
# 4 0.000000 0.000000 0.000000 0.028235 0.000000 -0.006411
# 5 0.001274 -0.002590 0.001084 0.000000 0.012047 0.000000
# 6 0.000000 0.000000 0.000000 -0.006411 0.000000 0.061737
#
#
# Mechanical properties :
#
#
# Convention : Reuss Voigt Hill
#
# Bulk Modulus (GPa) = 70.33244 94.09540 82.21392
# Shear Modulus (GPa) = 32.70428 47.65162 40.17795
#
# Velocity S-wave (km/s) = 3.64913 4.40480 4.04465
# Velocity P-wave (km/s) = 6.81117 8.01139 7.43554
#
# Compressibility (1/GPa) = 0.01421819
#
# Stress axis : x y z
#
# Youngs Moduli (GPa) = 148.57205 71.98197 104.72570
#
# Poissons Ratio (x) = 0.13826 0.41711
# Poissons Ratio (y) = 0.28538 0.21711
# Poissons Ratio (z) = 0.59174 0.14923
#
# Static dielectric constant tensor:
#      x y z
#    x 2.021240 0.000000 0.051090 
#    y 0.000000 1.991200 0.000000 
#    z 0.051090 0.000000 1.927010 
# 
# From -- ./inp_files/68753.got.cif
#   From: 2010.05.17/outbox.cif.g08.bks.cpg/sg12_35_cif.got.tgz:68753.got - 2010.06.03 13:09:07.
