data_PCOD9211598
_publ_section_title
;
Structure prediction by ZEFSAII (Michael W. Deem and Ramdas Pophale) SiO2 
 PCOD9211598
Probable space group: C 2/M
;
_chemical_formula_sum "Si O2"
_cell_formula_units_Z 32
_cell_length_a 24.291532
_cell_length_b 11.722011
_cell_length_c 7.454735
_cell_angle_alpha 90.000000
_cell_angle_beta 128.227688
_cell_angle_gamma 90.000000
_cell_volume 1667.506257
_symmetry_space_group_name_H-M "C 2/M"
_symmetry_group_IT_number 12
_symmetry_cell_setting 'monoclinic'
loop_
_space_group_symop_operation_xyz
x,y,z
-x,y,-z
-x,-y,-z
x,-y,z
1/2+x,1/2+y,z
1/2-x,1/2+y,-z
1/2-x,1/2-y,-z
1/2+x,1/2-y,z
loop_
_atom_site_type_symbol
_atom_site_label
_atom_site_fract_x
_atom_site_fract_y
_atom_site_fract_z
Si Si1 0.331544 0.259028 0.623080
Si Si2 0.892347 0.000000 0.669127
Si Si3 0.076604 0.365565 0.466594
Si Si4 0.571441 0.248195 0.832343
Si Si5 0.960993 0.000000 0.204085
O O1 0.250000 0.250000 0.500000
O O2 0.348739 0.383874 0.576654
O O3 0.361142 0.168740 0.540121
O O4 0.375866 0.241874 0.895346
O O5 0.955535 0.000000 0.655236
O O6 0.928690 0.000000 0.938568
O O7 0.062832 0.500000 0.435380
O O8 0.092286 0.324595 0.700701
O O9 0.005720 0.297788 0.267830
O O10 0.563722 0.381000 0.763438
#
# Coordination Sequence:
#
# PCOD9211598 Si02
#       5
#     8   4   8   8   4
#     4  11  24  40  63  88 124 163 197 245 307 359
#     4   9  18  37  58  93 116 146 203 248 290 365
#     4  11  24  40  62  91 122 159 208 250 291 359
#     4  10  21  40  64  91 120 153 203 256 299 353
#     4   9  16  34  67  88 115 145 194 260 301 340
#
# _framework density 19.190334
#
# number of rings (size 3 to 8) (size 9 to 14) (size 15 to 20)
#    0.000    1.750    2.500    2.250    1.750    7.000 
#    0.000    0.000    0.000    0.000    0.000    0.000 
#    0.000    0.000    0.000    0.000    0.000    0.000 
#
# Total GULP energy -89388.111219 kJ/mol
# GULP energy per Si atom -5586.756951 kJ/mol
# Density = 1.914666 g / cm^3
# Si number density = 19.190334 Si / 1000 Ang^3
#
#
#
# Elastic Constant Matrix: (Units=GPa)
#
#
# Indices 1 2 3 4 5 6 
#
# 1 96.2254 21.0351 37.8322 0.0000 15.4214 0.0000
# 2 21.0351 134.8850 11.3077 0.0000 8.7882 0.0000
# 3 37.8322 11.3077 38.3753 0.0000 -4.0429 0.0000
# 4 0.0000 0.0000 0.0000 17.9136 0.0000 -4.9412
# 5 15.4214 8.7882 -4.0429 0.0000 21.4071 0.0000
# 6 0.0000 0.0000 0.0000 -4.9412 0.0000 19.6671
#
#
#
# Elastic Compliance Matrix: (Units=1/GPa)
#
#
# Indices 1 2 3 4 5 6 
#
# 1 0.024406 -0.000126 -0.026395 0.000000 -0.022514 0.000000
# 2 -0.000126 0.007887 -0.002582 0.000000 -0.003634 0.000000
# 3 -0.026395 -0.002582 0.056071 0.000000 0.030664 0.000000
# 4 0.000000 0.000000 0.000000 0.059980 0.000000 0.015069
# 5 -0.022514 -0.003634 0.030664 0.000000 0.070216 0.000000
# 6 0.000000 0.000000 0.000000 0.015069 0.000000 0.054632
#
#
# Mechanical properties :
#
#
# Convention : Reuss Voigt Hill
#
# Bulk Modulus (GPa) = 33.16036 45.53729 39.34882
# Shear Modulus (GPa) = 14.64339 25.08493 19.86416
#
# Velocity S-wave (km/s) = 2.76535 3.61940 3.22081
# Velocity P-wave (km/s) = 5.24533 6.42242 5.86349
#
# Compressibility (1/GPa) = 0.03015649
#
# Stress axis : x y z
#
# Youngs Moduli (GPa) = 40.97415 126.79593 17.83450
#
# Poissons Ratio (x) = 0.01603 0.47074
# Poissons Ratio (y) = 0.00518 0.04605
# Poissons Ratio (z) = 1.08151 0.32741
#
# Static dielectric constant tensor:
#      x y z
#    x 1.655730 0.000000 -0.025810 
#    y 0.000000 1.669610 0.000000 
#    z -0.025810 0.000000 1.662240 
# 
# From -- ./inp_files/70473.got.cif
#   From: 2010.05.17/outbox.cif.g08.bks.cpg/sg12_36_cif.got.tgz:70473.got - 2010.06.03 13:09:07.
