data_PCOD9211494
_publ_section_title
;
Structure prediction by ZEFSAII (Michael W. Deem and Ramdas Pophale) SiO2 
 PCOD9211494
Probable space group: C 2/M
;
_chemical_formula_sum "Si O2"
_cell_formula_units_Z 40
_cell_length_a 8.248976
_cell_length_b 23.531133
_cell_length_c 8.270461
_cell_angle_alpha 90.000000
_cell_angle_beta 107.315195
_cell_angle_gamma 90.000000
_cell_volume 1532.608698
_symmetry_space_group_name_H-M "C 2/M"
_symmetry_group_IT_number 12
_symmetry_cell_setting 'monoclinic'
loop_
_space_group_symop_operation_xyz
x,y,z
-x,y,-z
-x,-y,-z
x,-y,z
1/2+x,1/2+y,z
1/2-x,1/2+y,-z
1/2-x,1/2-y,-z
1/2+x,1/2-y,z
loop_
_atom_site_type_symbol
_atom_site_label
_atom_site_fract_x
_atom_site_fract_y
_atom_site_fract_z
Si Si1 0.813943 0.433675 0.302011
Si Si2 0.172031 0.866339 0.962070
Si Si3 0.125252 0.432890 0.187247
Si Si4 0.294427 0.678467 0.593468
Si Si5 0.819430 0.777498 0.260184
O O1 0.787996 0.500000 0.330041
O O2 0.730762 0.388122 0.395329
O O3 0.012944 0.424493 0.315435
O O4 0.727914 0.414051 0.108126
O O5 0.199660 0.901311 0.801842
O O6 0.255346 0.807195 0.921497
O O7 0.000000 0.847472 0.000000
O O8 0.151109 0.500000 0.182328
O O9 0.000000 0.414858 0.000000
O O10 0.191697 0.710569 0.706085
O O11 0.487380 0.699662 0.674306
O O12 0.234292 0.698294 0.399464
#
# Coordination Sequence:
#
# PCOD9211494 Si02
#       5
#     8   8   8   8   8
#     4  10  21  40  63  89 126 162 195 246 305 362
#     4  11  20  36  58  92 120 152 202 248 299 350
#     4   8  17  33  54  81 117 161 195 229 290 357
#     4  10  22  44  63  87 121 159 204 248 306 357
#     4  10  23  41  63  89 118 160 205 250 300 357
#
# _framework density 26.09929
#
# number of rings (size 3 to 8) (size 9 to 14) (size 15 to 20)
#    0.000    2.200    2.000    1.800    2.800    2.400 
#    0.000    4.000    0.000    2.400    0.000    0.000 
#    0.000    0.000    0.000    0.000    0.000    0.000 
#
# Total GULP energy -111421.992821 kJ/mol
# GULP energy per Si atom -5571.099641 kJ/mol
# Density = 2.603989 g / cm^3
# Si number density = 26.099290 Si / 1000 Ang^3
#
#
#
# Elastic Constant Matrix: (Units=GPa)
#
#
# Indices 1 2 3 4 5 6 
#
# 1 71.4376 54.7106 30.8475 0.0000 -19.2011 0.0000
# 2 54.7106 161.5246 19.6855 0.0000 -4.5795 0.0000
# 3 30.8475 19.6855 71.4015 0.0000 -15.1326 0.0000
# 4 0.0000 0.0000 0.0000 47.8697 0.0000 -16.7747
# 5 -19.2011 -4.5795 -15.1326 0.0000 30.9508 0.0000
# 6 0.0000 0.0000 0.0000 -16.7747 0.0000 44.9713
#
#
#
# Elastic Compliance Matrix: (Units=1/GPa)
#
#
# Indices 1 2 3 4 5 6 
#
# 1 0.025798 -0.007606 -0.006577 0.000000 0.011664 0.000000
# 2 -0.007606 0.008649 0.000193 0.000000 -0.003345 0.000000
# 3 -0.006577 0.000193 0.017777 0.000000 0.004640 0.000000
# 4 0.000000 0.000000 0.000000 0.024031 0.000000 0.008964
# 5 0.011664 -0.003345 0.004640 0.000000 0.041319 0.000000
# 6 0.000000 0.000000 0.000000 0.008964 0.000000 0.025580
#
#
# Mechanical properties :
#
#
# Convention : Reuss Voigt Hill
#
# Bulk Modulus (GPa) = 41.24728 57.20566 49.22647
# Shear Modulus (GPa) = 27.89941 38.03304 32.96622
#
# Velocity S-wave (km/s) = 3.27306 3.82153 3.55788
# Velocity P-wave (km/s) = 5.48837 6.43725 5.98165
#
# Compressibility (1/GPa) = 0.02424402
#
# Stress axis : x y z
#
# Youngs Moduli (GPa) = 38.76258 115.62096 56.25286
#
# Poissons Ratio (x) = 0.87941 0.36995
# Poissons Ratio (y) = 0.29483 -0.01084
# Poissons Ratio (z) = 0.25493 -0.02227
#
# Static dielectric constant tensor:
#      x y z
#    x 2.196320 0.000000 0.101210 
#    y 0.000000 2.059330 0.000000 
#    z 0.101210 0.000000 2.215640 
# 
# From -- ./inp_files/39312.got.cif
#   From: 2010.05.17/outbox.cif.g08.bks.cpg/sg12_20_cif.got.tgz:39312.got - 2010.06.03 13:09:07.
