data_PCOD9211078
_publ_section_title
;
Structure prediction by ZEFSAII (Michael W. Deem and Ramdas Pophale) SiO2 
 PCOD9211078
Probable space group: C 2/M
;
_chemical_formula_sum "Si O2"
_cell_formula_units_Z 56
_cell_length_a 13.757271
_cell_length_b 12.879250
_cell_length_c 20.746500
_cell_angle_alpha 90.000000
_cell_angle_beta 38.859279
_cell_angle_gamma 90.000000
_cell_volume 2306.316983
_symmetry_space_group_name_H-M "C 2/M"
_symmetry_group_IT_number 12
_symmetry_cell_setting 'monoclinic'
loop_
_space_group_symop_operation_xyz
x,y,z
-x,y,-z
-x,-y,-z
x,-y,z
1/2+x,1/2+y,z
1/2-x,1/2+y,-z
1/2-x,1/2-y,-z
1/2+x,1/2-y,z
loop_
_atom_site_type_symbol
_atom_site_label
_atom_site_fract_x
_atom_site_fract_y
_atom_site_fract_z
Si Si1 0.831453 0.886208 0.421373
Si Si2 0.188311 0.382970 0.906008
Si Si3 0.489512 0.390021 0.928361
Si Si4 0.159536 0.691455 0.385890
Si Si5 0.655198 0.171244 0.128025
Si Si6 0.861889 0.682789 0.201988
Si Si7 0.012188 0.334577 0.650814
O O1 0.757594 0.871582 0.387718
O O2 0.945931 0.789014 0.371646
O O3 0.683109 0.879701 0.546654
O O4 0.902802 0.000000 0.389604
O O5 0.215415 0.500000 0.915676
O O6 0.286492 0.291402 0.889434
O O7 0.219915 0.376096 0.813169
O O8 0.000000 0.362833 0.000000
O O9 0.542902 0.500000 0.874275
O O10 0.306345 0.377837 0.018334
O O11 0.500000 0.388891 0.000000
O O12 0.587210 0.296396 0.850461
O O13 0.254910 0.792691 0.317364
O O14 0.000000 0.723971 0.500000
O O15 0.100409 0.638036 0.350652
O O16 0.522665 0.142766 0.145745
O O17 0.580690 0.139819 0.235650
#
# Coordination Sequence:
#
# PCOD9211078 Si02
#       7
#     8   8   8   8   8   8   8
#     4  10  22  41  65  96 124 164 221 266 315 381
#     4  11  24  43  67  94 125 168 218 262 312 380
#     4  11  23  40  63  93 129 168 212 259 321 387
#     4  10  21  39  66  91 125 166 212 262 319 370
#     4  12  22  41  67  92 130 171 209 261 324 381
#     4  12  22  42  65  93 132 170 208 266 324 379
#     4  10  21  39  66  89 129 167 205 268 325 369
#
# _framework density 24.281137000000001
#
# number of rings (size 3 to 8) (size 9 to 14) (size 15 to 20)
#    0.000    1.143    5.714    0.429    0.000    5.429 
#    0.000    1.429    0.000   11.143    0.000    0.000 
#    0.000    0.000    0.000    0.000    0.000    0.000 
#
# Total GULP energy -156402.476453 kJ/mol
# GULP energy per Si atom -5585.802730 kJ/mol
# Density = 2.422587 g / cm^3
# Si number density = 24.281137 Si / 1000 Ang^3
#
#
#
# Elastic Constant Matrix: (Units=GPa)
#
#
# Indices 1 2 3 4 5 6 
#
# 1 73.2477 4.0988 6.1888 0.0000 8.0674 0.0000
# 2 4.0988 107.3269 1.5618 0.0000 12.7708 0.0000
# 3 6.1888 1.5618 83.4266 -0.0002 6.9635 0.0001
# 4 0.0000 0.0000 -0.0002 7.3906 0.0001 3.0137
# 5 8.0674 12.7708 6.9635 0.0001 31.9979 0.0000
# 6 0.0000 0.0000 0.0001 3.0137 0.0000 9.9770
#
#
#
# Elastic Compliance Matrix: (Units=1/GPa)
#
#
# Indices 1 2 3 4 5 6 
#
# 1 0.014091 -0.000130 -0.000765 0.000000 -0.003334 0.000000
# 2 -0.000130 0.009785 0.000152 0.000000 -0.003906 0.000000
# 3 -0.000765 0.000152 0.012252 0.000001 -0.002534 0.000000
# 4 0.000000 0.000000 0.000001 0.154313 -0.000001 -0.046612
# 5 -0.003334 -0.003906 -0.002534 -0.000001 0.034203 0.000000
# 6 0.000000 0.000000 0.000000 -0.046612 0.000000 0.114310
#
#
# Mechanical properties :
#
#
# Convention : Reuss Voigt Hill
#
# Bulk Modulus (GPa) = 28.86545 31.96667 30.41606
# Shear Modulus (GPa) = 14.20508 26.68323 20.44415
#
# Velocity S-wave (km/s) = 2.42135 3.31860 2.90483
# Velocity P-wave (km/s) = 4.44197 5.27996 4.87899
#
# Compressibility (1/GPa) = 0.03464350
#
# Stress axis : x y z
#
# Youngs Moduli (GPa) = 70.96508 102.19925 81.61940
#
# Poissons Ratio (x) = 0.01331 0.06240
# Poissons Ratio (y) = 0.00924 -0.01245
# Poissons Ratio (z) = 0.05426 -0.01558
#
# Static dielectric constant tensor:
#      x y z
#    x 1.970510 0.000000 0.038370 
#    y 0.000000 1.950050 0.000000 
#    z 0.038370 0.000000 1.980350 
# 
# From -- ./inp_files/310759.got.cif
#   From: 2010.05.17/outbox.cif.g08.bks.cpg/sg12_156_cif.got.tgz:310759.got - 2010.06.03 13:09:07.
