data_PCOD9211521
_publ_section_title
;
Structure prediction by ZEFSAII (Michael W. Deem and Ramdas Pophale) SiO2 
 PCOD9211521
Probable space group: C 2/M
;
_chemical_formula_sum "Si O2"
_cell_formula_units_Z 56
_cell_length_a 16.629660
_cell_length_b 14.913621
_cell_length_c 11.384322
_cell_angle_alpha 90.000000
_cell_angle_beta 102.455351
_cell_angle_gamma 90.000000
_cell_volume 2756.957345
_symmetry_space_group_name_H-M "C 2/M"
_symmetry_group_IT_number 12
_symmetry_cell_setting 'monoclinic'
loop_
_space_group_symop_operation_xyz
x,y,z
-x,y,-z
-x,-y,-z
x,-y,z
1/2+x,1/2+y,z
1/2-x,1/2+y,-z
1/2-x,1/2-y,-z
1/2+x,1/2-y,z
loop_
_atom_site_type_symbol
_atom_site_label
_atom_site_fract_x
_atom_site_fract_y
_atom_site_fract_z
Si Si1 0.934297 0.599427 0.205262
Si Si2 0.374804 0.288736 0.882333
Si Si3 0.879289 0.399512 0.766566
Si Si4 0.441621 0.701453 0.144809
Si Si5 0.734008 0.097328 0.722745
Si Si6 0.574211 0.393634 0.610987
Si Si7 0.756882 0.853938 0.467941
O O1 0.922172 0.500000 0.146185
O O2 0.927528 0.691317 0.132711
O O3 0.862757 0.608569 0.279419
O O4 0.030851 0.602237 0.267488
O O5 0.373146 0.181082 0.858751
O O6 0.461539 0.316580 0.848550
O O7 0.293274 0.328955 0.798237
O O8 0.385439 0.327094 0.017357
O O9 0.868720 0.500000 0.812942
O O10 0.812501 0.381185 0.646129
O O11 0.422854 0.661075 0.266117
O O12 0.747146 0.097761 0.588550
O O13 0.758654 0.000000 0.779186
O O14 0.500000 0.366939 0.500000
O O15 0.565619 0.500000 0.634020
O O16 0.657041 0.375898 0.565450
O O17 0.750000 0.750000 0.500000
#
# Coordination Sequence:
#
# PCOD9211521 Si02
#       7
#     8   8   8   8   8   8   8
#     4   9  21  40  61  91 124 161 207 256 314 371
#     4  10  22  40  63  95 121 165 211 257 315 373
#     4  10  21  40  63  92 128 165 208 259 314 372
#     4  10  22  41  65  90 128 163 208 259 313 374
#     4  11  22  39  61  90 126 162 206 258 309 369
#     4  11  25  43  65  95 128 165 208 256 311 373
#     4  12  23  40  63  92 127 164 207 256 311 373
#
# _framework density 20.312248
#
# number of rings (size 3 to 8) (size 9 to 14) (size 15 to 20)
#    0.000    1.571    1.429    3.000    2.000    4.000 
#    0.000    6.429    0.000    0.000    0.000    0.000 
#    0.000    0.000    0.000    0.000    0.000    0.000 
#
# Total GULP energy -156101.153605 kJ/mol
# GULP energy per Si atom -5575.041200 kJ/mol
# Density = 2.026602 g / cm^3
# Si number density = 20.312248 Si / 1000 Ang^3
#
#
#
# Elastic Constant Matrix: (Units=GPa)
#
#
# Indices 1 2 3 4 5 6 
#
# 1 109.5395 42.5928 62.6941 0.0000 7.7085 0.0000
# 2 42.5928 97.1644 31.5812 0.0000 4.1218 0.0000
# 3 62.6941 31.5812 112.0607 0.0000 14.5752 0.0000
# 4 0.0000 0.0000 0.0000 4.4347 0.0000 -1.8926
# 5 7.7085 4.1218 14.5752 0.0000 13.4533 0.0000
# 6 0.0000 0.0000 0.0000 -1.8926 0.0000 28.9962
#
#
#
# Elastic Compliance Matrix: (Units=1/GPa)
#
#
# Indices 1 2 3 4 5 6 
#
# 1 0.014835 -0.004189 -0.007194 0.000000 0.000577 0.000000
# 2 -0.004189 0.012513 -0.001160 0.000000 -0.000177 0.000000
# 3 -0.007194 -0.001160 0.014775 0.000000 -0.011530 0.000000
# 4 0.000000 0.000000 0.000000 0.231955 0.000000 0.015140
# 5 0.000577 -0.000177 -0.011530 0.000000 0.086546 0.000000
# 6 0.000000 0.000000 0.000000 0.015140 0.000000 0.035475
#
#
# Mechanical properties :
#
#
# Convention : Reuss Voigt Hill
#
# Bulk Modulus (GPa) = 58.69680 65.83342 62.26511
# Shear Modulus (GPa) = 11.71334 21.50327 16.60830
#
# Velocity S-wave (km/s) = 2.40399 3.25720 2.86256
# Velocity P-wave (km/s) = 6.05521 6.82839 6.45339
#
# Compressibility (1/GPa) = 0.01703670
#
# Stress axis : x y z
#
# Youngs Moduli (GPa) = 67.40859 79.91931 67.68186
#
# Poissons Ratio (x) = 0.33480 0.48691
# Poissons Ratio (y) = 0.28239 0.07848
# Poissons Ratio (z) = 0.48494 0.09267
#
# Static dielectric constant tensor:
#      x y z
#    x 1.693250 0.000000 -0.018200 
#    y 0.000000 1.759340 0.000000 
#    z -0.018200 0.000000 1.669010 
# 
# From -- ./inp_files/143730.got.cif
#   From: 2010.05.17/outbox.cif.g08.bks.cpg/sg12_72_cif.got.tgz:143730.got - 2010.06.03 13:09:07.
