data_PCOD9211611
_publ_section_title
;
Structure prediction by ZEFSAII (Michael W. Deem and Ramdas Pophale) SiO2 
 PCOD9211611
Probable space group: C 2/M
;
_chemical_formula_sum "Si O2"
_cell_formula_units_Z 56
_cell_length_a 13.639610
_cell_length_b 16.182626
_cell_length_c 16.480857
_cell_angle_alpha 90.000000
_cell_angle_beta 135.868269
_cell_angle_gamma 90.000000
_cell_volume 2532.990845
_symmetry_space_group_name_H-M "C 2/M"
_symmetry_group_IT_number 12
_symmetry_cell_setting 'monoclinic'
loop_
_space_group_symop_operation_xyz
x,y,z
-x,y,-z
-x,-y,-z
x,-y,z
1/2+x,1/2+y,z
1/2-x,1/2+y,-z
1/2-x,1/2-y,-z
1/2+x,1/2-y,z
loop_
_atom_site_type_symbol
_atom_site_label
_atom_site_fract_x
_atom_site_fract_y
_atom_site_fract_z
Si Si1 0.796405 0.093681 0.494353
Si Si2 0.812558 0.725804 0.687307
Si Si3 0.838298 0.327738 0.883112
Si Si4 0.123911 0.689547 0.811863
Si Si5 0.403430 0.596739 0.727471
Si Si6 0.506496 0.904724 0.594628
Si Si7 0.775829 0.091244 0.041605
O O1 0.792441 0.172884 0.432660
O O2 0.910963 0.100985 0.633626
O O3 0.649043 0.096513 0.457002
O O4 0.805175 0.000000 0.463203
O O5 0.817007 0.677194 0.774689
O O6 0.804832 0.825515 0.693949
O O7 0.966383 0.717870 0.738234
O O8 0.733558 0.260163 0.857153
O O9 0.789611 0.405638 0.907049
O O10 0.000000 0.309685 0.000000
O O11 0.107092 0.635287 0.721102
O O12 0.185241 0.646643 0.927985
O O13 0.361410 0.500000 0.720233
O O14 0.558139 0.610856 0.856277
O O15 0.500000 0.867909 0.500000
O O16 0.548082 0.000000 0.610031
O O17 0.763856 0.000000 0.000541
#
# Coordination Sequence:
#
# PCOD9211611 Si02
#       7
#     8   8   8   8   8   8   8
#     4   9  20  38  63  92 127 166 210 259 316 377
#     4  11  22  40  67  92 126 170 209 262 317 376
#     4  12  24  40  63  94 124 164 209 260 314 379
#     4  11  22  42  62  89 126 159 212 258 314 377
#     4  10  21  40  64  91 127 171 208 255 314 376
#     4   9  19  36  59  89 122 158 202 258 310 365
#     4  11  23  42  65  91 125 166 208 261 321 375
#
# _framework density 22.108252
#
# number of rings (size 3 to 8) (size 9 to 14) (size 15 to 20)
#    0.000    1.571    2.857    2.143    2.000    1.429 
#    0.000    1.429    0.000    5.571    0.000    0.000 
#    0.000    0.000    0.000    0.000    0.000    0.000 
#
# Total GULP energy -156246.644965 kJ/mol
# GULP energy per Si atom -5580.237320 kJ/mol
# Density = 2.205793 g / cm^3
# Si number density = 22.108252 Si / 1000 Ang^3
#
#
#
# Elastic Constant Matrix: (Units=GPa)
#
#
# Indices 1 2 3 4 5 6 
#
# 1 47.4043 9.1516 5.2672 0.0000 -8.0206 0.0000
# 2 9.1516 89.8884 37.5746 0.0000 -4.1363 0.0000
# 3 5.2672 37.5746 99.2552 0.0000 -7.4172 0.0000
# 4 0.0000 0.0000 0.0000 -80.9253 0.0000 31.7619
# 5 -8.0206 -4.1363 -7.4172 0.0000 35.9835 0.0000
# 6 0.0000 0.0000 0.0000 31.7619 0.0000 1.9825
#
#
#
# Elastic Compliance Matrix: (Units=1/GPa)
#
#
# Indices 1 2 3 4 5 6 
#
# 1 0.022292 -0.002026 -0.000063 0.000000 0.004723 0.000000
# 2 -0.002026 0.013409 -0.004964 0.000000 0.000067 0.000000
# 3 -0.000063 -0.004964 0.012100 0.000000 0.001910 0.000000
# 4 0.000000 0.000000 0.000000 -0.001696 0.000000 0.027164
# 5 0.004723 0.000067 0.001910 0.000000 0.029245 0.000000
# 6 0.000000 0.000000 0.000000 0.027164 0.000000 0.069211
#
#
# Mechanical properties :
#
#
# Convention : Reuss Voigt Hill
#
# Bulk Modulus (GPa) = 29.67695 37.83721 33.75708
# Shear Modulus (GPa) = 29.42917 3.71176 16.57046
#
# Velocity S-wave (km/s) = 3.65244 1.29713 2.74070
# Velocity P-wave (km/s) = 5.58925 4.40398 5.03164
#
# Compressibility (1/GPa) = 0.03369618
#
# Stress axis : x y z
#
# Youngs Moduli (GPa) = 44.85838 74.57597 82.64334
#
# Poissons Ratio (x) = 0.15108 0.00522
# Poissons Ratio (y) = 0.09088 0.41022
# Poissons Ratio (z) = 0.00283 0.37018
#
# Static dielectric constant tensor:
#      x y z
#    x 1.812270 0.000000 -0.022230 
#    y 0.000000 1.883780 0.000000 
#    z -0.022230 0.000000 1.813100 
# 
# From -- ./inp_files/216436.got.cif
#   From: 2010.05.17/outbox.cif.g08.bks.cpg/sg12_109_cif.got.tgz:216436.got - 2010.06.03 13:09:07.
