data_PCOD9211842
_publ_section_title
;
Structure prediction by ZEFSAII (Michael W. Deem and Ramdas Pophale) SiO2 
 PCOD9211842
Probable space group: C 2/M
;
_chemical_formula_sum "Si O2"
_cell_formula_units_Z 48
_cell_length_a 14.602156
_cell_length_b 14.005190
_cell_length_c 12.081682
_cell_angle_alpha 90.000000
_cell_angle_beta 68.631964
_cell_angle_gamma 90.000000
_cell_volume 2300.933030
_symmetry_space_group_name_H-M "C 2/M"
_symmetry_group_IT_number 12
_symmetry_cell_setting 'monoclinic'
loop_
_space_group_symop_operation_xyz
x,y,z
-x,y,-z
-x,-y,-z
x,-y,z
1/2+x,1/2+y,z
1/2-x,1/2+y,-z
1/2-x,1/2-y,-z
1/2+x,1/2-y,z
loop_
_atom_site_type_symbol
_atom_site_label
_atom_site_fract_x
_atom_site_fract_y
_atom_site_fract_z
Si Si1 0.507888 0.888411 0.623139
Si Si2 0.965798 0.886111 0.206929
Si Si3 0.620891 0.765939 0.151526
Si Si4 0.151761 0.254529 0.892445
Si Si5 0.598799 0.615776 0.520662
Si Si6 0.200695 0.388237 0.672013
O O1 0.500000 0.857874 0.500000
O O2 0.442211 0.828695 0.736719
O O3 0.620759 0.880943 0.610565
O O4 0.478820 0.000000 0.642653
O O5 0.910056 0.833155 0.131440
O O6 0.909084 0.860390 0.346305
O O7 0.074245 0.840698 0.174947
O O8 0.968804 0.000000 0.192546
O O9 0.734955 0.772823 0.132487
O O10 0.609685 0.792492 0.027118
O O11 0.157716 0.333845 0.795608
O O12 0.500000 0.643283 0.500000
O O13 0.603648 0.500000 0.515285
O O14 0.695373 0.652151 0.415983
O O15 0.213435 0.500000 0.693510
#
# Coordination Sequence:
#
# PCOD9211842 Si02
#       6
#     8   8   8   8   8   8
#     4  10  23  42  67  97 129 166 210 263 326 395
#     4  11  24  43  68  95 132 179 225 277 330 389
#     4  11  25  44  64  94 134 170 216 275 329 387
#     4  11  25  42  64  96 129 171 223 268 324 397
#     4   9  19  36  60  94 129 162 210 267 323 385
#     4  10  21  40  66  95 127 165 210 263 324 392
#
# _framework density 20.861101999999999
#
# number of rings (size 3 to 8) (size 9 to 14) (size 15 to 20)
#    0.000    1.667    1.667    1.500    2.333    7.333 
#    0.000    5.000    0.000    0.000    0.000    0.000 
#    0.000    0.000    0.000    0.000    0.000    0.000 
#
# Total GULP energy -134183.074162 kJ/mol
# GULP energy per Si atom -5590.961423 kJ/mol
# Density = 2.081362 g / cm^3
# Si number density = 20.861102 Si / 1000 Ang^3
#
#
#
# Elastic Constant Matrix: (Units=GPa)
#
#
# Indices 1 2 3 4 5 6 
#
# 1 77.0311 35.0159 51.9801 0.0000 2.0121 0.0000
# 2 35.0159 78.4158 49.3832 0.0000 3.5631 0.0000
# 3 51.9801 49.3832 166.0186 0.0000 10.7642 0.0000
# 4 0.0000 0.0000 0.0000 0.3952 0.0000 16.2338
# 5 2.0121 3.5631 10.7642 0.0000 37.9163 0.0000
# 6 0.0000 0.0000 0.0000 16.2338 0.0000 9.0825
#
#
#
# Elastic Compliance Matrix: (Units=1/GPa)
#
#
# Indices 1 2 3 4 5 6 
#
# 1 0.018282 -0.005614 -0.004101 0.000000 0.000722 0.000000
# 2 -0.005614 0.017417 -0.003399 0.000000 -0.000374 0.000000
# 3 -0.004101 -0.003399 0.008439 0.000000 -0.001859 0.000000
# 4 0.000000 0.000000 0.000000 -0.034940 0.000000 0.062451
# 5 0.000722 -0.000374 -0.001859 0.000000 0.026898 0.000000
# 6 0.000000 0.000000 0.000000 0.062451 0.000000 -0.001520
#
#
# Mechanical properties :
#
#
# Convention : Reuss Voigt Hill
#
# Bulk Modulus (GPa) = 55.83310 66.02487 60.92898
# Shear Modulus (GPa) = 74.88023 21.81789 48.34906
#
# Velocity S-wave (km/s) = 5.99772 3.23749 4.81944
# Velocity P-wave (km/s) = 8.64788 6.75970 7.76142
#
# Compressibility (1/GPa) = 0.01791052
#
# Stress axis : x y z
#
# Youngs Moduli (GPa) = 54.69822 57.41590 118.49823
#
# Poissons Ratio (x) = 0.32233 0.48596
# Poissons Ratio (y) = 0.30707 0.40275
# Poissons Ratio (z) = 0.22432 0.19514
#
# Static dielectric constant tensor:
#      x y z
#    x 1.741650 0.000000 -0.000140 
#    y 0.000000 1.749730 0.000000 
#    z -0.000140 0.000000 1.748570 
# 
# From -- ./inp_files/142696.got.cif
#   From: 2010.05.17/outbox.cif.g08.bks.cpg/sg12_72_cif.got.tgz:142696.got - 2010.06.03 13:09:07.
