data_PCOD9211328
_publ_section_title
;
Structure prediction by ZEFSAII (Michael W. Deem and Ramdas Pophale) SiO2 
 PCOD9211328
Probable space group: C 2/M
;
_chemical_formula_sum "Si O2"
_cell_formula_units_Z 36
_cell_length_a 22.891124
_cell_length_b 13.097838
_cell_length_c 6.343546
_cell_angle_alpha 90.000000
_cell_angle_beta 71.797125
_cell_angle_gamma 90.000000
_cell_volume 1806.768411
_symmetry_space_group_name_H-M "C 2/M"
_symmetry_group_IT_number 12
_symmetry_cell_setting 'monoclinic'
loop_
_space_group_symop_operation_xyz
x,y,z
-x,y,-z
-x,-y,-z
x,-y,z
1/2+x,1/2+y,z
1/2-x,1/2+y,-z
1/2-x,1/2-y,-z
1/2+x,1/2-y,z
loop_
_atom_site_type_symbol
_atom_site_label
_atom_site_fract_x
_atom_site_fract_y
_atom_site_fract_z
Si Si1 0.287507 0.797147 0.150928
Si Si2 0.000000 0.309972 0.000000
Si Si3 0.938241 0.799465 0.448590
Si Si4 0.903046 0.612994 0.789115
Si Si5 0.683838 0.614594 0.566607
O O1 0.313501 0.703178 0.260522
O O2 0.241087 0.861458 0.348526
O O3 0.250000 0.750000 0.000000
O O4 0.341935 0.863139 0.989997
O O5 0.041053 0.238494 0.804433
O O6 0.958815 0.376193 0.890320
O O7 0.914058 0.700597 0.604302
O O8 0.880352 0.873308 0.486855
O O9 0.000000 0.836826 0.500000
O O10 0.901105 0.500000 0.697379
O O11 0.688850 0.500000 0.647263
#
# Coordination Sequence:
#
# PCOD9211328 Si02
#       5
#     8   4   8   8   8
#     4  11  23  44  63  93 127 161 208 261 304 374
#     4  10  21  40  61  88 128 162 203 264 303 366
#     4  10  22  41  63  92 129 159 209 258 304 371
#     4  11  22  38  64  92 123 164 204 254 316 368
#     4  11  24  43  67  93 125 167 208 256 315 370
#
# _framework density 19.925076000000001
#
# number of rings (size 3 to 8) (size 9 to 14) (size 15 to 20)
#    0.000    1.333    4.444    1.000    0.000    7.111 
#    0.000    0.556    0.000    0.000    0.000    0.000 
#    0.000    0.000    0.000    0.000    0.000    0.000 
#
# Total GULP energy -100572.466674 kJ/mol
# GULP energy per Si atom -5587.359260 kJ/mol
# Density = 1.987973 g / cm^3
# Si number density = 19.925076 Si / 1000 Ang^3
#
#
#
# Elastic Constant Matrix: (Units=GPa)
#
#
# Indices 1 2 3 4 5 6 
#
# 1 93.3893 31.6029 11.5387 0.0000 -17.2266 0.0000
# 2 31.6029 70.1307 4.1167 0.0000 -0.7291 0.0000
# 3 11.5387 4.1167 74.3174 0.0000 -10.4223 0.0000
# 4 0.0000 0.0000 0.0000 16.1731 0.0000 2.5446
# 5 -17.2266 -0.7291 -10.4223 0.0000 29.2681 0.0000
# 6 0.0000 0.0000 0.0000 2.5446 0.0000 7.8396
#
#
#
# Elastic Compliance Matrix: (Units=1/GPa)
#
#
# Indices 1 2 3 4 5 6 
#
# 1 0.014452 -0.006384 -0.000757 0.000000 0.008077 0.000000
# 2 -0.006384 0.017126 -0.000447 0.000000 -0.003490 0.000000
# 3 -0.000757 -0.000447 0.014245 0.000000 0.004616 0.000000
# 4 0.000000 0.000000 0.000000 0.065159 0.000000 -0.021149
# 5 0.008077 -0.003490 0.004616 0.000000 0.040478 0.000000
# 6 0.000000 0.000000 0.000000 -0.021149 0.000000 0.134423
#
#
# Mechanical properties :
#
#
# Convention : Reuss Voigt Hill
#
# Bulk Modulus (GPa) = 32.63017 36.92824 34.77920
# Shear Modulus (GPa) = 16.06303 23.36142 19.71222
#
# Velocity S-wave (km/s) = 2.84240 3.42784 3.14875
# Velocity P-wave (km/s) = 5.21385 5.85154 5.54188
#
# Compressibility (1/GPa) = 0.03064649
#
# Stress axis : x y z
#
# Youngs Moduli (GPa) = 69.19607 58.39133 70.19764
#
# Poissons Ratio (x) = 0.37277 0.05317
# Poissons Ratio (y) = 0.44174 0.03137
# Poissons Ratio (z) = 0.05241 0.02610
#
# Static dielectric constant tensor:
#      x y z
#    x 1.770570 0.000000 -0.073160 
#    y 0.000000 1.681630 0.000000 
#    z -0.073160 0.000000 1.767520 
# 
# From -- ./inp_files/27328.got.cif
#   From: 2010.05.17/outbox.cif.g08.bks.cpg/sg12_14_cif.got.tgz:27328.got - 2010.06.03 13:09:07.
