data_PCOD9211181
_publ_section_title
;
Structure prediction by ZEFSAII (Michael W. Deem and Ramdas Pophale) SiO2 
 PCOD9211181
Probable space group: C 2/M
;
_chemical_formula_sum "Si O2"
_cell_formula_units_Z 48
_cell_length_a 17.289193
_cell_length_b 18.383760
_cell_length_c 14.222505
_cell_angle_alpha 90.000000
_cell_angle_beta 27.424797
_cell_angle_gamma 90.000000
_cell_volume 2082.063574
_symmetry_space_group_name_H-M "C 2/M"
_symmetry_group_IT_number 12
_symmetry_cell_setting 'monoclinic'
loop_
_space_group_symop_operation_xyz
x,y,z
-x,y,-z
-x,-y,-z
x,-y,z
1/2+x,1/2+y,z
1/2-x,1/2+y,-z
1/2-x,1/2-y,-z
1/2+x,1/2-y,z
loop_
_atom_site_type_symbol
_atom_site_label
_atom_site_fract_x
_atom_site_fract_y
_atom_site_fract_z
Si Si1 0.194886 0.582947 0.753922
Si Si2 0.318977 0.664860 0.798350
Si Si3 0.062915 0.320932 0.735745
Si Si4 0.320832 0.329998 0.305504
Si Si5 0.829234 0.669221 0.731261
Si Si6 0.917508 0.915001 0.870348
O O1 0.250693 0.500000 0.680856
O O2 0.304079 0.624128 0.714563
O O3 0.177287 0.627601 0.677446
O O4 0.000000 0.581537 0.000000
O O5 0.358375 0.749354 0.739259
O O6 0.431981 0.626615 0.754962
O O7 0.130321 0.660099 0.043882
O O8 0.137821 0.327405 0.551468
O O9 0.085652 0.240162 0.752291
O O10 0.299618 0.324092 0.217565
O O11 0.424590 0.397911 0.232720
O O12 0.000000 0.640678 0.500000
O O13 0.741529 0.618325 0.902127
O O14 0.896923 0.000000 0.875502
#
# Coordination Sequence:
#
# PCOD9211181 Si02
#       6
#     8   8   8   8   8   8
#     4   9  18  34  61  97 133 169 211 267 335 397
#     4  11  22  42  69 101 135 177 224 282 336 403
#     4  10  21  39  67  98 134 175 222 274 336 404
#     4  11  24  42  67  99 133 175 226 278 333 403
#     4  12  26  44  71 103 132 182 234 284 334 398
#     4  12  28  46  68 100 141 183 224 281 345 404
#
# _framework density 23.054051000000001
#
# number of rings (size 3 to 8) (size 9 to 14) (size 15 to 20)
#    0.000    1.167    3.333    2.500    4.667    3.000 
#    0.000    1.667    0.000    3.000    0.000    0.000 
#    0.000    0.000    0.000    0.000    0.000    0.000 
#
# Total GULP energy -134458.589971 kJ/mol
# GULP energy per Si atom -5602.441249 kJ/mol
# Density = 2.300158 g / cm^3
# Si number density = 23.054051 Si / 1000 Ang^3
#
#
#
# Elastic Constant Matrix: (Units=GPa)
#
#
# Indices 1 2 3 4 5 6 
#
# 1 120.5885 42.2985 23.1878 -0.0003 17.7359 0.0020
# 2 42.2985 94.0075 3.4627 0.0010 5.8501 0.0012
# 3 23.1878 3.4627 79.3061 -0.0011 -4.0934 0.0038
# 4 -0.0003 0.0010 -0.0011 -12.5061 0.0023 -6.8584
# 5 17.7359 5.8501 -4.0934 0.0023 36.4290 -0.0021
# 6 0.0020 0.0012 0.0038 -6.8584 -0.0021 28.0346
#
#
#
# Elastic Compliance Matrix: (Units=1/GPa)
#
#
# Indices 1 2 3 4 5 6 
#
# 1 0.011331 -0.004654 -0.003376 -0.000001 -0.005149 -0.000001
# 2 -0.004654 0.012681 0.000824 0.000001 0.000322 0.000000
# 3 -0.003376 0.000824 0.013718 0.000000 0.003053 -0.000001
# 4 -0.000001 0.000001 0.000000 -0.070502 0.000004 -0.017248
# 5 -0.005149 0.000322 0.003053 0.000004 0.030249 0.000003
# 6 -0.000001 0.000000 -0.000001 -0.017248 0.000003 0.031451
#
#
# Mechanical properties :
#
#
# Convention : Reuss Voigt Hill
#
# Bulk Modulus (GPa) = 42.88397 47.97777 45.43087
# Shear Modulus (GPa) = 97.82367 25.38836 61.60602
#
# Velocity S-wave (km/s) = 6.52108 3.32211 5.17498
# Velocity P-wave (km/s) = 8.67993 5.96418 7.44690
#
# Compressibility (1/GPa) = 0.02331874
#
# Stress axis : x y z
#
# Youngs Moduli (GPa) = 88.25006 78.85786 72.89708
#
# Poissons Ratio (x) = 0.36699 0.24608
# Poissons Ratio (y) = 0.41070 -0.06004
# Poissons Ratio (z) = 0.29790 -0.06495
#
# Static dielectric constant tensor:
#      x y z
#    x 1.855810 0.000000 -0.029420 
#    y 0.000000 1.791170 0.000000 
#    z -0.029420 0.000000 1.913910 
# 
# From -- ./inp_files/226719.got.cif
#   From: 2010.05.17/outbox.cif.g08.bks.cpg/sg12_114_cif.got.tgz:226719.got - 2010.06.03 13:09:07.
