data_PCOD9211002
_publ_section_title
;
Structure prediction by ZEFSAII (Michael W. Deem and Ramdas Pophale) SiO2 
 PCOD9211002
Probable space group: C 2/M
;
_chemical_formula_sum "Si O2"
_cell_formula_units_Z 64
_cell_length_a 24.300408
_cell_length_b 22.267791
_cell_length_c 17.274081
_cell_angle_alpha 90.000000
_cell_angle_beta 162.014182
_cell_angle_gamma 90.000000
_cell_volume 2886.270525
_symmetry_space_group_name_H-M "C 2/M"
_symmetry_group_IT_number 12
_symmetry_cell_setting 'monoclinic'
loop_
_space_group_symop_operation_xyz
x,y,z
-x,y,-z
-x,-y,-z
x,-y,z
1/2+x,1/2+y,z
1/2-x,1/2+y,-z
1/2-x,1/2-y,-z
1/2+x,1/2-y,z
loop_
_atom_site_type_symbol
_atom_site_label
_atom_site_fract_x
_atom_site_fract_y
_atom_site_fract_z
Si Si1 0.820943 0.929454 0.629102
Si Si2 0.696602 0.632742 0.727487
Si Si3 0.031762 0.379514 0.779614
Si Si4 0.919137 0.244014 0.668197
Si Si5 0.347862 0.649805 0.925297
Si Si6 0.215969 0.429543 0.876926
Si Si7 0.364903 0.569436 0.517253
Si Si8 0.302437 0.760138 0.771727
O O1 0.648007 0.915975 0.446643
O O2 0.782677 0.908461 0.488896
O O3 0.988906 0.891786 0.883315
O O4 0.864746 0.000000 0.685338
O O5 0.500000 0.639140 0.500000
O O6 0.687380 0.598513 0.633525
O O7 0.777383 0.696922 0.811142
O O8 0.821659 0.602820 0.959329
O O9 0.992227 0.309527 0.743388
O O10 0.104690 0.395437 0.793092
O O11 0.750000 0.250000 0.500000
O O12 0.838880 0.219467 0.480995
O O13 0.060665 0.198464 0.894090
O O14 0.217516 0.606842 0.798547
O O15 0.271476 0.691365 0.755644
O O16 0.168606 0.500000 0.805764
O O17 0.422730 0.427173 0.182697
O O18 0.314175 0.500000 0.443180
O O19 0.500000 0.764470 0.000000
#
# Coordination Sequence:
#
# PCOD9211002 Si02
#       8
#     8   8   8   8   8   8   8   8
#     4  10  21  39  65  93 126 171 222 273 329 390
#     4  12  25  38  56  93 134 175 215 266 322 405
#     4  12  23  39  63  94 133 171 219 270 335 384
#     4  12  23  42  66  99 132 167 212 276 327 389
#     4  11  22  42  68  96 130 174 216 262 333 393
#     4  10  22  41  65  92 129 174 217 268 325 386
#     4   9  20  37  57  85 125 173 216 263 320 387
#     4  12  24  41  68  95 130 169 217 269 331 385
#
# _framework density 22.173943000000001
#
# number of rings (size 3 to 8) (size 9 to 14) (size 15 to 20)
#    0.000    1.000    5.000    3.000    1.750    2.750 
#    0.000    1.250    0.000    9.000    0.000    0.000 
#    0.000    0.000    0.000    0.000    0.000    0.000 
#
# Total GULP energy -179019.239193 kJ/mol
# GULP energy per Si atom -5594.351225 kJ/mol
# Density = 2.212347 g / cm^3
# Si number density = 22.173943 Si / 1000 Ang^3
#
#
#
# Elastic Constant Matrix: (Units=GPa)
#
#
# Indices 1 2 3 4 5 6 
#
# 1 63.0577 -4.0732 18.7292 0.0000 16.9286 0.0000
# 2 -4.0732 87.1439 4.7738 0.0000 3.1400 0.0000
# 3 18.7292 4.7738 41.2481 -0.0001 4.6263 0.0000
# 4 0.0000 0.0000 -0.0001 26.6889 0.0000 -2.6912
# 5 16.9286 3.1400 4.6263 0.0000 36.0220 0.0000
# 6 0.0000 0.0000 0.0000 -2.6912 0.0000 41.8037
#
#
#
# Elastic Compliance Matrix: (Units=1/GPa)
#
#
# Indices 1 2 3 4 5 6 
#
# 1 0.020947 0.001777 -0.008721 0.000000 -0.008879 0.000000
# 2 0.001777 0.011725 -0.001984 0.000000 -0.001602 0.000000
# 3 -0.008721 -0.001984 0.028363 0.000000 0.000629 0.000000
# 4 0.000000 0.000000 0.000000 0.037714 0.000000 0.002428
# 5 -0.008879 -0.001602 0.000629 0.000000 0.031992 0.000000
# 6 0.000000 0.000000 0.000000 0.002428 0.000000 0.024078
#
#
# Mechanical properties :
#
#
# Convention : Reuss Voigt Hill
#
# Bulk Modulus (GPa) = 23.16002 25.58991 24.37496
# Shear Modulus (GPa) = 26.72832 32.37091 29.54961
#
# Velocity S-wave (km/s) = 3.47564 3.82496 3.65448
# Velocity P-wave (km/s) = 5.15501 5.57429 5.36875
#
# Compressibility (1/GPa) = 0.04317786
#
# Stress axis : x y z
#
# Youngs Moduli (GPa) = 47.73892 85.28971 35.25772
#
# Poissons Ratio (x) = -0.15154 0.30749
# Poissons Ratio (y) = -0.08482 0.06995
# Poissons Ratio (z) = 0.41634 0.16922
#
# Static dielectric constant tensor:
#      x y z
#    x 1.806850 0.000000 -0.049410 
#    y 0.000000 1.821010 0.000000 
#    z -0.049410 0.000000 1.842810 
# 
# From -- ./inp_files/290955.got.cif
#   From: 2010.05.17/outbox.cif.g08.bks.cpg/sg12_146_cif.got.tgz:290955.got - 2010.06.03 13:09:07.
