data_PCOD9211290
_publ_section_title
;
Structure prediction by ZEFSAII (Michael W. Deem and Ramdas Pophale) SiO2 
 PCOD9211290
Probable space group: C 2/M
;
_chemical_formula_sum "Si O2"
_cell_formula_units_Z 52
_cell_length_a 29.904153
_cell_length_b 9.679035
_cell_length_c 13.710163
_cell_angle_alpha 90.000000
_cell_angle_beta 39.835166
_cell_angle_gamma 90.000000
_cell_volume 2542.027946
_symmetry_space_group_name_H-M "C 2/M"
_symmetry_group_IT_number 12
_symmetry_cell_setting 'monoclinic'
loop_
_space_group_symop_operation_xyz
x,y,z
-x,y,-z
-x,-y,-z
x,-y,z
1/2+x,1/2+y,z
1/2-x,1/2+y,-z
1/2-x,1/2-y,-z
1/2+x,1/2-y,z
loop_
_atom_site_type_symbol
_atom_site_label
_atom_site_fract_x
_atom_site_fract_y
_atom_site_fract_z
Si Si1 0.219158 0.278833 0.679814
Si Si2 0.060326 0.165047 0.650635
Si Si3 0.255525 0.500000 0.456958
Si Si4 0.781037 0.659086 0.094535
Si Si5 0.589544 0.336346 0.192463
Si Si6 0.924710 0.337690 0.178292
Si Si7 0.372820 0.332809 0.662908
O O1 0.256965 0.380227 0.540753
O O2 0.245130 0.123609 0.623674
O O3 0.226629 0.333891 0.775901
O O4 0.137072 0.284829 0.787477
O O5 0.075871 0.250251 0.721775
O O6 0.103132 0.214303 0.483941
O O7 0.979827 0.185214 0.754169
O O8 0.071740 0.000000 0.647802
O O9 0.792070 0.500000 0.046231
O O10 0.706248 0.709103 0.180443
O O11 0.846020 0.751287 0.956243
O O12 0.604955 0.500000 0.164013
O O13 0.580333 0.297655 0.321992
O O14 0.908939 0.500000 0.225239
O O15 0.000000 0.328127 0.000000
O O16 0.373717 0.500000 0.653584
#
# Coordination Sequence:
#
# PCOD9211290 Si02
#       7
#     8   8   4   8   8   8   8
#     4  11  23  40  60  89 120 158 193 242 293 352
#     4  10  22  38  64  87 113 153 203 248 294 345
#     4  10  24  38  62  84 124 154 196 242 296 340
#     4  11  22  37  61  87 120 159 195 236 298 358
#     4  10  21  40  60  87 119 152 194 248 300 351
#     4  11  24  41  59  85 123 162 196 239 295 355
#     4   9  20  37  62  89 115 149 197 248 296 347
#
# _framework density 20.456109000000001
#
# number of rings (size 3 to 8) (size 9 to 14) (size 15 to 20)
#    0.000    1.692    1.538    1.846    6.462    4.000 
#    0.000    1.538    0.000    1.846    0.000    0.000 
#    0.000    0.000    0.000    0.000    0.000    0.000 
#
# Total GULP energy -144783.142291 kJ/mol
# GULP energy per Si atom -5568.582396 kJ/mol
# Density = 2.040955 g / cm^3
# Si number density = 20.456109 Si / 1000 Ang^3
#
#
#
# Elastic Constant Matrix: (Units=GPa)
#
#
# Indices 1 2 3 4 5 6 
#
# 1 62.0572 -3.4652 -20.6344 0.0000 -2.3170 0.0000
# 2 -3.4652 83.6296 4.5114 0.0000 -9.0875 0.0000
# 3 -20.6344 4.5114 25.5391 0.0000 2.1689 0.0000
# 4 0.0000 0.0000 0.0000 25.0099 0.0000 7.1931
# 5 -2.3170 -9.0875 2.1689 0.0000 23.6512 0.0000
# 6 0.0000 0.0000 0.0000 7.1931 0.0000 20.0401
#
#
#
# Elastic Compliance Matrix: (Units=1/GPa)
#
#
# Indices 1 2 3 4 5 6 
#
# 1 0.022040 0.000013 0.017760 0.000000 0.000536 0.000000
# 2 0.000013 0.012657 -0.002659 0.000000 0.005108 0.000000
# 3 0.017760 -0.002659 0.054336 0.000000 -0.004265 0.000000
# 4 0.000000 0.000000 0.000000 0.044587 0.000000 -0.016004
# 5 0.000536 0.005108 -0.004265 0.000000 0.044687 0.000000
# 6 0.000000 0.000000 0.000000 -0.016004 0.000000 0.055644
#
#
# Mechanical properties :
#
#
# Convention : Reuss Voigt Hill
#
# Bulk Modulus (GPa) = 8.38493 14.67213 11.52853
# Shear Modulus (GPa) = 20.53582 26.46119 23.49850
#
# Velocity S-wave (km/s) = 3.17187 3.60051 3.39297
# Velocity P-wave (km/s) = 4.18596 4.94702 4.58231
#
# Compressibility (1/GPa) = 0.11926159
#
# Stress axis : x y z
#
# Youngs Moduli (GPa) = 45.37186 79.01054 18.40387
#
# Poissons Ratio (x) = -0.00106 -0.32684
# Poissons Ratio (y) = -0.00061 0.04893
# Poissons Ratio (z) = -0.80578 0.21006
#
# Static dielectric constant tensor:
#      x y z
#    x 1.738620 0.000000 -0.026370 
#    y 0.000000 1.686470 0.000000 
#    z -0.026370 0.000000 1.762470 
# 
# From -- ./inp_files/249598.got.cif
#   From: 2010.05.17/outbox.cif.g08.bks.cpg/sg12_125_cif.got.tgz:249598.got - 2010.06.03 13:09:07.
