data_PCOD9211410
_publ_section_title
;
Structure prediction by ZEFSAII (Michael W. Deem and Ramdas Pophale) SiO2 
 PCOD9211410
Probable space group: C 2/M
;
_chemical_formula_sum "Si O2"
_cell_formula_units_Z 36
_cell_length_a 25.860078
_cell_length_b 12.594304
_cell_length_c 6.315893
_cell_angle_alpha 90.000000
_cell_angle_beta 54.469481
_cell_angle_gamma 90.000000
_cell_volume 1674.016370
_symmetry_space_group_name_H-M "C 2/M"
_symmetry_group_IT_number 12
_symmetry_cell_setting 'monoclinic'
loop_
_space_group_symop_operation_xyz
x,y,z
-x,y,-z
-x,-y,-z
x,-y,z
1/2+x,1/2+y,z
1/2-x,1/2+y,-z
1/2-x,1/2-y,-z
1/2+x,1/2-y,z
loop_
_atom_site_type_symbol
_atom_site_label
_atom_site_fract_x
_atom_site_fract_y
_atom_site_fract_z
Si Si1 0.473658 0.000000 0.310105
Si Si2 0.728511 0.874619 0.309162
Si Si3 0.069169 0.875761 0.729168
Si Si4 0.106176 0.304584 0.363436
Si Si5 0.844233 0.741117 0.163809
O O1 0.500000 0.000000 0.500000
O O2 0.432596 0.107116 0.419074
O O3 0.500000 0.000000 0.000000
O O4 0.678774 0.825275 0.262413
O O5 0.795918 0.816285 0.150167
O O6 0.696821 0.844765 0.610814
O O7 0.734112 0.000000 0.265851
O O8 0.077701 0.809178 0.494187
O O9 0.119181 0.817525 0.762812
O O10 0.082781 0.000000 0.669681
O O11 0.000000 0.865107 0.000000
O O12 0.106553 0.314789 0.110403
#
# Coordination Sequence:
#
# PCOD9211410 Si02
#       5
#     4   8   8   8   8
#     4  12  30  46  76 112 148 194 237 297 359 428
#     4  10  21  40  62  90 133 170 229 287 354 419
#     4  10  23  42  63  90 130 173 226 289 353 420
#     4  11  24  41  67  97 135 175 232 290 351 429
#     4  10  23  39  63  94 125 178 226 289 354 423
#
# _framework density 21.505164000000001
#
# number of rings (size 3 to 8) (size 9 to 14) (size 15 to 20)
#    0.000    1.556    1.111    2.000   10.889    1.778 
#    0.000    2.222    0.000    0.000    0.000    0.000 
#    0.000    0.000    0.000    0.000    0.000    0.000 
#
# Total GULP energy -100427.892789 kJ/mol
# GULP energy per Si atom -5579.327377 kJ/mol
# Density = 2.145622 g / cm^3
# Si number density = 21.505164 Si / 1000 Ang^3
#
#
#
# Elastic Constant Matrix: (Units=GPa)
#
#
# Indices 1 2 3 4 5 6 
#
# 1 50.0906 -1.9405 -7.6343 0.0000 -1.3537 0.0000
# 2 -1.9405 89.7960 39.6707 0.0000 -9.3201 0.0000
# 3 -7.6343 39.6707 119.1233 0.0000 -2.4325 0.0000
# 4 0.0000 0.0000 0.0000 72.4478 0.0000 -3.2236
# 5 -1.3537 -9.3201 -2.4325 0.0000 20.0992 0.0000
# 6 0.0000 0.0000 0.0000 -3.2236 0.0000 21.1139
#
#
#
# Elastic Compliance Matrix: (Units=1/GPa)
#
#
# Indices 1 2 3 4 5 6 
#
# 1 0.020207 0.000011 0.001323 0.000000 0.001526 0.000000
# 2 0.000011 0.013704 -0.004444 0.000000 0.005817 0.000000
# 3 0.001323 -0.004444 0.009944 0.000000 -0.000768 0.000000
# 4 0.000000 0.000000 0.000000 0.013897 0.000000 0.002122
# 5 0.001526 0.005817 -0.000768 0.000000 0.052460 0.000000
# 6 0.000000 0.000000 0.000000 0.002122 0.000000 0.047686
#
#
# Mechanical properties :
#
#
# Convention : Reuss Voigt Hill
#
# Bulk Modulus (GPa) = 26.57246 35.46685 31.01966
# Shear Modulus (GPa) = 28.30223 37.99312 33.14767
#
# Velocity S-wave (km/s) = 3.63170 4.20777 3.93030
# Velocity P-wave (km/s) = 5.47438 6.33523 5.92047
#
# Compressibility (1/GPa) = 0.03763294
#
# Stress axis : x y z
#
# Youngs Moduli (GPa) = 49.48764 72.97262 100.56566
#
# Poissons Ratio (x) = -0.00078 -0.13301
# Poissons Ratio (y) = -0.00053 0.44693
# Poissons Ratio (z) = -0.06545 0.32430
#
# Static dielectric constant tensor:
#      x y z
#    x 1.826020 0.000000 0.024350 
#    y 0.000000 1.723710 0.000000 
#    z 0.024350 0.000000 1.816590 
# 
# From -- ./inp_files/23612.got.cif
#   From: 2010.05.17/outbox.cif.g08.bks.cpg/sg12_12_cif.got.tgz:23612.got - 2010.06.03 13:09:07.
