data_PCOD9211633
_publ_section_title
;
Structure prediction by ZEFSAII (Michael W. Deem and Ramdas Pophale) SiO2 
 PCOD9211633
Probable space group: C 2/M
;
_chemical_formula_sum "Si O2"
_cell_formula_units_Z 42
_cell_length_a 18.531569
_cell_length_b 7.486104
_cell_length_c 14.554213
_cell_angle_alpha 90.000000
_cell_angle_beta 117.576343
_cell_angle_gamma 90.000000
_cell_volume 1789.715383
_symmetry_space_group_name_H-M "C 2/M"
_symmetry_group_IT_number 12
_symmetry_cell_setting 'monoclinic'
loop_
_space_group_symop_operation_xyz
x,y,z
-x,y,-z
-x,-y,-z
x,-y,z
1/2+x,1/2+y,z
1/2-x,1/2+y,-z
1/2-x,1/2-y,-z
1/2+x,1/2-y,z
loop_
_atom_site_type_symbol
_atom_site_label
_atom_site_fract_x
_atom_site_fract_y
_atom_site_fract_z
Si Si1 0.505068 0.792026 0.871022
Si Si2 0.380187 0.712913 0.653841
Si Si3 0.000000 0.000000 0.000000
Si Si4 0.907005 0.218926 0.463806
Si Si5 0.817712 0.712749 0.964736
Si Si6 0.251733 0.710384 0.267983
O O1 0.466853 0.767285 0.748838
O O2 0.459066 0.658154 0.911330
O O3 0.496042 0.000000 0.890093
O O4 0.596964 0.722874 0.941174
O O5 0.375538 0.500000 0.649251
O O6 0.376881 0.776596 0.547231
O O7 0.310522 0.775779 0.683043
O O8 0.839755 0.281059 0.350891
O O9 0.000000 0.274095 0.500000
O O10 0.906846 0.000000 0.462990
O O11 0.829654 0.500000 0.961616
O O12 0.785549 0.784728 0.848384
O O13 0.750000 0.750000 0.000000
O O14 0.263291 0.500000 0.257150
#
# Coordination Sequence:
#
# PCOD9211633 Si02
#       6
#     8   8   2   8   8   8
#     4  11  24  41  63 100 140 173 221 277 334 396
#     4  11  22  38  66  98 128 173 224 271 333 408
#     4  12  22  40  68  98 130 180 224 270 324 404
#     4   9  20  38  64  95 126 167 224 278 337 403
#     4  10  24  40  63  93 133 177 220 273 334 401
#     4  10  21  40  64  92 127 172 215 281 342 386
#
# _framework density 23.467420000000001
#
# number of rings (size 3 to 8) (size 9 to 14) (size 15 to 20)
#    0.000    1.714    0.952    2.571    4.000    2.286 
#    0.000    0.952    0.000    2.857    0.000    0.000 
#    0.000    0.000    0.000    0.000    0.000    0.000 
#
# Total GULP energy -117105.876882 kJ/mol
# GULP energy per Si atom -5576.470328 kJ/mol
# Density = 2.341401 g / cm^3
# Si number density = 23.467420 Si / 1000 Ang^3
#
#
#
# Elastic Constant Matrix: (Units=GPa)
#
#
# Indices 1 2 3 4 5 6 
#
# 1 120.7603 -30.8669 67.3203 0.0000 26.5462 0.0000
# 2 -30.8669 91.4972 0.9537 0.0000 0.3619 0.0000
# 3 67.3203 0.9537 160.8620 0.0000 30.5086 0.0000
# 4 0.0000 0.0000 0.0000 18.3806 0.0000 -3.5030
# 5 26.5462 0.3619 30.5086 0.0000 41.4464 0.0000
# 6 0.0000 0.0000 0.0000 -3.5030 0.0000 17.7113
#
#
#
# Elastic Compliance Matrix: (Units=1/GPa)
#
#
# Indices 1 2 3 4 5 6 
#
# 1 0.013067 0.004475 -0.004533 0.000000 -0.005071 0.000000
# 2 0.004475 0.012463 -0.001607 0.000000 -0.001792 0.000000
# 3 -0.004533 -0.001607 0.008798 0.000000 -0.003559 0.000000
# 4 0.000000 0.000000 0.000000 0.056536 0.000000 0.011182
# 5 -0.005071 -0.001792 -0.003559 0.000000 0.030011 0.000000
# 6 0.000000 0.000000 0.000000 0.011182 0.000000 0.058673
#
#
# Mechanical properties :
#
#
# Convention : Reuss Voigt Hill
#
# Bulk Modulus (GPa) = 32.25956 49.77042 41.01499
# Shear Modulus (GPa) = 25.87867 37.88849 31.88358
#
# Velocity S-wave (km/s) = 3.32437 4.02246 3.68996
# Velocity P-wave (km/s) = 5.33963 6.54431 5.97242
#
# Compressibility (1/GPa) = 0.03099856
#
# Stress axis : x y z
#
# Youngs Moduli (GPa) = 76.53048 80.23799 113.66134
#
# Poissons Ratio (x) = -0.35910 0.51524
# Poissons Ratio (y) = -0.34250 0.18264
# Poissons Ratio (z) = 0.34692 0.12893
#
# Static dielectric constant tensor:
#      x y z
#    x 1.971500 0.000000 0.015350 
#    y 0.000000 1.892090 0.000000 
#    z 0.015350 0.000000 1.814830 
# 
# From -- ./inp_files/221818.got.cif
#   From: 2010.05.17/outbox.cif.g08.bks.cpg/sg12_111_cif.got.tgz:221818.got - 2010.06.03 13:09:07.
