data_PCOD9211460
_publ_section_title
;
Structure prediction by ZEFSAII (Michael W. Deem and Ramdas Pophale) SiO2 
 PCOD9211460
Probable space group: C 2/M
;
_chemical_formula_sum "Si O2"
_cell_formula_units_Z 58
_cell_length_a 18.532256
_cell_length_b 9.340502
_cell_length_c 17.014273
_cell_angle_alpha 90.000000
_cell_angle_beta 91.102270
_cell_angle_gamma 90.000000
_cell_volume 2944.635423
_symmetry_space_group_name_H-M "C 2/M"
_symmetry_group_IT_number 12
_symmetry_cell_setting 'monoclinic'
loop_
_space_group_symop_operation_xyz
x,y,z
-x,y,-z
-x,-y,-z
x,-y,z
1/2+x,1/2+y,z
1/2-x,1/2+y,-z
1/2-x,1/2-y,-z
1/2+x,1/2-y,z
loop_
_atom_site_type_symbol
_atom_site_label
_atom_site_fract_x
_atom_site_fract_y
_atom_site_fract_z
Si Si1 0.000000 0.500000 0.500000
Si Si2 0.625295 0.764894 0.481928
Si Si3 0.569927 0.662262 0.317941
Si Si4 0.731635 0.344521 0.605957
Si Si5 0.149784 0.329418 0.183498
Si Si6 0.216963 0.331121 0.757693
Si Si7 0.965182 0.832504 0.916180
Si Si8 0.572167 0.335877 0.770734
O O1 0.936008 0.375971 0.495022
O O2 0.592627 0.677588 0.408024
O O3 0.659144 0.674343 0.553576
O O4 0.697821 0.837674 0.447365
O O5 0.585677 0.500000 0.289770
O O6 0.611647 0.774549 0.263567
O O7 0.485220 0.687128 0.300680
O O8 0.731551 0.500000 0.646123
O O9 0.735002 0.218261 0.669165
O O10 0.153498 0.500000 0.181808
O O11 0.227504 0.254726 0.186398
O O12 0.100486 0.266077 0.113021
O O13 0.224266 0.500000 0.766964
O O14 0.136481 0.275342 0.770408
O O15 0.025168 0.822104 0.848980
O O16 0.942683 0.000000 0.919591
O O17 0.000000 0.792982 0.000000
O O18 0.598663 0.500000 0.766833
#
# Coordination Sequence:
#
# PCOD9211460 Si02
#       8
#     2   8   8   8   8   8   8   8
#     4  12  28  44  58 100 124 162 216 292 320 392
#     4  11  25  40  65  85 127 161 214 270 328 387
#     4  10  21  40  63  87 118 162 209 261 316 380
#     4  11  24  43  63  88 121 169 211 264 332 395
#     4  11  22  37  62  93 124 160 204 252 306 370
#     4  12  25  39  62  89 122 165 213 260 310 375
#     4   9  19  40  69  97 128 165 202 243 300 371
#     4   9  20  38  61  92 129 159 200 257 312 364
#
# _framework density 19.696833999999999
#
# number of rings (size 3 to 8) (size 9 to 14) (size 15 to 20)
#    0.000    1.517    2.069    3.724    3.862    3.034 
#    0.000    1.379    0.000    0.000    0.000    0.000 
#    0.000    0.000    0.000    0.000    0.000    0.000 
#
# Total GULP energy -161731.537271 kJ/mol
# GULP energy per Si atom -5576.949561 kJ/mol
# Density = 1.965200 g / cm^3
# Si number density = 19.696834 Si / 1000 Ang^3
#
#
#
# Elastic Constant Matrix: (Units=GPa)
#
#
# Indices 1 2 3 4 5 6 
#
# 1 129.6004 75.2751 33.4418 0.0000 23.9310 0.0000
# 2 75.2751 151.6628 26.8280 0.0000 25.1356 0.0000
# 3 33.4418 26.8280 62.8149 0.0000 34.9833 0.0000
# 4 0.0000 0.0000 0.0000 -2.8218 0.0000 -17.5682
# 5 23.9310 25.1356 34.9833 0.0000 31.3713 0.0000
# 6 0.0000 0.0000 0.0000 -17.5682 0.0000 14.0115
#
#
#
# Elastic Compliance Matrix: (Units=1/GPa)
#
#
# Indices 1 2 3 4 5 6 
#
# 1 0.011738 -0.005039 -0.003586 0.000000 -0.000918 0.000000
# 2 -0.005039 0.009770 0.001923 0.000000 -0.006129 0.000000
# 3 -0.003586 0.001923 0.043125 0.000000 -0.046896 0.000000
# 4 0.000000 0.000000 0.000000 -0.040242 0.000000 -0.050457
# 5 -0.000918 -0.006129 -0.046896 0.000000 0.089783 0.000000
# 6 0.000000 0.000000 0.000000 -0.050457 0.000000 0.008104
#
#
# Mechanical properties :
#
#
# Convention : Reuss Voigt Hill
#
# Bulk Modulus (GPa) = 19.51988 68.35199 43.93593
# Shear Modulus (GPa) = 32.73157 22.41443 27.57300
#
# Velocity S-wave (km/s) = 4.08090 3.37704 3.74554
# Velocity P-wave (km/s) = 5.66892 7.06988 6.40780
#
# Compressibility (1/GPa) = 0.05122983
#
# Stress axis : x y z
#
# Youngs Moduli (GPa) = 85.19522 102.35053 23.18843
#
# Poissons Ratio (x) = 0.51579 0.08314
# Poissons Ratio (y) = 0.42934 -0.04460
# Poissons Ratio (z) = 0.30547 -0.19686
#
# Static dielectric constant tensor:
#      x y z
#    x 1.705300 0.000000 0.000850 
#    y 0.000000 1.681760 0.000000 
#    z 0.000850 0.000000 1.696810 
# 
# From -- ./inp_files/275396.got.cif
#   From: 2010.05.17/outbox.cif.g08.bks.cpg/sg12_138_cif.got.tgz:275396.got - 2010.06.03 13:09:07.
