data_PCOD9211144
_publ_section_title
;
Structure prediction by ZEFSAII (Michael W. Deem and Ramdas Pophale) SiO2 
 PCOD9211144
Probable space group: C 2/M
;
_chemical_formula_sum "Si O2"
_cell_formula_units_Z 64
_cell_length_a 18.429565
_cell_length_b 28.958312
_cell_length_c 12.071274
_cell_angle_alpha 90.000000
_cell_angle_beta 27.336294
_cell_angle_gamma 90.000000
_cell_volume 2958.387108
_symmetry_space_group_name_H-M "C 2/M"
_symmetry_group_IT_number 12
_symmetry_cell_setting 'monoclinic'
loop_
_space_group_symop_operation_xyz
x,y,z
-x,y,-z
-x,-y,-z
x,-y,z
1/2+x,1/2+y,z
1/2-x,1/2+y,-z
1/2-x,1/2-y,-z
1/2+x,1/2-y,z
loop_
_atom_site_type_symbol
_atom_site_label
_atom_site_fract_x
_atom_site_fract_y
_atom_site_fract_z
Si Si1 0.976895 0.125642 0.420054
Si Si2 0.383523 0.944761 0.421298
Si Si3 0.330527 0.219434 0.290401
Si Si4 0.665587 0.113490 0.718311
Si Si5 0.315849 0.729578 0.746607
Si Si6 0.676672 0.914248 0.268001
Si Si7 0.784088 0.821447 0.017938
Si Si8 0.257320 0.448753 0.942399
O O1 0.805831 0.109861 0.617144
O O2 0.000000 0.155999 0.500000
O O3 0.045873 0.154478 0.223984
O O4 0.108752 0.087287 0.270765
O O5 0.313414 0.923805 0.405335
O O6 0.293350 0.919027 0.643772
O O7 0.575080 0.935026 0.163286
O O8 0.367923 0.000000 0.452638
O O9 0.250000 0.250000 0.500000
O O10 0.346718 0.166297 0.309485
O O11 0.221477 0.215319 0.328254
O O12 0.500000 0.233042 0.000000
O O13 0.500000 0.103647 0.000000
O O14 0.500000 0.744200 0.500000
O O15 0.252434 0.696889 0.934656
O O16 0.222600 0.777230 0.896942
O O17 0.500000 0.933273 0.500000
O O18 0.773500 0.946290 0.054080
O O19 0.681062 0.863098 0.208356
O O20 0.283884 0.500000 0.863124
#
# Coordination Sequence:
#
# PCOD9211144 Si02
#       8
#     8   8   8   8   8   8   8   8
#     4  11  22  40  65  91 127 165 220 281 336 410
#     4  10  21  39  66  98 136 177 223 279 345 423
#     4  11  28  46  69  99 144 192 240 299 360 428
#     4  11  25  44  64  93 130 181 229 285 352 424
#     4  11  24  42  67  96 131 172 233 287 346 418
#     4   9  18  34  60  93 126 168 214 267 330 405
#     4  10  22  37  65  95 127 167 220 282 343 406
#     4   9  19  37  62  94 128 166 213 270 333 399
#
# _framework density 21.633409
#
# number of rings (size 3 to 8) (size 9 to 14) (size 15 to 20)
#    0.000    1.750    0.000    3.375    7.000    7.500 
#    0.000    2.500    0.000    3.750    0.000    0.000 
#    0.000    0.000    0.000    0.000    0.000    0.000 
#
# Total GULP energy -178199.407703 kJ/mol
# GULP energy per Si atom -5568.731491 kJ/mol
# Density = 2.158417 g / cm^3
# Si number density = 21.633409 Si / 1000 Ang^3
#
#
#
# Elastic Constant Matrix: (Units=GPa)
#
#
# Indices 1 2 3 4 5 6 
#
# 1 111.3249 18.6946 39.1789 0.0003 4.8874 0.0001
# 2 18.6946 90.0291 15.9051 0.0011 15.1275 -0.0001
# 3 39.1789 15.9051 89.5960 -0.0001 5.7442 -0.0002
# 4 0.0003 0.0011 -0.0001 11.7307 0.0002 5.5989
# 5 4.8874 15.1275 5.7442 0.0002 34.5446 -0.0004
# 6 0.0001 -0.0001 -0.0002 5.5989 -0.0004 18.4673
#
#
#
# Elastic Compliance Matrix: (Units=1/GPa)
#
#
# Indices 1 2 3 4 5 6 
#
# 1 0.010799 -0.001428 -0.004458 0.000000 -0.000161 0.000000
# 2 -0.001428 0.012476 -0.001267 -0.000001 -0.005051 0.000000
# 3 -0.004458 -0.001267 0.013402 0.000000 -0.001043 0.000000
# 4 0.000000 -0.000001 0.000000 0.099669 0.000000 -0.030218
# 5 -0.000161 -0.005051 -0.001043 0.000000 0.031356 0.000001
# 6 0.000000 0.000000 0.000000 -0.030218 0.000001 0.063311
#
#
# Mechanical properties :
#
#
# Convention : Reuss Voigt Hill
#
# Bulk Modulus (GPa) = 44.69814 48.72304 46.71059
# Shear Modulus (GPa) = 19.78036 27.42663 23.60349
#
# Velocity S-wave (km/s) = 3.02709 3.56447 3.30671
# Velocity P-wave (km/s) = 5.73796 6.28582 6.01813
#
# Compressibility (1/GPa) = 0.02237230
#
# Stress axis : x y z
#
# Youngs Moduli (GPa) = 92.60510 80.15098 74.61295
#
# Poissons Ratio (x) = 0.11442 0.33264
# Poissons Ratio (y) = 0.13220 0.09451
# Poissons Ratio (z) = 0.41286 0.10153
#
# Static dielectric constant tensor:
#      x y z
#    x 1.844960 0.000000 0.044930 
#    y 0.000000 1.844430 0.000000 
#    z 0.044930 0.000000 1.910150 
# 
# From -- ./inp_files/161167.got.cif
#   From: 2010.05.17/outbox.cif.g08.bks.cpg/sg12_81_cif.got.tgz:161167.got - 2010.06.03 13:09:07.
