data_PCOD9211541
_publ_section_title
;
Structure prediction by ZEFSAII (Michael W. Deem and Ramdas Pophale) SiO2 
 PCOD9211541
Probable space group: C 2/M
;
_chemical_formula_sum "Si O2"
_cell_formula_units_Z 36
_cell_length_a 22.935272
_cell_length_b 10.847839
_cell_length_c 22.876703
_cell_angle_alpha 90.000000
_cell_angle_beta 160.990933
_cell_angle_gamma 90.000000
_cell_volume 1853.881723
_symmetry_space_group_name_H-M "C 2/M"
_symmetry_group_IT_number 12
_symmetry_cell_setting 'monoclinic'
loop_
_space_group_symop_operation_xyz
x,y,z
-x,y,-z
-x,-y,-z
x,-y,z
1/2+x,1/2+y,z
1/2-x,1/2+y,-z
1/2-x,1/2-y,-z
1/2+x,1/2-y,z
loop_
_atom_site_type_symbol
_atom_site_label
_atom_site_fract_x
_atom_site_fract_y
_atom_site_fract_z
Si Si1 0.837868 0.500000 0.944926
Si Si2 0.013706 0.000000 0.307282
Si Si3 0.955147 0.760396 0.176491
Si Si4 0.060881 0.235966 0.978352
Si Si5 0.896677 0.500000 0.696803
Si Si6 0.793785 0.643106 0.295762
O O1 0.660025 0.500000 0.816292
O O2 0.864731 0.372907 0.937036
O O3 0.996574 0.500000 0.142185
O O4 0.023461 0.120713 0.275815
O O5 0.188666 0.000000 0.512224
O O6 0.956488 0.778622 0.107790
O O7 0.048387 0.629815 0.280703
O O8 0.750000 0.750000 0.000000
O O9 0.863470 0.211180 0.817109
O O10 0.211541 0.151568 0.152169
O O11 0.792887 0.500000 0.313326
O O12 0.000000 0.687196 0.500000
#
# Coordination Sequence:
#
# PCOD9211541 Si02
#       6
#     4   4   8   8   4   8
#     4  10  22  41  60  92 123 159 197 252 305 362
#     4  12  22  38  63  91 130 169 206 248 301 371
#     4  11  21  41  62  92 130 165 202 250 312 365
#     4  10  21  40  64  85 122 158 200 249 305 361
#     4  10  22  40  55  88 133 166 206 248 293 369
#     4  10  23  43  61  88 119 155 205 257 302 354
#
# _framework density 19.418713
#
# number of rings (size 3 to 8) (size 9 to 14) (size 15 to 20)
#    0.000    1.556    4.444    2.000    3.111    5.333 
#    4.000    1.111    0.000    0.000    0.000    0.000 
#    0.000    0.000    0.000    0.000    0.000    0.000 
#
# Total GULP energy -100286.877585 kJ/mol
# GULP energy per Si atom -5571.493199 kJ/mol
# Density = 1.937452 g / cm^3
# Si number density = 19.418713 Si / 1000 Ang^3
#
#
#
# Elastic Constant Matrix: (Units=GPa)
#
#
# Indices 1 2 3 4 5 6 
#
# 1 446.3258 -373.0445 -259.9340 -0.0173 -740.9178 -0.0067
# 2 -373.0445 585.3648 386.9679 0.0175 880.3351 0.0078
# 3 -259.9340 386.9679 435.2905 0.0134 682.2092 0.0053
# 4 -0.0173 0.0175 0.0134 142.2565 0.0374 -9.3858
# 5 -740.9178 880.3351 682.2092 0.0374 1626.5090 0.0139
# 6 -0.0067 0.0078 0.0053 -9.3858 0.0139 27.7132
#
#
#
# Elastic Compliance Matrix: (Units=1/GPa)
#
#
# Indices 1 2 3 4 5 6 
#
# 1 0.011495 -0.002361 -0.003637 0.000000 0.008040 0.000000
# 2 -0.002361 0.009850 -0.000366 0.000000 -0.006253 0.000000
# 3 -0.003637 -0.000366 0.007988 0.000000 -0.004809 0.000000
# 4 0.000000 0.000000 0.000000 0.007190 0.000000 0.002435
# 5 0.008040 -0.006253 -0.004809 0.000000 0.009678 0.000000
# 6 0.000000 0.000000 0.000000 0.002435 0.000000 0.036909
#
#
# Mechanical properties :
#
#
# Convention : Reuss Voigt Hill
#
# Bulk Modulus (GPa) = 60.22379 108.32888 84.27634
# Shear Modulus (GPa) = 49.32300 473.49520 261.40910
#
# Velocity S-wave (km/s) = 5.04528 15.63214 11.61505
# Velocity P-wave (km/s) = 8.06352 19.53779 14.94566
#
# Compressibility (1/GPa) = 0.01660473
#
# Stress axis : x y z
#
# Youngs Moduli (GPa) = 86.99164 101.52712 125.19332
#
# Poissons Ratio (x) = 0.23968 0.45533
# Poissons Ratio (y) = 0.20537 0.04584
# Poissons Ratio (z) = 0.31639 0.03717
#
# Static dielectric constant tensor:
#      x y z
#    x 1.693190 0.000000 -0.028650 
#    y 0.000000 1.820920 0.000000 
#    z -0.028650 0.000000 1.670970 
# 
# From -- ./inp_files/321659.got.cif
#   From: 2010.05.17/outbox.cif.g08.bks.cpg/sg12_161_cif.got.tgz:321659.got - 2010.06.03 13:09:07.
