data_PCOD9211188
_publ_section_title
;
Structure prediction by ZEFSAII (Michael W. Deem and Ramdas Pophale) SiO2 
 PCOD9211188
Probable space group: C 2/M
;
_chemical_formula_sum "Si O2"
_cell_formula_units_Z 64
_cell_length_a 19.171182
_cell_length_b 17.655422
_cell_length_c 14.357838
_cell_angle_alpha 90.000000
_cell_angle_beta 36.003569
_cell_angle_gamma 90.000000
_cell_volume 2856.748178
_symmetry_space_group_name_H-M "C 2/M"
_symmetry_group_IT_number 12
_symmetry_cell_setting 'monoclinic'
loop_
_space_group_symop_operation_xyz
x,y,z
-x,y,-z
-x,-y,-z
x,-y,z
1/2+x,1/2+y,z
1/2-x,1/2+y,-z
1/2-x,1/2-y,-z
1/2+x,1/2-y,z
loop_
_atom_site_type_symbol
_atom_site_label
_atom_site_fract_x
_atom_site_fract_y
_atom_site_fract_z
Si Si1 0.522393 0.411749 0.614492
Si Si2 0.103772 0.665126 0.688697
Si Si3 0.276146 0.344185 0.854959
Si Si4 0.283943 0.089101 0.265621
Si Si5 0.386391 0.089826 0.818523
Si Si6 0.245029 0.321262 0.178696
Si Si7 0.808301 0.182062 0.316843
Si Si8 0.520187 0.413144 0.118715
O O1 0.509050 0.500000 0.602616
O O2 0.412798 0.366411 0.690535
O O3 0.653790 0.386807 0.444086
O O4 0.509490 0.406578 0.739523
O O5 0.124630 0.608910 0.752363
O O6 0.114910 0.748011 0.724230
O O7 0.212060 0.661125 0.498559
O O8 0.988146 0.640214 0.757144
O O9 0.197614 0.369528 0.851582
O O10 0.266750 0.254442 0.869722
O O11 0.229440 0.391155 0.993555
O O12 0.281646 0.000000 0.250923
O O13 0.354627 0.120687 0.750328
O O14 0.411384 0.000000 0.793095
O O15 0.243445 0.300066 0.289563
O O16 0.371427 0.359325 0.022709
O O17 0.899980 0.114333 0.199774
O O18 0.549544 0.500000 0.066340
#
# Coordination Sequence:
#
# PCOD9211188 Si02
#       8
#     8   8   8   8   8   8   8   8
#     4  10  21  39  68 102 131 166 218 278 336 392
#     4  11  25  46  69  99 137 181 228 275 334 416
#     4  12  24  42  67 101 137 179 220 281 343 405
#     4  11  22  42  70 102 134 173 226 283 341 402
#     4  12  27  45  67  98 142 188 226 273 339 416
#     4  12  26  44  68 103 134 176 227 279 341 410
#     4  11  25  46  71  99 133 176 229 285 341 397
#     4  11  23  42  71  98 128 171 224 286 338 387
#
# _framework density 22.403095
#
# number of rings (size 3 to 8) (size 9 to 14) (size 15 to 20)
#    0.000    0.750    3.750    3.750    1.750    4.000 
#    2.250    1.875    0.000    0.000    0.000    0.000 
#    0.000    0.000    0.000    0.000    0.000    0.000 
#
# Total GULP energy -179105.974423 kJ/mol
# GULP energy per Si atom -5597.061701 kJ/mol
# Density = 2.235210 g / cm^3
# Si number density = 22.403095 Si / 1000 Ang^3
#
#
#
# Elastic Constant Matrix: (Units=GPa)
#
#
# Indices 1 2 3 4 5 6 
#
# 1 115.5048 10.9906 7.7497 0.0000 5.8469 0.0000
# 2 10.9906 70.1275 10.9634 0.0000 6.3761 0.0000
# 3 7.7497 10.9634 27.8137 0.0000 -5.4838 0.0000
# 4 0.0000 0.0000 0.0000 -116.0533 0.0000 -72.7672
# 5 5.8469 6.3761 -5.4838 0.0000 32.6183 0.0000
# 6 0.0000 0.0000 0.0000 -72.7672 0.0000 8.1678
#
#
#
# Elastic Compliance Matrix: (Units=1/GPa)
#
#
# Indices 1 2 3 4 5 6 
#
# 1 0.009004 -0.000842 -0.002547 0.000000 -0.001877 0.000000
# 2 -0.000842 0.015828 -0.006810 0.000000 -0.004088 0.000000
# 3 -0.002547 -0.006810 0.041061 0.000000 0.008691 0.000000
# 4 0.000000 0.000000 0.000000 -0.001308 0.000000 -0.011656
# 5 -0.001877 -0.004088 0.008691 0.000000 0.033254 0.000000
# 6 0.000000 0.000000 0.000000 -0.011656 0.000000 0.018589
#
#
# Mechanical properties :
#
#
# Convention : Reuss Voigt Hill
#
# Bulk Modulus (GPa) = 21.98085 30.31702 26.14894
# Shear Modulus (GPa) = 32.89644 -2.80395 15.04625
#
# Velocity S-wave (km/s) = 3.83611 -1.11996 2.59436
# Velocity P-wave (km/s) = 5.42714 3.44811 4.54661
#
# Compressibility (1/GPa) = 0.04549414
#
# Stress axis : x y z
#
# Youngs Moduli (GPa) = 111.06537 63.17871 24.35391
#
# Poissons Ratio (x) = 0.05321 0.06203
# Poissons Ratio (y) = 0.09354 0.16586
# Poissons Ratio (z) = 0.28287 0.43027
#
# Static dielectric constant tensor:
#      x y z
#    x 1.875040 0.000000 0.022020 
#    y 0.000000 1.812470 0.000000 
#    z 0.022020 0.000000 1.810130 
# 
# From -- ./inp_files/226839.got.cif
#   From: 2010.05.17/outbox.cif.g08.bks.cpg/sg12_114_cif.got.tgz:226839.got - 2010.06.03 13:09:07.
