data_PCOD9211321
_publ_section_title
;
Structure prediction by ZEFSAII (Michael W. Deem and Ramdas Pophale) SiO2 
 PCOD9211321
Probable space group: C 2/M
;
_chemical_formula_sum "Si O2"
_cell_formula_units_Z 50
_cell_length_a 9.018853
_cell_length_b 10.310767
_cell_length_c 29.012179
_cell_angle_alpha 90.000000
_cell_angle_beta 121.362541
_cell_angle_gamma 90.000000
_cell_volume 2303.696109
_symmetry_space_group_name_H-M "C 2/M"
_symmetry_group_IT_number 12
_symmetry_cell_setting 'monoclinic'
loop_
_space_group_symop_operation_xyz
x,y,z
-x,y,-z
-x,-y,-z
x,-y,z
1/2+x,1/2+y,z
1/2-x,1/2+y,-z
1/2-x,1/2-y,-z
1/2+x,1/2-y,z
loop_
_atom_site_type_symbol
_atom_site_label
_atom_site_fract_x
_atom_site_fract_y
_atom_site_fract_z
Si Si1 0.706891 0.350059 0.034090
Si Si2 0.676482 0.644012 0.872392
Si Si3 0.748439 0.764403 0.554702
Si Si4 0.325408 0.773990 0.800130
Si Si5 0.537559 0.853656 0.272676
Si Si6 0.628124 0.351996 0.621567
Si Si7 0.000000 0.500000 0.500000
O O1 0.776151 0.500000 0.042601
O O2 0.766194 0.268511 0.088401
O O3 0.500000 0.361556 0.000000
O O4 0.750000 0.250000 0.000000
O O5 0.710944 0.500000 0.898104
O O6 0.469209 0.662843 0.832706
O O7 0.776605 0.655465 0.839877
O O8 0.750000 0.750000 0.500000
O O9 0.666658 0.653621 0.573069
O O10 0.872651 0.611922 0.457319
O O11 0.947668 0.781995 0.601358
O O12 0.412551 0.854934 0.773312
O O13 0.142123 0.720989 0.752102
O O14 0.703201 0.794982 0.325907
O O15 0.514376 0.000000 0.286139
O O16 0.608975 0.500000 0.633904
#
# Coordination Sequence:
#
# PCOD9211321 Si02
#       7
#     8   8   8   8   8   8   2
#     4  11  25  43  64  94 131 169 211 259 310 365
#     4  11  23  39  64  94 124 166 209 255 306 366
#     4  12  24  40  60  87 118 154 198 244 299 362
#     4  10  22  39  62  89 125 157 206 250 305 361
#     4  10  21  40  61  87 119 158 196 251 303 359
#     4  11  24  39  63  88 118 154 200 244 301 362
#     4  12  24  40  60  84 120 156 190 250 300 352
#
# _framework density 21.704249999999998
#
# number of rings (size 3 to 8) (size 9 to 14) (size 15 to 20)
#    0.000    1.120    2.400    3.360    1.120    8.320 
#    0.000    0.000    1.760    0.000    0.000    0.000 
#    0.000    0.000    0.000    0.000    0.000    0.000 
#
# Total GULP energy -139245.587765 kJ/mol
# GULP energy per Si atom -5569.823511 kJ/mol
# Density = 2.165485 g / cm^3
# Si number density = 21.704250 Si / 1000 Ang^3
#
#
#
# Elastic Constant Matrix: (Units=GPa)
#
#
# Indices 1 2 3 4 5 6 
#
# 1 93.3386 18.4791 11.0484 0.0000 9.5399 0.0000
# 2 18.4791 110.7677 14.5254 0.0000 5.3336 0.0000
# 3 11.0484 14.5254 70.3828 0.0000 6.7578 0.0000
# 4 0.0000 0.0000 0.0000 20.0042 0.0000 9.8131
# 5 9.5399 5.3336 6.7578 0.0000 43.5820 0.0000
# 6 0.0000 0.0000 0.0000 9.8131 0.0000 -1.8868
#
#
#
# Elastic Compliance Matrix: (Units=1/GPa)
#
#
# Indices 1 2 3 4 5 6 
#
# 1 0.011400 -0.001637 -0.001250 0.000000 -0.002101 0.000000
# 2 -0.001637 0.009545 -0.001660 0.000000 -0.000552 0.000000
# 3 -0.001250 -0.001660 0.014923 0.000000 -0.001837 0.000000
# 4 0.000000 0.000000 0.000000 0.014076 0.000000 0.073210
# 5 -0.002101 -0.000552 -0.001837 0.000000 0.023758 0.000000
# 6 0.000000 0.000000 0.000000 0.073210 0.000000 -0.149239
#
#
# Mechanical properties :
#
#
# Convention : Reuss Voigt Hill
#
# Bulk Modulus (GPa) = 37.34774 40.28832 38.81803
# Shear Modulus (GPa) = -86.92955 27.70230 -29.61363
#
# Velocity S-wave (km/s) = -6.33552 3.57648 -3.69781
# Velocity P-wave (km/s) = 6.02275 5.97141 0.55488
#
# Compressibility (1/GPa) = 0.02677538
#
# Stress axis : x y z
#
# Youngs Moduli (GPa) = 87.71561 104.76420 67.00966
#
# Poissons Ratio (x) = 0.17148 0.08376
# Poissons Ratio (y) = 0.14357 0.11123
# Poissons Ratio (z) = 0.10965 0.17390
#
# Static dielectric constant tensor:
#      x y z
#    x 1.761270 0.000000 0.013240 
#    y 0.000000 1.795590 0.000000 
#    z 0.013240 0.000000 1.822970 
# 
# From -- ./inp_files/355914.got.cif
#   From: 2010.05.17/outbox.cif.g08.bks.cpg/sg12_178_cif.got.tgz:355914.got - 2010.06.03 13:09:07.
