data_PCOD9211485
_publ_section_title
;
Structure prediction by ZEFSAII (Michael W. Deem and Ramdas Pophale) SiO2 
 PCOD9211485
Probable space group: C 2/M
;
_chemical_formula_sum "Si O2"
_cell_formula_units_Z 56
_cell_length_a 28.322173
_cell_length_b 8.176823
_cell_length_c 12.786433
_cell_angle_alpha 90.000000
_cell_angle_beta 124.371774
_cell_angle_gamma 90.000000
_cell_volume 2444.109641
_symmetry_space_group_name_H-M "C 2/M"
_symmetry_group_IT_number 12
_symmetry_cell_setting 'monoclinic'
loop_
_space_group_symop_operation_xyz
x,y,z
-x,y,-z
-x,-y,-z
x,-y,z
1/2+x,1/2+y,z
1/2-x,1/2+y,-z
1/2-x,1/2-y,-z
1/2+x,1/2-y,z
loop_
_atom_site_type_symbol
_atom_site_label
_atom_site_fract_x
_atom_site_fract_y
_atom_site_fract_z
Si Si1 0.002809 0.686489 0.334977
Si Si2 0.631678 0.194678 0.524462
Si Si3 0.673651 0.310667 0.125077
Si Si4 0.381466 0.804820 0.146132
Si Si5 0.290209 0.686978 0.193668
Si Si6 0.521138 0.686823 0.138699
Si Si7 0.157057 0.186188 0.330678
O O1 0.002121 0.500000 0.372323
O O2 0.939936 0.760885 0.274309
O O3 0.065103 0.754998 0.443693
O O4 0.004585 0.694628 0.211305
O O5 0.668198 0.287237 0.655834
O O6 0.659337 0.222532 0.444312
O O7 0.631618 0.000000 0.545926
O O8 0.658335 0.500000 0.120808
O O9 0.734593 0.294151 0.145558
O O10 0.680606 0.240200 0.251532
O O11 0.627405 0.237070 0.987220
O O12 0.327222 0.737359 0.140302
O O13 0.382996 0.000000 0.158332
O O14 0.271152 0.500000 0.160481
O O15 0.499997 0.500000 0.132626
O O16 0.589380 0.678475 0.223309
O O17 0.500000 0.740314 0.000000
O O18 0.179166 0.000000 0.372869
#
# Coordination Sequence:
#
# PCOD9211485 Si02
#       7
#     8   8   8   8   8   8   8
#     4   9  20  36  57  85 117 153 191 236 289 347
#     4  10  21  40  63  89 121 157 198 241 291 350
#     4  11  23  41  64  90 120 156 199 245 295 349
#     4  11  23  41  63  89 121 156 197 244 296 351
#     4  12  26  43  62  85 116 156 202 250 299 351
#     4   9  16  28  49  79 115 152 189 233 285 341
#     4   9  19  35  57  86 119 154 193 239 291 349
#
# _framework density 22.912227000000001
#
# number of rings (size 3 to 8) (size 9 to 14) (size 15 to 20)
#    0.000    1.857    0.000    3.857    0.000    5.429 
#    0.000    5.714    0.000    0.000    0.000    0.000 
#    0.000    0.000    0.000    0.000    0.000    0.000 
#
# Total GULP energy -156359.420954 kJ/mol
# GULP energy per Si atom -5584.265034 kJ/mol
# Density = 2.286008 g / cm^3
# Si number density = 22.912227 Si / 1000 Ang^3
#
#
#
# Elastic Constant Matrix: (Units=GPa)
#
#
# Indices 1 2 3 4 5 6 
#
# 1 82.1361 -4.6353 10.0768 0.0000 -3.1922 0.0000
# 2 -4.6353 37.9569 0.8668 0.0000 -7.9088 0.0000
# 3 10.0768 0.8668 96.6402 0.0000 -5.0188 0.0000
# 4 0.0000 0.0000 0.0000 23.5766 0.0000 0.4773
# 5 -3.1922 -7.9088 -5.0188 0.0000 35.3697 0.0000
# 6 0.0000 0.0000 0.0000 0.4773 0.0000 14.4514
#
#
#
# Elastic Compliance Matrix: (Units=1/GPa)
#
#
# Indices 1 2 3 4 5 6 
#
# 1 0.012484 0.001837 -0.001248 0.000000 0.001360 0.000000
# 2 0.001837 0.027904 -0.000110 0.000000 0.006390 0.000000
# 3 -0.001248 -0.000110 0.010549 0.000000 0.001360 0.000000
# 4 0.000000 0.000000 0.000000 0.042443 0.000000 -0.001402
# 5 0.001360 0.006390 0.001360 0.000000 0.030017 0.000000
# 6 0.000000 0.000000 0.000000 -0.001402 0.000000 0.069244
#
#
# Mechanical properties :
#
#
# Convention : Reuss Voigt Hill
#
# Bulk Modulus (GPa) = 19.26943 25.48331 22.37637
# Shear Modulus (GPa) = 23.92543 28.70786 26.31664
#
# Velocity S-wave (km/s) = 3.23495 3.54354 3.39275
# Velocity P-wave (km/s) = 4.73091 5.28096 5.01349
#
# Compressibility (1/GPa) = 0.05189566
#
# Stress axis : x y z
#
# Youngs Moduli (GPa) = 80.09943 35.83739 94.79255
#
# Poissons Ratio (x) = -0.06582 0.11826
# Poissons Ratio (y) = -0.14711 0.01042
# Poissons Ratio (z) = 0.09993 0.00394
#
# Static dielectric constant tensor:
#      x y z
#    x 1.899170 0.000000 -0.001510 
#    y 0.000000 1.833390 0.000000 
#    z -0.001510 0.000000 1.865960 
# 
# From -- ./inp_files/181103.got.cif
#   From: 2010.05.17/outbox.cif.g08.bks.cpg/sg12_91_cif.got.tgz:181103.got - 2010.06.03 13:09:07.
