data_PCOD9211018
_publ_section_title
;
Structure prediction by ZEFSAII (Michael W. Deem and Ramdas Pophale) SiO2 
 PCOD9211018
Probable space group: C 2/M
;
_chemical_formula_sum "Si O2"
_cell_formula_units_Z 58
_cell_length_a 18.562755
_cell_length_b 21.722194
_cell_length_c 7.561297
_cell_angle_alpha 90.000000
_cell_angle_beta 130.440760
_cell_angle_gamma 90.000000
_cell_volume 2320.443728
_symmetry_space_group_name_H-M "C 2/M"
_symmetry_group_IT_number 12
_symmetry_cell_setting 'monoclinic'
loop_
_space_group_symop_operation_xyz
x,y,z
-x,y,-z
-x,-y,-z
x,-y,z
1/2+x,1/2+y,z
1/2-x,1/2+y,-z
1/2-x,1/2-y,-z
1/2+x,1/2-y,z
loop_
_atom_site_type_symbol
_atom_site_label
_atom_site_fract_x
_atom_site_fract_y
_atom_site_fract_z
Si Si1 0.602521 0.568896 0.322151
Si Si2 0.191549 0.070815 0.065839
Si Si3 0.154719 0.351269 0.532792
Si Si4 0.000000 0.500000 0.500000
Si Si5 0.290209 0.749009 0.865884
Si Si6 0.014797 0.404079 0.814812
Si Si7 0.456428 0.664151 0.245085
Si Si8 0.291443 0.890549 0.761001
O O1 0.559446 0.500000 0.276358
O O2 0.642135 0.572560 0.183798
O O3 0.536164 0.627103 0.261370
O O4 0.692883 0.575173 0.594277
O O5 0.288611 0.109439 0.230505
O O6 0.205414 0.000000 0.040375
O O7 0.119403 0.109944 0.832993
O O8 0.214689 0.288953 0.629824
O O9 0.041280 0.342211 0.335652
O O10 0.174647 0.390445 0.388324
O O11 0.028434 0.448246 0.398235
O O12 0.290581 0.818527 0.803524
O O13 0.250000 0.750000 0.000000
O O14 0.392094 0.714459 0.039338
O O15 0.000000 0.414254 0.000000
O O16 0.126777 0.415493 0.983007
O O17 0.500000 0.687279 0.500000
#
# Coordination Sequence:
#
# PCOD9211018 Si02
#       8
#     8   8   8   2   8   8   8   8
#     4  10  21  39  65  94 127 164 203 258 321 392
#     4   9  19  37  63  91 123 163 208 254 319 391
#     4   9  21  42  65  92 124 166 218 273 328 387
#     4  12  26  40  68  98 132 174 226 268 350 398
#     4  11  24  41  64  89 126 169 218 272 326 396
#     4  10  24  44  66  97 134 171 224 279 329 405
#     4  11  23  39  56  89 126 164 208 257 316 375
#     4  10  22  42  66  93 126 168 219 266 329 394
#
# _framework density 24.995218999999999
#
# number of rings (size 3 to 8) (size 9 to 14) (size 15 to 20)
#    0.000    1.931    0.000    2.276    3.862    4.414 
#    0.000    8.276    0.000    0.000    0.000    0.000 
#    0.000    0.000    0.000    0.000    0.000    0.000 
#
# Total GULP energy -161564.717115 kJ/mol
# GULP energy per Si atom -5571.197142 kJ/mol
# Density = 2.493833 g / cm^3
# Si number density = 24.995219 Si / 1000 Ang^3
#
#
#
# Elastic Constant Matrix: (Units=GPa)
#
#
# Indices 1 2 3 4 5 6 
#
# 1 72.2333 -3.2319 30.9594 0.0000 -15.1269 0.0000
# 2 -3.2319 73.1883 11.7774 0.0000 11.6928 0.0000
# 3 30.9594 11.7774 104.1429 0.0000 27.8888 0.0000
# 4 0.0000 0.0000 0.0000 0.8465 0.0000 -1.6129
# 5 -15.1269 11.6928 27.8888 0.0000 29.5019 0.0000
# 6 0.0000 0.0000 0.0000 -1.6129 0.0000 24.6744
#
#
#
# Elastic Compliance Matrix: (Units=1/GPa)
#
#
# Indices 1 2 3 4 5 6 
#
# 1 0.026274 -0.000898 -0.015280 0.000000 0.028272 0.000000
# 2 -0.000898 0.014619 0.000386 0.000000 -0.006620 0.000000
# 3 -0.015280 0.000386 0.021745 0.000000 -0.028544 0.000000
# 4 0.000000 0.000000 0.000000 1.349354 0.000000 0.088205
# 5 0.028272 -0.006620 -0.028544 0.000000 0.077999 0.000000
# 6 0.000000 0.000000 0.000000 0.088205 0.000000 0.046294
#
#
# Mechanical properties :
#
#
# Convention : Reuss Voigt Hill
#
# Bulk Modulus (GPa) = 32.20150 36.50824 34.35487
# Shear Modulus (GPa) = 3.16813 25.00854 14.08833
#
# Velocity S-wave (km/s) = 1.12705 3.16655 2.37669
# Velocity P-wave (km/s) = 3.82161 5.29218 4.61584
#
# Compressibility (1/GPa) = 0.03105445
#
# Stress axis : x y z
#
# Youngs Moduli (GPa) = 38.06093 68.40338 45.98800
#
# Poissons Ratio (x) = 0.06141 0.70270
# Poissons Ratio (y) = 0.03417 -0.01777
# Poissons Ratio (z) = 0.58158 -0.02643
#
# Static dielectric constant tensor:
#      x y z
#    x 2.027360 0.000000 0.083630 
#    y 0.000000 1.448130 0.000000 
#    z 0.083630 0.000000 2.047550 
# 
# From -- ./inp_files/90834.got.cif
#   From: 2010.05.17/outbox.cif.g08.bks.cpg/sg12_46_cif.got.tgz:90834.got - 2010.06.03 13:09:07.
