data_PCOD9211967
_publ_section_title
;
Structure prediction by ZEFSAII (Michael W. Deem and Ramdas Pophale) SiO2 
 PCOD9211967
Probable space group: C 2/M
;
_chemical_formula_sum "Si O2"
_cell_formula_units_Z 56
_cell_length_a 9.104181
_cell_length_b 29.225738
_cell_length_c 23.817333
_cell_angle_alpha 90.000000
_cell_angle_beta 27.449180
_cell_angle_gamma 90.000000
_cell_volume 2921.220347
_symmetry_space_group_name_H-M "C 2/M"
_symmetry_group_IT_number 12
_symmetry_cell_setting 'monoclinic'
loop_
_space_group_symop_operation_xyz
x,y,z
-x,y,-z
-x,-y,-z
x,-y,z
1/2+x,1/2+y,z
1/2-x,1/2+y,-z
1/2-x,1/2-y,-z
1/2+x,1/2-y,z
loop_
_atom_site_type_symbol
_atom_site_label
_atom_site_fract_x
_atom_site_fract_y
_atom_site_fract_z
Si Si1 0.379514 0.306098 0.191830
Si Si2 0.569640 0.947538 0.910527
Si Si3 0.625972 0.350858 0.611950
Si Si4 0.278580 0.790344 0.166177
Si Si5 0.667470 0.362621 0.003771
Si Si6 0.228004 0.203505 0.473492
Si Si7 0.383633 0.449792 0.357121
O O1 0.322183 0.261703 0.171644
O O2 0.656622 0.295520 0.143567
O O3 0.067153 0.311777 0.335563
O O4 0.434296 0.350524 0.134753
O O5 0.367750 0.908778 0.946887
O O6 0.943040 0.945743 0.763374
O O7 0.466621 0.000000 0.933481
O O8 0.500000 0.939453 0.000000
O O9 0.469929 0.316200 0.708847
O O10 0.579575 0.332780 0.565657
O O11 0.499727 0.402458 0.656485
O O12 0.000000 0.351341 0.500000
O O13 0.595947 0.819252 0.070194
O O14 0.500000 0.363151 0.000000
O O15 0.250000 0.250000 0.500000
O O16 0.000000 0.212582 0.500000
O O17 0.490185 0.500000 0.341906
O O18 0.000000 0.449692 0.500000
#
# Coordination Sequence:
#
# PCOD9211967 Si02
#       7
#     8   8   8   8   8   8   8
#     4  12  25  40  63  87 125 166 211 260 314 376
#     4  10  21  40  68  98 127 163 211 266 318 379
#     4  11  21  37  63  93 125 161 205 253 313 375
#     4  12  23  41  61  87 122 163 208 262 311 380
#     4  12  27  42  61  88 124 170 215 261 320 378
#     4  12  24  38  60  91 126 162 206 256 313 378
#     4   9  19  36  65  98 126 158 203 256 313 374
#
# _framework density 19.170069999999999
#
# number of rings (size 3 to 8) (size 9 to 14) (size 15 to 20)
#    0.000    0.857    4.286    3.857    2.000    0.286 
#    0.000    0.000    0.000    0.429    0.000    0.000 
#    0.000    0.000    0.000    0.000    0.000    0.000 
#
# Total GULP energy -156120.296684 kJ/mol
# GULP energy per Si atom -5575.724882 kJ/mol
# Density = 1.912644 g / cm^3
# Si number density = 19.170070 Si / 1000 Ang^3
#
#
#
# Elastic Constant Matrix: (Units=GPa)
#
#
# Indices 1 2 3 4 5 6 
#
# 1 123.9512 37.3810 32.2348 -0.0018 21.1512 0.0014
# 2 37.3810 113.5579 33.8185 0.0021 13.9514 0.0006
# 3 32.2348 33.8185 127.1974 -0.0269 15.1322 0.0072
# 4 -0.0018 0.0021 -0.0269 46.7113 0.0114 7.0072
# 5 21.1512 13.9514 15.1322 0.0114 23.7692 -0.0043
# 6 0.0014 0.0006 0.0072 7.0072 -0.0043 25.1310
#
#
#
# Elastic Compliance Matrix: (Units=1/GPa)
#
#
# Indices 1 2 3 4 5 6 
#
# 1 0.010232 -0.002145 -0.001178 0.000002 -0.007095 -0.000002
# 2 -0.002145 0.010442 -0.001872 -0.000001 -0.003028 0.000000
# 3 -0.001178 -0.001872 0.009091 0.000007 -0.003640 -0.000005
# 4 0.000002 -0.000001 0.000007 0.022343 -0.000017 -0.006230
# 5 -0.007095 -0.003028 -0.003640 -0.000017 0.052480 0.000015
# 6 -0.000002 0.000000 -0.000005 -0.006230 0.000015 0.041528
#
#
# Mechanical properties :
#
#
# Convention : Reuss Voigt Hill
#
# Bulk Modulus (GPa) = 51.61914 63.50834 57.56374
# Shear Modulus (GPa) = 30.68120 36.54044 33.61082
#
# Velocity S-wave (km/s) = 4.00493 4.37065 4.19178
# Velocity P-wave (km/s) = 6.95495 7.65969 7.31581
#
# Compressibility (1/GPa) = 0.01937266
#
# Stress axis : x y z
#
# Youngs Moduli (GPa) = 97.73288 95.76799 109.99515
#
# Poissons Ratio (x) = 0.20547 0.12963
# Poissons Ratio (y) = 0.20968 0.20595
# Poissons Ratio (z) = 0.11518 0.17931
#
# Static dielectric constant tensor:
#      x y z
#    x 1.634910 0.000000 -0.000350 
#    y 0.000000 1.679870 0.000010 
#    z -0.000350 0.000010 1.785920 
# 
# From -- ./inp_files/302979.got.cif
#   From: 2010.05.17/outbox.cif.g08.bks.cpg/sg12_152_cif.got.tgz:302979.got - 2010.06.03 13:09:07.
