data_PCOD9211430
_publ_section_title
;
Structure prediction by ZEFSAII (Michael W. Deem and Ramdas Pophale) SiO2 
 PCOD9211430
Probable space group: C 2/M
;
_chemical_formula_sum "Si O2"
_cell_formula_units_Z 34
_cell_length_a 18.864685
_cell_length_b 12.801886
_cell_length_c 8.859010
_cell_angle_alpha 90.000000
_cell_angle_beta 139.562352
_cell_angle_gamma 90.000000
_cell_volume 1387.711362
_symmetry_space_group_name_H-M "C 2/M"
_symmetry_group_IT_number 12
_symmetry_cell_setting 'monoclinic'
loop_
_space_group_symop_operation_xyz
x,y,z
-x,y,-z
-x,-y,-z
x,-y,z
1/2+x,1/2+y,z
1/2-x,1/2+y,-z
1/2-x,1/2-y,-z
1/2+x,1/2-y,z
loop_
_atom_site_type_symbol
_atom_site_label
_atom_site_fract_x
_atom_site_fract_y
_atom_site_fract_z
Si Si1 0.558129 0.343621 0.368624
Si Si2 0.651803 0.886234 0.499036
Si Si3 0.173252 0.195024 0.997474
Si Si4 0.699507 0.111426 0.223939
Si Si5 0.500000 0.500000 0.000000
O O1 0.582913 0.218900 0.407019
O O2 0.673534 0.384816 0.617829
O O3 0.541695 0.407765 0.186654
O O4 0.437617 0.354068 0.245131
O O5 0.753013 0.879854 0.779837
O O6 0.695149 0.881370 0.397756
O O7 0.598291 0.000000 0.432946
O O8 0.141478 0.289371 0.059257
O O9 0.250000 0.250000 0.000000
O O10 0.651535 0.000000 0.100801
#
# Coordination Sequence:
#
# PCOD9211430 Si02
#       5
#     8   8   8   8   2
#     4  11  22  38  65  98 126 167 218 267 324 388
#     4  10  23  42  67  95 132 168 218 278 328 381
#     4  11  25  41  60  92 133 173 216 259 326 399
#     4  10  21  40  62  95 127 159 214 276 320 373
#     4  12  20  36  74 102 120 164 228 272 336 376
#
# _framework density 24.500772000000001
#
# number of rings (size 3 to 8) (size 9 to 14) (size 15 to 20)
#    0.000    1.412    1.176    5.647    4.941    5.647 
#    0.000    5.294    0.000    0.000    0.000    0.000 
#    0.000    0.000    0.000    0.000    0.000    0.000 
#
# Total GULP energy -94679.629039 kJ/mol
# GULP energy per Si atom -5569.389943 kJ/mol
# Density = 2.444501 g / cm^3
# Si number density = 24.500772 Si / 1000 Ang^3
#
#
#
# Elastic Constant Matrix: (Units=GPa)
#
#
# Indices 1 2 3 4 5 6 
#
# 1 34.2021 -17.3638 10.0257 0.0000 8.5420 0.0000
# 2 -17.3638 169.4612 13.9099 0.0000 -5.8228 0.0000
# 3 10.0257 13.9099 102.5482 0.0000 22.1341 0.0000
# 4 0.0000 0.0000 0.0000 -9.6653 0.0000 -4.1998
# 5 8.5420 -5.8228 22.1341 0.0000 39.0056 0.0000
# 6 0.0000 0.0000 0.0000 -4.1998 0.0000 -3.9402
#
#
#
# Elastic Compliance Matrix: (Units=1/GPa)
#
#
# Indices 1 2 3 4 5 6 
#
# 1 0.033037 0.003414 -0.002554 0.000000 -0.005276 0.000000
# 2 0.003414 0.006402 -0.001421 0.000000 0.001015 0.000000
# 3 -0.002554 -0.001421 0.011531 0.000000 -0.006196 0.000000
# 4 0.000000 0.000000 0.000000 -0.192723 0.000000 0.205419
# 5 -0.005276 0.001015 -0.006196 0.000000 0.030460 0.000000
# 6 0.000000 0.000000 0.000000 0.205419 0.000000 -0.472743
#
#
# Mechanical properties :
#
#
# Convention : Reuss Voigt Hill
#
# Bulk Modulus (GPa) = 20.06117 35.48391 27.77254
# Shear Modulus (GPa) = -8.82933 25.05599 8.11333
#
# Velocity S-wave (km/s) = -1.90040 3.20138 1.82172
# Velocity P-wave (km/s) = 1.84130 5.30842 3.97301
#
# Compressibility (1/GPa) = 0.04984754
#
# Stress axis : x y z
#
# Youngs Moduli (GPa) = 30.26878 156.19293 86.71954
#
# Poissons Ratio (x) = -0.53317 0.22149
# Poissons Ratio (y) = -0.10332 0.12324
# Poissons Ratio (z) = 0.07731 0.22197
#
# Static dielectric constant tensor:
#      x y z
#    x 1.980790 0.000000 0.005180 
#    y 0.000000 1.939450 0.000000 
#    z 0.005180 0.000000 1.923650 
# 
# From -- ./inp_files/73418.got.cif
#   From: 2010.05.17/outbox.cif.g08.bks.cpg/sg12_37_cif.got.tgz:73418.got - 2010.06.03 13:09:07.
