data_PCOD9211831
_publ_section_title
;
Structure prediction by ZEFSAII (Michael W. Deem and Ramdas Pophale) SiO2 
 PCOD9211831
Probable space group: C 2/M
;
_chemical_formula_sum "Si O2"
_cell_formula_units_Z 48
_cell_length_a 8.346630
_cell_length_b 17.844212
_cell_length_c 20.329376
_cell_angle_alpha 90.000000
_cell_angle_beta 138.098643
_cell_angle_gamma 90.000000
_cell_volume 2022.141929
_symmetry_space_group_name_H-M "C 2/M"
_symmetry_group_IT_number 12
_symmetry_cell_setting 'monoclinic'
loop_
_space_group_symop_operation_xyz
x,y,z
-x,y,-z
-x,-y,-z
x,-y,z
1/2+x,1/2+y,z
1/2-x,1/2+y,-z
1/2-x,1/2-y,-z
1/2+x,1/2-y,z
loop_
_atom_site_type_symbol
_atom_site_label
_atom_site_fract_x
_atom_site_fract_y
_atom_site_fract_z
Si Si1 0.501931 0.412604 0.412661
Si Si2 0.459692 0.087450 0.212528
Si Si3 0.026528 0.913065 0.850391
Si Si4 0.241876 0.168665 0.030897
Si Si5 0.894255 0.174437 0.688368
Si Si6 0.374490 0.191501 0.587784
O O1 0.543083 0.500000 0.429285
O O2 0.571145 0.380536 0.362127
O O3 0.686023 0.374909 0.519618
O O4 0.214153 0.400924 0.324842
O O5 0.576335 0.241582 0.331835
O O6 0.235376 0.096662 0.194046
O O7 0.447482 0.000000 0.186394
O O8 0.049645 0.855059 0.797172
O O9 0.045303 0.000000 0.835574
O O10 0.215529 0.891396 0.964471
O O11 0.438872 0.143310 0.144159
O O12 0.250000 0.250000 0.000000
O O13 0.000000 0.165435 0.000000
O O14 0.625248 0.169429 0.632980
O O15 0.250000 0.250000 0.500000
#
# Coordination Sequence:
#
# PCOD9211831 Si02
#       6
#     8   8   8   8   8   8
#     4  10  21  40  66  94 125 164 212 264 318 379
#     4   9  20  41  67  94 127 165 209 262 315 372
#     4  10  22  41  66  94 125 167 214 260 314 375
#     4  10  22  39  62  94 130 168 208 254 310 376
#     4  11  24  40  63  91 125 168 214 263 317 378
#     4  10  23  41  61  88 122 165 211 262 319 374
#
# _framework density 23.737206
#
# number of rings (size 3 to 8) (size 9 to 14) (size 15 to 20)
#    0.000    2.000    0.000    3.000    0.000   14.667 
#    0.000    1.667    0.000   16.000    0.000    0.000 
#    0.000    0.000    0.000    0.000    0.000    0.000 
#
# Total GULP energy -134180.324660 kJ/mol
# GULP energy per Si atom -5590.846861 kJ/mol
# Density = 2.368318 g / cm^3
# Si number density = 23.737206 Si / 1000 Ang^3
#
#
#
# Elastic Constant Matrix: (Units=GPa)
#
#
# Indices 1 2 3 4 5 6 
#
# 1 50.3027 21.9971 34.4281 0.0000 -20.0325 0.0000
# 2 21.9971 165.3429 54.7115 0.0000 -27.1006 0.0000
# 3 34.4281 54.7115 106.9441 -0.0001 -39.8673 -0.0001
# 4 0.0000 0.0000 -0.0001 44.4454 -0.0001 -11.0818
# 5 -20.0325 -27.1006 -39.8673 -0.0001 41.6824 -0.0001
# 6 0.0000 0.0000 -0.0001 -11.0818 -0.0001 35.3893
#
#
#
# Elastic Compliance Matrix: (Units=1/GPa)
#
#
# Indices 1 2 3 4 5 6 
#
# 1 0.026854 -0.000512 -0.005744 0.000000 0.007079 0.000000
# 2 -0.000512 0.007380 -0.002974 0.000000 0.001708 0.000000
# 3 -0.005744 -0.002974 0.017051 0.000000 0.011614 0.000000
# 4 0.000000 0.000000 0.000000 0.024405 0.000000 0.007642
# 5 0.007079 0.001708 0.011614 0.000000 0.039612 0.000000
# 6 0.000000 0.000000 0.000000 0.007642 0.000000 0.030650
#
#
# Mechanical properties :
#
#
# Convention : Reuss Voigt Hill
#
# Bulk Modulus (GPa) = 30.46444 60.54034 45.50239
# Shear Modulus (GPa) = 28.51365 38.40028 33.45697
#
# Velocity S-wave (km/s) = 3.46962 4.02646 3.75837
# Velocity P-wave (km/s) = 5.37708 6.86850 6.16803
#
# Compressibility (1/GPa) = 0.03282516
#
# Stress axis : x y z
#
# Youngs Moduli (GPa) = 37.23823 135.49782 58.64713
#
# Poissons Ratio (x) = 0.06931 0.33688
# Poissons Ratio (y) = 0.01905 0.17444
# Poissons Ratio (z) = 0.21391 0.40302
#
# Static dielectric constant tensor:
#      x y z
#    x 1.964110 0.000000 -0.060130 
#    y 0.000000 1.911160 0.000000 
#    z -0.060130 0.000000 1.906040 
# 
# From -- ./inp_files/358643.got.cif
#   From: 2010.05.17/outbox.cif.g08.bks.cpg/sg12_180_cif.got.tgz:358643.got - 2010.06.03 13:09:07.
