data_PCOD9211773
_publ_section_title
;
Structure prediction by ZEFSAII (Michael W. Deem and Ramdas Pophale) SiO2 
 PCOD9211773
Probable space group: C 2/M
;
_chemical_formula_sum "Si O2"
_cell_formula_units_Z 34
_cell_length_a 10.164965
_cell_length_b 22.870865
_cell_length_c 6.901459
_cell_angle_alpha 90.000000
_cell_angle_beta 91.542297
_cell_angle_gamma 90.000000
_cell_volume 1603.880581
_symmetry_space_group_name_H-M "C 2/M"
_symmetry_group_IT_number 12
_symmetry_cell_setting 'monoclinic'
loop_
_space_group_symop_operation_xyz
x,y,z
-x,y,-z
-x,-y,-z
x,-y,z
1/2+x,1/2+y,z
1/2-x,1/2+y,-z
1/2-x,1/2-y,-z
1/2+x,1/2-y,z
loop_
_atom_site_type_symbol
_atom_site_label
_atom_site_fract_x
_atom_site_fract_y
_atom_site_fract_z
Si Si1 0.500000 0.000000 0.000000
Si Si2 0.641670 0.433814 0.408757
Si Si3 0.119577 0.702757 0.157024
Si Si4 0.602634 0.915907 0.340107
Si Si5 0.140197 0.830987 0.109326
O O1 0.565934 0.949177 0.143005
O O2 0.500000 0.423094 0.500000
O O3 0.643668 0.500000 0.327424
O O4 0.752532 0.429950 0.577243
O O5 0.670490 0.385735 0.246767
O O6 0.091315 0.653556 0.311604
O O7 0.249300 0.680977 0.047969
O O8 0.135721 0.769531 0.226292
O O9 0.000000 0.704211 0.000000
O O10 0.500000 0.934580 0.500000
O O11 0.000000 0.840622 0.000000
#
# Coordination Sequence:
#
# PCOD9211773 Si02
#       5
#     2   8   8   8   8
#     4  12  26  44  70  96 136 176 200 290 336 388
#     4  11  25  42  61  96 136 170 226 270 319 401
#     4  10  21  40  65  96 129 172 221 270 328 392
#     4  12  25  43  70 101 130 171 226 272 330 398
#     4  10  22  41  65  93 134 177 217 268 333 388
#
# _framework density 21.198585000000001
#
# number of rings (size 3 to 8) (size 9 to 14) (size 15 to 20)
#    0.000    1.176    2.353    3.176    0.000    2.353 
#    0.000    0.000    0.000    0.000    0.000    0.000 
#    0.000    0.000    0.000    0.000    0.000    0.000 
#
# Total GULP energy -94815.596191 kJ/mol
# GULP energy per Si atom -5577.388011 kJ/mol
# Density = 2.115034 g / cm^3
# Si number density = 21.198585 Si / 1000 Ang^3
#
#
#
# Elastic Constant Matrix: (Units=GPa)
#
#
# Indices 1 2 3 4 5 6 
#
# 1 125.9599 4.5348 49.0361 0.0000 26.4193 0.0000
# 2 4.5348 159.2899 56.2152 0.0000 -4.1935 0.0000
# 3 49.0361 56.2152 75.7935 0.0000 24.0376 0.0000
# 4 0.0000 0.0000 0.0000 -77.4319 0.0000 -6.2118
# 5 26.4193 -4.1935 24.0376 0.0000 21.9138 0.0000
# 6 0.0000 0.0000 0.0000 -6.2118 0.0000 25.8880
#
#
#
# Elastic Compliance Matrix: (Units=1/GPa)
#
#
# Indices 1 2 3 4 5 6 
#
# 1 0.012012 0.002166 -0.007540 0.000000 -0.005797 0.000000
# 2 0.002166 0.012344 -0.016067 0.000000 0.017375 0.000000
# 3 -0.007540 -0.016067 0.043061 0.000000 -0.041219 0.000000
# 4 0.000000 0.000000 0.000000 -0.012671 0.000000 -0.003040
# 5 -0.005797 0.017375 -0.041219 0.000000 0.101161 0.000000
# 6 0.000000 0.000000 0.000000 -0.003040 0.000000 0.037898
#
#
# Mechanical properties :
#
#
# Convention : Reuss Voigt Hill
#
# Bulk Modulus (GPa) = 40.75690 64.51283 52.63487
# Shear Modulus (GPa) = 20.41937 10.82447 15.62192
#
# Velocity S-wave (km/s) = 3.10698 2.26215 2.71759
# Velocity P-wave (km/s) = 5.66913 6.10915 5.89325
#
# Compressibility (1/GPa) = 0.02453572
#
# Stress axis : x y z
#
# Youngs Moduli (GPa) = 83.24932 81.01157 23.22281
#
# Poissons Ratio (x) = -0.17549 0.17509
# Poissons Ratio (y) = -0.18034 0.37313
# Poissons Ratio (z) = 0.62768 1.30163
#
# Static dielectric constant tensor:
#      x y z
#    x 1.762070 0.000000 -0.035140 
#    y 0.000000 1.820570 0.000000 
#    z -0.035140 0.000000 1.729390 
# 
# From -- ./inp_files/7069.got.cif
#   From: 2010.05.17/outbox.cif.g08.bks.cpg/sg12_4_cif.got.tgz:7069.got - 2010.06.03 13:09:07.
