data_PCOD9211182
_publ_section_title
;
Structure prediction by ZEFSAII (Michael W. Deem and Ramdas Pophale) SiO2 
 PCOD9211182
Probable space group: C 2/M
;
_chemical_formula_sum "Si O2"
_cell_formula_units_Z 40
_cell_length_a 14.071508
_cell_length_b 12.798488
_cell_length_c 9.317030
_cell_angle_alpha 90.000000
_cell_angle_beta 100.679337
_cell_angle_gamma 90.000000
_cell_volume 1648.878981
_symmetry_space_group_name_H-M "C 2/M"
_symmetry_group_IT_number 12
_symmetry_cell_setting 'monoclinic'
loop_
_space_group_symop_operation_xyz
x,y,z
-x,y,-z
-x,-y,-z
x,-y,z
1/2+x,1/2+y,z
1/2-x,1/2+y,-z
1/2-x,1/2-y,-z
1/2+x,1/2-y,z
loop_
_atom_site_type_symbol
_atom_site_label
_atom_site_fract_x
_atom_site_fract_y
_atom_site_fract_z
Si Si1 0.592632 0.116469 0.453700
Si Si2 0.274429 0.788313 0.167180
Si Si3 0.584042 0.620591 0.260608
Si Si4 0.517271 0.827826 0.840540
Si Si5 0.299743 0.375522 0.426211
O O1 0.500000 0.170092 0.500000
O O2 0.562462 0.117125 0.279395
O O3 0.701676 0.153578 0.486817
O O4 0.596739 0.000000 0.515758
O O5 0.182022 0.850932 0.200844
O O6 0.374827 0.851543 0.182307
O O7 0.297145 0.691967 0.281315
O O8 0.250000 0.750000 0.000000
O O9 0.557179 0.500000 0.231724
O O10 0.504714 0.704200 0.189135
O O11 0.612723 0.636384 0.436339
O O12 0.500000 0.853644 0.000000
O O13 0.293372 0.500000 0.392354
#
# Coordination Sequence:
#
# PCOD9211182 Si02
#       5
#     8   8   8   8   8
#     4  10  21  39  67  99 129 166 214 272 333 394
#     4  12  24  43  67  95 133 174 219 272 333 391
#     4  11  25  45  68  98 136 177 221 272 333 399
#     4  12  25  42  66  97 134 175 222 272 334 394
#     4  10  22  42  67  96 130 169 219 272 327 391
#
# _framework density 24.258906
#
# number of rings (size 3 to 8) (size 9 to 14) (size 15 to 20)
#    0.000    1.000    4.000    1.800    2.800    4.800 
#    0.000    2.000    0.000    0.000    0.000    0.000 
#    0.000    0.000    0.000    0.000    0.000    0.000 
#
# Total GULP energy -111936.757918 kJ/mol
# GULP energy per Si atom -5596.837896 kJ/mol
# Density = 2.420369 g / cm^3
# Si number density = 24.258906 Si / 1000 Ang^3
#
#
#
# Elastic Constant Matrix: (Units=GPa)
#
#
# Indices 1 2 3 4 5 6 
#
# 1 103.2307 0.9779 3.9956 0.0000 -18.6736 0.0000
# 2 0.9779 93.0705 17.8020 0.0000 -16.6379 0.0000
# 3 3.9956 17.8020 136.4199 0.0000 -1.0580 0.0000
# 4 0.0000 0.0000 0.0000 15.4683 0.0000 3.5779
# 5 -18.6736 -16.6379 -1.0580 0.0000 34.6614 0.0000
# 6 0.0000 0.0000 0.0000 3.5779 0.0000 25.4402
#
#
#
# Elastic Compliance Matrix: (Units=1/GPa)
#
#
# Indices 1 2 3 4 5 6 
#
# 1 0.010843 0.001101 -0.000412 0.000000 0.006357 0.000000
# 2 0.001101 0.012176 -0.001572 0.000000 0.006390 0.000000
# 3 -0.000412 -0.001572 0.007542 0.000000 -0.000746 0.000000
# 4 0.000000 0.000000 0.000000 0.066822 0.000000 -0.009398
# 5 0.006357 0.006390 -0.000746 0.000000 0.035320 0.000000
# 6 0.000000 0.000000 0.000000 -0.009398 0.000000 0.040630
#
#
# Mechanical properties :
#
#
# Convention : Reuss Voigt Hill
#
# Bulk Modulus (GPa) = 34.72736 42.03024 38.37880
# Shear Modulus (GPa) = 27.07168 35.77703 31.42435
#
# Velocity S-wave (km/s) = 3.34420 3.84448 3.60303
# Velocity P-wave (km/s) = 5.40907 6.08851 5.75882
#
# Compressibility (1/GPa) = 0.02879574
#
# Stress axis : x y z
#
# Youngs Moduli (GPa) = 92.22912 82.12957 132.59663
#
# Poissons Ratio (x) = -0.09046 0.05463
# Poissons Ratio (y) = -0.10158 0.20839
# Poissons Ratio (z) = 0.03800 0.12907
#
# Static dielectric constant tensor:
#      x y z
#    x 1.928630 0.000000 -0.013130 
#    y 0.000000 1.993110 0.000000 
#    z -0.013130 0.000000 1.932480 
# 
# From -- ./inp_files/58936.got.cif
#   From: 2010.05.17/outbox.cif.g08.bks.cpg/sg12_30_cif.got.tgz:58936.got - 2010.06.03 13:09:07.
