data_PCOD9211379
_publ_section_title
;
Structure prediction by ZEFSAII (Michael W. Deem and Ramdas Pophale) SiO2 
 PCOD9211379
Probable space group: C 2/M
;
_chemical_formula_sum "Si O2"
_cell_formula_units_Z 50
_cell_length_a 9.458613
_cell_length_b 10.096674
_cell_length_c 28.735575
_cell_angle_alpha 90.000000
_cell_angle_beta 60.861302
_cell_angle_gamma 90.000000
_cell_volume 2396.958551
_symmetry_space_group_name_H-M "C 2/M"
_symmetry_group_IT_number 12
_symmetry_cell_setting 'monoclinic'
loop_
_space_group_symop_operation_xyz
x,y,z
-x,y,-z
-x,-y,-z
x,-y,z
1/2+x,1/2+y,z
1/2-x,1/2+y,-z
1/2-x,1/2-y,-z
1/2+x,1/2-y,z
loop_
_atom_site_type_symbol
_atom_site_label
_atom_site_fract_x
_atom_site_fract_y
_atom_site_fract_z
Si Si1 0.419681 0.348386 0.281298
Si Si2 0.376611 0.149623 0.599811
Si Si3 0.578830 0.238569 0.053608
Si Si4 0.745456 0.155721 0.545983
Si Si5 0.500000 0.000000 0.000000
Si Si6 0.245923 0.349047 0.116661
Si Si7 0.704736 0.157303 0.229958
O O1 0.480075 0.500000 0.274539
O O2 0.262964 0.339272 0.339426
O O3 0.556356 0.244121 0.271926
O O4 0.357134 0.321788 0.239071
O O5 0.556762 0.156970 0.591398
O O6 0.351206 0.267392 0.567179
O O7 0.362295 0.000000 0.580703
O O8 0.435585 0.344185 0.072087
O O9 0.634068 0.227782 0.098230
O O10 0.750000 0.250000 0.000000
O O11 0.500919 0.113036 0.040924
O O12 0.750000 0.250000 0.500000
O O13 0.789432 0.000000 0.531508
O O14 0.190055 0.500000 0.123561
O O15 0.235954 0.303182 0.171534
O O16 0.668542 0.000000 0.237469
#
# Coordination Sequence:
#
# PCOD9211379 Si02
#       7
#     8   8   8   8   2   8   8
#     4  10  21  40  62  87 119 153 198 244 298 352
#     4  10  22  39  60  86 119 160 199 246 297 353
#     4  12  24  40  60  86 114 154 191 239 288 349
#     4  11  23  39  60  89 124 162 203 250 298 352
#     4  12  24  40  56  88 120 144 194 246 284 340
#     4  11  24  40  62  85 117 152 193 234 294 350
#     4  10  22  41  61  89 119 154 194 247 295 356
#
# _framework density 20.859769
#
# number of rings (size 3 to 8) (size 9 to 14) (size 15 to 20)
#    0.000    1.280    2.400    2.880    1.120    6.400 
#    1.440    0.000    0.000    0.000    0.000    0.000 
#    0.000    0.000    0.000    0.000    0.000    0.000 
#
# Total GULP energy -139256.736744 kJ/mol
# GULP energy per Si atom -5570.269470 kJ/mol
# Density = 2.081229 g / cm^3
# Si number density = 20.859769 Si / 1000 Ang^3
#
#
#
# Elastic Constant Matrix: (Units=GPa)
#
#
# Indices 1 2 3 4 5 6 
#
# 1 73.3153 29.6132 -2.0849 0.0000 1.9669 0.0000
# 2 29.6132 85.0420 13.5662 0.0000 7.8230 0.0000
# 3 -2.0849 13.5662 46.9136 0.0000 4.7988 0.0000
# 4 0.0000 0.0000 0.0000 22.2836 0.0000 10.9803
# 5 1.9669 7.8230 4.7988 0.0000 41.1377 0.0000
# 6 0.0000 0.0000 0.0000 10.9803 0.0000 8.0530
#
#
#
# Elastic Compliance Matrix: (Units=1/GPa)
#
#
# Indices 1 2 3 4 5 6 
#
# 1 0.016138 -0.006018 0.002449 0.000000 0.000087 0.000000
# 2 -0.006018 0.014729 -0.004321 0.000000 -0.002009 0.000000
# 3 0.002449 -0.004321 0.022875 0.000000 -0.001964 0.000000
# 4 0.000000 0.000000 0.000000 0.136764 0.000000 -0.186479
# 5 0.000087 -0.002009 -0.001964 0.000000 0.024916 0.000000
# 6 0.000000 0.000000 0.000000 -0.186479 0.000000 0.378443
#
#
# Mechanical properties :
#
#
# Convention : Reuss Voigt Hill
#
# Bulk Modulus (GPa) = 26.34341 31.94001 29.14171
# Shear Modulus (GPa) = 8.03472 25.23994 16.63733
#
# Velocity S-wave (km/s) = 1.96472 3.48225 2.82721
# Velocity P-wave (km/s) = 4.21937 5.61366 4.96569
#
# Compressibility (1/GPa) = 0.03796016
#
# Stress axis : x y z
#
# Youngs Moduli (GPa) = 61.96624 67.89488 43.71579
#
# Poissons Ratio (x) = 0.40860 -0.10704
# Poissons Ratio (y) = 0.37292 0.18890
# Poissons Ratio (z) = -0.15173 0.29338
#
# Static dielectric constant tensor:
#      x y z
#    x 1.699670 0.000000 0.007450 
#    y 0.000000 1.736230 0.000000 
#    z 0.007450 0.000000 1.778550 
# 
# From -- ./inp_files/357457.got.cif
#   From: 2010.05.17/outbox.cif.g08.bks.cpg/sg12_179_cif.got.tgz:357457.got - 2010.06.03 13:09:07.
