data_PCOD9211245
_publ_section_title
;
Structure prediction by ZEFSAII (Michael W. Deem and Ramdas Pophale) SiO2 
 PCOD9211245
Probable space group: C 2/M
;
_chemical_formula_sum "Si O2"
_cell_formula_units_Z 34
_cell_length_a 5.344698
_cell_length_b 23.892184
_cell_length_c 14.565795
_cell_angle_alpha 90.000000
_cell_angle_beta 87.758580
_cell_angle_gamma 90.000000
_cell_volume 1858.578079
_symmetry_space_group_name_H-M "C 2/M"
_symmetry_group_IT_number 12
_symmetry_cell_setting 'monoclinic'
loop_
_space_group_symop_operation_xyz
x,y,z
-x,y,-z
-x,-y,-z
x,-y,z
1/2+x,1/2+y,z
1/2-x,1/2+y,-z
1/2-x,1/2-y,-z
1/2+x,1/2-y,z
loop_
_atom_site_type_symbol
_atom_site_label
_atom_site_fract_x
_atom_site_fract_y
_atom_site_fract_z
Si Si1 0.243782 0.068186 0.052838
Si Si2 0.737741 0.932707 0.734889
Si Si3 0.738940 0.725830 0.602970
Si Si4 0.000000 0.500000 0.500000
Si Si5 0.246217 0.404710 0.375213
O O1 0.238186 0.084611 0.159478
O O2 0.241530 0.000000 0.052075
O O3 0.500000 0.085955 0.000000
O O4 0.000000 0.086770 0.000000
O O5 0.487509 0.909264 0.691869
O O6 0.989819 0.918057 0.676785
O O7 0.709159 0.000000 0.730527
O O8 0.750000 0.750000 0.500000
O O9 0.483193 0.749512 0.648861
O O10 0.742508 0.659307 0.593531
O O11 0.818046 0.450424 0.546667
#
# Coordination Sequence:
#
# PCOD9211245 Si02
#       5
#     8   8   8   2   8
#     4   9  17  30  53  78 109 155 188 215 267 343
#     4  11  21  38  52  85 125 150 186 234 284 345
#     4  10  21  40  58  78 100 144 199 257 281 311
#     4  12  24  38  52  82 112 162 192 216 288 358
#     4  12  24  37  58  81 117 156 196 236 290 340
#
# _framework density 18.293555000000001
#
# number of rings (size 3 to 8) (size 9 to 14) (size 15 to 20)
#    0.000    1.412    2.353    4.235    0.000    7.529 
#    0.000    0.000    0.000    0.000    0.000    0.000 
#    0.000   65.882    0.000    0.000    0.000    0.000 
#
# Total GULP energy -94651.764663 kJ/mol
# GULP energy per Si atom -5567.750863 kJ/mol
# Density = 1.825192 g / cm^3
# Si number density = 18.293555 Si / 1000 Ang^3
#
#
#
# Elastic Constant Matrix: (Units=GPa)
#
#
# Indices 1 2 3 4 5 6 
#
# 1 129.3428 17.4373 19.4838 0.0000 4.9241 0.0000
# 2 17.4373 126.6993 26.1738 0.0000 -4.3894 0.0000
# 3 19.4838 26.1738 45.1867 0.0000 -4.4805 0.0000
# 4 0.0000 0.0000 0.0000 -23.0663 0.0000 19.2845
# 5 4.9241 -4.3894 -4.4805 0.0000 24.9263 0.0000
# 6 0.0000 0.0000 0.0000 19.2845 0.0000 48.1442
#
#
#
# Elastic Compliance Matrix: (Units=1/GPa)
#
#
# Indices 1 2 3 4 5 6 
#
# 1 0.008430 -0.000503 -0.003581 0.000000 -0.002398 0.000000
# 2 -0.000503 0.009006 -0.004920 0.000000 0.000801 0.000000
# 3 -0.003581 -0.004920 0.026990 0.000000 0.004692 0.000000
# 4 0.000000 0.000000 0.000000 -0.032477 0.000000 0.013009
# 5 -0.002398 0.000801 0.004692 0.000000 0.041576 0.000000
# 6 0.000000 0.000000 0.000000 0.013009 0.000000 0.015560
#
#
# Mechanical properties :
#
#
# Convention : Reuss Voigt Hill
#
# Bulk Modulus (GPa) = 37.85508 47.49095 42.67301
# Shear Modulus (GPa) = 52.13774 25.87645 39.00709
#
# Velocity S-wave (km/s) = 5.34439 3.76508 4.62268
# Velocity P-wave (km/s) = 7.66951 6.70208 7.20206
#
# Compressibility (1/GPa) = 0.02641653
#
# Stress axis : x y z
#
# Youngs Moduli (GPa) = 118.62428 111.03506 37.05123
#
# Poissons Ratio (x) = 0.05591 0.13268
# Poissons Ratio (y) = 0.05973 0.18230
# Poissons Ratio (z) = 0.42479 0.54631
#
# Static dielectric constant tensor:
#      x y z
#    x 1.601570 0.000000 0.035740 
#    y 0.000000 1.596510 0.000000 
#    z 0.035740 0.000000 1.624350 
# 
# From -- ./inp_files/115027.got.cif
#   From: 2010.05.17/outbox.cif.g08.bks.cpg/sg12_58_cif.got.tgz:115027.got - 2010.06.03 13:09:07.
