data_PCOD9211145
_publ_section_title
;
Structure prediction by ZEFSAII (Michael W. Deem and Ramdas Pophale) SiO2 
 PCOD9211145
Probable space group: C 2/M
;
_chemical_formula_sum "Si O2"
_cell_formula_units_Z 40
_cell_length_a 15.632058
_cell_length_b 14.130242
_cell_length_c 8.997336
_cell_angle_alpha 90.000000
_cell_angle_beta 100.689665
_cell_angle_gamma 90.000000
_cell_volume 1952.886068
_symmetry_space_group_name_H-M "C 2/M"
_symmetry_group_IT_number 12
_symmetry_cell_setting 'monoclinic'
loop_
_space_group_symop_operation_xyz
x,y,z
-x,y,-z
-x,-y,-z
x,-y,z
1/2+x,1/2+y,z
1/2-x,1/2+y,-z
1/2-x,1/2-y,-z
1/2+x,1/2-y,z
loop_
_atom_site_type_symbol
_atom_site_label
_atom_site_fract_x
_atom_site_fract_y
_atom_site_fract_z
Si Si1 0.175422 0.349905 0.781904
Si Si2 0.153908 0.500000 0.307245
Si Si3 0.744122 0.000000 0.024871
Si Si4 0.469085 0.000000 0.322579
Si Si5 0.947467 0.000000 0.139601
Si Si6 0.079221 0.163843 0.634983
Si Si7 0.764307 0.860440 0.518487
O O1 0.209060 0.401320 0.941682
O O2 0.089833 0.409730 0.719412
O O3 0.139011 0.243395 0.740481
O O4 0.251749 0.377129 0.689016
O O5 0.183539 0.411343 0.414378
O O6 0.052455 0.500000 0.244629
O O7 0.210006 0.500000 0.179601
O O8 0.847137 0.000000 0.058084
O O9 0.500000 0.000000 0.500000
O O10 0.957656 0.908727 0.252970
O O11 0.000000 0.000000 0.000000
O O12 0.147966 0.115229 0.541825
O O13 0.000000 0.198478 0.500000
O O14 0.750000 0.750000 0.500000
#
# Coordination Sequence:
#
# PCOD9211145 Si02
#       7
#     8   4   4   4   4   8   8
#     4  10  23  41  67 102 128 169 214 276 338 382
#     4  12  21  41  66  90 137 172 210 270 328 406
#     4  11  25  45  66  94 144 172 210 261 341 421
#     4  11  19  36  67  97 126 158 214 277 328 380
#     4  12  28  47  63  96 136 190 220 262 328 392
#     4  11  24  45  70  96 128 169 235 278 312 382
#     4  10  21  39  66  99 121 171 222 268 330 373
#
# _framework density 20.482505
#
# number of rings (size 3 to 8) (size 9 to 14) (size 15 to 20)
#    0.000    1.200    4.000    1.500    5.600    2.400 
#    3.600    0.000    0.000    0.000    0.000    0.000 
#    0.000    0.000    0.000    0.000    0.000    0.000 
#
# Total GULP energy -111386.082762 kJ/mol
# GULP energy per Si atom -5569.304138 kJ/mol
# Density = 2.043589 g / cm^3
# Si number density = 20.482505 Si / 1000 Ang^3
#
#
#
# Elastic Constant Matrix: (Units=GPa)
#
#
# Indices 1 2 3 4 5 6 
#
# 1 89.8568 6.6032 10.2605 0.0000 -14.7938 0.0000
# 2 6.6032 105.2429 33.8228 0.0000 -4.0093 0.0000
# 3 10.2605 33.8228 74.2735 0.0000 -7.5124 0.0000
# 4 0.0000 0.0000 0.0000 -235.1380 0.0000 -268.2915
# 5 -14.7938 -4.0093 -7.5124 0.0000 49.5370 0.0000
# 6 0.0000 0.0000 0.0000 -268.2915 0.0000 -257.0309
#
#
#
# Elastic Compliance Matrix: (Units=1/GPa)
#
#
# Indices 1 2 3 4 5 6 
#
# 1 0.011831 -0.000232 -0.001191 0.000000 0.003334 0.000000
# 2 -0.000232 0.011136 -0.005032 0.000000 0.000069 0.000000
# 3 -0.001191 -0.005032 0.016090 0.000000 0.001677 0.000000
# 4 0.000000 0.000000 0.000000 0.022268 0.000000 -0.023244
# 5 0.003334 0.000069 0.001677 0.000000 0.021442 0.000000
# 6 0.000000 0.000000 0.000000 -0.023244 0.000000 0.020371
#
#
# Mechanical properties :
#
#
# Convention : Reuss Voigt Hill
#
# Bulk Modulus (GPa) = 38.24873 41.19404 39.72139
# Shear Modulus (GPa) = 40.07531 -73.94727 -16.93598
#
# Velocity S-wave (km/s) = 4.42810 -6.01507 -2.87862
# Velocity P-wave (km/s) = 6.69765 5.29961 2.89592
#
# Compressibility (1/GPa) = 0.02614466
#
# Stress axis : x y z
#
# Youngs Moduli (GPa) = 84.52527 89.79675 62.15232
#
# Poissons Ratio (x) = 0.02087 0.07404
# Poissons Ratio (y) = 0.01965 0.31276
# Poissons Ratio (z) = 0.10070 0.45187
#
# Static dielectric constant tensor:
#      x y z
#    x 1.774790 0.000000 0.020770 
#    y 0.000000 1.906610 0.000000 
#    z 0.020770 0.000000 1.824710 
# 
# From -- ./inp_files/59163.got.cif
#   From: 2010.05.17/outbox.cif.g08.bks.cpg/sg12_30_cif.got.tgz:59163.got - 2010.06.03 13:09:07.
