data_PCOD9211512
_publ_section_title
;
Structure prediction by ZEFSAII (Michael W. Deem and Ramdas Pophale) SiO2 
 PCOD9211512
Probable space group: C 2/M
;
_chemical_formula_sum "Si O2"
_cell_formula_units_Z 54
_cell_length_a 9.593370
_cell_length_b 19.798627
_cell_length_c 15.227813
_cell_angle_alpha 90.000000
_cell_angle_beta 71.126608
_cell_angle_gamma 90.000000
_cell_volume 2736.800403
_symmetry_space_group_name_H-M "C 2/M"
_symmetry_group_IT_number 12
_symmetry_cell_setting 'monoclinic'
loop_
_space_group_symop_operation_xyz
x,y,z
-x,y,-z
-x,-y,-z
x,-y,z
1/2+x,1/2+y,z
1/2-x,1/2+y,-z
1/2-x,1/2-y,-z
1/2+x,1/2-y,z
loop_
_atom_site_type_symbol
_atom_site_label
_atom_site_fract_x
_atom_site_fract_y
_atom_site_fract_z
Si Si1 0.091897 0.754836 0.125362
Si Si2 0.000000 0.500000 0.000000
Si Si3 0.715201 0.205199 0.751659
Si Si4 0.500000 0.363094 0.000000
Si Si5 0.556391 0.076610 0.742228
Si Si6 0.879681 0.425026 0.601274
Si Si7 0.175653 0.606529 0.057455
Si Si8 0.330943 0.215431 0.564252
O O1 0.215419 0.779761 0.167754
O O2 0.144280 0.687545 0.061898
O O3 0.951118 0.733336 0.211545
O O4 0.038140 0.813996 0.073227
O O5 0.873680 0.560554 0.013775
O O6 0.688751 0.126958 0.735737
O O7 0.805999 0.241537 0.657057
O O8 0.347209 0.402435 0.045985
O O9 0.469012 0.094193 0.671110
O O10 0.435552 0.080399 0.844345
O O11 0.608214 0.000000 0.723991
O O12 0.812828 0.500000 0.627311
O O13 0.780116 0.361404 0.595503
O O14 0.000000 0.431211 0.500000
O O15 0.500000 0.211955 0.500000
O O16 0.250000 0.250000 0.500000
#
# Coordination Sequence:
#
# PCOD9211512 Si02
#       8
#     8   2   8   4   8   8   8   8
#     4  11  23  40  63  91 124 160 216 263 318 380
#     4  12  26  42  68  84 124 166 216 254 322 404
#     4  11  22  38  65  92 124 166 209 266 315 378
#     4  12  25  39  62  93 125 160 210 276 324 371
#     4  10  21  40  63  91 123 165 215 258 314 384
#     4   9  18  34  60  91 122 160 206 251 301 374
#     4  11  24  41  62  91 123 167 209 263 319 385
#     4  11  21  37  61  94 129 162 206 260 314 373
#
# _framework density 19.731071
#
# number of rings (size 3 to 8) (size 9 to 14) (size 15 to 20)
#    0.000    1.333    2.222    5.333    4.148    0.296 
#    0.000    0.000    1.630    4.444    0.000    0.000 
#    0.000    0.000    0.000    0.000    0.000    0.000 
#
# Total GULP energy -150454.733564 kJ/mol
# GULP energy per Si atom -5572.397539 kJ/mol
# Density = 1.968616 g / cm^3
# Si number density = 19.731071 Si / 1000 Ang^3
#
#
#
# Elastic Constant Matrix: (Units=GPa)
#
#
# Indices 1 2 3 4 5 6 
#
# 1 96.3640 60.4772 5.0469 0.0000 7.6519 0.0000
# 2 60.4772 145.9581 16.2954 0.0000 21.6728 0.0000
# 3 5.0469 16.2954 52.9562 0.0000 2.8441 0.0000
# 4 0.0000 0.0000 0.0000 19.1354 0.0000 12.1636
# 5 7.6519 21.6728 2.8441 0.0000 35.1536 0.0000
# 6 0.0000 0.0000 0.0000 12.1636 0.0000 38.8843
#
#
#
# Elastic Compliance Matrix: (Units=1/GPa)
#
#
# Indices 1 2 3 4 5 6 
#
# 1 0.014046 -0.005957 0.000464 0.000000 0.000578 0.000000
# 2 -0.005957 0.010304 -0.002341 0.000000 -0.004866 0.000000
# 3 0.000464 -0.002341 0.019573 0.000000 -0.000241 0.000000
# 4 0.000000 0.000000 0.000000 0.065230 0.000000 -0.020405
# 5 0.000578 -0.004866 -0.000241 0.000000 0.031340 0.000000
# 6 0.000000 0.000000 0.000000 -0.020405 0.000000 0.032100
#
#
# Mechanical properties :
#
#
# Convention : Reuss Voigt Hill
#
# Bulk Modulus (GPa) = 35.39617 50.99081 43.19349
# Shear Modulus (GPa) = 25.29328 32.86526 29.07927
#
# Velocity S-wave (km/s) = 3.58425 4.08568 3.84315
# Velocity P-wave (km/s) = 5.92515 6.93945 6.45226
#
# Compressibility (1/GPa) = 0.02825165
#
# Stress axis : x y z
#
# Youngs Moduli (GPa) = 71.19462 97.05226 51.09127
#
# Poissons Ratio (x) = 0.57819 -0.02368
# Poissons Ratio (y) = 0.42414 0.11963
# Poissons Ratio (z) = -0.03300 0.22725
#
# Static dielectric constant tensor:
#      x y z
#    x 1.688460 0.000000 0.008240 
#    y 0.000000 1.769880 0.000000 
#    z 0.008240 0.000000 1.728130 
# 
# From -- ./inp_files/257089.got.cif
#   From: 2010.05.17/outbox.cif.g08.bks.cpg/sg12_129_cif.got.tgz:257089.got - 2010.06.03 13:09:07.
