data_PCOD9211274
_publ_section_title
;
Structure prediction by ZEFSAII (Michael W. Deem and Ramdas Pophale) SiO2 
 PCOD9211274
Probable space group: C 2/M
;
_chemical_formula_sum "Si O2"
_cell_formula_units_Z 50
_cell_length_a 18.457341
_cell_length_b 17.149093
_cell_length_c 8.746461
_cell_angle_alpha 90.000000
_cell_angle_beta 68.159265
_cell_angle_gamma 90.000000
_cell_volume 2569.770322
_symmetry_space_group_name_H-M "C 2/M"
_symmetry_group_IT_number 12
_symmetry_cell_setting 'monoclinic'
loop_
_space_group_symop_operation_xyz
x,y,z
-x,y,-z
-x,-y,-z
x,-y,z
1/2+x,1/2+y,z
1/2-x,1/2+y,-z
1/2-x,1/2-y,-z
1/2+x,1/2-y,z
loop_
_atom_site_type_symbol
_atom_site_label
_atom_site_fract_x
_atom_site_fract_y
_atom_site_fract_z
Si Si1 0.801158 0.587156 0.750693
Si Si2 0.369182 0.587933 0.262826
Si Si3 0.080558 0.300729 0.497327
Si Si4 0.000000 0.000000 0.500000
Si Si5 0.277645 0.174001 0.072728
Si Si6 0.921507 0.742959 0.149447
Si Si7 0.127355 0.128935 0.383600
O O1 0.831504 0.500000 0.707601
O O2 0.711381 0.587867 0.766918
O O3 0.847723 0.646740 0.609095
O O4 0.806839 0.614352 0.921078
O O5 0.404433 0.500000 0.226659
O O6 0.415634 0.662579 0.164621
O O7 0.354266 0.604302 0.454840
O O8 0.076762 0.287902 0.680002
O O9 0.092730 0.215909 0.412189
O O10 0.000000 0.335269 0.500000
O O11 0.060633 0.931734 0.388099
O O12 0.346142 0.205743 0.127322
O O13 0.205951 0.135428 0.222187
O O14 0.250000 0.250000 0.000000
O O15 0.000000 0.721688 0.000000
#
# Coordination Sequence:
#
# PCOD9211274 Si02
#       7
#     8   8   8   2   8   8   8
#     4  11  24  41  64  94 126 171 231 275 341 392
#     4  10  21  40  59  92 131 175 214 277 331 403
#     4  11  22  41  66  90 128 176 221 281 332 399
#     4  12  24  40  64 110 132 184 204 282 324 412
#     4  12  23  42  66  95 133 182 220 280 330 412
#     4  11  24  40  66  98 129 177 231 274 337 405
#     4  11  23  40  65  94 139 175 225 257 336 405
#
# _framework density 19.456990999999999
#
# number of rings (size 3 to 8) (size 9 to 14) (size 15 to 20)
#    0.000    0.960    4.800    1.920    1.120    3.200 
#    0.000    0.800    0.000    1.920    0.000    0.000 
#    0.000    0.000    0.000    0.000    0.000    0.000 
#
# Total GULP energy -139412.617175 kJ/mol
# GULP energy per Si atom -5576.504687 kJ/mol
# Density = 1.941271 g / cm^3
# Si number density = 19.456991 Si / 1000 Ang^3
#
#
#
# Elastic Constant Matrix: (Units=GPa)
#
#
# Indices 1 2 3 4 5 6 
#
# 1 68.8646 12.6699 30.7057 0.0000 -7.0237 0.0000
# 2 12.6699 105.8640 34.7636 0.0000 -14.6235 0.0000
# 3 30.7057 34.7636 95.2902 0.0000 -27.1161 0.0000
# 4 0.0000 0.0000 0.0000 56.4735 0.0000 6.6261
# 5 -7.0237 -14.6235 -27.1161 0.0000 29.3543 0.0000
# 6 0.0000 0.0000 0.0000 6.6261 0.0000 28.7840
#
#
#
# Elastic Compliance Matrix: (Units=1/GPa)
#
#
# Indices 1 2 3 4 5 6 
#
# 1 0.017008 -0.000340 -0.005761 0.000000 -0.001422 0.000000
# 2 -0.000340 0.010859 -0.003169 0.000000 0.002401 0.000000
# 3 -0.005761 -0.003169 0.017182 0.000000 0.012915 0.000000
# 4 0.000000 0.000000 0.000000 0.018199 0.000000 -0.004189
# 5 -0.001422 0.002401 0.012915 0.000000 0.046853 0.000000
# 6 0.000000 0.000000 0.000000 -0.004189 0.000000 0.035706
#
#
# Mechanical properties :
#
#
# Convention : Reuss Voigt Hill
#
# Bulk Modulus (GPa) = 37.72320 47.36634 42.54477
# Shear Modulus (GPa) = 28.87151 35.71432 32.29291
#
# Velocity S-wave (km/s) = 3.85627 4.28898 4.07837
# Velocity P-wave (km/s) = 6.26561 6.99458 6.64011
#
# Compressibility (1/GPa) = 0.02650889
#
# Stress axis : x y z
#
# Youngs Moduli (GPa) = 58.79758 92.08945 58.20179
#
# Poissons Ratio (x) = 0.03132 0.33529
# Poissons Ratio (y) = 0.02000 0.18442
# Poissons Ratio (z) = 0.33872 0.29180
#
# Static dielectric constant tensor:
#      x y z
#    x 1.691800 0.000000 0.005340 
#    y 0.000000 1.685280 0.000000 
#    z 0.005340 0.000000 1.676970 
# 
# From -- ./inp_files/75774.got.cif
#   From: 2010.05.17/outbox.cif.g08.bks.cpg/sg12_38_cif.got.tgz:75774.got - 2010.06.03 13:09:07.
