data_PCOD9211730
_publ_section_title
;
Structure prediction by ZEFSAII (Michael W. Deem and Ramdas Pophale) SiO2 
 PCOD9211730
Probable space group: C 2/M
;
_chemical_formula_sum "Si O2"
_cell_formula_units_Z 40
_cell_length_a 8.236756
_cell_length_b 19.894614
_cell_length_c 11.750426
_cell_angle_alpha 90.000000
_cell_angle_beta 72.220994
_cell_angle_gamma 90.000000
_cell_volume 1833.548329
_symmetry_space_group_name_H-M "C 2/M"
_symmetry_group_IT_number 12
_symmetry_cell_setting 'monoclinic'
loop_
_space_group_symop_operation_xyz
x,y,z
-x,y,-z
-x,-y,-z
x,-y,z
1/2+x,1/2+y,z
1/2-x,1/2+y,-z
1/2-x,1/2-y,-z
1/2+x,1/2-y,z
loop_
_atom_site_type_symbol
_atom_site_label
_atom_site_fract_x
_atom_site_fract_y
_atom_site_fract_z
Si Si1 0.746537 0.712335 0.120917
Si Si2 0.575452 0.428134 0.110745
Si Si3 0.506542 0.177689 0.241389
Si Si4 0.729422 0.923768 0.320303
Si Si5 0.203808 0.173162 0.480717
O O1 0.674257 0.638998 0.114518
O O2 0.631761 0.757708 0.233142
O O3 0.928308 0.698834 0.138047
O O4 0.750000 0.750000 0.000000
O O5 0.669091 0.500000 0.101010
O O6 0.419656 0.428541 0.231705
O O7 0.500000 0.424581 0.000000
O O8 0.623152 0.113755 0.244021
O O9 0.336197 0.161658 0.349901
O O10 0.737936 0.876122 0.429209
O O11 0.668562 0.000000 0.356360
O O12 0.250000 0.250000 0.500000
O O13 0.000000 0.165562 0.500000
#
# Coordination Sequence:
#
# PCOD9211730 Si02
#       5
#     8   8   8   8   8
#     4  12  24  41  67 100 134 172 225 284 346 414
#     4  10  21  40  65  92 129 174 220 275 339 407
#     4  12  24  39  64  93 129 174 220 277 339 405
#     4  11  25  44  66  97 137 180 228 284 345 410
#     4  12  24  41  66  96 131 175 226 278 335 405
#
# _framework density 21.815625000000001
#
# number of rings (size 3 to 8) (size 9 to 14) (size 15 to 20)
#    0.000    0.600    0.000   10.800    0.000    2.800 
#    0.000    0.000    0.000    6.000    0.000    0.000 
#    0.000    0.000    0.000    0.000    0.000    0.000 
#
# Total GULP energy -111651.901069 kJ/mol
# GULP energy per Si atom -5582.595053 kJ/mol
# Density = 2.176597 g / cm^3
# Si number density = 21.815625 Si / 1000 Ang^3
#
#
#
# Elastic Constant Matrix: (Units=GPa)
#
#
# Indices 1 2 3 4 5 6 
#
# 1 112.0989 76.7927 17.5462 0.0000 7.1556 0.0000
# 2 76.7927 207.9810 30.7379 0.0000 8.3385 0.0000
# 3 17.5462 30.7379 94.3077 0.0000 2.3097 0.0000
# 4 0.0000 0.0000 0.0000 93.9648 0.0000 74.0641
# 5 7.1556 8.3385 2.3097 0.0000 32.5799 0.0000
# 6 0.0000 0.0000 0.0000 74.0641 0.0000 123.6390
#
#
#
# Elastic Compliance Matrix: (Units=1/GPa)
#
#
# Indices 1 2 3 4 5 6 
#
# 1 0.012074 -0.004278 -0.000816 0.000000 -0.001499 0.000000
# 2 -0.004278 0.006612 -0.001343 0.000000 -0.000658 0.000000
# 3 -0.000816 -0.001343 0.011200 0.000000 -0.000271 0.000000
# 4 0.000000 0.000000 0.000000 0.020162 0.000000 -0.012078
# 5 -0.001499 -0.000658 -0.000271 0.000000 0.031211 0.000000
# 6 0.000000 0.000000 0.000000 -0.012078 0.000000 0.015323
#
#
# Mechanical properties :
#
#
# Convention : Reuss Voigt Hill
#
# Bulk Modulus (GPa) = 58.77567 73.83792 66.30679
# Shear Modulus (GPa) = 43.43049 69.32413 56.37731
#
# Velocity S-wave (km/s) = 4.46668 5.64325 5.08908
# Velocity P-wave (km/s) = 7.32134 8.73965 8.06175
#
# Compressibility (1/GPa) = 0.01701384
#
# Stress axis : x y z
#
# Youngs Moduli (GPa) = 82.81994 151.23042 89.28754
#
# Poissons Ratio (x) = 0.64690 0.07282
# Poissons Ratio (y) = 0.35427 0.11993
# Poissons Ratio (z) = 0.06754 0.20314
#
# Static dielectric constant tensor:
#      x y z
#    x 2.045660 0.000000 0.015900 
#    y 0.000000 1.835330 0.000000 
#    z 0.015900 0.000000 1.919030 
# 
# From -- ./inp_files/120062.got.cif
#   From: 2010.05.17/outbox.cif.g08.bks.cpg/sg12_61_cif.got.tgz:120062.got - 2010.06.03 13:09:07.
