data_PCOD9211715
_publ_section_title
;
Structure prediction by ZEFSAII (Michael W. Deem and Ramdas Pophale) SiO2 
 PCOD9211715
Probable space group: C 2/M
;
_chemical_formula_sum "Si O2"
_cell_formula_units_Z 64
_cell_length_a 30.678760
_cell_length_b 9.016488
_cell_length_c 18.256298
_cell_angle_alpha 90.000000
_cell_angle_beta 141.358560
_cell_angle_gamma 90.000000
_cell_volume 3153.420574
_symmetry_space_group_name_H-M "C 2/M"
_symmetry_group_IT_number 12
_symmetry_cell_setting 'monoclinic'
loop_
_space_group_symop_operation_xyz
x,y,z
-x,y,-z
-x,-y,-z
x,-y,z
1/2+x,1/2+y,z
1/2-x,1/2+y,-z
1/2-x,1/2-y,-z
1/2+x,1/2-y,z
loop_
_atom_site_type_symbol
_atom_site_label
_atom_site_fract_x
_atom_site_fract_y
_atom_site_fract_z
Si Si1 0.611173 0.823488 0.681752
Si Si2 0.229668 0.826046 0.304548
Si Si3 0.360686 0.324218 0.525681
Si Si4 0.750246 0.676512 0.920546
Si Si5 0.859394 0.826885 0.960957
Si Si6 0.528576 0.824159 0.421185
Si Si7 0.350146 0.828305 0.666541
Si Si8 0.508472 0.171591 0.927268
O O1 0.681310 0.733807 0.787585
O O2 0.573595 0.797630 0.554403
O O3 0.551418 0.788849 0.663726
O O4 0.626542 0.000000 0.705937
O O5 0.302309 0.739395 0.393970
O O6 0.183711 0.811698 0.171488
O O7 0.188329 0.755408 0.318257
O O8 0.243545 0.000000 0.335274
O O9 0.358684 0.500000 0.526509
O O10 0.435446 0.266659 0.596039
O O11 0.340814 0.253217 0.577464
O O12 0.749787 0.500000 0.925394
O O13 0.818343 0.732750 0.966989
O O14 0.750000 0.750000 0.000000
O O15 0.860239 0.000000 0.982365
O O16 0.936217 0.766876 0.044655
O O17 0.532867 0.000000 0.410809
O O18 0.432429 0.826541 0.791970
O O19 0.326830 0.000000 0.632356
O O20 0.533329 0.000000 0.963545
O O21 0.500000 0.225105 0.000000
#
# Coordination Sequence:
#
# PCOD9211715 Si02
#       8
#     8   8   8   8   8   8   8   8
#     4   9  19  39  66  92 121 156 198 247 302 365
#     4  11  23  40  62  88 121 159 201 248 301 362
#     4  12  25  38  56  86 124 161 202 250 300 358
#     4  12  26  43  64  90 125 164 206 256 309 365
#     4  11  24  41  66  95 124 161 205 253 307 367
#     4   9  19  38  64  91 120 158 198 242 301 366
#     4  11  23  40  62  86 119 160 200 249 304 361
#     4  10  21  40  65  92 122 158 204 254 304 362
#
# _framework density 20.295421000000001
#
# number of rings (size 3 to 8) (size 9 to 14) (size 15 to 20)
#    0.000    1.375    1.250    5.250    0.000    7.750 
#    0.000    2.500    0.000    0.000    0.000    0.000 
#    0.000    0.000    0.000    0.000    0.000    0.000 
#
# Total GULP energy -179035.575014 kJ/mol
# GULP energy per Si atom -5594.861719 kJ/mol
# Density = 2.024923 g / cm^3
# Si number density = 20.295421 Si / 1000 Ang^3
#
#
#
# Elastic Constant Matrix: (Units=GPa)
#
#
# Indices 1 2 3 4 5 6 
#
# 1 112.1849 55.2783 6.2256 0.0000 7.0613 0.0000
# 2 55.2783 105.4310 17.7012 0.0000 -0.7156 0.0000
# 3 6.2256 17.7012 34.1620 0.0000 9.7379 0.0000
# 4 0.0000 0.0000 0.0000 -83.4869 0.0000 -16.5402
# 5 7.0613 -0.7156 9.7379 0.0000 24.4187 0.0000
# 6 0.0000 0.0000 0.0000 -16.5402 0.0000 30.0709
#
#
#
# Elastic Compliance Matrix: (Units=1/GPa)
#
#
# Indices 1 2 3 4 5 6 
#
# 1 0.012565 -0.007091 0.002797 0.000000 -0.004957 0.000000
# 2 -0.007091 0.014559 -0.007850 0.000000 0.005608 0.000000
# 3 0.002797 -0.007850 0.037375 0.000000 -0.015944 0.000000
# 4 0.000000 0.000000 0.000000 -0.010801 0.000000 -0.005941
# 5 -0.004957 0.005608 -0.015944 0.000000 0.048908 0.000000
# 6 0.000000 0.000000 0.000000 -0.005941 0.000000 0.029987
#
#
# Mechanical properties :
#
#
# Convention : Reuss Voigt Hill
#
# Bulk Modulus (GPa) = 24.86875 45.57647 35.22261
# Shear Modulus (GPa) = 29.36287 5.70541 17.53414
#
# Velocity S-wave (km/s) = 3.80777 1.67848 2.94248
# Velocity P-wave (km/s) = 5.62247 5.12461 5.37930
#
# Compressibility (1/GPa) = 0.04021111
#
# Stress axis : x y z
#
# Youngs Moduli (GPa) = 79.58805 68.68692 26.75605
#
# Poissons Ratio (x) = 0.48707 -0.07485
# Poissons Ratio (y) = 0.56437 0.21003
# Poissons Ratio (z) = -0.22265 0.53919
#
# Static dielectric constant tensor:
#      x y z
#    x 1.712250 0.000000 -0.001190 
#    y 0.000000 1.679910 0.000000 
#    z -0.001190 0.000000 1.728210 
# 
# From -- ./inp_files/295787.got.cif
#   From: 2010.05.17/outbox.cif.g08.bks.cpg/sg12_148_cif.got.tgz:295787.got - 2010.06.03 13:09:07.
