data_PCOD9211915
_publ_section_title
;
Structure prediction by ZEFSAII (Michael W. Deem and Ramdas Pophale) SiO2 
 PCOD9211915
Probable space group: C 2/M
;
_chemical_formula_sum "Si O2"
_cell_formula_units_Z 64
_cell_length_a 16.410231
_cell_length_b 18.813110
_cell_length_c 16.052666
_cell_angle_alpha 90.000000
_cell_angle_beta 150.432432
_cell_angle_gamma 90.000000
_cell_volume 2445.486516
_symmetry_space_group_name_H-M "C 2/M"
_symmetry_group_IT_number 12
_symmetry_cell_setting 'monoclinic'
loop_
_space_group_symop_operation_xyz
x,y,z
-x,y,-z
-x,-y,-z
x,-y,z
1/2+x,1/2+y,z
1/2-x,1/2+y,-z
1/2-x,1/2-y,-z
1/2+x,1/2-y,z
loop_
_atom_site_type_symbol
_atom_site_label
_atom_site_fract_x
_atom_site_fract_y
_atom_site_fract_z
Si Si1 0.069537 0.745917 0.213082
Si Si2 0.672154 0.579865 0.042005
Si Si3 0.451395 0.920064 0.675893
Si Si4 0.181479 0.586287 0.134130
Si Si5 0.568969 0.231272 0.403529
Si Si6 0.427560 0.413788 0.215315
Si Si7 0.795076 0.085364 0.407666
Si Si8 0.717884 0.277358 0.162892
O O1 0.262707 0.731417 0.419719
O O2 0.009411 0.750869 0.257131
O O3 0.885904 0.742297 0.005161
O O4 0.148996 0.762699 0.192059
O O5 0.630095 0.500000 0.030847
O O6 0.552711 0.608796 0.862877
O O7 0.691109 0.637697 0.128588
O O8 0.851885 0.577391 0.157193
O O9 0.393251 0.854526 0.568069
O O10 0.386600 0.905066 0.712094
O O11 0.389159 0.000000 0.598973
O O12 0.175546 0.500000 0.128449
O O13 0.263619 0.605365 0.120334
O O14 0.295383 0.610004 0.313107
O O15 0.000000 0.610481 0.000000
O O16 0.410596 0.239618 0.321594
O O17 0.426974 0.500000 0.207826
O O18 0.573298 0.392938 0.406542
O O19 0.819935 0.000000 0.422760
#
# Coordination Sequence:
#
# PCOD9211915 Si02
#       8
#     8   8   8   8   8   8   8   8
#     4  10  22  40  67  99 125 166 225 272 324 387
#     4   9  18  33  54  84 124 166 205 249 312 386
#     4   9  18  33  55  84 119 163 204 245 313 392
#     4   9  15  23  37  56  87 136 192 246 295 350
#     4  10  21  40  68  96 132 170 212 273 329 380
#     4   9  16  25  41  66  99 146 196 241 295 360
#     4   9  16  25  41  66 102 144 192 244 293 360
#     4  10  21  40  67  97 131 167 213 272 330 385
#
# _framework density 26.170660999999999
#
# number of rings (size 3 to 8) (size 9 to 14) (size 15 to 20)
#    0.000    2.625    0.000    1.875    1.750    4.500 
#    0.000    1.875   16.500    4.500    0.000    0.000 
#    0.000    1.000    0.000    0.000    0.000    0.000 
#
# Total GULP energy -178248.570342 kJ/mol
# GULP energy per Si atom -5570.267823 kJ/mol
# Density = 2.611110 g / cm^3
# Si number density = 26.170661 Si / 1000 Ang^3
#
#
#
# Elastic Constant Matrix: (Units=GPa)
#
#
# Indices 1 2 3 4 5 6 
#
# 1 110.6262 -7.0876 26.3920 0.0003 -9.1191 0.0000
# 2 -7.0876 122.2001 11.6196 0.0005 -11.6554 -0.0007
# 3 26.3920 11.6196 79.9285 0.0022 -1.2804 0.0059
# 4 0.0003 0.0005 0.0022 36.2966 0.0012 -26.6209
# 5 -9.1191 -11.6554 -1.2804 0.0012 44.2624 0.0005
# 6 0.0000 -0.0007 0.0059 -26.6209 0.0005 62.4859
#
#
#
# Elastic Compliance Matrix: (Units=1/GPa)
#
#
# Indices 1 2 3 4 5 6 
#
# 1 0.010129 0.001136 -0.003473 0.000000 0.002285 0.000000
# 2 0.001136 0.008635 -0.001591 0.000000 0.002462 0.000000
# 3 -0.003473 -0.001591 0.013878 -0.000002 -0.000733 -0.000002
# 4 0.000000 0.000000 -0.000002 0.040072 -0.000001 0.017072
# 5 0.002285 0.002462 -0.000733 -0.000001 0.023690 -0.000001
# 6 0.000000 0.000000 -0.000002 0.017072 -0.000001 0.023277
#
#
# Mechanical properties :
#
#
# Convention : Reuss Voigt Hill
#
# Bulk Modulus (GPa) = 40.34641 41.62254 40.98448
# Shear Modulus (GPa) = 36.81907 47.39769 42.10838
#
# Velocity S-wave (km/s) = 3.75491 4.26032 4.01558
# Velocity P-wave (km/s) = 5.85229 6.33555 6.09871
#
# Compressibility (1/GPa) = 0.02478535
#
# Stress axis : x y z
#
# Youngs Moduli (GPa) = 98.72465 115.80428 72.05901
#
# Poissons Ratio (x) = -0.13152 0.25027
# Poissons Ratio (y) = -0.11212 0.11464
# Poissons Ratio (z) = 0.34288 0.18424
#
# Static dielectric constant tensor:
#      x y z
#    x 1.968510 0.000000 -0.018880 
#    y 0.000000 2.305800 0.000000 
#    z -0.018880 0.000000 2.100630 
# 
# From -- ./inp_files/350460.got.cif
#   From: 2010.05.17/outbox.cif.g08.bks.cpg/sg12_176_cif.got.tgz:350460.got - 2010.06.03 13:09:07.
