data_PCOD9211889
_publ_section_title
;
Structure prediction by ZEFSAII (Michael W. Deem and Ramdas Pophale) SiO2 
 PCOD9211889
Probable space group: C 2/M
;
_chemical_formula_sum "Si O2"
_cell_formula_units_Z 44
_cell_length_a 16.487074
_cell_length_b 12.122581
_cell_length_c 15.420259
_cell_angle_alpha 90.000000
_cell_angle_beta 43.039126
_cell_angle_gamma 90.000000
_cell_volume 2103.446620
_symmetry_space_group_name_H-M "C 2/M"
_symmetry_group_IT_number 12
_symmetry_cell_setting 'monoclinic'
loop_
_space_group_symop_operation_xyz
x,y,z
-x,y,-z
-x,-y,-z
x,-y,z
1/2+x,1/2+y,z
1/2-x,1/2+y,-z
1/2-x,1/2-y,-z
1/2+x,1/2-y,z
loop_
_atom_site_type_symbol
_atom_site_label
_atom_site_fract_x
_atom_site_fract_y
_atom_site_fract_z
Si Si1 0.557107 0.123867 0.861420
Si Si2 0.151893 0.000000 0.960560
Si Si3 0.777091 0.000000 0.286181
Si Si4 0.264511 0.743545 0.361546
Si Si5 0.414982 0.000000 0.701513
Si Si6 0.885548 0.212427 0.898153
Si Si7 0.049531 0.273894 0.632222
O O1 0.679089 0.193208 0.763899
O O2 0.460693 0.188148 0.880092
O O3 0.577814 0.000000 0.813140
O O4 0.500000 0.119598 0.000000
O O5 0.104431 0.107351 0.046850
O O6 0.861437 0.000000 0.134034
O O7 0.296918 0.000000 0.854700
O O8 0.788210 0.113045 0.330194
O O9 0.645595 0.000000 0.346036
O O10 0.127114 0.764781 0.489513
O O11 0.346537 0.786504 0.376515
O O12 0.489467 0.890329 0.658431
O O13 0.948783 0.197489 0.755006
O O14 0.750000 0.250000 0.000000
#
# Coordination Sequence:
#
# PCOD9211889 Si02
#       7
#     8   4   4   8   4   8   8
#     4  10  23  40  61  84 117 166 205 246 302 373
#     4  10  22  37  64  95 122 157 212 268 309 360
#     4  10  21  41  66  96 123 161 207 277 311 365
#     4  10  22  38  61  91 128 158 207 259 313 374
#     4  10  21  40  67  94 124 167 215 254 316 377
#     4  11  21  37  62  91 123 160 208 257 306 369
#     4  10  22  37  57  94 124 167 198 256 313 377
#
# _framework density 20.918050999999998
#
# number of rings (size 3 to 8) (size 9 to 14) (size 15 to 20)
#    0.545    1.273    1.818    1.636    6.364    4.364 
#    3.273    4.545    0.000    0.000    2.364    3.818 
#    0.000    0.000    0.000    0.000    0.000    0.000 
#
# Total GULP energy -122718.430899 kJ/mol
# GULP energy per Si atom -5578.110495 kJ/mol
# Density = 2.087044 g / cm^3
# Si number density = 20.918051 Si / 1000 Ang^3
#
#
#
# Elastic Constant Matrix: (Units=GPa)
#
#
# Indices 1 2 3 4 5 6 
#
# 1 42.7883 23.4529 7.5275 0.0000 -9.1469 0.0000
# 2 23.4529 98.4114 33.2717 0.0000 -5.9427 0.0000
# 3 7.5275 33.2717 174.7278 0.0000 -20.4209 0.0000
# 4 0.0000 0.0000 0.0000 -0.8079 0.0000 9.4435
# 5 -9.1469 -5.9427 -20.4209 0.0000 23.2951 0.0000
# 6 0.0000 0.0000 0.0000 9.4435 0.0000 22.0181
#
#
#
# Elastic Compliance Matrix: (Units=1/GPa)
#
#
# Indices 1 2 3 4 5 6 
#
# 1 0.029155 -0.006730 0.001295 0.000000 0.010866 0.000000
# 2 -0.006730 0.012438 -0.002247 0.000000 -0.001439 0.000000
# 3 0.001295 -0.002247 0.006783 0.000000 0.005881 0.000000
# 4 0.000000 0.000000 0.000000 -0.205840 0.000000 0.088284
# 5 0.010866 -0.001439 0.005881 0.000000 0.051983 0.000000
# 6 0.000000 0.000000 0.000000 0.088284 0.000000 0.007552
#
#
# Mechanical properties :
#
#
# Convention : Reuss Voigt Hill
#
# Bulk Modulus (GPa) = 30.29106 49.38130 39.83618
# Shear Modulus (GPa) = -69.86844 25.67944 -22.09450
#
# Velocity S-wave (km/s) = -5.78563 3.50754 -3.25351
# Velocity P-wave (km/s) = 5.48809 6.32946 2.22968
#
# Compressibility (1/GPa) = 0.03301304
#
# Stress axis : x y z
#
# Youngs Moduli (GPa) = 34.29991 80.39930 147.43735
#
# Poissons Ratio (x) = 0.54107 -0.19100
# Poissons Ratio (y) = 0.23083 0.33124
# Poissons Ratio (z) = -0.04443 0.18063
#
# Static dielectric constant tensor:
#      x y z
#    x 1.797420 0.000000 0.072880 
#    y 0.000000 1.730920 0.000000 
#    z 0.072880 0.000000 1.921330 
# 
# From -- ./inp_files/276899.got.cif
#   From: 2010.05.17/outbox.cif.g08.bks.cpg/sg12_139_cif.got.tgz:276899.got - 2010.06.03 13:09:07.
