data_PCOD9211658
_publ_section_title
;
Structure prediction by ZEFSAII (Michael W. Deem and Ramdas Pophale) SiO2 
 PCOD9211658
Probable space group: C 2/M
;
_chemical_formula_sum "Si O2"
_cell_formula_units_Z 40
_cell_length_a 23.454741
_cell_length_b 10.968244
_cell_length_c 13.940452
_cell_angle_alpha 90.000000
_cell_angle_beta 149.743820
_cell_angle_gamma 90.000000
_cell_volume 1807.010367
_symmetry_space_group_name_H-M "C 2/M"
_symmetry_group_IT_number 12
_symmetry_cell_setting 'monoclinic'
loop_
_space_group_symop_operation_xyz
x,y,z
-x,y,-z
-x,-y,-z
x,-y,z
1/2+x,1/2+y,z
1/2-x,1/2+y,-z
1/2-x,1/2-y,-z
1/2+x,1/2-y,z
loop_
_atom_site_type_symbol
_atom_site_label
_atom_site_fract_x
_atom_site_fract_y
_atom_site_fract_z
Si Si1 0.843030 0.248804 0.218007
Si Si2 0.329736 0.288987 0.529661
Si Si3 0.454929 0.636504 0.043708
Si Si4 0.297446 0.870543 0.837204
Si Si5 0.062077 0.635648 0.468331
O O1 0.801013 0.140749 0.225993
O O2 0.858051 0.353633 0.321648
O O3 0.964374 0.262848 0.342917
O O4 0.750000 0.250000 0.000000
O O5 0.250000 0.250000 0.500000
O O6 0.260953 0.364688 0.351200
O O7 0.371276 0.171615 0.529609
O O8 0.062495 0.144179 0.269675
O O9 0.403530 0.500000 0.974868
O O10 0.500000 0.653094 0.000000
O O11 0.375527 0.750527 0.955601
O O12 0.358477 0.000000 0.938513
O O13 0.014188 0.500000 0.392563
#
# Coordination Sequence:
#
# PCOD9211658 Si02
#       5
#     8   8   8   8   8
#     4  10  21  40  64  96 132 170 219 282 336 395
#     4  11  23  44  66  98 137 181 222 279 340 401
#     4  11  24  43  65  97 135 178 226 275 333 404
#     4  11  25  44  68 103 136 177 227 278 340 406
#     4  10  23  42  68  99 132 177 234 279 335 411
#
# _framework density 22.136009999999999
#
# number of rings (size 3 to 8) (size 9 to 14) (size 15 to 20)
#    0.000    1.400    2.000    3.000    0.000   10.000 
#    0.000   11.000    0.000    0.000    0.000    0.000 
#    0.000    0.000    0.000    0.000    0.000    0.000 
#
# Total GULP energy -111556.417794 kJ/mol
# GULP energy per Si atom -5577.820890 kJ/mol
# Density = 2.208563 g / cm^3
# Si number density = 22.136010 Si / 1000 Ang^3
#
#
#
# Elastic Constant Matrix: (Units=GPa)
#
#
# Indices 1 2 3 4 5 6 
#
# 1 161.8632 44.4313 37.0579 0.0000 -5.3797 0.0000
# 2 44.4313 155.2514 39.6504 0.0000 21.5830 0.0000
# 3 37.0579 39.6504 117.6558 0.0000 -11.3791 0.0000
# 4 0.0000 0.0000 0.0000 17.4679 0.0000 11.4633
# 5 -5.3797 21.5830 -11.3791 0.0000 39.9712 0.0000
# 6 0.0000 0.0000 0.0000 11.4633 0.0000 1.8455
#
#
#
# Elastic Compliance Matrix: (Units=1/GPa)
#
#
# Indices 1 2 3 4 5 6 
#
# 1 0.007074 -0.001870 -0.001448 0.000000 0.001550 0.000000
# 2 -0.001870 0.008477 -0.002812 0.000000 -0.005630 0.000000
# 3 -0.001448 -0.002812 0.010315 0.000000 0.004260 0.000000
# 4 0.000000 0.000000 0.000000 -0.018610 0.000000 0.115593
# 5 0.001550 -0.005630 0.004260 0.000000 0.029479 0.000000
# 6 0.000000 0.000000 0.000000 0.115593 0.000000 -0.176142
#
#
# Mechanical properties :
#
#
# Convention : Reuss Voigt Hill
#
# Bulk Modulus (GPa) = 73.49813 75.22774 74.36294
# Shear Modulus (GPa) = -40.78017 32.76564 -4.00727
#
# Velocity S-wave (km/s) = -4.29681 3.85151 -1.34693
# Velocity P-wave (km/s) = 2.94250 7.33736 5.58996
#
# Compressibility (1/GPa) = 0.01360579
#
# Stress axis : x y z
#
# Youngs Moduli (GPa) = 141.35311 117.96198 96.94391
#
# Poissons Ratio (x) = 0.22062 0.14038
# Poissons Ratio (y) = 0.26437 0.27263
# Poissons Ratio (z) = 0.20469 0.33174
#
# Static dielectric constant tensor:
#      x y z
#    x 1.817230 0.000000 0.027100 
#    y 0.000000 1.790650 0.000000 
#    z 0.027100 0.000000 1.849370 
# 
# From -- ./inp_files/240078.got.cif
#   From: 2010.05.17/outbox.cif.g08.bks.cpg/sg12_121_cif.got.tgz:240078.got - 2010.06.03 13:09:07.
