data_PCOD9211023
_publ_section_title
;
Structure prediction by ZEFSAII (Michael W. Deem and Ramdas Pophale) SiO2 
 PCOD9211023
Probable space group: C 2/M
;
_chemical_formula_sum "Si O2"
_cell_formula_units_Z 64
_cell_length_a 23.014406
_cell_length_b 18.655851
_cell_length_c 14.571189
_cell_angle_alpha 90.000000
_cell_angle_beta 149.165698
_cell_angle_gamma 90.000000
_cell_volume 3206.653323
_symmetry_space_group_name_H-M "C 2/M"
_symmetry_group_IT_number 12
_symmetry_cell_setting 'monoclinic'
loop_
_space_group_symop_operation_xyz
x,y,z
-x,y,-z
-x,-y,-z
x,-y,z
1/2+x,1/2+y,z
1/2-x,1/2+y,-z
1/2-x,1/2-y,-z
1/2+x,1/2-y,z
loop_
_atom_site_type_symbol
_atom_site_label
_atom_site_fract_x
_atom_site_fract_y
_atom_site_fract_z
Si Si1 0.746583 0.705283 0.246921
Si Si2 0.475631 0.079303 0.860175
Si Si3 0.186925 0.325043 0.929372
Si Si4 0.136359 0.416642 0.681220
Si Si5 0.356840 0.767783 0.706347
Si Si6 0.453412 0.720901 0.168046
Si Si7 0.425742 0.668313 0.491212
Si Si8 0.737535 0.082606 0.160895
O O1 0.803912 0.626583 0.321350
O O2 0.675669 0.737916 0.236797
O O3 0.854179 0.758174 0.382587
O O4 0.661011 0.706080 0.044442
O O5 0.393687 0.148545 0.745491
O O6 0.436025 0.000000 0.771821
O O7 0.500000 0.071914 0.000000
O O8 0.603537 0.092175 0.997301
O O9 0.170718 0.374649 0.820185
O O10 0.067954 0.297214 0.810213
O O11 0.250000 0.250000 0.000000
O O12 0.257168 0.368865 0.099113
O O13 0.169756 0.500000 0.727185
O O14 0.000000 0.413379 0.500000
O O15 0.250000 0.750000 0.500000
O O16 0.456710 0.725545 0.791389
O O17 0.500076 0.672136 0.314975
O O18 0.500000 0.657576 0.500000
O O19 0.324268 0.609925 0.355695
O O20 0.758146 0.000000 0.170545
#
# Coordination Sequence:
#
# PCOD9211023 Si02
#       8
#     8   8   8   8   8   8   8   8
#     4  12  23  44  68  96 134 179 236 282 336 410
#     4  10  21  39  65  94 130 169 211 274 347 403
#     4  12  21  39  67  99 129 174 225 281 341 405
#     4  11  25  43  67 101 140 180 228 287 342 404
#     4  12  24  40  67  99 134 177 233 288 340 404
#     4  12  23  39  68  98 132 176 232 286 340 398
#     4  12  24  39  63  99 133 174 227 278 338 410
#     4  11  23  41  63  94 136 175 216 277 347 417
#
# _framework density 19.958504000000001
#
# number of rings (size 3 to 8) (size 9 to 14) (size 15 to 20)
#    0.000    0.500    5.000    4.875    0.000    0.250 
#    0.000    1.250    0.000    3.000    0.000    0.000 
#    0.000    0.000    0.000    0.000    0.000    0.000 
#
# Total GULP energy -178334.597726 kJ/mol
# GULP energy per Si atom -5572.956179 kJ/mol
# Density = 1.991308 g / cm^3
# Si number density = 19.958504 Si / 1000 Ang^3
#
#
#
# Elastic Constant Matrix: (Units=GPa)
#
#
# Indices 1 2 3 4 5 6 
#
# 1 91.9502 58.8842 28.0116 0.0000 5.2847 0.0000
# 2 58.8842 156.0134 54.9619 0.0000 -2.7209 0.0000
# 3 28.0116 54.9619 115.7382 0.0000 -10.7304 0.0000
# 4 0.0000 0.0000 0.0000 22.3510 0.0000 -62.9292
# 5 5.2847 -2.7209 -10.7304 0.0000 29.2439 0.0000
# 6 0.0000 0.0000 0.0000 -62.9292 0.0000 -505.0691
#
#
#
# Elastic Compliance Matrix: (Units=1/GPa)
#
#
# Indices 1 2 3 4 5 6 
#
# 1 0.014833 -0.005137 -0.001494 0.000000 -0.003707 0.000000
# 2 -0.005137 0.009488 -0.003204 0.000000 0.000636 0.000000
# 3 -0.001494 -0.003204 0.010891 0.000000 0.003968 0.000000
# 4 0.000000 0.000000 0.000000 0.033122 0.000000 -0.004127
# 5 -0.003707 0.000636 0.003968 0.000000 0.036380 0.000000
# 6 0.000000 0.000000 0.000000 -0.004127 0.000000 -0.001466
#
#
# Mechanical properties :
#
#
# Convention : Reuss Voigt Hill
#
# Bulk Modulus (GPa) = 64.33712 71.93526 68.13619
# Shear Modulus (GPa) = 39.03225 -75.90526 -18.43650
#
# Velocity S-wave (km/s) = 4.42709 -6.17366 -3.04261
# Velocity P-wave (km/s) = 7.64445 3.83382 4.67651
#
# Compressibility (1/GPa) = 0.01554313
#
# Stress axis : x y z
#
# Youngs Moduli (GPa) = 67.41604 105.39468 91.81810
#
# Poissons Ratio (x) = 0.54138 0.13721
# Poissons Ratio (y) = 0.34630 0.29415
# Poissons Ratio (z) = 0.10074 0.33764
#
# Static dielectric constant tensor:
#      x y z
#    x 2.073800 0.000000 0.176440 
#    y 0.000000 1.766860 0.000000 
#    z 0.176440 0.000000 1.814260 
# 
# From -- ./inp_files/241539.got.cif
#   From: 2010.05.17/outbox.cif.g08.bks.cpg/sg12_121_cif.got.tgz:241539.got - 2010.06.03 13:09:07.
