data_PCOD9211031
_publ_section_title
;
Structure prediction by ZEFSAII (Michael W. Deem and Ramdas Pophale) SiO2 
 PCOD9211031
Probable space group: C 2/M
;
_chemical_formula_sum "Si O2"
_cell_formula_units_Z 48
_cell_length_a 12.390300
_cell_length_b 14.096963
_cell_length_c 15.319817
_cell_angle_alpha 90.000000
_cell_angle_beta 121.332149
_cell_angle_gamma 90.000000
_cell_volume 2285.619038
_symmetry_space_group_name_H-M "C 2/M"
_symmetry_group_IT_number 12
_symmetry_cell_setting 'monoclinic'
loop_
_space_group_symop_operation_xyz
x,y,z
-x,y,-z
-x,-y,-z
x,-y,z
1/2+x,1/2+y,z
1/2-x,1/2+y,-z
1/2-x,1/2-y,-z
1/2+x,1/2-y,z
loop_
_atom_site_type_symbol
_atom_site_label
_atom_site_fract_x
_atom_site_fract_y
_atom_site_fract_z
Si Si1 0.129848 0.609003 0.378001
Si Si2 0.921316 0.111795 0.551867
Si Si3 0.365913 0.108795 0.332579
Si Si4 0.621013 0.704777 0.287662
Si Si5 0.696506 0.108954 0.900729
Si Si6 0.938559 0.785833 0.062244
O O1 0.112335 0.500000 0.344106
O O2 0.271091 0.620868 0.472547
O O3 0.118001 0.682036 0.294293
O O4 0.015665 0.629821 0.397280
O O5 0.943769 0.165328 0.651787
O O6 0.000000 0.144137 0.500000
O O7 0.950015 0.000000 0.575365
O O8 0.265715 0.171765 0.341529
O O9 0.327918 0.115390 0.213761
O O10 0.348191 0.000000 0.354402
O O11 0.543069 0.672304 0.171275
O O12 0.622760 0.196008 0.914600
O O13 0.665154 0.000000 0.912599
O O14 0.838822 0.134810 0.989797
O O15 0.000000 0.748270 0.000000
#
# Coordination Sequence:
#
# PCOD9211031 Si02
#       6
#     8   8   8   8   8   8
#     4  10  23  43  65  92 128 171 215 265 322 382
#     4  10  24  45  66  96 134 167 214 272 325 388
#     4  10  21  39  65  95 125 166 220 268 316 380
#     4  12  23  39  70  95 130 172 218 264 328 379
#     4  10  22  41  62  89 131 172 212 266 317 372
#     4  11  23  40  63  96 130 167 217 263 313 384
#
# _framework density 21.000875000000001
#
# number of rings (size 3 to 8) (size 9 to 14) (size 15 to 20)
#    0.000    1.500    3.333    1.000    2.333    2.667 
#    0.000    2.500    0.000    0.000    0.000    0.000 
#    0.000    0.000    0.000    0.000    0.000    0.000 
#
# Total GULP energy -134037.986660 kJ/mol
# GULP energy per Si atom -5584.916111 kJ/mol
# Density = 2.095308 g / cm^3
# Si number density = 21.000875 Si / 1000 Ang^3
#
#
#
# Elastic Constant Matrix: (Units=GPa)
#
#
# Indices 1 2 3 4 5 6 
#
# 1 125.4758 36.3847 31.2937 0.0000 -1.6633 0.0000
# 2 36.3847 64.9357 17.9635 0.0000 -2.3392 0.0000
# 3 31.2937 17.9635 74.3163 0.0000 -5.8446 0.0000
# 4 0.0000 0.0000 0.0000 16.3714 0.0000 -3.3415
# 5 -1.6633 -2.3392 -5.8446 0.0000 31.3344 0.0000
# 6 0.0000 0.0000 0.0000 -3.3415 0.0000 27.5132
#
#
#
# Elastic Compliance Matrix: (Units=1/GPa)
#
#
# Indices 1 2 3 4 5 6 
#
# 1 0.010148 -0.004833 -0.003137 0.000000 -0.000407 0.000000
# 2 -0.004833 0.018813 -0.002458 0.000000 0.000689 0.000000
# 3 -0.003137 -0.002458 0.015572 0.000000 0.002555 0.000000
# 4 0.000000 0.000000 0.000000 0.062635 0.000000 0.007607
# 5 -0.000407 0.000689 0.002555 0.000000 0.032420 0.000000
# 6 0.000000 0.000000 0.000000 0.007607 0.000000 0.037270
#
#
# Mechanical properties :
#
#
# Convention : Reuss Voigt Hill
#
# Bulk Modulus (GPa) = 42.23569 48.44574 45.34071
# Shear Modulus (GPa) = 24.31834 26.98285 25.65059
#
# Velocity S-wave (km/s) = 3.40658 3.58836 3.49865
# Velocity P-wave (km/s) = 5.96893 6.34720 6.16097
#
# Compressibility (1/GPa) = 0.02367666
#
# Stress axis : x y z
#
# Youngs Moduli (GPa) = 98.54065 53.15563 64.21775
#
# Poissons Ratio (x) = 0.25690 0.20145
# Poissons Ratio (y) = 0.47625 0.15785
# Poissons Ratio (z) = 0.30913 0.13066
#
# Static dielectric constant tensor:
#      x y z
#    x 1.765240 0.000000 0.040740 
#    y 0.000000 1.744340 0.000000 
#    z 0.040740 0.000000 1.766620 
# 
# From -- ./inp_files/204843.got.cif
#   From: 2010.05.17/outbox.cif.g08.bks.cpg/sg12_103_cif.got.tgz:204843.got - 2010.06.03 13:09:07.
