data_PCOD9211862
_publ_section_title
;
Structure prediction by ZEFSAII (Michael W. Deem and Ramdas Pophale) SiO2 
 PCOD9211862
Probable space group: C 2/M
;
_chemical_formula_sum "Si O2"
_cell_formula_units_Z 64
_cell_length_a 8.652923
_cell_length_b 16.744450
_cell_length_c 30.006161
_cell_angle_alpha 90.000000
_cell_angle_beta 138.156003
_cell_angle_gamma 90.000000
_cell_volume 2900.268289
_symmetry_space_group_name_H-M "C 2/M"
_symmetry_group_IT_number 12
_symmetry_cell_setting 'monoclinic'
loop_
_space_group_symop_operation_xyz
x,y,z
-x,y,-z
-x,-y,-z
x,-y,z
1/2+x,1/2+y,z
1/2-x,1/2+y,-z
1/2-x,1/2-y,-z
1/2+x,1/2-y,z
loop_
_atom_site_type_symbol
_atom_site_label
_atom_site_fract_x
_atom_site_fract_y
_atom_site_fract_z
Si Si1 0.260014 0.404072 0.570056
Si Si2 0.567667 0.168862 0.688848
Si Si3 0.016770 0.157272 0.290075
Si Si4 0.135644 0.843323 0.902536
Si Si5 0.665134 0.087293 0.797674
Si Si6 0.124382 0.908437 0.573631
Si Si7 0.995630 0.336589 0.847156
Si Si8 0.890104 0.404987 0.038509
O O1 0.249572 0.500000 0.564301
O O2 0.360328 0.384838 0.640953
O O3 0.452434 0.377300 0.575259
O O4 0.000000 0.374936 0.500000
O O5 0.797171 0.159724 0.709399
O O6 0.547474 0.255799 0.705054
O O7 0.550382 0.108857 0.726636
O O8 0.342025 0.148240 0.612666
O O9 0.768609 0.132191 0.216011
O O10 0.366758 0.865662 0.925093
O O11 0.937075 0.905528 0.847631
O O12 0.036520 0.755447 0.870446
O O13 0.200226 0.858802 0.968079
O O14 0.605039 0.151132 0.822281
O O15 0.596193 0.000000 0.798719
O O16 0.000000 0.912421 0.500000
O O17 0.192929 0.000000 0.599623
O O18 0.124820 0.388407 0.912388
O O19 0.884036 0.500000 0.027617
#
# Coordination Sequence:
#
# PCOD9211862 Si02
#       8
#     8   8   8   8   8   8   8   8
#     4  10  22  42  69 102 140 181 229 287 346 409
#     4  12  25  43  65  95 132 177 226 285 343 411
#     4  12  26  43  68  96 135 178 232 281 347 417
#     4  11  23  43  68  95 132 180 224 278 346 412
#     4  12  25  42  67  98 135 177 230 285 344 409
#     4  10  21  40  66  97 135 178 225 277 340 408
#     4  12  25  43  67  99 135 181 226 286 348 415
#     4  11  24  44  68  99 136 176 232 287 344 413
#
# _framework density 22.066924
#
# number of rings (size 3 to 8) (size 9 to 14) (size 15 to 20)
#    0.000    0.750    1.250    7.125    0.000    6.000 
#    0.000    3.750    0.000    0.000    0.000    0.000 
#    0.000    0.000    0.000    0.000    0.000    0.000 
#
# Total GULP energy -178852.026822 kJ/mol
# GULP energy per Si atom -5589.125838 kJ/mol
# Density = 2.201670 g / cm^3
# Si number density = 22.066924 Si / 1000 Ang^3
#
#
#
# Elastic Constant Matrix: (Units=GPa)
#
#
# Indices 1 2 3 4 5 6 
#
# 1 73.0585 15.2462 2.3799 0.0001 -15.8470 0.0000
# 2 15.2462 43.9754 10.5884 0.0000 -3.8180 0.0000
# 3 2.3799 10.5884 87.5618 0.0002 -13.0813 0.0000
# 4 0.0001 0.0000 0.0002 32.8545 0.0001 -11.2514
# 5 -15.8470 -3.8180 -13.0813 0.0001 35.7796 0.0000
# 6 0.0000 0.0000 0.0000 -11.2514 0.0000 15.1866
#
#
#
# Elastic Compliance Matrix: (Units=1/GPa)
#
#
# Indices 1 2 3 4 5 6 
#
# 1 0.016304 -0.005340 0.001265 0.000000 0.007114 0.000000
# 2 -0.005340 0.025252 -0.003024 0.000000 -0.000776 0.000000
# 3 0.001265 -0.003024 0.012468 0.000000 0.004796 0.000000
# 4 0.000000 0.000000 0.000000 0.040785 0.000000 0.030217
# 5 0.007114 -0.000776 0.004796 0.000000 0.032770 0.000000
# 6 0.000000 0.000000 0.000000 0.030217 0.000000 0.088235
#
#
# Mechanical properties :
#
#
# Convention : Reuss Voigt Hill
#
# Bulk Modulus (GPa) = 25.10859 29.00274 27.05567
# Shear Modulus (GPa) = 20.55179 28.52289 24.53734
#
# Velocity S-wave (km/s) = 3.05510 3.59912 3.33821
# Velocity P-wave (km/s) = 4.88343 5.51754 5.21014
#
# Compressibility (1/GPa) = 0.03982700
#
# Stress axis : x y z
#
# Youngs Moduli (GPa) = 61.33546 39.60081 80.20288
#
# Poissons Ratio (x) = 0.21145 -0.10148
# Poissons Ratio (y) = 0.32750 0.24257
# Poissons Ratio (z) = -0.07761 0.11977
#
# Static dielectric constant tensor:
#      x y z
#    x 1.807770 0.000000 0.001420 
#    y 0.000000 1.892750 0.000000 
#    z 0.001420 0.000000 1.863860 
# 
# From -- ./inp_files/373005.got.cif
#   From: 2010.05.17/outbox.cif.g08.bks.cpg/sg12_187_cif.got.tgz:373005.got - 2010.06.03 13:09:07.
