data_PCOD9211111
_publ_section_title
;
Structure prediction by ZEFSAII (Michael W. Deem and Ramdas Pophale) SiO2 
 PCOD9211111
Probable space group: C 2/M
;
_chemical_formula_sum "Si O2"
_cell_formula_units_Z 32
_cell_length_a 10.001326
_cell_length_b 17.011753
_cell_length_c 7.837152
_cell_angle_alpha 90.000000
_cell_angle_beta 70.825907
_cell_angle_gamma 90.000000
_cell_volume 1259.442568
_symmetry_space_group_name_H-M "C 2/M"
_symmetry_group_IT_number 12
_symmetry_cell_setting 'monoclinic'
loop_
_space_group_symop_operation_xyz
x,y,z
-x,y,-z
-x,-y,-z
x,-y,z
1/2+x,1/2+y,z
1/2-x,1/2+y,-z
1/2-x,1/2-y,-z
1/2+x,1/2-y,z
loop_
_atom_site_type_symbol
_atom_site_label
_atom_site_fract_x
_atom_site_fract_y
_atom_site_fract_z
Si Si1 0.798064 0.087840 0.072088
Si Si2 0.487776 0.357947 0.266267
Si Si3 0.016228 0.407330 0.698030
Si Si4 0.787983 0.182564 0.616325
O O1 0.633193 0.104351 0.145228
O O2 0.879714 0.150859 0.155169
O O3 0.815055 0.000000 0.142385
O O4 0.887519 0.087348 0.860476
O O5 0.593578 0.291116 0.295998
O O6 0.379024 0.379011 0.462626
O O7 0.051173 0.500000 0.697044
O O8 0.141503 0.356617 0.726783
O O9 0.000000 0.390696 0.500000
O O10 0.750000 0.250000 0.500000
#
# Coordination Sequence:
#
# PCOD9211111 Si02
#       4
#     8   8   8   8
#     4  10  21  41  66  97 135 168 213 277 335 398
#     4  10  22  39  63  91 123 171 213 270 329 382
#     4  10  21  39  66  94 128 174 217 270 334 393
#     4  11  25  42  63  94 131 176 225 274 326 397
#
# _framework density 25.408066999999999
#
# number of rings (size 3 to 8) (size 9 to 14) (size 15 to 20)
#    0.000    1.750    2.500    1.500    3.500    4.000 
#    0.000   20.000    0.000    0.000    0.000    0.000 
#    0.000    0.000    0.000    0.000    0.000    0.000 
#
# Total GULP energy -89143.113054 kJ/mol
# GULP energy per Si atom -5571.444566 kJ/mol
# Density = 2.535024 g / cm^3
# Si number density = 25.408067 Si / 1000 Ang^3
#
#
#
# Elastic Constant Matrix: (Units=GPa)
#
#
# Indices 1 2 3 4 5 6 
#
# 1 196.9683 54.8782 44.9163 0.0000 -38.4617 0.0000
# 2 54.8782 62.4372 20.1330 0.0000 -3.5975 0.0000
# 3 44.9163 20.1330 102.9571 0.0000 -41.3575 0.0000
# 4 0.0000 0.0000 0.0000 11.2611 0.0000 -1.0510
# 5 -38.4617 -3.5975 -41.3575 0.0000 55.2705 0.0000
# 6 0.0000 0.0000 0.0000 -1.0510 0.0000 17.9494
#
#
#
# Elastic Compliance Matrix: (Units=1/GPa)
#
#
# Indices 1 2 3 4 5 6 
#
# 1 0.007932 -0.006631 -0.000171 0.000000 0.004960 0.000000
# 2 -0.006631 0.022790 -0.004034 0.000000 -0.006149 0.000000
# 3 -0.000171 -0.004034 0.014902 0.000000 0.010769 0.000000
# 4 0.000000 0.000000 0.000000 0.089290 0.000000 0.005228
# 5 0.004960 -0.006149 0.010769 0.000000 0.029202 0.000000
# 6 0.000000 0.000000 0.000000 0.005228 0.000000 0.056018
#
#
# Mechanical properties :
#
#
# Convention : Reuss Voigt Hill
#
# Bulk Modulus (GPa) = 41.74940 66.91307 54.33123
# Shear Modulus (GPa) = 20.01670 33.05853 26.53762
#
# Velocity S-wave (km/s) = 2.80984 3.61099 3.23531
# Velocity P-wave (km/s) = 5.19559 6.61651 5.94863
#
# Compressibility (1/GPa) = 0.02395244
#
# Stress axis : x y z
#
# Youngs Moduli (GPa) = 126.07282 43.87808 67.10333
#
# Poissons Ratio (x) = 0.29094 0.01151
# Poissons Ratio (y) = 0.83594 0.27070
# Poissons Ratio (z) = 0.02162 0.17701
#
# Static dielectric constant tensor:
#      x y z
#    x 2.023430 0.000000 0.096310 
#    y 0.000000 2.008630 0.000000 
#    z 0.096310 0.000000 2.102270 
# 
# From -- ./inp_files/46445.got.cif
#   From: 2010.05.17/outbox.cif.g08.bks.cpg/sg12_24_cif.got.tgz:46445.got - 2010.06.03 13:09:07.
