data_PCOD9211088
_publ_section_title
;
Structure prediction by ZEFSAII (Michael W. Deem and Ramdas Pophale) SiO2 
 PCOD9211088
Probable space group: C 2/M
;
_chemical_formula_sum "Si O2"
_cell_formula_units_Z 40
_cell_length_a 20.329071
_cell_length_b 9.694518
_cell_length_c 23.122704
_cell_angle_alpha 90.000000
_cell_angle_beta 152.221414
_cell_angle_gamma 90.000000
_cell_volume 2123.833552
_symmetry_space_group_name_H-M "C 2/M"
_symmetry_group_IT_number 12
_symmetry_cell_setting 'monoclinic'
loop_
_space_group_symop_operation_xyz
x,y,z
-x,y,-z
-x,-y,-z
x,-y,z
1/2+x,1/2+y,z
1/2-x,1/2+y,-z
1/2-x,1/2-y,-z
1/2+x,1/2-y,z
loop_
_atom_site_type_symbol
_atom_site_label
_atom_site_fract_x
_atom_site_fract_y
_atom_site_fract_z
Si Si1 0.460320 0.500000 0.066221
Si Si2 0.026701 0.699167 0.586629
Si Si3 0.228438 0.000000 0.191124
Si Si4 0.471159 0.500000 0.703605
Si Si5 0.417287 0.727279 0.129736
Si Si6 0.097509 0.500000 0.293028
Si Si7 0.069644 0.000000 0.464271
Si Si8 0.146430 0.500000 0.469540
O O1 0.600139 0.500000 0.136215
O O2 0.454569 0.632833 0.103371
O O3 0.331294 0.500000 0.920354
O O4 0.174700 0.633984 0.721798
O O5 0.000000 0.653598 0.500000
O O6 0.003611 0.861996 0.569878
O O7 0.916415 0.631249 0.545699
O O8 0.546749 0.634973 0.786474
O O9 0.457378 0.500000 0.625020
O O10 0.313309 0.500000 0.605606
O O11 0.509962 0.865621 0.205034
O O12 0.250000 0.750000 0.000000
O O13 0.259308 0.500000 0.395372
O O14 0.107585 0.500000 0.371346
#
# Coordination Sequence:
#
# PCOD9211088 Si02
#       8
#     4   8   4   4   8   4   4   4
#     4  10  25  45  65  88 120 169 216 251 298 366
#     4  11  24  38  66  92 125 161 207 255 310 364
#     4  10  24  45  67  86 117 171 219 254 287 365
#     4  10  22  39  63  90 126 164 204 254 318 370
#     4  11  24  38  65  94 127 163 206 256 311 370
#     4  11  23  40  64  96 132 160 199 263 323 371
#     4  11  24  40  61  97 132 160 195 265 330 370
#     4  10  21  39  66  93 120 166 210 254 305 375
#
# _framework density 18.833867999999999
#
# number of rings (size 3 to 8) (size 9 to 14) (size 15 to 20)
#    0.000    1.400    0.000    5.100   16.800    3.200 
#    0.000    0.000    0.000    2.400    0.000    0.000 
#    0.000    0.000    0.000    0.000    0.000    0.000 
#
# Total GULP energy -111755.129156 kJ/mol
# GULP energy per Si atom -5587.756458 kJ/mol
# Density = 1.879100 g / cm^3
# Si number density = 18.833868 Si / 1000 Ang^3
#
#
#
# Elastic Constant Matrix: (Units=GPa)
#
#
# Indices 1 2 3 4 5 6 
#
# 1 69.2210 33.6081 42.3241 0.0001 -3.6497 0.0000
# 2 33.6081 177.8299 74.1097 0.0007 2.8692 0.0000
# 3 42.3241 74.1097 155.5229 0.0006 5.3695 0.0005
# 4 0.0001 0.0007 0.0006 0.0775 0.0004 -31.8471
# 5 -3.6497 2.8692 5.3695 0.0004 25.4535 0.0001
# 6 0.0000 0.0000 0.0005 -31.8471 0.0001 49.7939
#
#
#
# Elastic Compliance Matrix: (Units=1/GPa)
#
#
# Indices 1 2 3 4 5 6 
#
# 1 0.018054 -0.001711 -0.004225 0.000000 0.003673 0.000000
# 2 -0.001711 0.007179 -0.002940 0.000000 -0.000434 0.000000
# 3 -0.004225 -0.002940 0.009056 0.000000 -0.002185 0.000000
# 4 0.000000 0.000000 0.000000 -0.049282 0.000001 -0.031520
# 5 0.003673 -0.000434 -0.002185 0.000001 0.040324 0.000000
# 6 0.000000 0.000000 0.000000 -0.031520 0.000000 -0.000077
#
#
# Mechanical properties :
#
#
# Convention : Reuss Voigt Hill
#
# Bulk Modulus (GPa) = 60.46889 78.07306 69.27098
# Shear Modulus (GPa) = 103.05446 31.90045 67.47746
#
# Velocity S-wave (km/s) = 7.40516 4.12002 5.99212
# Velocity P-wave (km/s) = 10.26116 8.01101 9.20510
#
# Compressibility (1/GPa) = 0.01653743
#
# Stress axis : x y z
#
# Youngs Moduli (GPa) = 55.38980 139.29414 110.42047
#
# Poissons Ratio (x) = 0.23827 0.46651
# Poissons Ratio (y) = 0.09475 0.32469
# Poissons Ratio (z) = 0.23402 0.40959
#
# Static dielectric constant tensor:
#      x y z
#    x 1.641400 0.000000 -0.001770 
#    y 0.000000 1.657800 0.000000 
#    z -0.001770 0.000000 1.637950 
# 
# From -- ./inp_files/346411.got.cif
#   From: 2010.05.17/outbox.cif.g08.bks.cpg/sg12_174_cif.got.tgz:346411.got - 2010.06.03 13:09:07.
