data_PCOD9211723
_publ_section_title
;
Structure prediction by ZEFSAII (Michael W. Deem and Ramdas Pophale) SiO2 
 PCOD9211723
Probable space group: C 2/M
;
_chemical_formula_sum "Si O2"
_cell_formula_units_Z 52
_cell_length_a 13.688405
_cell_length_b 23.363557
_cell_length_c 12.272093
_cell_angle_alpha 90.000000
_cell_angle_beta 44.403629
_cell_angle_gamma 90.000000
_cell_volume 2746.171489
_symmetry_space_group_name_H-M "C 2/M"
_symmetry_group_IT_number 12
_symmetry_cell_setting 'monoclinic'
loop_
_space_group_symop_operation_xyz
x,y,z
-x,y,-z
-x,-y,-z
x,-y,z
1/2+x,1/2+y,z
1/2-x,1/2+y,-z
1/2-x,1/2-y,-z
1/2+x,1/2-y,z
loop_
_atom_site_type_symbol
_atom_site_label
_atom_site_fract_x
_atom_site_fract_y
_atom_site_fract_z
Si Si1 0.590817 0.433327 0.221576
Si Si2 0.460015 0.753188 0.915481
Si Si3 0.500000 0.640705 0.500000
Si Si4 0.614741 0.433959 0.815102
Si Si5 0.251076 0.664411 0.001930
Si Si6 0.151574 0.340949 0.327218
Si Si7 0.240081 0.227756 0.384668
O O1 0.621204 0.500000 0.216224
O O2 0.558133 0.399107 0.357361
O O3 0.461145 0.429901 0.240861
O O4 0.714355 0.399084 0.062765
O O5 0.337714 0.799847 0.014249
O O6 0.598312 0.785700 0.767346
O O7 0.500000 0.728347 0.000000
O O8 0.395863 0.700424 0.898790
O O9 0.624515 0.679904 0.450893
O O10 0.658704 0.500000 0.797020
O O11 0.741040 0.390410 0.724817
O O12 0.500000 0.420991 0.000000
O O13 0.168332 0.665636 0.182819
O O14 0.199315 0.281327 0.341653
O O15 0.000000 0.352924 0.500000
O O16 0.250000 0.250000 0.500000
#
# Coordination Sequence:
#
# PCOD9211723 Si02
#       7
#     8   8   4   8   8   8   8
#     4  11  24  43  68  93 126 176 232 278 322 392
#     4  11  22  37  61  90 128 168 210 263 326 395
#     4  12  25  44  66  98 135 174 224 270 340 400
#     4  10  21  40  65  92 124 174 227 271 325 386
#     4  11  23  38  62  94 127 173 222 265 330 402
#     4  12  23  37  59  97 138 170 210 275 334 392
#     4  12  24  39  61  94 135 174 211 267 333 399
#
# _framework density 18.935452000000002
#
# number of rings (size 3 to 8) (size 9 to 14) (size 15 to 20)
#    0.000    0.769    3.846    4.846    2.154    0.308 
#    0.000    0.000    0.000    5.077    0.000    0.000 
#    0.000    0.000    0.000    0.000    0.000    0.000 
#
# Total GULP energy -145239.102093 kJ/mol
# GULP energy per Si atom -5586.119311 kJ/mol
# Density = 1.889235 g / cm^3
# Si number density = 18.935452 Si / 1000 Ang^3
#
#
#
# Elastic Constant Matrix: (Units=GPa)
#
#
# Indices 1 2 3 4 5 6 
#
# 1 93.6853 56.0381 44.6112 0.0000 -1.2598 0.0000
# 2 56.0381 149.1860 50.6438 0.0000 -11.1353 0.0000
# 3 44.6112 50.6438 94.6554 0.0000 2.7075 0.0000
# 4 0.0000 0.0000 0.0000 31.5074 0.0000 -0.8104
# 5 -1.2598 -11.1353 2.7075 0.0000 34.6067 0.0000
# 6 0.0000 0.0000 0.0000 -0.8104 0.0000 29.3771
#
#
#
# Elastic Compliance Matrix: (Units=1/GPa)
#
#
# Indices 1 2 3 4 5 6 
#
# 1 0.015585 -0.004144 -0.005117 0.000000 -0.000366 0.000000
# 2 -0.004144 0.009612 -0.003281 0.000000 0.003199 0.000000
# 3 -0.005117 -0.003281 0.014801 0.000000 -0.002400 0.000000
# 4 0.000000 0.000000 0.000000 0.031761 0.000000 0.000876
# 5 -0.000366 0.003199 -0.002400 0.000000 0.030100 0.000000
# 6 0.000000 0.000000 0.000000 0.000876 0.000000 0.034064
#
#
# Mechanical properties :
#
#
# Convention : Reuss Voigt Hill
#
# Bulk Modulus (GPa) = 67.05932 71.12366 69.09149
# Shear Modulus (GPa) = 30.12421 31.51381 30.81901
#
# Velocity S-wave (km/s) = 3.99292 4.08398 4.03871
# Velocity P-wave (km/s) = 7.53323 7.73829 7.63645
#
# Compressibility (1/GPa) = 0.01491217
#
# Stress axis : x y z
#
# Youngs Moduli (GPa) = 64.16527 104.03293 67.56435
#
# Poissons Ratio (x) = 0.43113 0.34575
# Poissons Ratio (y) = 0.26591 0.22170
# Poissons Ratio (z) = 0.32836 0.34136
#
# Static dielectric constant tensor:
#      x y z
#    x 1.662830 0.000000 0.013290 
#    y 0.000000 1.637980 0.000000 
#    z 0.013290 0.000000 1.752840 
# 
# From -- ./inp_files/135868.got.cif
#   From: 2010.05.17/outbox.cif.g08.bks.cpg/sg12_68_cif.got.tgz:135868.got - 2010.06.03 13:09:07.
