data_PCOD9211875
_publ_section_title
;
Structure prediction by ZEFSAII (Michael W. Deem and Ramdas Pophale) SiO2 
 PCOD9211875
Probable space group: C 2/M
;
_chemical_formula_sum "Si O2"
_cell_formula_units_Z 34
_cell_length_a 7.596355
_cell_length_b 14.370282
_cell_length_c 15.596903
_cell_angle_alpha 90.000000
_cell_angle_beta 129.456051
_cell_angle_gamma 90.000000
_cell_volume 1314.587095
_symmetry_space_group_name_H-M "C 2/M"
_symmetry_group_IT_number 12
_symmetry_cell_setting 'monoclinic'
loop_
_space_group_symop_operation_xyz
x,y,z
-x,y,-z
-x,-y,-z
x,-y,z
1/2+x,1/2+y,z
1/2-x,1/2+y,-z
1/2-x,1/2-y,-z
1/2+x,1/2-y,z
loop_
_atom_site_type_symbol
_atom_site_label
_atom_site_fract_x
_atom_site_fract_y
_atom_site_fract_z
Si Si1 0.518400 0.895314 0.284464
Si Si2 0.247056 0.394652 0.533993
Si Si3 0.838801 0.212185 0.259302
Si Si4 0.272295 0.402227 0.083440
Si Si5 0.500000 0.500000 0.000000
O O1 0.702106 0.897395 0.418366
O O2 0.328685 0.823557 0.258054
O O3 0.643888 0.848745 0.243549
O O4 0.430538 0.000000 0.240491
O O5 0.317700 0.500000 0.581068
O O6 0.428949 0.319856 0.621177
O O7 0.000000 0.377438 0.500000
O O8 0.852047 0.182250 0.165084
O O9 0.336886 0.500000 0.150102
O O10 0.373971 0.419453 0.021288
O O11 0.000000 0.397359 0.000000
#
# Coordination Sequence:
#
# PCOD9211875 Si02
#       5
#     8   8   8   8   2
#     4  11  25  44  68 104 151 196 244 309 368 434
#     4  10  21  40  67 106 151 197 249 305 364 445
#     4  12  23  44  72 104 143 202 253 298 378 461
#     4   9  20  43  73 114 151 189 246 319 386 449
#     4   8  18  44  76 114 154 190 238 336 384 446
#
# _framework density 25.863634999999999
#
# number of rings (size 3 to 8) (size 9 to 14) (size 15 to 20)
#    0.706    0.941    0.000    4.941    0.000    1.882 
#    8.471    3.529    0.000    0.706    0.000    0.000 
#    0.000    0.000    0.000    0.000    0.000    0.000 
#
# Total GULP energy -94958.483169 kJ/mol
# GULP energy per Si atom -5585.793128 kJ/mol
# Density = 2.580477 g / cm^3
# Si number density = 25.863635 Si / 1000 Ang^3
#
#
#
# Elastic Constant Matrix: (Units=GPa)
#
#
# Indices 1 2 3 4 5 6 
#
# 1 172.2189 54.8381 46.3119 0.0000 -27.2097 0.0000
# 2 54.8381 199.4347 29.4160 0.0000 -0.9909 0.0000
# 3 46.3119 29.4160 59.2952 0.0000 -19.9253 0.0000
# 4 0.0000 0.0000 0.0000 16.0316 0.0000 16.6977
# 5 -27.2097 -0.9909 -19.9253 0.0000 23.5391 0.0000
# 6 0.0000 0.0000 0.0000 16.6977 0.0000 9.6635
#
#
#
# Elastic Compliance Matrix: (Units=1/GPa)
#
#
# Indices 1 2 3 4 5 6 
#
# 1 0.008335 -0.001759 -0.003389 0.000000 0.006693 0.000000
# 2 -0.001759 0.005922 -0.003024 0.000000 -0.004343 0.000000
# 3 -0.003389 -0.003024 0.027465 0.000000 0.019204 0.000000
# 4 0.000000 0.000000 0.000000 -0.077999 0.000000 0.134775
# 5 0.006693 -0.004343 0.019204 0.000000 0.066291 0.000000
# 6 0.000000 0.000000 0.000000 0.134775 0.000000 -0.129398
#
#
# Mechanical properties :
#
#
# Convention : Reuss Voigt Hill
#
# Bulk Modulus (GPa) = 39.40176 76.89786 58.14981
# Shear Modulus (GPa) = -67.04086 29.87236 -18.58425
#
# Velocity S-wave (km/s) = -5.09678 3.40221 -2.68348
# Velocity P-wave (km/s) = 4.40099 6.72532 3.59592
#
# Compressibility (1/GPa) = 0.02537958
#
# Stress axis : x y z
#
# Youngs Moduli (GPa) = 119.97212 168.85571 36.41034
#
# Poissons Ratio (x) = 0.29699 0.12338
# Poissons Ratio (y) = 0.21101 0.11010
# Poissons Ratio (z) = 0.40655 0.51058
#
# Static dielectric constant tensor:
#      x y z
#    x 2.214580 0.000000 0.325150 
#    y 0.000000 2.065290 0.000000 
#    z 0.325150 0.000000 2.596850 
# 
# From -- ./inp_files/255598.got.cif
#   From: 2010.05.17/outbox.cif.g08.bks.cpg/sg12_128_cif.got.tgz:255598.got - 2010.06.03 13:09:07.
