data_PCOD9211217
_publ_section_title
;
Structure prediction by ZEFSAII (Michael W. Deem and Ramdas Pophale) SiO2 
 PCOD9211217
Probable space group: C 2/M
;
_chemical_formula_sum "Si O2"
_cell_formula_units_Z 24
_cell_length_a 14.519388
_cell_length_b 13.226333
_cell_length_c 8.820906
_cell_angle_alpha 90.000000
_cell_angle_beta 39.834279
_cell_angle_gamma 90.000000
_cell_volume 1085.093181
_symmetry_space_group_name_H-M "C 2/M"
_symmetry_group_IT_number 12
_symmetry_cell_setting 'monoclinic'
loop_
_space_group_symop_operation_xyz
x,y,z
-x,y,-z
-x,-y,-z
x,-y,z
1/2+x,1/2+y,z
1/2-x,1/2+y,-z
1/2-x,1/2-y,-z
1/2+x,1/2-y,z
loop_
_atom_site_type_symbol
_atom_site_label
_atom_site_fract_x
_atom_site_fract_y
_atom_site_fract_z
Si Si1 0.987225 0.000000 0.194014
Si Si2 0.167906 0.000000 0.229703
Si Si3 0.942384 0.772747 0.302007
Si Si4 0.717013 0.210540 0.800940
O O1 0.913568 0.106514 0.327209
O O2 0.140209 0.000000 0.085386
O O3 0.000000 0.000000 0.000000
O O4 0.248005 0.900773 0.184243
O O5 0.000000 0.000000 0.500000
O O6 0.867784 0.740724 0.553434
O O7 0.869383 0.717358 0.250521
O O8 0.112158 0.760392 0.057759
#
# Coordination Sequence:
#
# PCOD9211217 Si02
#       4
#     4   4   8   8
#     4  12  22  44  61  93 127 181 203 260 330 385
#     4  12  24  41  65  92 134 174 215 255 329 389
#     4  10  21  39  69  93 131 163 215 259 322 383
#     4  10  21  40  63 100 122 174 207 266 313 387
#
# _framework density 22.117916000000001
#
# number of rings (size 3 to 8) (size 9 to 14) (size 15 to 20)
#    0.000    1.333    6.667    0.000    0.000    4.000 
#    0.000    3.333    0.000    2.000    0.000    0.000 
#    0.000    0.000    0.000    0.000    0.000    0.000 
#
# Total GULP energy -66865.141589 kJ/mol
# GULP energy per Si atom -5572.095132 kJ/mol
# Density = 2.206757 g / cm^3
# Si number density = 22.117916 Si / 1000 Ang^3
#
#
#
# Elastic Constant Matrix: (Units=GPa)
#
#
# Indices 1 2 3 4 5 6 
#
# 1 113.8880 58.8223 13.5569 0.0000 2.5427 0.0000
# 2 58.8223 122.0557 27.8775 0.0000 -13.6147 0.0000
# 3 13.5569 27.8775 211.1289 0.0000 -6.7704 0.0000
# 4 0.0000 0.0000 0.0000 20.9680 0.0000 -11.2293
# 5 2.5427 -13.6147 -6.7704 0.0000 20.6021 0.0000
# 6 0.0000 0.0000 0.0000 -11.2293 0.0000 39.9179
#
#
#
# Elastic Compliance Matrix: (Units=1/GPa)
#
#
# Indices 1 2 3 4 5 6 
#
# 1 0.012318 -0.006569 -0.000113 0.000000 -0.005898 0.000000
# 2 -0.006569 0.012558 -0.000954 0.000000 0.008796 0.000000
# 3 -0.000113 -0.000954 0.004902 0.000000 0.000994 0.000000
# 4 0.000000 0.000000 0.000000 0.056151 0.000000 0.015796
# 5 -0.005898 0.008796 0.000994 0.000000 0.055406 0.000000
# 6 0.000000 0.000000 0.000000 0.015796 0.000000 0.029495
#
#
# Mechanical properties :
#
#
# Convention : Reuss Voigt Hill
#
# Bulk Modulus (GPa) = 68.93679 71.95400 70.44539
# Shear Modulus (GPa) = 26.18671 39.41866 32.80268
#
# Velocity S-wave (km/s) = 3.44460 4.22620 3.85526
# Velocity P-wave (km/s) = 6.85973 7.51112 7.19280
#
# Compressibility (1/GPa) = 0.01450604
#
# Stress axis : x y z
#
# Youngs Moduli (GPa) = 81.17948 79.63211 204.01639
#
# Poissons Ratio (x) = 0.52308 0.02301
# Poissons Ratio (y) = 0.53325 0.19469
# Poissons Ratio (z) = 0.00916 0.07599
#
# Static dielectric constant tensor:
#      x y z
#    x 1.867160 0.000000 -0.012880 
#    y 0.000000 1.782670 0.000000 
#    z -0.012880 0.000000 1.993900 
# 
# From -- ./inp_files/58139.got.cif
#   From: 2010.05.17/outbox.cif.g08.bks.cpg/sg12_30_cif.got.tgz:58139.got - 2010.06.03 13:09:07.
