data_PCOD9211942
_publ_section_title
;
Structure prediction by ZEFSAII (Michael W. Deem and Ramdas Pophale) SiO2 
 PCOD9211942
Probable space group: C 2/M
;
_chemical_formula_sum "Si O2"
_cell_formula_units_Z 56
_cell_length_a 5.670050
_cell_length_b 29.595374
_cell_length_c 13.837983
_cell_angle_alpha 90.000000
_cell_angle_beta 74.286114
_cell_angle_gamma 90.000000
_cell_volume 2235.327510
_symmetry_space_group_name_H-M "C 2/M"
_symmetry_group_IT_number 12
_symmetry_cell_setting 'monoclinic'
loop_
_space_group_symop_operation_xyz
x,y,z
-x,y,-z
-x,-y,-z
x,-y,z
1/2+x,1/2+y,z
1/2-x,1/2+y,-z
1/2-x,1/2-y,-z
1/2+x,1/2-y,z
loop_
_atom_site_type_symbol
_atom_site_label
_atom_site_fract_x
_atom_site_fract_y
_atom_site_fract_z
Si Si1 0.959502 0.049154 0.138708
Si Si2 0.228148 0.634519 0.402693
Si Si3 0.999999 0.411295 0.250000
Si Si4 0.228150 0.634519 0.902693
Si Si5 0.769352 0.735209 0.134447
Si Si6 0.040498 0.950846 0.361292
Si Si7 0.230647 0.264791 0.365552
O O1 0.670156 0.057780 0.163792
O O2 1.000000 0.048102 0.250000
O O3 0.096382 0.093412 0.086519
O O4 0.040173 0.000000 0.094462
O O5 0.403617 0.593412 0.413481
O O6 0.326890 0.684983 0.380325
O O7 0.000000 0.635057 0.500000
O O8 0.149588 0.620798 0.303520
O O9 0.850410 0.379202 0.196479
O O10 0.829843 0.442220 0.336208
O O11 0.326891 0.684983 0.880325
O O12 0.000000 0.635057 0.000000
O O13 0.570253 0.764624 0.094932
O O14 0.749999 0.750000 0.250000
O O15 0.959827 0.000000 0.405538
O O16 0.429746 0.235376 0.405068
#
# Coordination Sequence:
#
# PCOD9211942 Si02
#       7
#     8   8   8   8   8   8   8
#     4   9  20  39  66  97 132 176 225 275 337 407
#     4  11  25  41  65 100 135 174 225 280 341 413
#     4  10  21  40  68  90 134 180 220 278 337 398
#     4  11  25  41  65 100 135 174 225 280 341 413
#     4  10  23  41  68  96 132 180 229 283 347 409
#     4   9  20  39  66  97 132 176 225 275 337 407
#     4  10  23  41  68  96 132 180 229 283 347 409
#
# _framework density 25.052257000000001
#
# number of rings (size 3 to 8) (size 9 to 14) (size 15 to 20)
#    0.000    2.000    0.000    2.143   16.000    4.000 
#    0.000    1.429    0.000    0.000    0.000    0.000 
#    0.000    0.000    0.000    0.000    0.000    0.000 
#
# Total GULP energy -156271.326845 kJ/mol
# GULP energy per Si atom -5581.118816 kJ/mol
# Density = 2.499524 g / cm^3
# Si number density = 25.052257 Si / 1000 Ang^3
#
#
#
# Elastic Constant Matrix: (Units=GPa)
#
#
# Indices 1 2 3 4 5 6 
#
# 1 102.3621 23.0496 12.1842 0.0000 8.2634 0.0000
# 2 23.0496 209.6208 32.9087 0.0000 -14.7581 0.0000
# 3 12.1842 32.9087 87.7996 0.0000 0.5148 0.0000
# 4 0.0000 0.0000 0.0000 -40.6077 0.0000 -52.8483
# 5 8.2634 -14.7581 0.5148 0.0000 51.0659 0.0000
# 6 0.0000 0.0000 0.0000 -52.8483 0.0000 -25.2633
#
#
#
# Elastic Compliance Matrix: (Units=1/GPa)
#
#
# Indices 1 2 3 4 5 6 
#
# 1 0.010299 -0.001115 -0.001000 0.000000 -0.001979 0.000000
# 2 -0.001115 0.005304 -0.001844 0.000000 0.001732 0.000000
# 3 -0.001000 -0.001844 0.012222 0.000000 -0.000494 0.000000
# 4 0.000000 0.000000 0.000000 0.014297 0.000000 -0.029907
# 5 -0.001979 0.001732 -0.000494 0.000000 0.020408 0.000000
# 6 0.000000 0.000000 0.000000 -0.029907 0.000000 0.022980
#
#
# Mechanical properties :
#
#
# Convention : Reuss Voigt Hill
#
# Bulk Modulus (GPa) = 50.22789 59.56305 54.89547
# Shear Modulus (GPa) = 49.96800 19.14832 34.55816
#
# Velocity S-wave (km/s) = 4.47088 2.76766 3.71811
# Velocity P-wave (km/s) = 6.83700 5.83441 6.35551
#
# Compressibility (1/GPa) = 0.01990926
#
# Stress axis : x y z
#
# Youngs Moduli (GPa) = 97.09674 188.51996 81.81809
#
# Poissons Ratio (x) = 0.21017 0.08180
# Poissons Ratio (y) = 0.10825 0.15084
# Poissons Ratio (z) = 0.09707 0.34756
#
# Static dielectric constant tensor:
#      x y z
#    x 2.070940 0.000000 -0.144890 
#    y 0.000000 1.988600 0.000000 
#    z -0.144890 0.000000 2.153220 
# 
# From -- ./inp_files/253966.got.cif
#   From: 2010.05.17/outbox.cif.g08.bks.cpg/sg12_127_cif.got.tgz:253966.got - 2010.06.03 13:09:07.
