data_PCOD9211251
_publ_section_title
;
Structure prediction by ZEFSAII (Michael W. Deem and Ramdas Pophale) SiO2 
 PCOD9211251
Probable space group: C 2/M
;
_chemical_formula_sum "Si O2"
_cell_formula_units_Z 52
_cell_length_a 23.964725
_cell_length_b 7.351782
_cell_length_c 15.889120
_cell_angle_alpha 90.000000
_cell_angle_beta 58.561918
_cell_angle_gamma 90.000000
_cell_volume 2388.459927
_symmetry_space_group_name_H-M "C 2/M"
_symmetry_group_IT_number 12
_symmetry_cell_setting 'monoclinic'
loop_
_space_group_symop_operation_xyz
x,y,z
-x,y,-z
-x,-y,-z
x,-y,z
1/2+x,1/2+y,z
1/2-x,1/2+y,-z
1/2-x,1/2-y,-z
1/2+x,1/2-y,z
loop_
_atom_site_type_symbol
_atom_site_label
_atom_site_fract_x
_atom_site_fract_y
_atom_site_fract_z
Si Si1 0.198890 0.500000 0.575805
Si Si2 0.596789 0.282067 0.572828
Si Si3 0.547299 0.721573 0.083951
Si Si4 0.447502 0.278849 0.734114
Si Si5 0.271689 0.294294 0.325993
Si Si6 0.094642 0.220442 0.867719
Si Si7 0.358963 0.282432 0.650392
O O1 0.147905 0.658993 0.582204
O O2 0.243204 0.656072 0.589105
O O3 0.604692 0.500000 0.582511
O O4 0.522843 0.233324 0.657050
O O5 0.605576 0.246304 0.466308
O O6 0.547427 0.500000 0.082910
O O7 0.570092 0.781021 0.157575
O O8 0.471842 0.776536 0.126790
O O9 0.587957 0.779560 0.969911
O O10 0.444685 0.500000 0.735532
O O11 0.399899 0.214764 0.697689
O O12 0.275673 0.500000 0.357340
O O13 0.339396 0.227804 0.231321
O O14 0.214150 0.291390 0.303080
O O15 0.095455 0.000000 0.866740
O O16 0.353649 0.500000 0.662271
#
# Coordination Sequence:
#
# PCOD9211251 Si02
#       7
#     4   8   8   8   8   8   8
#     4  12  24  40  61  89 117 152 200 245 297 357
#     4  10  22  40  61  89 117 152 198 250 305 343
#     4   8  13  26  54  90 112 145 193 241 294 347
#     4   9  17  34  63  87 119 156 200 247 294 348
#     4  11  23  40  59  84 121 162 196 238 298 356
#     4   8  15  29  54  85 119 146 188 241 294 351
#     4  10  21  40  58  85 119 162 203 242 291 351
#
# _framework density 21.771350999999999
#
# number of rings (size 3 to 8) (size 9 to 14) (size 15 to 20)
#    0.000    2.462    0.769    2.769    1.077    4.923 
#    1.385    1.538    0.000    7.385    0.000    0.000 
#    0.000    0.000    0.000    0.000    0.000    0.000 
#
# Total GULP energy -144878.824796 kJ/mol
# GULP energy per Si atom -5572.262492 kJ/mol
# Density = 2.172180 g / cm^3
# Si number density = 21.771351 Si / 1000 Ang^3
#
#
#
# Elastic Constant Matrix: (Units=GPa)
#
#
# Indices 1 2 3 4 5 6 
#
# 1 109.8594 36.8165 30.4368 0.0000 30.1235 0.0000
# 2 36.8165 97.0350 34.4700 0.0000 -0.7535 0.0001
# 3 30.4368 34.4700 68.2066 0.0000 12.5937 0.0000
# 4 0.0000 0.0000 0.0000 -7.3660 0.0000 2.3037
# 5 30.1235 -0.7535 12.5937 0.0000 32.7907 0.0000
# 6 0.0000 0.0001 0.0000 2.3037 0.0000 19.9948
#
#
#
# Elastic Compliance Matrix: (Units=1/GPa)
#
#
# Indices 1 2 3 4 5 6 
#
# 1 0.014902 -0.005192 -0.001589 0.000000 -0.013199 0.000000
# 2 -0.005192 0.014637 -0.006483 0.000000 0.007596 0.000000
# 3 -0.001589 -0.006483 0.019810 0.000000 -0.006297 0.000000
# 4 0.000000 0.000000 0.000000 -0.131038 0.000000 0.015097
# 5 -0.013199 0.007596 -0.006297 0.000000 0.045215 0.000000
# 6 0.000000 0.000000 0.000000 0.015097 0.000000 0.048274
#
#
# Mechanical properties :
#
#
# Convention : Reuss Voigt Hill
#
# Bulk Modulus (GPa) = 43.81953 53.17195 48.49574
# Shear Modulus (GPa) = 108.85156 20.64241 64.74699
#
# Velocity S-wave (km/s) = 7.07857 3.08254 5.45931
# Velocity P-wave (km/s) = 9.32626 6.09469 7.87796
#
# Compressibility (1/GPa) = 0.02282088
#
# Stress axis : x y z
#
# Youngs Moduli (GPa) = 67.10584 68.31786 50.48075
#
# Poissons Ratio (x) = 0.35471 0.08021
# Poissons Ratio (y) = 0.34842 0.32727
# Poissons Ratio (z) = 0.10662 0.44291
#
# Static dielectric constant tensor:
#      x y z
#    x 1.756790 0.000000 -0.004890 
#    y 0.000000 2.227420 0.000000 
#    z -0.004890 0.000000 1.869030 
# 
# From -- ./inp_files/237254.got.cif
#   From: 2010.05.17/outbox.cif.g08.bks.cpg/sg12_119_cif.got.tgz:237254.got - 2010.06.03 13:09:07.
