data_PCOD9211908
_publ_section_title
;
Structure prediction by ZEFSAII (Michael W. Deem and Ramdas Pophale) SiO2 
 PCOD9211908
Probable space group: C 2/M
;
_chemical_formula_sum "Si O2"
_cell_formula_units_Z 48
_cell_length_a 22.357405
_cell_length_b 11.853984
_cell_length_c 28.294556
_cell_angle_alpha 90.000000
_cell_angle_beta 161.837993
_cell_angle_gamma 90.000000
_cell_volume 2337.395870
_symmetry_space_group_name_H-M "C 2/M"
_symmetry_group_IT_number 12
_symmetry_cell_setting 'monoclinic'
loop_
_space_group_symop_operation_xyz
x,y,z
-x,y,-z
-x,-y,-z
x,-y,z
1/2+x,1/2+y,z
1/2-x,1/2+y,-z
1/2-x,1/2-y,-z
1/2+x,1/2-y,z
loop_
_atom_site_type_symbol
_atom_site_label
_atom_site_fract_x
_atom_site_fract_y
_atom_site_fract_z
Si Si1 0.691450 0.696422 0.905757
Si Si2 0.297068 0.866240 0.167234
Si Si3 0.097184 0.500000 0.992300
Si Si4 0.540831 0.257231 0.619894
Si Si5 0.324172 0.376536 0.677918
Si Si6 0.297760 0.500000 0.246297
Si Si7 0.871656 0.871948 0.821933
O O1 0.646609 0.799624 0.837358
O O2 0.840544 0.610124 0.992013
O O3 0.494866 0.630996 0.768863
O O4 0.750000 0.750000 0.000000
O O5 0.404306 0.809119 0.291099
O O6 0.329094 0.000000 0.188856
O O7 0.066242 0.847692 0.996294
O O8 0.213631 0.500000 0.129553
O O9 0.877911 0.500000 0.847246
O O10 0.331493 0.219619 0.446794
O O11 0.576148 0.388625 0.652888
O O12 0.700213 0.211816 0.703288
O O13 0.227781 0.500000 0.602580
O O14 0.412498 0.368870 0.796780
O O15 0.811720 0.000000 0.789182
#
# Coordination Sequence:
#
# PCOD9211908 Si02
#       7
#     8   8   4   8   8   4   8
#     4  12  24  43  70  99 133 183 234 280 336 411
#     4  11  23  40  66 102 129 172 225 290 335 396
#     4  11  24  48  73  98 140 191 237 285 341 421
#     4  12  24  43  65 100 137 176 227 282 348 411
#     4  11  24  43  69  97 137 185 227 279 351 420
#     4  11  26  44  70 103 138 187 231 283 357 413
#     4  10  21  40  67  96 132 173 224 283 340 402
#
# _framework density 20.535672999999999
#
# number of rings (size 3 to 8) (size 9 to 14) (size 15 to 20)
#    0.000    0.833    4.167    3.500    3.500    3.333 
#    1.500    1.667    0.000    0.000    0.000    0.000 
#    0.000    0.000    0.000    0.000    0.000    0.000 
#
# Total GULP energy -134137.784697 kJ/mol
# GULP energy per Si atom -5589.074362 kJ/mol
# Density = 2.048893 g / cm^3
# Si number density = 20.535673 Si / 1000 Ang^3
#
#
#
# Elastic Constant Matrix: (Units=GPa)
#
#
# Indices 1 2 3 4 5 6 
#
# 1 117.1189 44.6714 23.0734 -0.0105 3.5059 0.0014
# 2 44.6714 139.4302 45.3582 -0.0359 9.9340 0.0015
# 3 23.0734 45.3582 89.1627 -0.0440 5.3855 0.0031
# 4 -0.0105 -0.0359 -0.0440 28.4504 -0.0078 -0.9376
# 5 3.5059 9.9340 5.3855 -0.0078 23.0451 0.0013
# 6 0.0014 0.0015 0.0031 -0.9376 0.0013 34.1965
#
#
#
# Elastic Compliance Matrix: (Units=1/GPa)
#
#
# Indices 1 2 3 4 5 6 
#
# 1 0.009821 -0.002778 -0.001126 -0.000002 -0.000033 0.000000
# 2 -0.002778 0.009552 -0.003973 0.000004 -0.002766 0.000000
# 3 -0.001126 -0.003973 0.013606 0.000015 -0.001296 -0.000001
# 4 -0.000002 0.000004 0.000015 0.035181 0.000007 0.000965
# 5 -0.000033 -0.002766 -0.001296 0.000007 0.044894 -0.000001
# 6 0.000000 0.000000 -0.000001 0.000965 -0.000001 0.029269
#
#
# Mechanical properties :
#
#
# Convention : Reuss Voigt Hill
#
# Bulk Modulus (GPa) = 58.05708 63.54642 60.80175
# Shear Modulus (GPa) = 30.52174 32.64565 31.58369
#
# Velocity S-wave (km/s) = 3.85941 3.99144 3.92598
# Velocity P-wave (km/s) = 6.94210 7.22867 7.08683
#
# Compressibility (1/GPa) = 0.01722443
#
# Stress axis : x y z
#
# Youngs Moduli (GPa) = 101.82609 104.69514 73.49497
#
# Poissons Ratio (x) = 0.29080 0.08278
# Poissons Ratio (y) = 0.28283 0.29200
# Poissons Ratio (z) = 0.11469 0.41597
#
# Static dielectric constant tensor:
#      x y z
#    x 1.752440 0.000000 0.009240 
#    y 0.000000 1.744150 0.000000 
#    z 0.009240 0.000000 1.709840 
# 
# From -- ./inp_files/366235.got.cif
#   From: 2010.05.17/outbox.cif.g08.bks.cpg/sg12_184_cif.got.tgz:366235.got - 2010.06.03 13:09:07.
