data_PCOD9211024
_publ_section_title
;
Structure prediction by ZEFSAII (Michael W. Deem and Ramdas Pophale) SiO2 
 PCOD9211024
Probable space group: C 2/M
;
_chemical_formula_sum "Si O2"
_cell_formula_units_Z 64
_cell_length_a 8.668122
_cell_length_b 30.306230
_cell_length_c 17.743796
_cell_angle_alpha 90.000000
_cell_angle_beta 135.017181
_cell_angle_gamma 90.000000
_cell_volume 3295.021094
_symmetry_space_group_name_H-M "C 2/M"
_symmetry_group_IT_number 12
_symmetry_cell_setting 'monoclinic'
loop_
_space_group_symop_operation_xyz
x,y,z
-x,y,-z
-x,-y,-z
x,-y,z
1/2+x,1/2+y,z
1/2-x,1/2+y,-z
1/2-x,1/2-y,-z
1/2+x,1/2-y,z
loop_
_atom_site_type_symbol
_atom_site_label
_atom_site_fract_x
_atom_site_fract_y
_atom_site_fract_z
Si Si1 0.662703 0.296902 0.624732
Si Si2 0.863463 0.266963 0.242651
Si Si3 0.433072 0.052072 0.700468
Si Si4 0.712669 0.051640 0.521541
Si Si5 0.874869 0.786565 0.093060
Si Si6 0.747519 0.881880 0.088828
Si Si7 0.554132 0.551198 0.106969
Si Si8 0.625292 0.611322 0.694726
O O1 0.500000 0.287835 0.500000
O O2 0.632929 0.259757 0.678214
O O3 0.605742 0.343842 0.641001
O O4 0.917955 0.295899 0.689048
O O5 0.868919 0.232451 0.175629
O O6 0.628705 0.290794 0.157064
O O7 0.343109 0.060590 0.585235
O O8 0.691051 0.060477 0.791649
O O9 0.309265 0.081559 0.718343
O O10 0.398892 0.000000 0.704672
O O11 0.500000 0.057569 0.500000
O O12 0.904009 0.083320 0.614353
O O13 0.777883 0.000000 0.549880
O O14 0.763407 0.834193 0.054037
O O15 0.750000 0.750000 0.000000
O O16 0.815441 0.877413 0.199236
O O17 0.906446 0.916077 0.103478
O O18 0.500000 0.897938 0.000000
O O19 0.514022 0.500000 0.114326
O O20 0.500000 0.555934 0.000000
#
# Coordination Sequence:
#
# PCOD9211024 Si02
#       8
#     8   8   8   8   8   8   8   8
#     4  11  23  42  63  92 128 172 215 263 322 401
#     4  10  23  42  66  91 125 169 210 269 331 397
#     4  10  21  39  65  94 130 176 224 271 323 387
#     4  10  21  40  65  96 133 177 224 275 331 380
#     4  11  23  43  68  97 126 163 216 279 337 389
#     4  12  26  42  64  96 130 167 213 273 330 404
#     4  10  23  43  65  93 131 174 219 267 329 399
#     4  12  24  40  62  97 134 166 221 272 326 391
#
# _framework density 19.423244
#
# number of rings (size 3 to 8) (size 9 to 14) (size 15 to 20)
#    0.000    1.250    1.250    4.500    3.500    4.250 
#    2.250    0.625    0.000    0.000    0.000    0.000 
#    0.000    0.000    0.000    0.000    0.000    0.000 
#
# Total GULP energy -178965.749088 kJ/mol
# GULP energy per Si atom -5592.679659 kJ/mol
# Density = 1.937904 g / cm^3
# Si number density = 19.423244 Si / 1000 Ang^3
#
#
#
# Elastic Constant Matrix: (Units=GPa)
#
#
# Indices 1 2 3 4 5 6 
#
# 1 91.8715 46.4416 28.1605 0.0000 3.3854 0.0000
# 2 46.4416 76.1127 35.4963 0.0000 2.7289 0.0000
# 3 28.1605 35.4963 106.6365 0.0000 1.4964 0.0000
# 4 0.0000 0.0000 0.0000 19.9821 0.0000 -5.2460
# 5 3.3854 2.7289 1.4964 0.0000 27.6920 0.0000
# 6 0.0000 0.0000 0.0000 -5.2460 0.0000 21.8702
#
#
#
# Elastic Compliance Matrix: (Units=1/GPa)
#
#
# Indices 1 2 3 4 5 6 
#
# 1 0.015883 -0.009123 -0.001144 0.000000 -0.000981 0.000000
# 2 -0.009123 0.020836 -0.004517 0.000000 -0.000694 0.000000
# 3 -0.001144 -0.004517 0.011184 0.000000 -0.000019 0.000000
# 4 0.000000 0.000000 0.000000 0.053408 0.000000 0.012811
# 5 -0.000981 -0.000694 -0.000019 0.000000 0.036301 0.000000
# 6 0.000000 0.000000 0.000000 0.012811 0.000000 0.048797
#
#
# Mechanical properties :
#
#
# Convention : Reuss Voigt Hill
#
# Bulk Modulus (GPa) = 54.53832 54.97974 54.75903
# Shear Modulus (GPa) = 22.51357 24.87702 23.69529
#
# Velocity S-wave (km/s) = 3.40826 3.58269 3.49656
# Velocity P-wave (km/s) = 6.60516 6.74402 6.67495
#
# Compressibility (1/GPa) = 0.01833573
#
# Stress axis : x y z
#
# Youngs Moduli (GPa) = 62.95971 47.99328 89.41685
#
# Poissons Ratio (x) = 0.43783 0.10229
# Poissons Ratio (y) = 0.57437 0.40389
# Poissons Ratio (z) = 0.07202 0.21678
#
# Static dielectric constant tensor:
#      x y z
#    x 1.670400 0.000000 0.006170 
#    y 0.000000 1.651100 0.000000 
#    z 0.006170 0.000000 1.659970 
# 
# From -- ./inp_files/260349.got.cif
#   From: 2010.05.17/outbox.cif.g08.bks.cpg/sg12_131_cif.got.tgz:260349.got - 2010.06.03 13:09:07.
