data_PCOD9211601
_publ_section_title
;
Structure prediction by ZEFSAII (Michael W. Deem and Ramdas Pophale) SiO2 
 PCOD9211601
Probable space group: C 2/M
;
_chemical_formula_sum "Si O2"
_cell_formula_units_Z 40
_cell_length_a 10.630429
_cell_length_b 18.760454
_cell_length_c 13.375126
_cell_angle_alpha 90.000000
_cell_angle_beta 49.753678
_cell_angle_gamma 90.000000
_cell_volume 2035.975065
_symmetry_space_group_name_H-M "C 2/M"
_symmetry_group_IT_number 12
_symmetry_cell_setting 'monoclinic'
loop_
_space_group_symop_operation_xyz
x,y,z
-x,y,-z
-x,-y,-z
x,-y,z
1/2+x,1/2+y,z
1/2-x,1/2+y,-z
1/2-x,1/2-y,-z
1/2+x,1/2-y,z
loop_
_atom_site_type_symbol
_atom_site_label
_atom_site_fract_x
_atom_site_fract_y
_atom_site_fract_z
Si Si1 0.310493 0.198141 0.331989
Si Si2 0.498214 0.419079 0.189287
Si Si3 0.066810 0.227029 0.072728
Si Si4 0.669021 0.080619 0.848895
Si Si5 0.174581 0.346041 0.446443
O O1 0.474933 0.238757 0.214408
O O2 0.296727 0.137081 0.256135
O O3 0.186470 0.265458 0.394431
O O4 0.316895 0.165379 0.438813
O O5 0.475089 0.500000 0.165093
O O6 0.535706 0.357187 0.091377
O O7 0.665023 0.418275 0.170121
O O8 0.331986 0.392481 0.330939
O O9 0.250000 0.250000 0.000000
O O10 0.000000 0.252836 0.000000
O O11 0.650168 0.000000 0.817962
O O12 0.500000 0.093344 0.000000
O O13 0.000000 0.376865 0.500000
#
# Coordination Sequence:
#
# PCOD9211601 Si02
#       5
#     8   8   8   8   8
#     4  10  22  37  62  89 121 156 207 255 306 363
#     4  10  23  41  62  90 126 164 205 253 307 375
#     4  11  23  38  65  95 123 162 207 256 315 372
#     4  10  21  40  64  91 122 155 200 257 314 369
#     4  10  24  39  60  88 123 165 206 253 303 358
#
# _framework density 19.646605000000001
#
# number of rings (size 3 to 8) (size 9 to 14) (size 15 to 20)
#    0.000    1.800    0.000    3.000   14.000    1.600 
#    0.000    2.000    0.000    0.000    0.000    0.000 
#    0.000    0.000    0.000    0.000    0.000    0.000 
#
# Total GULP energy -111459.622166 kJ/mol
# GULP energy per Si atom -5572.981108 kJ/mol
# Density = 1.960189 g / cm^3
# Si number density = 19.646605 Si / 1000 Ang^3
#
#
#
# Elastic Constant Matrix: (Units=GPa)
#
#
# Indices 1 2 3 4 5 6 
#
# 1 70.8623 26.0592 50.0849 0.0000 -27.7609 0.0000
# 2 26.0592 129.8071 43.0419 0.0000 9.4928 0.0000
# 3 50.0849 43.0419 105.8139 0.0000 -24.3532 0.0000
# 4 0.0000 0.0000 0.0000 29.0341 0.0000 15.2855
# 5 -27.7609 9.4928 -24.3532 0.0000 36.3316 0.0000
# 6 0.0000 0.0000 0.0000 15.2855 0.0000 41.0223
#
#
#
# Elastic Compliance Matrix: (Units=1/GPa)
#
#
# Indices 1 2 3 4 5 6 
#
# 1 0.027746 -0.004419 -0.007320 0.000000 0.017449 0.000000
# 2 -0.004419 0.010699 -0.004352 0.000000 -0.009089 0.000000
# 3 -0.007320 -0.004352 0.016152 0.000000 0.006371 0.000000
# 4 0.000000 0.000000 0.000000 0.042848 0.000000 -0.015966
# 5 0.017449 -0.009089 0.006371 0.000000 0.047502 0.000000
# 6 0.000000 0.000000 0.000000 -0.015966 0.000000 0.030326
#
#
# Mechanical properties :
#
#
# Convention : Reuss Voigt Hill
#
# Bulk Modulus (GPa) = 44.61313 60.53947 52.57630
# Shear Modulus (GPa) = 23.26380 33.76407 28.51394
#
# Velocity S-wave (km/s) = 3.44483 4.15006 3.81378
# Velocity P-wave (km/s) = 6.21124 7.33792 6.79797
#
# Compressibility (1/GPa) = 0.02241493
#
# Stress axis : x y z
#
# Youngs Moduli (GPa) = 36.04081 93.46950 61.91300
#
# Poissons Ratio (x) = 0.41306 0.45318
# Poissons Ratio (y) = 0.15927 0.26945
# Poissons Ratio (z) = 0.26381 0.40679
#
# Static dielectric constant tensor:
#      x y z
#    x 1.673020 0.000000 -0.031360 
#    y 0.000000 1.760570 0.000000 
#    z -0.031360 0.000000 1.734070 
# 
# From -- ./inp_files/46954.got.cif
#   From: 2010.05.17/outbox.cif.g08.bks.cpg/sg12_24_cif.got.tgz:46954.got - 2010.06.03 13:09:07.
