data_PCOD9211330
_publ_section_title
;
Structure prediction by ZEFSAII (Michael W. Deem and Ramdas Pophale) SiO2 
 PCOD9211330
Probable space group: C 2/M
;
_chemical_formula_sum "Si O2"
_cell_formula_units_Z 32
_cell_length_a 15.025340
_cell_length_b 8.505404
_cell_length_c 16.245019
_cell_angle_alpha 90.000000
_cell_angle_beta 144.281681
_cell_angle_gamma 90.000000
_cell_volume 1212.004366
_symmetry_space_group_name_H-M "C 2/M"
_symmetry_group_IT_number 12
_symmetry_cell_setting 'monoclinic'
loop_
_space_group_symop_operation_xyz
x,y,z
-x,y,-z
-x,-y,-z
x,-y,z
1/2+x,1/2+y,z
1/2-x,1/2+y,-z
1/2-x,1/2-y,-z
1/2+x,1/2-y,z
loop_
_atom_site_type_symbol
_atom_site_label
_atom_site_fract_x
_atom_site_fract_y
_atom_site_fract_z
Si Si1 0.755211 0.676631 0.629494
Si Si2 0.919618 0.181218 0.145314
Si Si3 0.673216 0.500000 0.144171
Si Si4 0.196881 0.831883 0.775086
Si Si5 0.652735 0.000000 0.559181
O O1 0.738472 0.500000 0.582519
O O2 0.676234 0.669971 0.661378
O O3 0.680807 0.834784 0.534637
O O4 0.936642 0.715839 0.776904
O O5 0.935619 0.169670 0.256968
O O6 0.920700 0.000000 0.117525
O O7 0.750000 0.250000 0.000000
O O8 0.729045 0.664865 0.151842
O O9 0.720938 0.500000 0.274818
O O10 0.500000 0.500000 0.000000
O O11 0.279512 0.000000 0.853542
O O12 0.500000 0.000000 0.500000
#
# Coordination Sequence:
#
# PCOD9211330 Si02
#       5
#     8   8   4   8   4
#     4  10  21  40  61  89 121 162 214 259 311 373
#     4  11  23  35  53  89 129 167 208 258 316 379
#     4  10  22  36  64  90 121 159 209 257 312 368
#     4   9  22  37  54  83 125 163 199 249 311 367
#     4  10  22  42  66  92 125 165 211 263 319 373
#
# _framework density 26.402546000000001
#
# number of rings (size 3 to 8) (size 9 to 14) (size 15 to 20)
#    0.000    2.000    1.250    0.750   10.500    1.000 
#    0.000    0.000    0.000    6.000    0.000    0.000 
#    0.000    0.000    0.000    0.000    0.000    0.000 
#
# Total GULP energy -89252.358968 kJ/mol
# GULP energy per Si atom -5578.272436 kJ/mol
# Density = 2.634245 g / cm^3
# Si number density = 26.402546 Si / 1000 Ang^3
#
#
#
# Elastic Constant Matrix: (Units=GPa)
#
#
# Indices 1 2 3 4 5 6 
#
# 1 103.5747 31.1650 18.4955 0.0000 9.9619 0.0000
# 2 31.1650 333.2594 76.1469 0.0000 8.2489 0.0000
# 3 18.4955 76.1469 132.3586 0.0000 14.5347 0.0000
# 4 0.0000 0.0000 0.0000 262.1724 0.0000 -180.4150
# 5 9.9619 8.2489 14.5347 0.0000 21.7528 0.0000
# 6 0.0000 0.0000 0.0000 -180.4150 0.0000 183.3173
#
#
#
# Elastic Compliance Matrix: (Units=1/GPa)
#
#
# Indices 1 2 3 4 5 6 
#
# 1 0.010373 -0.000737 -0.000577 0.000000 -0.004085 0.000000
# 2 -0.000737 0.003507 -0.001949 0.000000 0.000310 0.000000
# 3 -0.000577 -0.001949 0.009331 0.000000 -0.005232 0.000000
# 4 0.000000 0.000000 0.000000 0.011818 0.000000 0.011631
# 5 -0.004085 0.000310 -0.005232 0.000000 0.051220 0.000000
# 6 0.000000 0.000000 0.000000 0.011631 0.000000 0.016902
#
#
# Mechanical properties :
#
#
# Convention : Reuss Voigt Hill
#
# Bulk Modulus (GPa) = 59.93014 91.20083 75.56549
# Shear Modulus (GPa) = 43.38789 123.00751 83.19770
#
# Velocity S-wave (km/s) = 4.05819 6.83304 5.61958
# Velocity P-wave (km/s) = 6.68629 9.84232 8.41361
#
# Compressibility (1/GPa) = 0.01668609
#
# Stress axis : x y z
#
# Youngs Moduli (GPa) = 96.40803 285.12800 107.16409
#
# Poissons Ratio (x) = 0.21017 0.06181
# Poissons Ratio (y) = 0.07106 0.20883
# Poissons Ratio (z) = 0.05561 0.55564
#
# Static dielectric constant tensor:
#      x y z
#    x 2.133880 0.000000 -0.010630 
#    y 0.000000 2.097410 0.000000 
#    z -0.010630 0.000000 2.073900 
# 
# From -- ./inp_files/171766.got.cif
#   From: 2010.05.17/outbox.cif.g08.bks.cpg/sg12_86_cif.got.tgz:171766.got - 2010.06.03 13:09:07.
