data_PCOD9211275
_publ_section_title
;
Structure prediction by ZEFSAII (Michael W. Deem and Ramdas Pophale) SiO2 
 PCOD9211275
Probable space group: C 2/M
;
_chemical_formula_sum "Si O2"
_cell_formula_units_Z 36
_cell_length_a 14.096341
_cell_length_b 9.832360
_cell_length_c 21.760131
_cell_angle_alpha 90.000000
_cell_angle_beta 36.434320
_cell_angle_gamma 90.000000
_cell_volume 1791.181785
_symmetry_space_group_name_H-M "C 2/M"
_symmetry_group_IT_number 12
_symmetry_cell_setting 'monoclinic'
loop_
_space_group_symop_operation_xyz
x,y,z
-x,y,-z
-x,-y,-z
x,-y,z
1/2+x,1/2+y,z
1/2-x,1/2+y,-z
1/2-x,1/2-y,-z
1/2+x,1/2-y,z
loop_
_atom_site_type_symbol
_atom_site_label
_atom_site_fract_x
_atom_site_fract_y
_atom_site_fract_z
Si Si1 0.848268 0.847779 0.647062
Si Si2 0.623110 0.500000 0.150258
Si Si3 0.320541 0.000000 0.165466
Si Si4 0.406906 0.842814 0.424751
Si Si5 0.864505 0.500000 0.920650
Si Si6 0.021597 0.289193 0.750032
O O1 0.703235 0.820013 0.676613
O O2 0.978073 0.731596 0.586451
O O3 0.916310 0.000000 0.600302
O O4 0.762806 0.870991 0.757809
O O5 0.770535 0.500000 0.121624
O O6 0.519434 0.632424 0.218885
O O7 0.697136 0.500000 0.043252
O O8 0.499041 0.000000 0.097670
O O9 0.250000 0.750000 0.500000
O O10 0.489193 0.835594 0.314669
O O11 0.371824 0.000000 0.458005
O O12 0.903311 0.372616 0.856426
#
# Coordination Sequence:
#
# PCOD9211275 Si02
#       6
#     8   4   4   8   4   8
#     4   9  19  41  63  85 124 160 201 242 312 360
#     4  12  21  34  66  92 127 157 217 245 291 365
#     4   8  17  36  63  82 121 160 207 241 292 357
#     4  12  25  41  66  91 120 157 203 252 309 366
#     4  10  21  40  59  93 118 174 201 248 310 354
#     4  11  22  41  62  88 129 162 196 257 303 357
#
# _framework density 20.098464
#
# number of rings (size 3 to 8) (size 9 to 14) (size 15 to 20)
#    0.667    0.889    4.444    1.667    3.111    0.889 
#    0.000    3.333    0.000    1.333    0.000    0.000 
#    0.000    0.000    0.000    0.000    0.000    0.000 
#
# Total GULP energy -100405.839201 kJ/mol
# GULP energy per Si atom -5578.102178 kJ/mol
# Density = 2.005272 g / cm^3
# Si number density = 20.098464 Si / 1000 Ang^3
#
#
#
# Elastic Constant Matrix: (Units=GPa)
#
#
# Indices 1 2 3 4 5 6 
#
# 1 62.8501 22.0919 4.1502 0.0000 11.7209 0.0000
# 2 22.0919 170.8984 13.7206 0.0000 -6.8769 0.0000
# 3 4.1502 13.7206 62.9081 0.0000 13.2209 0.0000
# 4 0.0000 0.0000 0.0000 11.2181 0.0000 9.4621
# 5 11.7209 -6.8769 13.2209 0.0000 24.2008 0.0000
# 6 0.0000 0.0000 0.0000 9.4621 0.0000 -9.1155
#
#
#
# Elastic Compliance Matrix: (Units=1/GPa)
#
#
# Indices 1 2 3 4 5 6 
#
# 1 0.018902 -0.003022 0.001713 0.000000 -0.010949 0.000000
# 2 -0.003022 0.006601 -0.002194 0.000000 0.004538 0.000000
# 3 0.001713 -0.002194 0.018716 0.000000 -0.011678 0.000000
# 4 0.000000 0.000000 0.000000 0.047529 0.000000 0.049336
# 5 -0.010949 0.004538 -0.011678 0.000000 0.054293 0.000000
# 6 0.000000 0.000000 0.000000 0.049336 0.000000 -0.058492
#
#
# Mechanical properties :
#
#
# Convention : Reuss Voigt Hill
#
# Bulk Modulus (GPa) = 26.87196 41.84244 34.35720
# Shear Modulus (GPa) = 46.74755 22.37360 34.56057
#
# Velocity S-wave (km/s) = 4.82802 3.34008 4.15126
# Velocity P-wave (km/s) = 6.66925 5.97819 6.33315
#
# Compressibility (1/GPa) = 0.03721351
#
# Stress axis : x y z
#
# Youngs Moduli (GPa) = 52.90536 151.49796 53.43053
#
# Poissons Ratio (x) = 0.45775 -0.09153
# Poissons Ratio (y) = 0.15985 0.11722
# Poissons Ratio (z) = -0.09063 0.33238
#
# Static dielectric constant tensor:
#      x y z
#    x 1.693260 0.000000 0.010610 
#    y 0.000000 1.707180 0.000000 
#    z 0.010610 0.000000 1.746040 
# 
# From -- ./inp_files/308859.got.cif
#   From: 2010.05.17/outbox.cif.g08.bks.cpg/sg12_155_cif.got.tgz:308859.got - 2010.06.03 13:09:07.
