data_PCOD9211036
_publ_section_title
;
Structure prediction by ZEFSAII (Michael W. Deem and Ramdas Pophale) SiO2 
 PCOD9211036
Probable space group: C 2/M
;
_chemical_formula_sum "Si O2"
_cell_formula_units_Z 48
_cell_length_a 20.734434
_cell_length_b 8.716533
_cell_length_c 29.191690
_cell_angle_alpha 90.000000
_cell_angle_beta 29.232326
_cell_angle_gamma 90.000000
_cell_volume 2576.488708
_symmetry_space_group_name_H-M "C 2/M"
_symmetry_group_IT_number 12
_symmetry_cell_setting 'monoclinic'
loop_
_space_group_symop_operation_xyz
x,y,z
-x,y,-z
-x,-y,-z
x,-y,z
1/2+x,1/2+y,z
1/2-x,1/2+y,-z
1/2-x,1/2-y,-z
1/2+x,1/2-y,z
loop_
_atom_site_type_symbol
_atom_site_label
_atom_site_fract_x
_atom_site_fract_y
_atom_site_fract_z
Si Si1 0.649206 0.684164 0.285542
Si Si2 0.310015 0.816567 0.009870
Si Si3 0.887958 0.317304 0.792453
Si Si4 0.640027 0.682458 0.685718
Si Si5 0.096862 0.816263 0.820151
Si Si6 0.427385 0.684217 0.497442
O O1 0.658967 0.500000 0.276815
O O2 0.629681 0.753853 0.247633
O O3 0.780435 0.750248 0.227776
O O4 0.525244 0.721918 0.395191
O O5 0.221368 0.755990 0.106406
O O6 0.305414 0.000000 0.011062
O O7 0.250000 0.750000 0.000000
O O8 0.459708 0.758126 0.920814
O O9 0.875137 0.500000 0.801010
O O10 0.029829 0.268014 0.724488
O O11 0.624093 0.500000 0.689674
O O12 0.617546 0.718506 0.753406
O O13 0.787027 0.733793 0.581566
O O14 0.090372 0.000000 0.829212
O O15 0.500000 0.726268 0.500000
O O16 0.406662 0.500000 0.511006
#
# Coordination Sequence:
#
# PCOD9211036 Si02
#       6
#     8   8   8   8   8   8
#     4  11  24  43  66  94 132 170 212 266 323 381
#     4  12  24  41  67  97 128 167 214 262 317 378
#     4  12  26  44  66  93 131 170 212 266 323 380
#     4  11  23  39  65  96 129 167 214 264 314 378
#     4  11  23  40  65  97 130 167 213 263 316 378
#     4  10  21  39  65  95 127 167 214 262 316 379
#
# _framework density 18.630006000000002
#
# number of rings (size 3 to 8) (size 9 to 14) (size 15 to 20)
#    0.000    0.833    3.333    4.500    0.000    4.333 
#    0.000    3.333    0.000    0.000    0.000    0.000 
#    0.000    0.000    0.000    0.000    0.000    0.000 
#
# Total GULP energy -134309.696329 kJ/mol
# GULP energy per Si atom -5596.237347 kJ/mol
# Density = 1.858760 g / cm^3
# Si number density = 18.630006 Si / 1000 Ang^3
#
#
#
# Elastic Constant Matrix: (Units=GPa)
#
#
# Indices 1 2 3 4 5 6 
#
# 1 144.3053 80.7068 79.8663 0.0005 5.9992 0.0004
# 2 80.7068 119.9939 78.7712 -0.0002 2.0414 0.0010
# 3 79.8663 78.7712 157.0277 -0.0002 -1.3105 -0.0003
# 4 0.0005 -0.0002 -0.0002 34.8371 -0.0002 -2.4713
# 5 5.9992 2.0414 -1.3105 -0.0002 33.9933 0.0002
# 6 0.0004 0.0010 -0.0003 -2.4713 0.0002 35.1769
#
#
#
# Elastic Compliance Matrix: (Units=1/GPa)
#
#
# Indices 1 2 3 4 5 6 
#
# 1 0.012146 -0.006070 -0.003149 0.000000 -0.001900 0.000000
# 2 -0.006070 0.015492 -0.004685 0.000000 -0.000040 0.000000
# 3 -0.003149 -0.004685 0.010330 0.000000 0.001235 0.000000
# 4 0.000000 0.000000 0.000000 0.028849 0.000000 0.002027
# 5 -0.001900 -0.000040 0.001235 0.000000 0.029803 0.000000
# 6 0.000000 0.000000 0.000000 0.002027 0.000000 0.028570
#
#
# Mechanical properties :
#
#
# Convention : Reuss Voigt Hill
#
# Bulk Modulus (GPa) = 98.40572 100.00173 99.20372
# Shear Modulus (GPa) = 31.97249 32.93366 32.45307
#
# Velocity S-wave (km/s) = 4.14718 4.20905 4.17823
# Velocity P-wave (km/s) = 8.71022 8.79863 8.75453
#
# Compressibility (1/GPa) = 0.01016201
#
# Stress axis : x y z
#
# Youngs Moduli (GPa) = 82.32973 64.54762 96.80595
#
# Poissons Ratio (x) = 0.39182 0.30480
# Poissons Ratio (y) = 0.49976 0.45349
# Poissons Ratio (z) = 0.25922 0.30238
#
# Static dielectric constant tensor:
#      x y z
#    x 1.606420 0.000000 0.004280 
#    y 0.000000 1.622090 0.000000 
#    z 0.004280 0.000000 1.614960 
# 
# From -- ./inp_files/380141.got.cif
#   From: 2010.05.17/outbox.cif.g08.bks.cpg/sg12_191_cif.got.tgz:380141.got - 2010.06.03 13:09:07.
