data_PCOD9211091
_publ_section_title
;
Structure prediction by ZEFSAII (Michael W. Deem and Ramdas Pophale) SiO2 
 PCOD9211091
Probable space group: C 2/M
;
_chemical_formula_sum "Si O2"
_cell_formula_units_Z 56
_cell_length_a 18.743828
_cell_length_b 15.836463
_cell_length_c 11.459872
_cell_angle_alpha 90.000000
_cell_angle_beta 124.938982
_cell_angle_gamma 90.000000
_cell_volume 2788.587345
_symmetry_space_group_name_H-M "C 2/M"
_symmetry_group_IT_number 12
_symmetry_cell_setting 'monoclinic'
loop_
_space_group_symop_operation_xyz
x,y,z
-x,y,-z
-x,-y,-z
x,-y,z
1/2+x,1/2+y,z
1/2-x,1/2+y,-z
1/2-x,1/2-y,-z
1/2+x,1/2-y,z
loop_
_atom_site_type_symbol
_atom_site_label
_atom_site_fract_x
_atom_site_fract_y
_atom_site_fract_z
Si Si1 0.885332 0.597529 0.780835
Si Si2 0.907543 0.759240 0.476092
Si Si3 0.313408 0.094373 0.453823
Si Si4 0.878740 0.907759 0.824517
Si Si5 0.332702 0.332940 0.013453
Si Si6 0.256716 0.672161 0.181627
Si Si7 0.479168 0.261527 0.798427
O O1 0.913646 0.500000 0.821677
O O2 0.830405 0.602135 0.608196
O O3 0.822780 0.627016 0.827302
O O4 0.959866 0.667888 0.829514
O O5 0.868358 0.664923 0.439145
O O6 0.836438 0.817736 0.346578
O O7 0.926369 0.776145 0.629311
O O8 0.000000 0.764139 0.500000
O O9 0.212256 0.103751 0.328701
O O10 0.340301 0.000000 0.443797
O O11 0.939567 0.830509 0.847969
O O12 0.915007 0.000000 0.828381
O O13 0.857890 0.901747 0.941745
O O14 0.288898 0.367328 0.089817
O O15 0.419918 0.280981 0.128175
O O16 0.272593 0.265615 0.888367
#
# Coordination Sequence:
#
# PCOD9211091 Si02
#       7
#     8   8   8   8   8   8   8
#     4  10  21  39  66  93 124 163 207 255 307 362
#     4  11  20  37  63  88 115 165 208 248 309 363
#     4   9  19  36  59  91 122 154 204 258 303 362
#     4  11  22  38  63  90 119 160 206 251 309 363
#     4  11  23  38  59  87 128 162 196 250 303 366
#     4  11  22  39  60  87 122 164 202 243 306 369
#     4  11  22  39  63  92 123 157 208 261 299 359
#
# _framework density 20.081852000000001
#
# number of rings (size 3 to 8) (size 9 to 14) (size 15 to 20)
#    0.000    1.429    4.286    1.286    0.000    4.286 
#    0.000    1.429    0.000    1.714    0.000    0.000 
#    0.000    0.000    0.000    0.000    0.000    0.000 
#
# Total GULP energy -156367.462411 kJ/mol
# GULP energy per Si atom -5584.552229 kJ/mol
# Density = 2.003615 g / cm^3
# Si number density = 20.081852 Si / 1000 Ang^3
#
#
#
# Elastic Constant Matrix: (Units=GPa)
#
#
# Indices 1 2 3 4 5 6 
#
# 1 51.8664 15.1237 -1.0139 0.0000 -8.1488 0.0000
# 2 15.1237 70.7488 8.4858 0.0000 -9.1387 0.0000
# 3 -1.0139 8.4858 86.8965 0.0000 4.9075 0.0000
# 4 0.0000 0.0000 0.0000 11.0043 0.0000 -13.3465
# 5 -8.1488 -9.1387 4.9075 0.0000 33.7000 0.0000
# 6 0.0000 0.0000 0.0000 -13.3465 0.0000 -4.6755
#
#
#
# Elastic Compliance Matrix: (Units=1/GPa)
#
#
# Indices 1 2 3 4 5 6 
#
# 1 0.021088 -0.004049 0.000419 0.000000 0.003940 0.000000
# 2 -0.004049 0.015669 -0.001777 0.000000 0.003529 0.000000
# 3 0.000419 -0.001777 0.011805 0.000000 -0.002100 0.000000
# 4 0.000000 0.000000 0.000000 0.020366 0.000000 -0.058134
# 5 0.003940 0.003529 -0.002100 0.000000 0.031889 0.000000
# 6 0.000000 0.000000 0.000000 -0.058134 0.000000 -0.047932
#
#
# Mechanical properties :
#
#
# Convention : Reuss Voigt Hill
#
# Bulk Modulus (GPa) = 26.49130 28.30033 27.39581
# Shear Modulus (GPa) = 65.54710 20.46682 43.00696
#
# Velocity S-wave (km/s) = 5.71934 3.19591 4.63274
# Velocity P-wave (km/s) = 7.53888 5.26702 6.50293
#
# Compressibility (1/GPa) = 0.03774824
#
# Stress axis : x y z
#
# Youngs Moduli (GPa) = 47.41973 63.82022 84.71059
#
# Poissons Ratio (x) = 0.25842 -0.03549
# Poissons Ratio (y) = 0.19201 0.15050
# Poissons Ratio (z) = -0.01987 0.11339
#
# Static dielectric constant tensor:
#      x y z
#    x 1.700720 0.000000 -0.001760 
#    y 0.000000 1.706350 0.000000 
#    z -0.001760 0.000000 1.737970 
# 
# From -- ./inp_files/156720.got.cif
#   From: 2010.05.17/outbox.cif.g08.bks.cpg/sg12_79_cif.got.tgz:156720.got - 2010.06.03 13:09:07.
