data_PCOD9211510
_publ_section_title
;
Structure prediction by ZEFSAII (Michael W. Deem and Ramdas Pophale) SiO2 
 PCOD9211510
Probable space group: C 2/M
;
_chemical_formula_sum "Si O2"
_cell_formula_units_Z 58
_cell_length_a 21.932584
_cell_length_b 17.944046
_cell_length_c 7.674760
_cell_angle_alpha 90.000000
_cell_angle_beta 68.004160
_cell_angle_gamma 90.000000
_cell_volume 2800.616078
_symmetry_space_group_name_H-M "C 2/M"
_symmetry_group_IT_number 12
_symmetry_cell_setting 'monoclinic'
loop_
_space_group_symop_operation_xyz
x,y,z
-x,y,-z
-x,-y,-z
x,-y,z
1/2+x,1/2+y,z
1/2-x,1/2+y,-z
1/2-x,1/2-y,-z
1/2+x,1/2-y,z
loop_
_atom_site_type_symbol
_atom_site_label
_atom_site_fract_x
_atom_site_fract_y
_atom_site_fract_z
Si Si1 0.426453 0.724807 0.648182
Si Si2 0.241863 0.413207 0.092859
Si Si3 0.652097 0.207062 0.589460
Si Si4 0.659019 0.588391 0.302530
Si Si5 0.701556 0.645649 0.630059
Si Si6 0.074200 0.582130 0.856381
Si Si7 0.401041 0.120146 0.796568
Si Si8 0.500000 0.000000 0.500000
O O1 0.500000 0.717549 0.500000
O O2 0.377869 0.755433 0.549809
O O3 0.397276 0.642825 0.713700
O O4 0.426007 0.794399 0.782956
O O5 0.228747 0.500000 0.094104
O O6 0.291123 0.399114 0.200057
O O7 0.171452 0.377748 0.207915
O O8 0.276059 0.388903 0.877025
O O9 0.661763 0.277955 0.705516
O O10 0.723936 0.170397 0.498152
O O11 0.601208 0.144888 0.704093
O O12 0.647312 0.500000 0.288361
O O13 0.671806 0.603649 0.494131
O O14 0.077963 0.500000 0.767016
O O15 0.112036 0.586707 0.997720
O O16 0.000000 0.592817 0.000000
O O17 0.451952 0.066283 0.641092
#
# Coordination Sequence:
#
# PCOD9211510 Si02
#       8
#     8   8   8   8   8   8   8   2
#     4  11  23  41  65  91 123 171 214 260 327 381
#     4  11  22  38  63  95 121 165 211 259 327 373
#     4  10  22  40  58  89 123 155 216 256 313 388
#     4  10  24  43  65  95 129 161 220 278 320 389
#     4  10  21  40  63  91 122 164 201 269 324 375
#     4  11  24  38  55  85 123 168 208 250 307 372
#     4  12  23  38  61  89 125 169 212 255 308 389
#     4  12  24  40  58  88 138 164 204 258 282 402
#
# _framework density 20.709727999999998
#
# number of rings (size 3 to 8) (size 9 to 14) (size 15 to 20)
#    0.000    1.241    3.448    2.069    1.931    3.034 
#    0.000    0.000    0.000    0.000    0.000    4.828 
#    0.000    0.000    0.000    0.000    0.000    0.000 
#
# Total GULP energy -161589.238789 kJ/mol
# GULP energy per Si atom -5572.042717 kJ/mol
# Density = 2.066259 g / cm^3
# Si number density = 20.709728 Si / 1000 Ang^3
#
#
#
# Elastic Constant Matrix: (Units=GPa)
#
#
# Indices 1 2 3 4 5 6 
#
# 1 27.2438 21.0787 -13.9237 0.0000 -5.2069 0.0000
# 2 21.0787 118.9873 30.6144 0.0000 -22.6514 0.0000
# 3 -13.9237 30.6144 35.7949 0.0000 -3.3720 0.0000
# 4 0.0000 0.0000 0.0000 15.3924 0.0000 -4.3557
# 5 -5.2069 -22.6514 -3.3720 0.0000 29.4353 0.0000
# 6 0.0000 0.0000 0.0000 -4.3557 0.0000 32.7795
#
#
#
# Elastic Compliance Matrix: (Units=1/GPa)
#
#
# Indices 1 2 3 4 5 6 
#
# 1 0.099088 -0.035651 0.068845 0.000000 -0.002020 0.000000
# 2 -0.035651 0.025424 -0.034738 0.000000 0.009279 0.000000
# 3 0.068845 -0.034738 0.083962 0.000000 -0.004936 0.000000
# 4 0.000000 0.000000 0.000000 0.067506 0.000000 0.008970
# 5 -0.002020 0.009279 -0.004936 0.000000 0.040190 0.000000
# 6 0.000000 0.000000 0.000000 0.008970 0.000000 0.031699
#
#
# Mechanical properties :
#
#
# Convention : Reuss Voigt Hill
#
# Bulk Modulus (GPa) = 4.86889 28.61830 16.74359
# Shear Modulus (GPa) = 11.92121 25.13856 18.52988
#
# Velocity S-wave (km/s) = 2.40184 3.48782 2.99447
# Velocity P-wave (km/s) = 3.16984 5.48348 4.47864
#
# Compressibility (1/GPa) = 0.20538578
#
# Stress axis : x y z
#
# Youngs Moduli (GPa) = 10.09202 39.33270 11.91009
#
# Poissons Ratio (x) = 1.40226 -0.81995
# Poissons Ratio (y) = 0.35979 0.41374
# Poissons Ratio (z) = -0.69479 1.36635
#
# Static dielectric constant tensor:
#      x y z
#    x 1.874840 0.000000 0.061620 
#    y 0.000000 1.760980 0.000000 
#    z 0.061620 0.000000 1.770240 
# 
# From -- ./inp_files/87887.got.cif
#   From: 2010.05.17/outbox.cif.g08.bks.cpg/sg12_44_cif.got.tgz:87887.got - 2010.06.03 13:09:07.
