data_PCOD9211155
_publ_section_title
;
Structure prediction by ZEFSAII (Michael W. Deem and Ramdas Pophale) SiO2 
 PCOD9211155
Probable space group: C 2/M
;
_chemical_formula_sum "Si O2"
_cell_formula_units_Z 54
_cell_length_a 27.599583
_cell_length_b 17.195658
_cell_length_c 6.831177
_cell_angle_alpha 90.000000
_cell_angle_beta 62.481422
_cell_angle_gamma 90.000000
_cell_volume 2875.229045
_symmetry_space_group_name_H-M "C 2/M"
_symmetry_group_IT_number 12
_symmetry_cell_setting 'monoclinic'
loop_
_space_group_symop_operation_xyz
x,y,z
-x,y,-z
-x,-y,-z
x,-y,z
1/2+x,1/2+y,z
1/2-x,1/2+y,-z
1/2-x,1/2-y,-z
1/2+x,1/2-y,z
loop_
_atom_site_type_symbol
_atom_site_label
_atom_site_fract_x
_atom_site_fract_y
_atom_site_fract_z
Si Si1 0.314442 0.178940 0.952743
Si Si2 0.395433 0.916103 0.551358
Si Si3 0.357993 0.302270 0.183901
Si Si4 0.609365 0.407758 0.215282
Si Si5 0.000000 0.188852 0.500000
Si Si6 0.500000 0.000000 0.500000
Si Si7 0.951103 0.282825 0.226934
Si Si8 0.697686 0.323046 0.312101
O O1 0.353777 0.114263 0.791061
O O2 0.304853 0.239062 0.790640
O O3 0.341846 0.231623 0.069894
O O4 0.257485 0.146988 0.141836
O O5 0.409042 0.850070 0.368622
O O6 0.377485 0.000000 0.500285
O O7 0.453288 0.933994 0.544283
O O8 0.415361 0.280515 0.177767
O O9 0.313997 0.313426 0.437345
O O10 0.364537 0.377692 0.036480
O O11 0.603870 0.500000 0.234981
O O12 0.551160 0.364576 0.342808
O O13 0.649808 0.375216 0.307838
O O14 0.022016 0.242559 0.634606
O O15 0.000000 0.313663 0.000000
#
# Coordination Sequence:
#
# PCOD9211155 Si02
#       8
#     8   8   8   8   4   2   8   8
#     4  10  21  39  67  89 122 163 213 260 309 379
#     4  10  22  39  59  89 125 164 202 259 320 375
#     4  11  21  39  63  98 118 162 214 263 315 366
#     4  11  24  40  61  92 130 162 206 259 321 384
#     4  12  22  42  61  89 120 170 210 254 322 384
#     4   8  22  36  58  82 120 162 198 246 318 376
#     4  12  23  37  66  90 124 163 215 264 311 386
#     4  10  21  40  65  91 120 167 210 258 314 373
#
# _framework density 18.781113999999999
#
# number of rings (size 3 to 8) (size 9 to 14) (size 15 to 20)
#    0.444    0.889    4.444    2.000    2.074    1.481 
#    0.000    1.481    0.000    0.000    0.000    0.000 
#    0.000    0.000    0.000    0.000    0.000    0.000 
#
# Total GULP energy -150416.180984 kJ/mol
# GULP energy per Si atom -5570.969666 kJ/mol
# Density = 1.873837 g / cm^3
# Si number density = 18.781114 Si / 1000 Ang^3
#
#
#
# Elastic Constant Matrix: (Units=GPa)
#
#
# Indices 1 2 3 4 5 6 
#
# 1 26.3311 -4.8253 -1.8200 0.0000 -2.8731 0.0000
# 2 -4.8253 82.4248 24.4132 0.0000 0.1728 0.0000
# 3 -1.8200 24.4132 108.4669 0.0000 -10.5967 0.0000
# 4 0.0000 0.0000 0.0000 -5.2698 0.0000 9.0343
# 5 -2.8731 0.1728 -10.5967 0.0000 20.9137 0.0000
# 6 0.0000 0.0000 0.0000 9.0343 0.0000 2.1503
#
#
#
# Elastic Compliance Matrix: (Units=1/GPa)
#
#
# Indices 1 2 3 4 5 6 
#
# 1 0.039030 0.002050 0.000753 0.000000 0.005727 0.000000
# 2 0.002050 0.013162 -0.003063 0.000000 -0.001379 0.000000
# 3 0.000753 -0.003063 0.010451 0.000000 0.005424 0.000000
# 4 0.000000 0.000000 0.000000 -0.023134 0.000000 0.097195
# 5 0.005727 -0.001379 0.005424 0.000000 0.051362 0.000000
# 6 0.000000 0.000000 0.000000 0.097195 0.000000 0.056695
#
#
# Mechanical properties :
#
#
# Convention : Reuss Voigt Hill
#
# Bulk Modulus (GPa) = 16.09680 28.08428 22.09054
# Shear Modulus (GPa) = 29.62172 16.85583 23.23878
#
# Velocity S-wave (km/s) = 3.97572 2.99906 3.52141
# Velocity P-wave (km/s) = 5.44651 5.19408 5.32179
#
# Compressibility (1/GPa) = 0.06212416
#
# Stress axis : x y z
#
# Youngs Moduli (GPa) = 25.62102 75.97434 95.68152
#
# Poissons Ratio (x) = -0.15574 -0.07205
# Poissons Ratio (y) = -0.05252 0.29306
# Poissons Ratio (z) = -0.01929 0.23270
#
# Static dielectric constant tensor:
#      x y z
#    x 1.656370 0.000000 -0.006650 
#    y 0.000000 1.642800 0.000000 
#    z -0.006650 0.000000 1.660170 
# 
# From -- ./inp_files/28781.got.cif
#   From: 2010.05.17/outbox.cif.g08.bks.cpg/sg12_15_cif.got.tgz:28781.got - 2010.06.03 13:09:07.
