data_PCOD9211599
_publ_section_title
;
Structure prediction by ZEFSAII (Michael W. Deem and Ramdas Pophale) SiO2 
 PCOD9211599
Probable space group: C 2/M
;
_chemical_formula_sum "Si O2"
_cell_formula_units_Z 48
_cell_length_a 8.973546
_cell_length_b 33.722437
_cell_length_c 8.017355
_cell_angle_alpha 90.000000
_cell_angle_beta 93.994789
_cell_angle_gamma 90.000000
_cell_volume 2420.235961
_symmetry_space_group_name_H-M "C 2/M"
_symmetry_group_IT_number 12
_symmetry_cell_setting 'monoclinic'
loop_
_space_group_symop_operation_xyz
x,y,z
-x,y,-z
-x,-y,-z
x,-y,z
1/2+x,1/2+y,z
1/2-x,1/2+y,-z
1/2-x,1/2-y,-z
1/2+x,1/2-y,z
loop_
_atom_site_type_symbol
_atom_site_label
_atom_site_fract_x
_atom_site_fract_y
_atom_site_fract_z
Si Si1 0.414871 0.648993 0.319685
Si Si2 0.289190 0.500000 0.658481
Si Si3 0.328068 0.708431 0.040290
Si Si4 0.362718 0.500000 0.268387
Si Si5 0.082726 0.574992 0.680510
Si Si6 0.276474 0.917479 0.830532
Si Si7 0.216278 0.132499 0.155197
O O1 0.500000 0.657140 0.500000
O O2 0.338320 0.687131 0.223700
O O3 0.297706 0.612709 0.310767
O O4 0.547464 0.634091 0.207275
O O5 0.309037 0.500000 0.458309
O O6 0.458842 0.500000 0.733443
O O7 0.197550 0.538642 0.707556
O O8 0.500000 0.712738 0.000000
O O9 0.250000 0.750000 0.000000
O O10 0.251405 0.675858 0.914421
O O11 0.298818 0.460109 0.185538
O O12 0.175014 0.615765 0.695804
O O13 0.000000 0.568909 0.500000
O O14 0.950635 0.577284 0.804851
O O15 0.241826 0.897122 0.003539
#
# Coordination Sequence:
#
# PCOD9211599 Si02
#       7
#     8   4   8   4   8   8   8
#     4  10  21  40  64  91 120 163 207 250 301 369
#     4  11  24  38  57  84 123 162 205 258 311 360
#     4   9  20  40  64  89 126 161 195 246 303 363
#     4  11  23  39  60  86 116 170 210 251 312 359
#     4  12  22  38  58  86 122 159 203 259 307 358
#     4  11  22  37  61  86 121 159 207 258 308 359
#     4  10  23  41  60  90 120 159 204 251 310 368
#
# _framework density 19.832777
#
# number of rings (size 3 to 8) (size 9 to 14) (size 15 to 20)
#    0.000    1.500    1.667    4.750    2.333    3.333 
#    0.000    8.333    0.000    0.000    0.000    0.000 
#    0.000    0.000    0.000    0.000    0.000    0.000 
#
# Total GULP energy -134036.273042 kJ/mol
# GULP energy per Si atom -5584.844710 kJ/mol
# Density = 1.978764 g / cm^3
# Si number density = 19.832777 Si / 1000 Ang^3
#
#
#
# Elastic Constant Matrix: (Units=GPa)
#
#
# Indices 1 2 3 4 5 6 
#
# 1 114.9093 73.7900 33.2678 0.0000 -4.8872 0.0000
# 2 73.7900 183.1332 37.5397 0.0000 8.3032 0.0000
# 3 33.2678 37.5397 63.4838 0.0000 -9.7674 0.0000
# 4 0.0000 0.0000 0.0000 15.0832 0.0000 11.2589
# 5 -4.8872 8.3032 -9.7674 0.0000 27.3339 0.0000
# 6 0.0000 0.0000 0.0000 11.2589 0.0000 43.1767
#
#
#
# Elastic Compliance Matrix: (Units=1/GPa)
#
#
# Indices 1 2 3 4 5 6 
#
# 1 0.012746 -0.004490 -0.003665 0.000000 0.002333 0.000000
# 2 -0.004490 0.008107 -0.003114 0.000000 -0.004378 0.000000
# 3 -0.003665 -0.003114 0.020697 0.000000 0.007686 0.000000
# 4 0.000000 0.000000 0.000000 0.082323 0.000000 -0.021467
# 5 0.002333 -0.004378 0.007686 0.000000 0.041079 0.000000
# 6 0.000000 0.000000 0.000000 -0.021467 0.000000 0.028758
#
#
# Mechanical properties :
#
#
# Convention : Reuss Voigt Hill
#
# Bulk Modulus (GPa) = 52.60318 72.30235 62.45276
# Shear Modulus (GPa) = 22.46320 31.58069 27.02195
#
# Velocity S-wave (km/s) = 3.36911 3.99475 3.69520
# Velocity P-wave (km/s) = 6.45875 7.60346 7.05436
#
# Compressibility (1/GPa) = 0.01901026
#
# Stress axis : x y z
#
# Youngs Moduli (GPa) = 78.45322 123.35478 48.31637
#
# Poissons Ratio (x) = 0.55391 0.17709
# Poissons Ratio (y) = 0.35229 0.15047
# Poissons Ratio (z) = 0.28756 0.38415
#
# Static dielectric constant tensor:
#      x y z
#    x 1.694040 0.000000 0.014660 
#    y 0.000000 1.670850 0.000000 
#    z 0.014660 0.000000 1.783220 
# 
# From -- ./inp_files/42301.got.cif
#   From: 2010.05.17/outbox.cif.g08.bks.cpg/sg12_22_cif.got.tgz:42301.got - 2010.06.03 13:09:07.
