data_PCOD9211891
_publ_section_title
;
Structure prediction by ZEFSAII (Michael W. Deem and Ramdas Pophale) SiO2 
 PCOD9211891
Probable space group: C 2/M
;
_chemical_formula_sum "Si O2"
_cell_formula_units_Z 48
_cell_length_a 9.229866
_cell_length_b 29.506495
_cell_length_c 15.201527
_cell_angle_alpha 90.000000
_cell_angle_beta 146.391757
_cell_angle_gamma 90.000000
_cell_volume 2291.536528
_symmetry_space_group_name_H-M "C 2/M"
_symmetry_group_IT_number 12
_symmetry_cell_setting 'monoclinic'
loop_
_space_group_symop_operation_xyz
x,y,z
-x,y,-z
-x,-y,-z
x,-y,z
1/2+x,1/2+y,z
1/2-x,1/2+y,-z
1/2-x,1/2-y,-z
1/2+x,1/2-y,z
loop_
_atom_site_type_symbol
_atom_site_label
_atom_site_fract_x
_atom_site_fract_y
_atom_site_fract_z
Si Si1 0.611043 0.148763 0.770252
Si Si2 0.184835 0.052073 0.333976
Si Si3 0.297859 0.765880 0.684339
Si Si4 0.599405 0.393653 0.452364
Si Si5 0.852861 0.189764 0.221492
Si Si6 0.107862 0.131029 0.918294
O O1 0.467139 0.194230 0.726471
O O2 0.403355 0.119551 0.612117
O O3 0.866656 0.157655 0.841655
O O4 0.696660 0.122731 0.902397
O O5 0.500000 0.059110 0.500000
O O6 0.072058 0.064525 0.373069
O O7 0.031615 0.086952 0.193146
O O8 0.140668 0.000000 0.287132
O O9 0.418708 0.719985 0.706961
O O10 0.000000 0.768793 0.500000
O O11 0.301906 0.776205 0.791441
O O12 0.500000 0.401414 0.500000
O O13 0.457831 0.349781 0.338921
O O14 0.755252 0.161384 0.087249
#
# Coordination Sequence:
#
# PCOD9211891 Si02
#       6
#     8   8   8   8   8   8
#     4  11  21  41  57  88 121 159 201 242 300 352
#     4  10  21  40  67  95 120 151 199 248 297 363
#     4  12  23  36  60  90 118 156 214 253 292 343
#     4  11  21  40  64  91 119 160 202 247 300 353
#     4  11  23  37  59  89 115 162 205 257 293 344
#     4  10  24  39  63  85 122 163 193 248 305 361
#
# _framework density 20.946643999999999
#
# number of rings (size 3 to 8) (size 9 to 14) (size 15 to 20)
#    0.000    1.167    5.000    1.500    2.333    1.667 
#    0.000    2.500    0.000    1.000    0.000    0.000 
#    0.000    0.000    0.000    0.000    0.000    0.000 
#
# Total GULP energy -134011.427823 kJ/mol
# GULP energy per Si atom -5583.809493 kJ/mol
# Density = 2.089897 g / cm^3
# Si number density = 20.946644 Si / 1000 Ang^3
#
#
#
# Elastic Constant Matrix: (Units=GPa)
#
#
# Indices 1 2 3 4 5 6 
#
# 1 122.0418 39.4854 -0.0170 0.0000 -15.6693 0.0000
# 2 39.4854 85.5908 10.2588 0.0000 -7.0195 0.0000
# 3 -0.0170 10.2588 24.3279 0.0000 -7.5214 0.0000
# 4 0.0000 0.0000 0.0000 3.5773 0.0000 4.6210
# 5 -15.6693 -7.0195 -7.5214 0.0000 30.5360 0.0000
# 6 0.0000 0.0000 0.0000 4.6210 0.0000 21.7157
#
#
#
# Elastic Compliance Matrix: (Units=1/GPa)
#
#
# Indices 1 2 3 4 5 6 
#
# 1 0.010411 -0.004817 0.003624 0.000000 0.005128 0.000000
# 2 -0.004817 0.014614 -0.006377 0.000000 -0.000683 0.000000
# 3 0.003624 -0.006377 0.047539 0.000000 0.012103 0.000000
# 4 0.000000 0.000000 0.000000 0.385510 0.000000 -0.082035
# 5 0.005128 -0.000683 0.012103 0.000000 0.038204 0.000000
# 6 0.000000 0.000000 0.000000 -0.082035 0.000000 0.063507
#
#
# Mechanical properties :
#
#
# Convention : Reuss Voigt Hill
#
# Bulk Modulus (GPa) = 17.41447 36.82389 27.11918
# Shear Modulus (GPa) = 8.41658 23.31467 15.86562
#
# Velocity S-wave (km/s) = 2.00670 3.33986 2.75513
# Velocity P-wave (km/s) = 3.70147 5.70008 4.80582
#
# Compressibility (1/GPa) = 0.05742350
#
# Stress axis : x y z
#
# Youngs Moduli (GPa) = 96.05034 68.42772 21.03557
#
# Poissons Ratio (x) = 0.32960 -0.07623
# Poissons Ratio (y) = 0.46265 0.13415
# Poissons Ratio (z) = -0.34806 0.43637
#
# Static dielectric constant tensor:
#      x y z
#    x 1.780110 0.000000 0.001710 
#    y 0.000000 1.722750 0.000000 
#    z 0.001710 0.000000 1.793270 
# 
# From -- ./inp_files/201062.got.cif
#   From: 2010.05.17/outbox.cif.g08.bks.cpg/sg12_101_cif.got.tgz:201062.got - 2010.06.03 13:09:07.
