data_PCOD9211224
_publ_section_title
;
Structure prediction by ZEFSAII (Michael W. Deem and Ramdas Pophale) SiO2 
 PCOD9211224
Probable space group: C 2/M
;
_chemical_formula_sum "Si O2"
_cell_formula_units_Z 44
_cell_length_a 21.190702
_cell_length_b 16.884345
_cell_length_c 5.689226
_cell_angle_alpha 90.000000
_cell_angle_beta 117.375231
_cell_angle_gamma 90.000000
_cell_volume 1807.601451
_symmetry_space_group_name_H-M "C 2/M"
_symmetry_group_IT_number 12
_symmetry_cell_setting 'monoclinic'
loop_
_space_group_symop_operation_xyz
x,y,z
-x,y,-z
-x,-y,-z
x,-y,z
1/2+x,1/2+y,z
1/2-x,1/2+y,-z
1/2-x,1/2-y,-z
1/2+x,1/2-y,z
loop_
_atom_site_type_symbol
_atom_site_label
_atom_site_fract_x
_atom_site_fract_y
_atom_site_fract_z
Si Si1 0.173162 0.089948 0.883026
Si Si2 0.104589 0.669699 0.809185
Si Si3 0.820762 0.412769 0.423890
Si Si4 0.541790 0.000000 0.822382
Si Si5 0.744560 0.180775 0.304238
Si Si6 0.036996 0.168645 0.810686
O O1 0.183135 0.152207 0.688870
O O2 0.111761 0.121982 0.944207
O O3 0.158187 0.000000 0.782405
O O4 0.251182 0.089608 0.136654
O O5 0.120252 0.649225 0.562503
O O6 0.084342 0.583912 0.882190
O O7 0.051045 0.737717 0.791927
O O8 0.181274 0.702909 0.021642
O O9 0.851425 0.500000 0.466269
O O10 0.787622 0.394240 0.615964
O O11 0.500000 0.000000 0.500000
O O12 0.500000 0.000000 0.000000
O O13 0.750000 0.250000 0.500000
O O14 0.000000 0.141394 0.500000
O O15 0.000000 0.157210 0.000000
#
# Coordination Sequence:
#
# PCOD9211224 Si02
#       6
#     8   8   8   4   8   8
#     4  10  24  46  69 105 140 181 242 299 372 430
#     4  11  25  43  69 103 143 188 248 294 366 433
#     4  10  21  39  70 103 138 176 228 301 367 428
#     4  12  28  46  70 104 152 204 246 292 350 436
#     4  11  23  39  73 105 141 183 234 310 374 434
#     4  12  29  48  71 100 142 194 248 295 352 428
#
# _framework density 24.341650000000001
#
# number of rings (size 3 to 8) (size 9 to 14) (size 15 to 20)
#    0.000    1.091    0.909    3.818   12.727    3.636 
#    0.000    0.000    0.000    0.000    0.000    0.000 
#    0.000    0.000    0.000    0.000    0.000    0.000 
#
# Total GULP energy -122953.581998 kJ/mol
# GULP energy per Si atom -5588.799182 kJ/mol
# Density = 2.428625 g / cm^3
# Si number density = 24.341650 Si / 1000 Ang^3
#
#
#
# Elastic Constant Matrix: (Units=GPa)
#
#
# Indices 1 2 3 4 5 6 
#
# 1 145.3811 51.2192 42.2873 0.0000 -46.4326 0.0000
# 2 51.2192 119.8517 30.4063 0.0000 -7.2675 0.0000
# 3 42.2873 30.4063 76.6935 0.0000 -18.7955 0.0000
# 4 0.0000 0.0000 0.0000 29.9107 0.0000 -1.2767
# 5 -46.4326 -7.2675 -18.7955 0.0000 46.6560 0.0000
# 6 0.0000 0.0000 0.0000 -1.2767 0.0000 43.5471
#
#
#
# Elastic Compliance Matrix: (Units=1/GPa)
#
#
# Indices 1 2 3 4 5 6 
#
# 1 0.012498 -0.004013 -0.002669 0.000000 0.010738 0.000000
# 2 -0.004013 0.010565 -0.002831 0.000000 -0.003489 0.000000
# 3 -0.002669 -0.002831 0.016503 0.000000 0.003552 0.000000
# 4 0.000000 0.000000 0.000000 0.033475 0.000000 0.000981
# 5 0.010738 -0.003489 0.003552 0.000000 0.033007 0.000000
# 6 0.000000 0.000000 0.000000 0.000981 0.000000 0.022992
#
#
# Mechanical properties :
#
#
# Convention : Reuss Voigt Hill
#
# Bulk Modulus (GPa) = 48.68238 65.52799 57.10518
# Shear Modulus (GPa) = 32.27609 38.55699 35.41654
#
# Velocity S-wave (km/s) = 3.64533 3.98426 3.81855
# Velocity P-wave (km/s) = 6.14499 6.93861 6.55382
#
# Compressibility (1/GPa) = 0.02054131
#
# Stress axis : x y z
#
# Youngs Moduli (GPa) = 80.01223 94.64949 60.59466
#
# Poissons Ratio (x) = 0.37983 0.16170
# Poissons Ratio (y) = 0.32109 0.17155
# Poissons Ratio (z) = 0.21352 0.26796
#
# Static dielectric constant tensor:
#      x y z
#    x 1.976350 0.000000 -0.009670 
#    y 0.000000 2.002530 0.000000 
#    z -0.009670 0.000000 2.057120 
# 
# From -- ./inp_files/20340.got.cif
#   From: 2010.05.17/outbox.cif.g08.bks.cpg/sg12_11_cif.got.tgz:20340.got - 2010.06.03 13:09:07.
