data_PCOD9211116
_publ_section_title
;
Structure prediction by ZEFSAII (Michael W. Deem and Ramdas Pophale) SiO2 
 PCOD9211116
Probable space group: C 2/M
;
_chemical_formula_sum "Si O2"
_cell_formula_units_Z 56
_cell_length_a 24.448048
_cell_length_b 8.052775
_cell_length_c 12.430050
_cell_angle_alpha 90.000000
_cell_angle_beta 100.565708
_cell_angle_gamma 90.000000
_cell_volume 2405.670528
_symmetry_space_group_name_H-M "C 2/M"
_symmetry_group_IT_number 12
_symmetry_cell_setting 'monoclinic'
loop_
_space_group_symop_operation_xyz
x,y,z
-x,y,-z
-x,-y,-z
x,-y,z
1/2+x,1/2+y,z
1/2-x,1/2+y,-z
1/2-x,1/2-y,-z
1/2+x,1/2-y,z
loop_
_atom_site_type_symbol
_atom_site_label
_atom_site_fract_x
_atom_site_fract_y
_atom_site_fract_z
Si Si1 0.647117 0.299659 0.582873
Si Si2 0.784188 0.189319 0.113679
Si Si3 0.059023 0.798586 0.729264
Si Si4 0.943261 0.191335 0.615618
Si Si5 0.737317 0.685652 0.310696
Si Si6 0.393302 0.804279 0.049125
Si Si7 0.883570 0.305813 0.795740
O O1 0.649620 0.500000 0.582711
O O2 0.614157 0.252851 0.680691
O O3 0.606060 0.235815 0.474843
O O4 0.710981 0.242704 0.596958
O O5 0.767591 0.305073 0.205743
O O6 0.846274 0.200771 0.093212
O O7 0.770958 0.000000 0.140463
O O8 0.750000 0.250000 0.000000
O O9 0.056501 0.725735 0.849317
O O10 0.005604 0.740091 0.641132
O O11 0.056844 0.000000 0.734939
O O12 0.921592 0.202297 0.729369
O O13 0.948227 0.000000 0.581654
O O14 0.720762 0.500000 0.335476
O O15 0.680151 0.783303 0.268170
O O16 0.379154 0.000000 0.045701
O O17 0.393066 0.755701 0.923856
O O18 0.898004 0.500000 0.792709
#
# Coordination Sequence:
#
# PCOD9211116 Si02
#       7
#     8   8   8   8   8   8   8
#     4  10  21  40  66  94 125 160 205 260 316 371
#     4  12  22  35  58  90 126 163 202 252 310 368
#     4  10  21  39  66  95 124 160 205 260 317 370
#     4  10  23  43  65  90 122 165 214 260 309 370
#     4  12  24  38  62  94 127 162 204 255 311 374
#     4  11  23  38  60  91 126 163 206 255 308 366
#     4  11  25  43  62  87 126 171 210 253 308 372
#
# _framework density 23.278334000000001
#
# number of rings (size 3 to 8) (size 9 to 14) (size 15 to 20)
#    0.000    1.143    2.857    3.857    0.000    5.714 
#    0.000    2.857    0.000    2.571    0.000    0.000 
#    0.000    0.000    0.000    0.000    0.000    0.000 
#
# Total GULP energy -156373.716347 kJ/mol
# GULP energy per Si atom -5584.775584 kJ/mol
# Density = 2.322535 g / cm^3
# Si number density = 23.278334 Si / 1000 Ang^3
#
#
#
# Elastic Constant Matrix: (Units=GPa)
#
#
# Indices 1 2 3 4 5 6 
#
# 1 43.0223 -3.4726 31.8802 0.0000 5.9866 0.0000
# 2 -3.4726 49.1046 3.6454 0.0000 0.5245 0.0000
# 3 31.8802 3.6454 102.2293 0.0000 23.7197 0.0000
# 4 0.0000 0.0000 0.0000 22.0229 0.0000 4.4543
# 5 5.9866 0.5245 23.7197 0.0000 38.2306 0.0000
# 6 0.0000 0.0000 0.0000 4.4543 0.0000 18.4216
#
#
#
# Elastic Compliance Matrix: (Units=1/GPa)
#
#
# Indices 1 2 3 4 5 6 
#
# 1 0.030691 0.002897 -0.009988 0.000000 0.001351 0.000000
# 2 0.002897 0.020694 -0.001718 0.000000 0.000328 0.000000
# 3 -0.009988 -0.001718 0.014707 0.000000 -0.007537 0.000000
# 4 0.000000 0.000000 0.000000 0.047742 0.000000 -0.011544
# 5 0.001351 0.000328 -0.007537 0.000000 0.030617 0.000000
# 6 0.000000 0.000000 0.000000 -0.011544 0.000000 0.057075
#
#
# Mechanical properties :
#
#
# Convention : Reuss Voigt Hill
#
# Bulk Modulus (GPa) = 20.62915 28.71803 24.67359
# Shear Modulus (GPa) = 21.24950 26.55523 23.90237
#
# Velocity S-wave (km/s) = 3.02461 3.38119 3.20786
# Velocity P-wave (km/s) = 4.59117 5.25422 4.93385
#
# Compressibility (1/GPa) = 0.04847509
#
# Stress axis : x y z
#
# Youngs Moduli (GPa) = 32.58322 48.32417 67.99660
#
# Poissons Ratio (x) = -0.14001 0.67913
# Poissons Ratio (y) = -0.09441 0.11679
# Poissons Ratio (z) = 0.32543 0.08300
#
# Static dielectric constant tensor:
#      x y z
#    x 1.882430 0.000000 0.070390 
#    y 0.000000 1.861890 0.000000 
#    z 0.070390 0.000000 1.965000 
# 
# From -- ./inp_files/181069.got.cif
#   From: 2010.05.17/outbox.cif.g08.bks.cpg/sg12_91_cif.got.tgz:181069.got - 2010.06.03 13:09:07.
