data_PCOD9211810
_publ_section_title
;
Structure prediction by ZEFSAII (Michael W. Deem and Ramdas Pophale) SiO2 
 PCOD9211810
Probable space group: C 2/M
;
_chemical_formula_sum "Si O2"
_cell_formula_units_Z 56
_cell_length_a 9.940679
_cell_length_b 23.700285
_cell_length_c 22.285855
_cell_angle_alpha 90.000000
_cell_angle_beta 32.727948
_cell_angle_gamma 90.000000
_cell_volume 2838.675271
_symmetry_space_group_name_H-M "C 2/M"
_symmetry_group_IT_number 12
_symmetry_cell_setting 'monoclinic'
loop_
_space_group_symop_operation_xyz
x,y,z
-x,y,-z
-x,-y,-z
x,-y,z
1/2+x,1/2+y,z
1/2-x,1/2+y,-z
1/2-x,1/2-y,-z
1/2+x,1/2-y,z
loop_
_atom_site_type_symbol
_atom_site_label
_atom_site_fract_x
_atom_site_fract_y
_atom_site_fract_z
Si Si1 0.056594 0.936899 0.852575
Si Si2 0.625756 0.164589 0.726703
Si Si3 0.978260 0.352707 0.654008
Si Si4 0.322164 0.693204 0.436677
Si Si5 0.582591 0.287898 0.734155
Si Si6 0.273033 0.106108 0.126030
Si Si7 0.393255 0.933156 0.891978
O O1 0.888610 0.934399 0.855540
O O2 0.298754 0.902323 0.743429
O O3 0.128676 0.000000 0.840731
O O4 0.869371 0.917877 0.976445
O O5 0.654315 0.157545 0.644557
O O6 0.487638 0.225219 0.783376
O O7 0.471942 0.112390 0.812198
O O8 0.894852 0.173953 0.655903
O O9 0.778185 0.304006 0.712806
O O10 0.143738 0.355048 0.531909
O O11 0.250000 0.750000 0.500000
O O12 0.290242 0.708153 0.378966
O O13 0.384692 0.337899 0.803670
O O14 0.390644 0.075723 0.139088
O O15 0.500000 0.125275 0.000000
O O16 0.383859 0.000000 0.879149
#
# Coordination Sequence:
#
# PCOD9211810 Si02
#       7
#     8   8   8   8   8   8   8
#     4   9  20  41  65  88 122 165 210 258 311 370
#     4  12  23  38  59  95 126 163 206 254 313 377
#     4  11  24  36  60  93 122 160 207 253 310 373
#     4  12  22  40  64  87 123 166 212 253 309 378
#     4  11  21  39  61  92 125 162 204 258 313 370
#     4   9  18  37  63  95 121 158 208 261 314 369
#     4  10  21  40  66  92 124 168 212 259 312 374
#
# _framework density 19.727512000000001
#
# number of rings (size 3 to 8) (size 9 to 14) (size 15 to 20)
#    0.000    1.429    4.286    1.286    0.000    2.857 
#    2.571    4.286    0.000    3.429    0.000    0.000 
#    0.000    0.000    0.000    0.000    0.000    0.000 
#
# Total GULP energy -156036.845897 kJ/mol
# GULP energy per Si atom -5572.744496 kJ/mol
# Density = 1.968261 g / cm^3
# Si number density = 19.727512 Si / 1000 Ang^3
#
#
#
# Elastic Constant Matrix: (Units=GPa)
#
#
# Indices 1 2 3 4 5 6 
#
# 1 79.1779 14.7883 23.1345 0.0133 15.6917 0.0024
# 2 14.7883 116.6653 72.5996 0.0069 4.9487 0.0018
# 3 23.1345 72.5996 85.9563 0.0289 2.6784 -0.0018
# 4 0.0133 0.0069 0.0289 36.1007 -0.0097 2.6782
# 5 15.6917 4.9487 2.6784 -0.0097 31.7894 0.0027
# 6 0.0024 0.0018 -0.0018 2.6782 0.0027 2.1709
#
#
#
# Elastic Compliance Matrix: (Units=1/GPa)
#
#
# Indices 1 2 3 4 5 6 
#
# 1 0.015332 0.001674 -0.005311 -0.000003 -0.007381 -0.000010
# 2 0.001674 0.018325 -0.015855 0.000011 -0.002343 -0.000041
# 3 -0.005311 -0.015855 0.026365 -0.000020 0.002868 0.000062
# 4 -0.000003 0.000011 -0.000020 0.030491 0.000014 -0.037616
# 5 -0.007381 -0.002343 0.002868 0.000014 0.035224 -0.000049
# 6 -0.000010 -0.000041 0.000062 -0.037616 -0.000049 0.507044
#
#
# Mechanical properties :
#
#
# Convention : Reuss Voigt Hill
#
# Bulk Modulus (GPa) = 47.53057 55.87158 51.70108
# Shear Modulus (GPa) = 7.36618 25.43066 16.39842
#
# Velocity S-wave (km/s) = 1.93444 3.59429 2.88626
# Velocity P-wave (km/s) = 5.39771 6.75340 6.11325
#
# Compressibility (1/GPa) = 0.02103909
#
# Stress axis : x y z
#
# Youngs Moduli (GPa) = 65.22502 54.56926 37.92846
#
# Poissons Ratio (x) = -0.09137 0.20142
# Poissons Ratio (y) = -0.10921 0.60137
# Poissons Ratio (z) = 0.34638 0.86522
#
# Static dielectric constant tensor:
#      x y z
#    x 1.754810 0.000000 -0.011800 
#    y 0.000000 1.701650 0.000000 
#    z -0.011800 0.000000 1.702220 
# 
# From -- ./inp_files/337004.got.cif
#   From: 2010.05.17/outbox.cif.g08.bks.cpg/sg12_169_cif.got.tgz:337004.got - 2010.06.03 13:09:07.
