data_PCOD9211965
_publ_section_title
;
Structure prediction by ZEFSAII (Michael W. Deem and Ramdas Pophale) SiO2 
 PCOD9211965
Probable space group: C 2/M
;
_chemical_formula_sum "Si O2"
_cell_formula_units_Z 24
_cell_length_a 14.988115
_cell_length_b 15.279176
_cell_length_c 7.344393
_cell_angle_alpha 90.000000
_cell_angle_beta 139.982520
_cell_angle_gamma 90.000000
_cell_volume 1081.504196
_symmetry_space_group_name_H-M "C 2/M"
_symmetry_group_IT_number 12
_symmetry_cell_setting 'monoclinic'
loop_
_space_group_symop_operation_xyz
x,y,z
-x,y,-z
-x,-y,-z
x,-y,z
1/2+x,1/2+y,z
1/2-x,1/2+y,-z
1/2-x,1/2-y,-z
1/2+x,1/2-y,z
loop_
_atom_site_type_symbol
_atom_site_label
_atom_site_fract_x
_atom_site_fract_y
_atom_site_fract_z
Si Si1 0.643719 0.500000 0.845453
Si Si2 0.657479 0.000000 0.175058
Si Si3 0.738383 0.310277 0.656912
Si Si4 0.940246 0.822250 0.113429
O O1 0.500000 0.500000 0.500000
O O2 0.783094 0.500000 0.940498
O O3 0.637149 0.410919 0.950855
O O4 0.719276 0.907694 0.334051
O O5 0.500000 0.000000 0.000000
O O6 0.750000 0.250000 0.500000
O O7 0.577008 0.311457 0.450947
O O8 0.843211 0.263724 0.960362
O O9 0.000000 0.833180 0.000000
#
# Coordination Sequence:
#
# PCOD9211965 Si02
#       4
#     4   4   8   8
#     4  12  23  42  67 103 128 178 220 276 327 395
#     4  12  24  42  62  94 139 171 216 273 335 378
#     4  10  21  40  68  97 131 177 218 266 334 389
#     4  10  21  41  68  99 131 175 220 268 331 394
#
# _framework density 22.191316
#
# number of rings (size 3 to 8) (size 9 to 14) (size 15 to 20)
#    0.000    1.333    3.333    3.500    0.000    5.333 
#    0.000    1.667    0.000   24.000    0.000    0.000 
#    0.000    0.000    0.000    0.000    0.000    0.000 
#
# Total GULP energy -66951.177719 kJ/mol
# GULP energy per Si atom -5579.264810 kJ/mol
# Density = 2.214081 g / cm^3
# Si number density = 22.191316 Si / 1000 Ang^3
#
#
#
# Elastic Constant Matrix: (Units=GPa)
#
#
# Indices 1 2 3 4 5 6 
#
# 1 154.0022 42.6370 31.5627 0.0000 29.0866 0.0000
# 2 42.6370 218.4252 68.9914 0.0000 17.6908 0.0000
# 3 31.5627 68.9914 114.2831 0.0000 45.5389 0.0000
# 4 0.0000 0.0000 0.0000 25.8708 0.0000 -14.4740
# 5 29.0866 17.6908 45.5389 0.0000 26.5815 0.0000
# 6 0.0000 0.0000 0.0000 -14.4740 0.0000 20.1876
#
#
#
# Elastic Compliance Matrix: (Units=1/GPa)
#
#
# Indices 1 2 3 4 5 6 
#
# 1 0.009812 -0.002537 0.007648 0.000000 -0.022151 0.000000
# 2 -0.002537 0.006702 -0.008427 0.000000 0.012752 0.000000
# 3 0.007648 -0.008427 0.040414 0.000000 -0.071998 0.000000
# 4 0.000000 0.000000 0.000000 0.064544 0.000000 0.046276
# 5 -0.022151 0.012752 -0.071998 0.000000 0.176717 0.000000
# 6 0.000000 0.000000 0.000000 0.046276 0.000000 0.082714
#
#
# Mechanical properties :
#
#
# Convention : Reuss Voigt Hill
#
# Bulk Modulus (GPa) = 19.88161 85.89918 52.89040
# Shear Modulus (GPa) = 12.36703 37.42928 24.89815
#
# Velocity S-wave (km/s) = 2.36326 4.11136 3.35323
# Velocity P-wave (km/s) = 4.05282 7.83136 6.23520
#
# Compressibility (1/GPa) = 0.05029773
#
# Stress axis : x y z
#
# Youngs Moduli (GPa) = 101.91566 149.20175 24.74367
#
# Poissons Ratio (x) = 0.37853 -0.18925
# Poissons Ratio (y) = 0.25857 0.20851
# Poissons Ratio (z) = -0.77950 1.25731
#
# Static dielectric constant tensor:
#      x y z
#    x 1.934980 0.000000 -0.022010 
#    y 0.000000 1.819190 0.000000 
#    z -0.022010 0.000000 1.928650 
# 
# From -- ./inp_files/43766.got.cif
#   From: 2010.05.17/outbox.cif.g08.bks.cpg/sg12_22_cif.got.tgz:43766.got - 2010.06.03 13:09:07.
