data_PCOD9211271
_publ_section_title
;
Structure prediction by ZEFSAII (Michael W. Deem and Ramdas Pophale) SiO2 
 PCOD9211271
Probable space group: C 2/M
;
_chemical_formula_sum "Si O2"
_cell_formula_units_Z 48
_cell_length_a 14.810362
_cell_length_b 23.276037
_cell_length_c 11.156454
_cell_angle_alpha 90.000000
_cell_angle_beta 138.955570
_cell_angle_gamma 90.000000
_cell_volume 2525.404320
_symmetry_space_group_name_H-M "C 2/M"
_symmetry_group_IT_number 12
_symmetry_cell_setting 'monoclinic'
loop_
_space_group_symop_operation_xyz
x,y,z
-x,y,-z
-x,-y,-z
x,-y,z
1/2+x,1/2+y,z
1/2-x,1/2+y,-z
1/2-x,1/2-y,-z
1/2+x,1/2-y,z
loop_
_atom_site_type_symbol
_atom_site_label
_atom_site_fract_x
_atom_site_fract_y
_atom_site_fract_z
Si Si1 0.421821 0.431488 0.539926
Si Si2 0.571295 0.823543 0.334708
Si Si3 0.467477 0.378745 0.099311
Si Si4 0.777726 0.296527 0.129721
Si Si5 0.596506 0.932267 0.212505
Si Si6 0.335766 0.271164 0.734214
O O1 0.500000 0.408199 0.500000
O O2 0.443630 0.500000 0.565684
O O3 0.476171 0.408291 0.722837
O O4 0.259462 0.421632 0.356052
O O5 0.438588 0.809497 0.280260
O O6 0.563292 0.889598 0.288175
O O7 0.588214 0.786481 0.230367
O O8 0.707047 0.798885 0.534129
O O9 0.551541 0.319950 0.170621
O O10 0.500000 0.407729 0.000000
O O11 0.311446 0.355927 0.962636
O O12 0.727120 0.265832 0.198612
O O13 0.750000 0.250000 0.000000
O O14 0.579419 0.000000 0.223804
O O15 0.500000 0.920609 0.000000
#
# Coordination Sequence:
#
# PCOD9211271 Si02
#       6
#     8   8   8   8   8   8
#     4  10  22  41  63  90 123 160 211 265 310 367
#     4  11  22  39  63  85 122 166 198 258 309 371
#     4  10  21  40  59  88 126 159 202 253 309 380
#     4  11  23  36  58  89 124 156 200 254 306 378
#     4  10  23  40  62  91 123 162 208 260 316 372
#     4  10  22  40  57  89 122 158 208 244 314 375
#
# _framework density 19.006858000000001
#
# number of rings (size 3 to 8) (size 9 to 14) (size 15 to 20)
#    0.000    1.667    3.333    0.500    4.667    0.333 
#    0.000    0.000    0.000    3.000    0.000    0.000 
#    0.000    0.000    0.000    0.000    0.000    0.000 
#
# Total GULP energy -133603.500390 kJ/mol
# GULP energy per Si atom -5566.812516 kJ/mol
# Density = 1.896360 g / cm^3
# Si number density = 19.006858 Si / 1000 Ang^3
#
#
#
# Elastic Constant Matrix: (Units=GPa)
#
#
# Indices 1 2 3 4 5 6 
#
# 1 114.4560 28.6227 36.0284 0.0000 -5.1223 0.0000
# 2 28.6227 28.7886 17.3899 0.0000 -2.4851 0.0000
# 3 36.0284 17.3899 90.3927 0.0000 3.5617 0.0000
# 4 0.0000 0.0000 0.0000 28.4722 0.0000 -2.4453
# 5 -5.1223 -2.4851 3.5617 0.0000 44.1720 0.0000
# 6 0.0000 0.0000 0.0000 -2.4453 0.0000 21.8496
#
#
#
# Elastic Compliance Matrix: (Units=1/GPa)
#
#
# Indices 1 2 3 4 5 6 
#
# 1 0.012305 -0.010356 -0.002955 0.000000 0.001083 0.000000
# 2 -0.010356 0.048375 -0.005255 0.000000 0.001944 0.000000
# 3 -0.002955 -0.005255 0.013319 0.000000 -0.001712 0.000000
# 4 0.000000 0.000000 0.000000 0.035463 0.000000 0.003969
# 5 0.001083 0.001944 -0.001712 0.000000 0.023012 0.000000
# 6 0.000000 0.000000 0.000000 0.003969 0.000000 0.046212
#
#
# Mechanical properties :
#
#
# Convention : Reuss Voigt Hill
#
# Bulk Modulus (GPa) = 27.12495 44.19104 35.65800
# Shear Modulus (GPa) = 21.91953 29.00517 25.46235
#
# Velocity S-wave (km/s) = 3.39963 3.91069 3.66408
# Velocity P-wave (km/s) = 5.45088 6.60998 6.05822
#
# Compressibility (1/GPa) = 0.03686643
#
# Stress axis : x y z
#
# Youngs Moduli (GPa) = 81.26502 20.67198 75.07995
#
# Poissons Ratio (x) = 0.21408 0.22186
# Poissons Ratio (y) = 0.84159 0.39457
# Poissons Ratio (z) = 0.24014 0.10864
#
# Static dielectric constant tensor:
#      x y z
#    x 1.704700 0.000000 -0.058160 
#    y 0.000000 1.667310 0.000000 
#    z -0.058160 0.000000 1.796600 
# 
# From -- ./inp_files/147994.got.cif
#   From: 2010.05.17/outbox.cif.g08.bks.cpg/sg12_74_cif.got.tgz:147994.got - 2010.06.03 13:09:07.
