data_PCOD9211858
_publ_section_title
;
Structure prediction by ZEFSAII (Michael W. Deem and Ramdas Pophale) SiO2 
 PCOD9211858
Probable space group: C 2/M
;
_chemical_formula_sum "Si O2"
_cell_formula_units_Z 40
_cell_length_a 13.584894
_cell_length_b 19.520033
_cell_length_c 12.219057
_cell_angle_alpha 90.000000
_cell_angle_beta 33.263827
_cell_angle_gamma 90.000000
_cell_volume 1777.244547
_symmetry_space_group_name_H-M "C 2/M"
_symmetry_group_IT_number 12
_symmetry_cell_setting 'monoclinic'
loop_
_space_group_symop_operation_xyz
x,y,z
-x,y,-z
-x,-y,-z
x,-y,z
1/2+x,1/2+y,z
1/2-x,1/2+y,-z
1/2-x,1/2-y,-z
1/2+x,1/2-y,z
loop_
_atom_site_type_symbol
_atom_site_label
_atom_site_fract_x
_atom_site_fract_y
_atom_site_fract_z
Si Si1 0.920745 0.078650 0.451825
Si Si2 0.091429 0.319162 0.735341
Si Si3 0.714551 0.079238 0.010642
Si Si4 0.783796 0.923326 0.202147
Si Si5 0.658101 0.786978 0.428472
O O1 0.757189 0.128347 0.583190
O O2 0.000000 0.086092 0.500000
O O3 0.083640 0.091222 0.217482
O O4 0.861336 0.000000 0.493956
O O5 0.160436 0.257511 0.746775
O O6 0.083632 0.287930 0.620821
O O7 0.915783 0.364078 0.920048
O O8 0.667696 0.000000 0.024279
O O9 0.713527 0.084324 0.143125
O O10 0.702072 0.863873 0.351089
O O11 0.738145 0.000000 0.284068
O O12 0.000000 0.918201 0.000000
O O13 0.500000 0.758488 0.500000
#
# Coordination Sequence:
#
# PCOD9211858 Si02
#       5
#     8   8   8   8   8
#     4  10  22  42  67  96 132 172 219 275 329 387
#     4  11  23  41  64  93 136 174 220 268 315 400
#     4  10  21  40  69 100 127 169 223 271 330 388
#     4  10  21  40  66  97 130 164 213 273 331 392
#     4  11  23  42  61  94 134 175 216 262 331 392
#
# _framework density 22.506751999999999
#
# number of rings (size 3 to 8) (size 9 to 14) (size 15 to 20)
#    0.000    1.600    2.000    2.400    0.000    4.400 
#    7.200    6.000    0.000    0.000    0.000    0.000 
#    0.000    0.000    0.000    0.000    0.000    0.000 
#
# Total GULP energy -111946.371714 kJ/mol
# GULP energy per Si atom -5597.318586 kJ/mol
# Density = 2.245553 g / cm^3
# Si number density = 22.506752 Si / 1000 Ang^3
#
#
#
# Elastic Constant Matrix: (Units=GPa)
#
#
# Indices 1 2 3 4 5 6 
#
# 1 74.3969 28.0471 -0.5131 0.0098 -10.2208 0.0052
# 2 28.0471 107.5920 17.8362 -0.0287 -12.3957 0.0001
# 3 -0.5131 17.8362 21.7502 -0.0072 -1.5774 0.0079
# 4 0.0098 -0.0287 -0.0072 74.5089 0.0131 -13.6483
# 5 -10.2208 -12.3957 -1.5774 0.0131 23.8760 -0.0023
# 6 0.0052 0.0001 0.0079 -13.6483 -0.0023 24.3832
#
#
#
# Elastic Compliance Matrix: (Units=1/GPa)
#
#
# Indices 1 2 3 4 5 6 
#
# 1 0.015730 -0.004243 0.004199 -0.000005 0.004809 -0.000007
# 2 -0.004243 0.012537 -0.010089 0.000005 0.004026 0.000007
# 3 0.004199 -0.010089 0.054360 -0.000003 0.000151 -0.000020
# 4 -0.000005 0.000005 -0.000003 0.014955 -0.000007 0.008371
# 5 0.004809 0.004026 0.000151 -0.000007 0.046042 -0.000001
# 6 -0.000007 0.000007 -0.000020 0.008371 -0.000001 0.045697
#
#
# Mechanical properties :
#
#
# Convention : Reuss Voigt Hill
#
# Bulk Modulus (GPa) = 16.03536 32.71996 24.37766
# Shear Modulus (GPa) = 21.70393 35.11154 28.40773
#
# Velocity S-wave (km/s) = 3.10873 3.95403 3.55658
# Velocity P-wave (km/s) = 4.47502 5.95106 5.26502
#
# Compressibility (1/GPa) = 0.06236216
#
# Stress axis : x y z
#
# Youngs Moduli (GPa) = 63.57081 79.76588 18.39588
#
# Poissons Ratio (x) = 0.33843 -0.07725
# Poissons Ratio (y) = 0.26971 0.18559
# Poissons Ratio (z) = -0.26694 0.80474
#
# Static dielectric constant tensor:
#      x y z
#    x 1.846830 0.000000 0.012390 
#    y 0.000000 1.853080 0.000010 
#    z 0.012390 0.000010 1.810880 
# 
# From -- ./inp_files/74952.got.cif
#   From: 2010.05.17/outbox.cif.g08.bks.cpg/sg12_38_cif.got.tgz:74952.got - 2010.06.03 13:09:07.
