data_PCOD9211498
_publ_section_title
;
Structure prediction by ZEFSAII (Michael W. Deem and Ramdas Pophale) SiO2 
 PCOD9211498
Probable space group: C 2/M
;
_chemical_formula_sum "Si O2"
_cell_formula_units_Z 44
_cell_length_a 15.507920
_cell_length_b 15.299339
_cell_length_c 11.314085
_cell_angle_alpha 90.000000
_cell_angle_beta 48.328922
_cell_angle_gamma 90.000000
_cell_volume 2005.169433
_symmetry_space_group_name_H-M "C 2/M"
_symmetry_group_IT_number 12
_symmetry_cell_setting 'monoclinic'
loop_
_space_group_symop_operation_xyz
x,y,z
-x,y,-z
-x,-y,-z
x,-y,z
1/2+x,1/2+y,z
1/2-x,1/2+y,-z
1/2-x,1/2-y,-z
1/2+x,1/2-y,z
loop_
_atom_site_type_symbol
_atom_site_label
_atom_site_fract_x
_atom_site_fract_y
_atom_site_fract_z
Si Si1 0.365202 0.000000 0.155744
Si Si2 0.992722 0.197770 0.149966
Si Si3 0.353399 0.804022 0.561386
Si Si4 0.292122 0.000000 0.965446
Si Si5 0.791532 0.660376 0.378089
Si Si6 0.106681 0.322156 0.220877
Si Si7 0.531503 0.500000 0.109867
O O1 0.336387 0.082682 0.260542
O O2 0.500000 0.000000 0.000000
O O3 0.286138 0.000000 0.111932
O O4 0.095781 0.245752 0.132279
O O5 0.987659 0.095817 0.192704
O O6 0.885102 0.261572 0.275502
O O7 0.000000 0.199986 0.000000
O O8 0.325981 0.702314 0.561599
O O9 0.286362 0.859292 0.522217
O O10 0.483230 0.823207 0.400380
O O11 0.315884 0.816534 0.730875
O O12 0.362847 0.913213 0.866929
O O13 0.168565 0.000000 0.013912
O O14 0.500000 0.500000 0.000000
#
# Coordination Sequence:
#
# PCOD9211498 Si02
#       7
#     4   8   8   4   8   8   4
#     4  12  24  41  67 107 138 169 214 275 330 402
#     4  10  21  40  63  89 128 173 209 274 323 391
#     4   9  21  39  60  92 121 174 211 258 320 383
#     4  12  26  40  65 105 128 176 214 275 339 386
#     4  10  21  40  66  92 130 171 216 261 332 388
#     4  10  22  40  64  92 131 160 219 272 319 392
#     4  10  26  42  56  95 130 169 230 258 328 392
#
# _framework density 21.943283999999998
#
# number of rings (size 3 to 8) (size 9 to 14) (size 15 to 20)
#    0.000    1.818    0.000    3.818    7.636    2.909 
#    0.000    9.091    0.000    5.455    0.000    0.000 
#    0.000    0.000    0.000    0.000    0.000    0.000 
#
# Total GULP energy -122529.979574 kJ/mol
# GULP energy per Si atom -5569.544526 kJ/mol
# Density = 2.189334 g / cm^3
# Si number density = 21.943284 Si / 1000 Ang^3
#
#
#
# Elastic Constant Matrix: (Units=GPa)
#
#
# Indices 1 2 3 4 5 6 
#
# 1 91.0673 50.0157 41.7930 0.0000 27.6764 0.0000
# 2 50.0157 189.8139 63.2179 0.0000 14.9249 0.0000
# 3 41.7930 63.2179 82.0366 0.0000 29.4355 0.0000
# 4 0.0000 0.0000 0.0000 106.4809 0.0000 -16.0939
# 5 27.6764 14.9249 29.4355 0.0000 53.7703 0.0000
# 6 0.0000 0.0000 0.0000 -16.0939 0.0000 35.3736
#
#
#
# Elastic Compliance Matrix: (Units=1/GPa)
#
#
# Indices 1 2 3 4 5 6 
#
# 1 0.015831 -0.002276 -0.004497 0.000000 -0.005055 0.000000
# 2 -0.002276 0.007485 -0.005331 0.000000 0.002012 0.000000
# 3 -0.004497 -0.005331 0.021438 0.000000 -0.007941 0.000000
# 4 0.000000 0.000000 0.000000 0.010085 0.000000 0.004588
# 5 -0.005055 0.002012 -0.007941 0.000000 0.024988 0.000000
# 6 0.000000 0.000000 0.000000 0.004588 0.000000 0.030357
#
#
# Mechanical properties :
#
#
# Convention : Reuss Voigt Hill
#
# Bulk Modulus (GPa) = 48.67051 74.77458 61.72255
# Shear Modulus (GPa) = 35.40033 52.98434 44.19234
#
# Velocity S-wave (km/s) = 4.02090 4.91919 4.49256
# Velocity P-wave (km/s) = 6.61704 8.14953 7.42294
#
# Compressibility (1/GPa) = 0.02054632
#
# Stress axis : x y z
#
# Youngs Moduli (GPa) = 63.16661 133.59651 46.64611
#
# Poissons Ratio (x) = 0.30409 0.20978
# Poissons Ratio (y) = 0.14378 0.24865
# Poissons Ratio (z) = 0.28408 0.71214
#
# Static dielectric constant tensor:
#      x y z
#    x 37.205580 0.000000 -2.894760 
#    y 0.000000 1.780210 0.000000 
#    z -2.894760 0.000000 2.054510 
# 
# From -- ./inp_files/155848.got.cif
#   From: 2010.05.17/outbox.cif.g08.bks.cpg/sg12_78_cif.got.tgz:155848.got - 2010.06.03 13:09:07.
