data_PCOD9211650
_publ_section_title
;
Structure prediction by ZEFSAII (Michael W. Deem and Ramdas Pophale) SiO2 
 PCOD9211650
Probable space group: C 2/M
;
_chemical_formula_sum "Si O2"
_cell_formula_units_Z 56
_cell_length_a 20.145247
_cell_length_b 8.909416
_cell_length_c 19.753269
_cell_angle_alpha 90.000000
_cell_angle_beta 52.797345
_cell_angle_gamma 90.000000
_cell_volume 2823.889046
_symmetry_space_group_name_H-M "C 2/M"
_symmetry_group_IT_number 12
_symmetry_cell_setting 'monoclinic'
loop_
_space_group_symop_operation_xyz
x,y,z
-x,y,-z
-x,-y,-z
x,-y,z
1/2+x,1/2+y,z
1/2-x,1/2+y,-z
1/2-x,1/2-y,-z
1/2+x,1/2-y,z
loop_
_atom_site_type_symbol
_atom_site_label
_atom_site_fract_x
_atom_site_fract_y
_atom_site_fract_z
Si Si1 0.088778 0.677855 0.751919
Si Si2 0.290839 0.320799 0.782315
Si Si3 0.482025 0.322350 0.702154
Si Si4 0.809440 0.680289 0.020446
Si Si5 0.935642 0.322297 0.477847
Si Si6 0.511600 0.322860 0.072884
Si Si7 0.239010 0.679128 0.345569
O O1 0.092128 0.500000 0.752674
O O2 0.019517 0.733425 0.741990
O O3 0.178307 0.743972 0.676899
O O4 0.062429 0.744759 0.840529
O O5 0.284910 0.500000 0.773006
O O6 0.385025 0.288197 0.748531
O O7 0.228862 0.283510 0.881983
O O8 0.273042 0.234800 0.723987
O O9 0.489713 0.500000 0.709663
O O10 0.533460 0.273434 0.604325
O O11 0.811749 0.500000 0.012098
O O12 0.750000 0.750000 0.000000
O O13 0.901373 0.748710 0.959019
O O14 0.936910 0.500000 0.459270
O O15 0.843845 0.282671 0.561032
O O16 0.000000 0.301170 0.500000
O O17 0.512652 0.500000 0.087553
O O18 0.500000 0.302951 0.000000
O O19 0.248545 0.500000 0.340253
#
# Coordination Sequence:
#
# PCOD9211650 Si02
#       7
#     8   8   8   8   8   8   8
#     4  12  26  43  64  91 127 166 208 257 313 374
#     4  10  22  39  61  91 124 159 204 256 308 367
#     4  11  23  40  65  94 128 167 209 258 312 369
#     4  11  23  39  61  90 125 165 208 259 314 370
#     4  10  21  40  64  94 127 163 208 256 308 370
#     4  11  24  43  66  92 125 164 209 259 313 375
#     4  11  23  40  65  92 124 162 205 255 307 368
#
# _framework density 19.830807
#
# number of rings (size 3 to 8) (size 9 to 14) (size 15 to 20)
#    0.000    1.143    1.429    4.714    0.000    8.286 
#    0.000    0.000    0.000    0.000    0.000    0.000 
#    0.000    0.000    0.000    0.000    0.000    0.000 
#
# Total GULP energy -156707.170709 kJ/mol
# GULP energy per Si atom -5596.684668 kJ/mol
# Density = 1.978567 g / cm^3
# Si number density = 19.830807 Si / 1000 Ang^3
#
#
#
# Elastic Constant Matrix: (Units=GPa)
#
#
# Indices 1 2 3 4 5 6 
#
# 1 48.6780 24.1982 0.2116 0.0000 -16.7722 0.0000
# 2 24.1982 58.3482 23.8525 -0.0001 -8.1450 0.0001
# 3 0.2116 23.8525 72.9666 0.0000 -17.6273 0.0000
# 4 0.0000 -0.0001 0.0000 33.7778 0.0000 1.9406
# 5 -16.7722 -8.1450 -17.6273 0.0000 31.9225 0.0000
# 6 0.0000 0.0001 0.0000 1.9406 0.0000 34.6495
#
#
#
# Elastic Compliance Matrix: (Units=1/GPa)
#
#
# Indices 1 2 3 4 5 6 
#
# 1 0.035279 -0.015899 0.009915 0.000000 0.019954 0.000000
# 2 -0.015899 0.027028 -0.010548 0.000000 -0.007282 0.000000
# 3 0.009915 -0.010548 0.020462 0.000000 0.013817 0.000000
# 4 0.000000 0.000000 0.000000 0.029701 0.000000 -0.001663
# 5 0.019954 -0.007282 0.013817 0.000000 0.047582 0.000000
# 6 0.000000 0.000000 0.000000 -0.001663 0.000000 0.028954
#
#
# Mechanical properties :
#
#
# Convention : Reuss Voigt Hill
#
# Bulk Modulus (GPa) = 20.11844 30.72416 25.42130
# Shear Modulus (GPa) = 20.95236 28.85199 24.90218
#
# Velocity S-wave (km/s) = 3.25400 3.81846 3.54748
# Velocity P-wave (km/s) = 4.92799 5.91335 5.44301
#
# Compressibility (1/GPa) = 0.04970565
#
# Stress axis : x y z
#
# Youngs Moduli (GPa) = 28.34564 36.99916 48.87030
#
# Poissons Ratio (x) = 0.58824 -0.48457
# Poissons Ratio (y) = 0.45066 0.51550
# Poissons Ratio (z) = -0.28106 0.39028
#
# Static dielectric constant tensor:
#      x y z
#    x 1.681380 0.000000 -0.002400 
#    y 0.000000 1.658730 0.000000 
#    z -0.002400 0.000000 1.680510 
# 
# From -- ./inp_files/319730.got.cif
#   From: 2010.05.17/outbox.cif.g08.bks.cpg/sg12_160_cif.got.tgz:319730.got - 2010.06.03 13:09:07.
