data_PCOD9211396
_publ_section_title
;
Structure prediction by ZEFSAII (Michael W. Deem and Ramdas Pophale) SiO2 
 PCOD9211396
Probable space group: C 2/M
;
_chemical_formula_sum "Si O2"
_cell_formula_units_Z 56
_cell_length_a 20.804508
_cell_length_b 8.573390
_cell_length_c 17.939510
_cell_angle_alpha 90.000000
_cell_angle_beta 71.832310
_cell_angle_gamma 90.000000
_cell_volume 3040.268075
_symmetry_space_group_name_H-M "C 2/M"
_symmetry_group_IT_number 12
_symmetry_cell_setting 'monoclinic'
loop_
_space_group_symop_operation_xyz
x,y,z
-x,y,-z
-x,-y,-z
x,-y,z
1/2+x,1/2+y,z
1/2-x,1/2+y,-z
1/2-x,1/2-y,-z
1/2+x,1/2-y,z
loop_
_atom_site_type_symbol
_atom_site_label
_atom_site_fract_x
_atom_site_fract_y
_atom_site_fract_z
Si Si1 0.073951 0.816492 0.238413
Si Si2 0.942315 0.688769 0.916027
Si Si3 0.836645 0.683469 0.662131
Si Si4 0.688048 0.811727 0.741991
Si Si5 0.571275 0.815460 0.665532
Si Si6 0.905514 0.689223 0.092056
Si Si7 0.924919 0.185161 0.497629
O O1 0.084475 0.763819 0.149569
O O2 0.122314 0.727952 0.278313
O O3 0.996760 0.774430 0.287416
O O4 0.084968 0.000000 0.242942
O O5 0.939599 0.500000 0.910675
O O6 0.021384 0.732271 0.899852
O O7 0.904829 0.737104 0.005909
O O8 0.841912 0.500000 0.646712
O O9 0.759328 0.734169 0.699870
O O10 0.871838 0.771788 0.580656
O O11 0.632866 0.776337 0.698189
O O12 0.654565 0.759650 0.832366
O O13 0.696646 0.000000 0.740931
O O14 0.588405 0.773865 0.574449
O O15 0.557633 0.000000 0.678425
O O16 0.905102 0.500000 0.092128
O O17 0.000000 0.227035 0.500000
O O18 0.924148 0.000000 0.483840
#
# Coordination Sequence:
#
# PCOD9211396 Si02
#       7
#     8   8   8   8   8   8   8
#     4  12  23  37  58  88 122 157 198 247 297 347
#     4   9  16  32  59  90 118 152 200 244 290 349
#     4  12  26  42  62  86 117 159 202 244 295 355
#     4  10  21  40  62  89 123 158 195 241 299 352
#     4  11  22  38  65  92 118 156 199 242 290 353
#     4   8  15  31  59  89 119 155 194 241 294 348
#     4  11  23  40  63  91 121 153 193 245 299 347
#
# _framework density 18.419429000000001
#
# number of rings (size 3 to 8) (size 9 to 14) (size 15 to 20)
#    0.000    1.571    2.857    4.286    0.000    2.286 
#    0.000    2.857    0.000    0.000    0.000    0.000 
#    0.000    0.000    0.000    0.000    0.000    0.000 
#
# Total GULP energy -156441.619779 kJ/mol
# GULP energy per Si atom -5587.200706 kJ/mol
# Density = 1.837751 g / cm^3
# Si number density = 18.419429 Si / 1000 Ang^3
#
#
#
# Elastic Constant Matrix: (Units=GPa)
#
#
# Indices 1 2 3 4 5 6 
#
# 1 63.5475 7.9088 24.8818 0.0000 -8.2629 0.0000
# 2 7.9088 17.5521 -6.3762 0.0000 -3.3323 0.0000
# 3 24.8818 -6.3762 108.1236 0.0000 -2.6681 0.0000
# 4 0.0000 0.0000 0.0000 4.7380 0.0000 -10.1884
# 5 -8.2629 -3.3323 -2.6681 0.0000 30.2448 0.0000
# 6 0.0000 0.0000 0.0000 -10.1884 0.0000 17.2569
#
#
#
# Elastic Compliance Matrix: (Units=1/GPa)
#
#
# Indices 1 2 3 4 5 6 
#
# 1 0.019386 -0.009815 -0.004947 0.000000 0.003779 0.000000
# 2 -0.009815 0.064590 0.006191 0.000001 0.004981 0.000000
# 3 -0.004947 0.006191 0.010759 0.000000 0.000280 0.000000
# 4 0.000000 0.000001 0.000000 -0.782907 0.000000 -0.462227
# 5 0.003779 0.004981 0.000280 0.000000 0.034669 0.000000
# 6 0.000000 0.000000 0.000000 -0.462227 0.000000 -0.214950
#
#
# Mechanical properties :
#
#
# Convention : Reuss Voigt Hill
#
# Bulk Modulus (GPa) = 12.88774 26.89467 19.89120
# Shear Modulus (GPa) = -6.05733 21.30185 7.62226
#
# Velocity S-wave (km/s) = -1.81540 3.40441 2.03645
# Velocity P-wave (km/s) = 1.61795 5.48510 4.04376
#
# Compressibility (1/GPa) = 0.07759314
#
# Stress axis : x y z
#
# Youngs Moduli (GPa) = 51.58372 15.48222 92.94540
#
# Poissons Ratio (x) = 0.15196 0.45978
# Poissons Ratio (y) = 0.50628 -0.57538
# Poissons Ratio (z) = 0.25517 -0.09584
#
# Static dielectric constant tensor:
#      x y z
#    x 1.598680 0.000000 0.001470 
#    y 0.000000 1.620220 0.000000 
#    z 0.001470 0.000000 1.637680 
# 
# From -- ./inp_files/275216.got.cif
#   From: 2010.05.17/outbox.cif.g08.bks.cpg/sg12_138_cif.got.tgz:275216.got - 2010.06.03 13:09:07.
