data_PCOD9211612
_publ_section_title
;
Structure prediction by ZEFSAII (Michael W. Deem and Ramdas Pophale) SiO2 
 PCOD9211612
Probable space group: C 2/M
;
_chemical_formula_sum "Si O2"
_cell_formula_units_Z 48
_cell_length_a 19.319910
_cell_length_b 8.479536
_cell_length_c 30.296332
_cell_angle_alpha 90.000000
_cell_angle_beta 150.689356
_cell_angle_gamma 90.000000
_cell_volume 2429.737575
_symmetry_space_group_name_H-M "C 2/M"
_symmetry_group_IT_number 12
_symmetry_cell_setting 'monoclinic'
loop_
_space_group_symop_operation_xyz
x,y,z
-x,y,-z
-x,-y,-z
x,-y,z
1/2+x,1/2+y,z
1/2-x,1/2+y,-z
1/2-x,1/2-y,-z
1/2+x,1/2-y,z
loop_
_atom_site_type_symbol
_atom_site_label
_atom_site_fract_x
_atom_site_fract_y
_atom_site_fract_z
Si Si1 0.951526 0.308947 0.247771
Si Si2 0.365651 0.185917 0.734736
Si Si3 0.558552 0.187246 0.579848
Si Si4 0.910408 0.812354 0.585875
Si Si5 0.366027 0.314318 0.949757
Si Si6 0.097506 0.817184 0.926379
O O1 0.950701 0.500000 0.245886
O O2 0.062481 0.258821 0.271330
O O3 0.001966 0.254515 0.323779
O O4 0.792105 0.252248 0.147547
O O5 0.224491 0.275614 0.670033
O O6 0.481445 0.215843 0.836745
O O7 0.334302 0.000000 0.713369
O O8 0.500000 0.244787 0.500000
O O9 0.481935 0.262968 0.579369
O O10 0.534969 0.000000 0.569563
O O11 0.750000 0.750000 0.500000
O O12 0.908020 0.000000 0.587370
O O13 0.357967 0.500000 0.931927
O O14 0.500000 0.239041 0.000000
O O15 0.407013 0.309789 0.023580
O O16 0.083487 0.000000 0.904880
O O17 0.250000 0.750000 0.000000
#
# Coordination Sequence:
#
# PCOD9211612 Si02
#       6
#     8   8   8   8   8   8
#     4  10  21  40  64  91 128 171 213 258 315 377
#     4  11  23  40  63  94 130 168 211 262 320 376
#     4  11  25  45  69  97 125 161 210 260 314 378
#     4  12  26  44  67  96 129 165 206 256 316 376
#     4   9  19  36  59  88 122 165 212 257 311 371
#     4  11  21  37  61  90 123 168 216 264 317 373
#
# _framework density 19.755219
#
# number of rings (size 3 to 8) (size 9 to 14) (size 15 to 20)
#    0.000    1.333    1.667    4.000    2.333    5.333 
#    0.000    0.000    0.000    2.500    0.000    0.000 
#    0.000    0.000    0.000    0.000    0.000    0.000 
#
# Total GULP energy -134081.164167 kJ/mol
# GULP energy per Si atom -5586.715174 kJ/mol
# Density = 1.971026 g / cm^3
# Si number density = 19.755219 Si / 1000 Ang^3
#
#
#
# Elastic Constant Matrix: (Units=GPa)
#
#
# Indices 1 2 3 4 5 6 
#
# 1 131.0137 22.7282 59.0435 0.0000 20.3761 -0.0001
# 2 22.7282 26.7729 -9.6566 0.0000 -1.1624 0.0000
# 3 59.0435 -9.6566 100.7356 0.0000 -2.1858 0.0000
# 4 0.0000 0.0000 0.0000 28.6349 0.0000 0.4104
# 5 20.3761 -1.1624 -2.1858 0.0000 31.3740 0.0000
# 6 -0.0001 0.0000 0.0000 0.4104 0.0000 23.1774
#
#
#
# Elastic Compliance Matrix: (Units=1/GPa)
#
#
# Indices 1 2 3 4 5 6 
#
# 1 0.020807 -0.023671 -0.014799 0.000000 -0.015422 0.000000
# 2 -0.023671 0.065709 0.020591 0.000000 0.019243 0.000000
# 3 -0.014799 0.020591 0.020832 0.000000 0.011826 0.000000
# 4 0.000000 0.000000 0.000000 0.034931 0.000000 -0.000618
# 5 -0.015422 0.019243 0.011826 0.000000 0.043426 0.000000
# 6 0.000000 0.000000 0.000000 -0.000618 0.000000 0.043156
#
#
# Mechanical properties :
#
#
# Convention : Reuss Voigt Hill
#
# Bulk Modulus (GPa) = 13.96893 44.75029 29.35961
# Shear Modulus (GPa) = 17.33197 29.06439 23.19818
#
# Velocity S-wave (km/s) = 2.96520 3.83982 3.43050
# Velocity P-wave (km/s) = 4.33700 6.50849 5.53037
#
# Compressibility (1/GPa) = 0.07158747
#
# Stress axis : x y z
#
# Youngs Moduli (GPa) = 48.05985 15.21872 48.00361
#
# Poissons Ratio (x) = 0.36025 0.71043
# Poissons Ratio (y) = 1.13764 -0.98843
# Poissons Ratio (z) = 0.71126 -0.31337
#
# Static dielectric constant tensor:
#      x y z
#    x 1.709600 0.000000 0.023520 
#    y 0.000000 1.607180 0.000000 
#    z 0.023520 0.000000 1.679050 
# 
# From -- ./inp_files/295890.got.cif
#   From: 2010.05.17/outbox.cif.g08.bks.cpg/sg12_148_cif.got.tgz:295890.got - 2010.06.03 13:09:07.
