data_PCOD9211956
_publ_section_title
;
Structure prediction by ZEFSAII (Michael W. Deem and Ramdas Pophale) SiO2 
 PCOD9211956
Probable space group: C 2/M
;
_chemical_formula_sum "Si O2"
_cell_formula_units_Z 48
_cell_length_a 14.369300
_cell_length_b 9.664785
_cell_length_c 25.370315
_cell_angle_alpha 90.000000
_cell_angle_beta 36.241380
_cell_angle_gamma 90.000000
_cell_volume 2082.953188
_symmetry_space_group_name_H-M "C 2/M"
_symmetry_group_IT_number 12
_symmetry_cell_setting 'monoclinic'
loop_
_space_group_symop_operation_xyz
x,y,z
-x,y,-z
-x,-y,-z
x,-y,z
1/2+x,1/2+y,z
1/2-x,1/2+y,-z
1/2-x,1/2-y,-z
1/2+x,1/2-y,z
loop_
_atom_site_type_symbol
_atom_site_label
_atom_site_fract_x
_atom_site_fract_y
_atom_site_fract_z
Si Si1 0.777439 0.661253 0.570652
Si Si2 0.650459 0.844403 0.714033
Si Si3 0.910419 0.848219 0.984428
Si Si4 0.162231 0.840499 0.145977
Si Si5 0.282473 0.755554 0.204525
Si Si6 0.542764 0.846957 0.613252
O O1 0.752981 0.500000 0.596144
O O2 0.774769 0.762420 0.621415
O O3 0.633986 0.723332 0.600921
O O4 0.924999 0.669162 0.463719
O O5 0.492429 0.753563 0.782116
O O6 0.701750 0.848159 0.751144
O O7 0.622933 0.000000 0.707896
O O8 0.050024 0.818796 0.880011
O O9 0.837848 0.000000 0.008900
O O10 0.782571 0.728249 0.049391
O O11 0.000000 0.853135 0.000000
O O12 0.240805 0.828601 0.168327
O O13 0.129149 0.000000 0.149517
O O14 0.136131 0.657906 0.286024
O O15 0.610297 0.000000 0.594534
#
# Coordination Sequence:
#
# PCOD9211956 Si02
#       6
#     8   8   8   8   8   8
#     4  10  22  40  64  97 132 170 217 267 324 386
#     4  12  26  43  66  97 133 174 220 269 327 389
#     4   9  20  39  65  96 129 169 216 264 322 389
#     4  11  24  44  68  94 130 172 217 273 329 385
#     4  11  24  41  68  99 131 170 221 267 321 386
#     4  10  21  40  68  96 129 173 216 265 324 387
#
# _framework density 23.044207
#
# number of rings (size 3 to 8) (size 9 to 14) (size 15 to 20)
#    0.000    1.500    1.667    2.500    0.000   10.333 
#    0.000    2.500    0.000    0.000    0.000    0.000 
#    0.000    0.000    0.000    0.000    0.000    0.000 
#
# Total GULP energy -134169.933555 kJ/mol
# GULP energy per Si atom -5590.413898 kJ/mol
# Density = 2.299176 g / cm^3
# Si number density = 23.044207 Si / 1000 Ang^3
#
#
#
# Elastic Constant Matrix: (Units=GPa)
#
#
# Indices 1 2 3 4 5 6 
#
# 1 72.7649 36.8425 22.0669 0.0000 11.6298 0.0000
# 2 36.8425 202.4051 62.4772 0.0000 0.9299 0.0000
# 3 22.0669 62.4772 149.0881 0.0000 18.0657 0.0000
# 4 0.0000 0.0000 0.0000 16.7188 0.0000 -6.5431
# 5 11.6298 0.9299 18.0657 0.0000 35.5435 0.0000
# 6 0.0000 0.0000 0.0000 -6.5431 0.0000 7.3050
#
#
#
# Elastic Compliance Matrix: (Units=1/GPa)
#
#
# Indices 1 2 3 4 5 6 
#
# 1 0.016088 -0.002702 -0.000660 0.000000 -0.004858 0.000000
# 2 -0.002702 0.006171 -0.002423 0.000000 0.001954 0.000000
# 3 -0.000660 -0.002423 0.008298 0.000000 -0.003938 0.000000
# 4 0.000000 0.000000 0.000000 0.092098 0.000000 0.082493
# 5 -0.004858 0.001954 -0.003938 0.000000 0.031674 0.000000
# 6 0.000000 0.000000 0.000000 0.082493 0.000000 0.210783
#
#
# Mechanical properties :
#
#
# Convention : Reuss Voigt Hill
#
# Bulk Modulus (GPa) = 52.67046 74.11461 63.39254
# Shear Modulus (GPa) = 13.05444 32.10490 22.57967
#
# Velocity S-wave (km/s) = 2.38270 3.73659 3.13364
# Velocity P-wave (km/s) = 5.52047 7.13077 6.37666
#
# Compressibility (1/GPa) = 0.01898597
#
# Stress axis : x y z
#
# Youngs Moduli (GPa) = 62.15938 162.03739 120.51442
#
# Poissons Ratio (x) = 0.43787 0.07956
# Poissons Ratio (y) = 0.16797 0.29201
# Poissons Ratio (z) = 0.04103 0.39263
#
# Static dielectric constant tensor:
#      x y z
#    x 1.903090 0.000000 0.026760 
#    y 0.000000 1.849220 0.000000 
#    z 0.026760 0.000000 1.860770 
# 
# From -- ./inp_files/360223.got.cif
#   From: 2010.05.17/outbox.cif.g08.bks.cpg/sg12_181_cif.got.tgz:360223.got - 2010.06.03 13:09:07.
