data_PCOD9211411
_publ_section_title
;
Structure prediction by ZEFSAII (Michael W. Deem and Ramdas Pophale) SiO2 
 PCOD9211411
Probable space group: C 2/M
;
_chemical_formula_sum "Si O2"
_cell_formula_units_Z 46
_cell_length_a 26.028914
_cell_length_b 14.773613
_cell_length_c 8.886970
_cell_angle_alpha 90.000000
_cell_angle_beta 137.783387
_cell_angle_gamma 90.000000
_cell_volume 2296.275415
_symmetry_space_group_name_H-M "C 2/M"
_symmetry_group_IT_number 12
_symmetry_cell_setting 'monoclinic'
loop_
_space_group_symop_operation_xyz
x,y,z
-x,y,-z
-x,-y,-z
x,-y,z
1/2+x,1/2+y,z
1/2-x,1/2+y,-z
1/2-x,1/2-y,-z
1/2+x,1/2-y,z
loop_
_atom_site_type_symbol
_atom_site_label
_atom_site_fract_x
_atom_site_fract_y
_atom_site_fract_z
Si Si1 0.857199 0.900560 0.548625
Si Si2 0.000000 0.184571 0.000000
Si Si3 0.000000 0.500000 0.000000
Si Si4 0.913862 0.651739 0.964492
Si Si5 0.301548 0.222388 0.251537
Si Si6 0.759877 0.351972 0.463569
Si Si7 0.908859 0.605210 0.288770
O O1 0.943727 0.876093 0.779447
O O2 0.827332 0.815730 0.386870
O O3 0.806480 0.902478 0.591625
O O4 0.850522 0.000000 0.462694
O O5 0.054084 0.251511 0.018707
O O6 0.980155 0.579126 0.081212
O O7 0.844006 0.620098 0.705071
O O8 0.887081 0.646247 0.078141
O O9 0.260207 0.158453 0.285360
O O10 0.371713 0.164943 0.338358
O O11 0.250000 0.250000 0.000000
O O12 0.750000 0.250000 0.500000
O O13 0.884277 0.500000 0.242002
O O14 0.000000 0.608664 0.500000
#
# Coordination Sequence:
#
# PCOD9211411 Si02
#       7
#     8   4   2   8   8   8   8
#     4  11  24  43  68  95 126 172 228 277 317 379
#     4  11  21  39  71  90 124 170 220 272 316 370
#     4  10  24  32  64 100 126 166 208 260 330 384
#     4  11  21  39  64  92 132 164 213 266 324 390
#     4  11  24  42  64  93 134 171 208 264 332 392
#     4  10  21  40  62  91 118 165 215 264 321 379
#     4  11  24  38  60  96 133 167 206 258 331 399
#
# _framework density 20.032440999999999
#
# number of rings (size 3 to 8) (size 9 to 14) (size 15 to 20)
#    0.000    1.217    4.348    3.391    3.652    2.783 
#    0.000    0.000    0.000    1.565    0.000    0.000 
#    0.000    0.000    0.000    0.000    0.000    0.000 
#
# Total GULP energy -128179.387793 kJ/mol
# GULP energy per Si atom -5573.016861 kJ/mol
# Density = 1.998685 g / cm^3
# Si number density = 20.032441 Si / 1000 Ang^3
#
#
#
# Elastic Constant Matrix: (Units=GPa)
#
#
# Indices 1 2 3 4 5 6 
#
# 1 105.5691 38.1424 22.1681 0.0000 -15.5089 0.0000
# 2 38.1424 108.2217 7.2218 0.0000 -4.7989 0.0000
# 3 22.1681 7.2218 96.6110 0.0000 -7.5363 0.0000
# 4 0.0000 0.0000 0.0000 7.9865 0.0000 -7.1187
# 5 -15.5089 -4.7989 -7.5363 0.0000 32.0208 0.0000
# 6 0.0000 0.0000 0.0000 -7.1187 0.0000 8.0277
#
#
#
# Elastic Compliance Matrix: (Units=1/GPa)
#
#
# Indices 1 2 3 4 5 6 
#
# 1 0.012013 -0.003884 -0.002096 0.000000 0.004743 0.000000
# 2 -0.003884 0.010592 0.000078 0.000000 -0.000275 0.000000
# 3 -0.002096 0.000078 0.010949 0.000000 0.001573 0.000000
# 4 0.000000 0.000000 0.000000 0.597448 0.000000 0.529800
# 5 0.004743 -0.000275 0.001573 0.000000 0.033856 0.000000
# 6 0.000000 0.000000 0.000000 0.529800 0.000000 0.594380
#
#
# Mechanical properties :
#
#
# Convention : Reuss Voigt Hill
#
# Bulk Modulus (GPa) = 45.97857 49.49629 47.73743
# Shear Modulus (GPa) = 3.91148 25.79830 14.85489
#
# Velocity S-wave (km/s) = 1.39886 3.59252 2.72608
# Velocity P-wave (km/s) = 5.06073 6.47843 5.81296
#
# Compressibility (1/GPa) = 0.02174926
#
# Stress axis : x y z
#
# Youngs Moduli (GPa) = 83.24648 94.41404 91.33548
#
# Poissons Ratio (x) = 0.36667 0.19145
# Poissons Ratio (y) = 0.32330 -0.00712
# Poissons Ratio (z) = 0.17449 -0.00735
#
# Static dielectric constant tensor:
#      x y z
#    x 1.786920 0.000000 0.021880 
#    y 0.000000 1.709350 0.000000 
#    z 0.021880 0.000000 1.910370 
# 
# From -- ./inp_files/105074.got.cif
#   From: 2010.05.17/outbox.cif.g08.bks.cpg/sg12_53_cif.got.tgz:105074.got - 2010.06.03 13:09:07.
