data_PCOD9211103
_publ_section_title
;
Structure prediction by ZEFSAII (Michael W. Deem and Ramdas Pophale) SiO2 
 PCOD9211103
Probable space group: C 2/M
;
_chemical_formula_sum "Si O2"
_cell_formula_units_Z 56
_cell_length_a 11.414542
_cell_length_b 21.123024
_cell_length_c 12.057464
_cell_angle_alpha 90.000000
_cell_angle_beta 114.056316
_cell_angle_gamma 90.000000
_cell_volume 2654.669219
_symmetry_space_group_name_H-M "C 2/M"
_symmetry_group_IT_number 12
_symmetry_cell_setting 'monoclinic'
loop_
_space_group_symop_operation_xyz
x,y,z
-x,y,-z
-x,-y,-z
x,-y,z
1/2+x,1/2+y,z
1/2-x,1/2+y,-z
1/2-x,1/2-y,-z
1/2+x,1/2-y,z
loop_
_atom_site_type_symbol
_atom_site_label
_atom_site_fract_x
_atom_site_fract_y
_atom_site_fract_z
Si Si1 0.339011 0.312295 0.056898
Si Si2 0.346059 0.929809 0.435945
Si Si3 0.886908 0.778723 0.766788
Si Si4 0.250384 0.650519 0.265536
Si Si5 0.481068 0.925964 0.861770
Si Si6 0.814111 0.180384 0.517959
Si Si7 0.710305 0.127112 0.813888
O O1 0.486518 0.291749 0.114800
O O2 0.304833 0.337692 0.165207
O O3 0.250000 0.250000 0.000000
O O4 0.308150 0.366928 0.954958
O O5 0.500000 0.923112 0.500000
O O6 0.284775 0.874010 0.483322
O O7 0.294200 0.922071 0.289615
O O8 0.313580 0.000000 0.464445
O O9 0.855709 0.705253 0.752409
O O10 0.911062 0.811718 0.657357
O O11 0.755990 0.809648 0.765995
O O12 0.346888 0.661425 0.405245
O O13 0.165330 0.587316 0.229491
O O14 0.576197 0.883794 0.823883
O O15 0.513928 0.000000 0.859381
O O16 0.500000 0.910365 0.000000
O O17 0.750000 0.250000 0.500000
#
# Coordination Sequence:
#
# PCOD9211103 Si02
#       7
#     8   8   8   8   8   8   8
#     4  12  23  36  60  92 129 172 210 254 323 395
#     4  10  21  39  66  94 124 167 215 264 322 386
#     4  10  23  39  61  91 129 162 211 263 318 383
#     4  11  22  38  62  91 127 168 208 258 323 382
#     4  11  23  38  59  91 129 164 205 256 312 378
#     4   9  21  41  57  91 129 162 212 270 321 374
#     4  11  21  37  60  90 125 159 207 258 311 374
#
# _framework density 21.094906999999999
#
# number of rings (size 3 to 8) (size 9 to 14) (size 15 to 20)
#    0.000    1.429    2.857    2.571    0.000    3.429 
#    0.000    0.000    0.000   20.571    0.000    5.000 
#    0.000    0.000    0.000    0.000    0.000    0.000 
#
# Total GULP energy -155993.546187 kJ/mol
# GULP energy per Si atom -5571.198078 kJ/mol
# Density = 2.104689 g / cm^3
# Si number density = 21.094907 Si / 1000 Ang^3
#
#
#
# Elastic Constant Matrix: (Units=GPa)
#
#
# Indices 1 2 3 4 5 6 
#
# 1 59.3403 36.2365 21.8921 0.0000 -9.3113 0.0000
# 2 36.2365 94.0567 17.8191 0.0000 2.2183 0.0000
# 3 21.8921 17.8191 140.9508 0.0000 -17.8457 0.0000
# 4 0.0000 0.0000 0.0000 16.6353 0.0000 -3.0010
# 5 -9.3113 2.2183 -17.8457 0.0000 40.2384 0.0000
# 6 0.0000 0.0000 0.0000 -3.0010 0.0000 12.9043
#
#
#
# Elastic Compliance Matrix: (Units=1/GPa)
#
#
# Indices 1 2 3 4 5 6 
#
# 1 0.023826 -0.008938 -0.001918 0.000000 0.005156 0.000000
# 2 -0.008938 0.014308 -0.000829 0.000000 -0.003225 0.000000
# 3 -0.001918 -0.000829 0.007890 0.000000 0.003101 0.000000
# 4 0.000000 0.000000 0.000000 0.062746 0.000000 0.014592
# 5 0.005156 -0.003225 0.003101 0.000000 0.027598 0.000000
# 6 0.000000 0.000000 0.000000 0.014592 0.000000 0.080887
#
#
# Mechanical properties :
#
#
# Convention : Reuss Voigt Hill
#
# Bulk Modulus (GPa) = 44.13944 49.58257 46.86100
# Shear Modulus (GPa) = 20.14695 28.51559 24.33127
#
# Velocity S-wave (km/s) = 3.09376 3.68064 3.39989
# Velocity P-wave (km/s) = 5.80788 6.45123 6.13799
#
# Compressibility (1/GPa) = 0.02265548
#
# Stress axis : x y z
#
# Youngs Moduli (GPa) = 41.97041 69.88948 126.74281
#
# Poissons Ratio (x) = 0.62464 0.24309
# Poissons Ratio (y) = 0.37511 0.10507
# Poissons Ratio (z) = 0.08050 0.05794
#
# Static dielectric constant tensor:
#      x y z
#    x 1.726870 0.000000 -0.049130 
#    y 0.000000 1.730060 0.000000 
#    z -0.049130 0.000000 1.859880 
# 
# From -- ./inp_files/135476.got.cif
#   From: 2010.05.17/outbox.cif.g08.bks.cpg/sg12_68_cif.got.tgz:135476.got - 2010.06.03 13:09:07.
