data_PCOD9211994
_publ_section_title
;
Structure prediction by ZEFSAII (Michael W. Deem and Ramdas Pophale) SiO2 
 PCOD9211994
Probable space group: C 2/M
;
_chemical_formula_sum "Si O2"
_cell_formula_units_Z 60
_cell_length_a 20.385082
_cell_length_b 7.649487
_cell_length_c 17.488073
_cell_angle_alpha 90.000000
_cell_angle_beta 78.986958
_cell_angle_gamma 90.000000
_cell_volume 2676.788638
_symmetry_space_group_name_H-M "C 2/M"
_symmetry_group_IT_number 12
_symmetry_cell_setting 'monoclinic'
loop_
_space_group_symop_operation_xyz
x,y,z
-x,y,-z
-x,-y,-z
x,-y,z
1/2+x,1/2+y,z
1/2-x,1/2+y,-z
1/2-x,1/2-y,-z
1/2+x,1/2-y,z
loop_
_atom_site_type_symbol
_atom_site_label
_atom_site_fract_x
_atom_site_fract_y
_atom_site_fract_z
Si Si1 0.729310 0.713712 0.630575
Si Si2 0.925817 0.500000 0.969632
Si Si3 0.703699 0.812041 0.942055
Si Si4 0.489524 0.702962 0.134977
Si Si5 0.119134 0.710986 0.408752
Si Si6 0.158437 0.802377 0.797929
Si Si7 0.471415 0.797489 0.709085
Si Si8 0.596615 0.293257 0.581174
O O1 0.733010 0.500000 0.628028
O O2 0.804653 0.776166 0.602807
O O3 0.700691 0.772770 0.719110
O O4 0.672111 0.767945 0.583528
O O5 0.869896 0.350741 0.008542
O O6 0.024171 0.345264 0.073700
O O7 0.512547 0.500000 0.892389
O O8 0.698651 0.697189 0.867906
O O9 0.750000 0.750000 0.000000
O O10 0.230043 0.500000 0.908782
O O11 0.414270 0.773186 0.168192
O O12 0.524895 0.705085 0.210224
O O13 0.119421 0.500000 0.404033
O O14 0.082819 0.758286 0.495629
O O15 0.081223 0.773578 0.341297
O O16 0.142981 0.000000 0.776814
O O17 0.542734 0.788961 0.650042
O O18 0.455044 0.000000 0.729133
O O19 0.593742 0.500000 0.595744
#
# Coordination Sequence:
#
# PCOD9211994 Si02
#       8
#     8   4   8   8   8   8   8   8
#     4   9  19  38  61  88 122 169 216 273 337 399
#     4  10  26  45  72 100 141 171 222 279 336 394
#     4  10  24  44  67  97 134 176 217 267 333 408
#     4  11  23  42  69 103 136 177 226 281 341 396
#     4  10  22  38  57  88 127 168 222 276 338 399
#     4  10  21  40  69  98 131 175 223 278 338 409
#     4  11  22  38  61  91 129 174 227 280 337 399
#     4  11  21  37  61  87 123 172 220 277 339 398
#
# _framework density 22.414919999999999
#
# number of rings (size 3 to 8) (size 9 to 14) (size 15 to 20)
#    0.400    1.333    2.000    2.000    0.933    5.867 
#    2.400    2.667    0.000    0.000    0.000    0.000 
#    0.000    0.000    0.000    0.000    0.000    0.000 
#
# Total GULP energy -167054.715563 kJ/mol
# GULP energy per Si atom -5568.490519 kJ/mol
# Density = 2.236390 g / cm^3
# Si number density = 22.414920 Si / 1000 Ang^3
#
#
#
# Elastic Constant Matrix: (Units=GPa)
#
#
# Indices 1 2 3 4 5 6 
#
# 1 73.3002 4.1881 29.4831 0.0000 0.7060 0.0000
# 2 4.1881 77.9470 8.1270 0.0000 -6.0992 0.0000
# 3 29.4831 8.1270 119.6533 0.0000 8.9081 0.0000
# 4 0.0000 0.0000 0.0000 18.4626 0.0000 -1.8816
# 5 0.7060 -6.0992 8.9081 0.0000 33.9649 0.0000
# 6 0.0000 0.0000 0.0000 -1.8816 0.0000 19.9730
#
#
#
# Elastic Compliance Matrix: (Units=1/GPa)
#
#
# Indices 1 2 3 4 5 6 
#
# 1 0.015169 -0.000376 -0.003757 0.000000 0.000603 0.000000
# 2 -0.000376 0.013159 -0.000997 0.000000 0.002632 0.000000
# 3 -0.003757 -0.000997 0.009545 0.000000 -0.002604 0.000000
# 4 0.000000 0.000000 0.000000 0.054689 0.000000 0.005152
# 5 0.000603 0.002632 -0.002604 0.000000 0.030585 0.000000
# 6 0.000000 0.000000 0.000000 0.005152 0.000000 0.050553
#
#
# Mechanical properties :
#
#
# Convention : Reuss Voigt Hill
#
# Bulk Modulus (GPa) = 36.21498 39.38854 37.80176
# Shear Modulus (GPa) = 25.88451 29.75359 27.81905
#
# Velocity S-wave (km/s) = 3.40191 3.64730 3.52674
# Velocity P-wave (km/s) = 5.62337 5.94539 5.78662
#
# Compressibility (1/GPa) = 0.02761288
#
# Stress axis : x y z
#
# Youngs Moduli (GPa) = 65.92208 75.99145 104.76844
#
# Poissons Ratio (x) = 0.02859 0.39363
# Poissons Ratio (y) = 0.02480 0.10446
# Poissons Ratio (z) = 0.24768 0.07577
#
# Static dielectric constant tensor:
#      x y z
#    x 1.829560 0.000000 0.050340 
#    y 0.000000 1.844650 0.000000 
#    z 0.050340 0.000000 1.869480 
# 
# From -- ./inp_files/319274.got.cif
#   From: 2010.05.17/outbox.cif.g08.bks.cpg/sg12_160_cif.got.tgz:319274.got - 2010.06.03 13:09:07.
