data_PCOD9211774
_publ_section_title
;
Structure prediction by ZEFSAII (Michael W. Deem and Ramdas Pophale) SiO2 
 PCOD9211774
Probable space group: C 2/M
;
_chemical_formula_sum "Si O2"
_cell_formula_units_Z 60
_cell_length_a 9.070660
_cell_length_b 28.574697
_cell_length_c 12.470562
_cell_angle_alpha 90.000000
_cell_angle_beta 63.588975
_cell_angle_gamma 90.000000
_cell_volume 2894.898431
_symmetry_space_group_name_H-M "C 2/M"
_symmetry_group_IT_number 12
_symmetry_cell_setting 'monoclinic'
loop_
_space_group_symop_operation_xyz
x,y,z
-x,y,-z
-x,-y,-z
x,-y,z
1/2+x,1/2+y,z
1/2-x,1/2+y,-z
1/2-x,1/2-y,-z
1/2+x,1/2-y,z
loop_
_atom_site_type_symbol
_atom_site_label
_atom_site_fract_x
_atom_site_fract_y
_atom_site_fract_z
Si Si1 0.567652 0.551273 0.716642
Si Si2 0.500000 0.420218 0.500000
Si Si3 0.669420 0.130213 0.673492
Si Si4 0.820605 0.311234 0.108143
Si Si5 0.090341 0.274765 0.601419
Si Si6 0.951930 0.445888 0.637659
Si Si7 0.716643 0.278223 0.751291
Si Si8 0.010655 0.137972 0.119642
O O1 0.501272 0.500000 0.768175
O O2 0.560752 0.554176 0.588959
O O3 0.754681 0.554834 0.698897
O O4 0.479459 0.594627 0.801760
O O5 0.652374 0.389986 0.409846
O O6 0.672367 0.156529 0.786476
O O7 0.634997 0.171414 0.600841
O O8 0.537432 0.089195 0.693704
O O9 0.783168 0.257339 0.149494
O O10 0.674227 0.331232 0.083078
O O11 0.000000 0.314150 0.000000
O O12 0.250000 0.250000 0.500000
O O13 0.087609 0.246285 0.713916
O O14 0.896680 0.276060 0.635990
O O15 0.006019 0.500000 0.638045
O O16 0.000000 0.432741 0.500000
O O17 0.647653 0.329318 0.801010
O O18 0.000000 0.122373 0.000000
#
# Coordination Sequence:
#
# PCOD9211774 Si02
#       8
#     8   4   8   8   8   8   8   8
#     4  11  25  45  71 103 138 175 227 286 349 417
#     4  12  23  42  72 100 140 182 222 278 349 416
#     4  11  25  41  66  95 137 178 222 283 342 411
#     4  11  26  46  66  98 137 180 238 289 333 404
#     4  11  25  39  62  98 141 180 216 271 342 417
#     4  10  21  40  65  96 130 168 217 272 332 409
#     4  11  24  44  67  96 136 181 232 277 338 403
#     4  12  27  45  73  99 135 184 237 288 348 405
#
# _framework density 20.726115
#
# number of rings (size 3 to 8) (size 9 to 14) (size 15 to 20)
#    0.000    0.933    4.000    1.800   11.200    2.933 
#    0.000    0.000    0.000    0.800    0.000    0.000 
#    0.000    0.000    0.000    0.000    0.000    0.000 
#
# Total GULP energy -167402.662216 kJ/mol
# GULP energy per Si atom -5580.088741 kJ/mol
# Density = 2.067894 g / cm^3
# Si number density = 20.726115 Si / 1000 Ang^3
#
#
#
# Elastic Constant Matrix: (Units=GPa)
#
#
# Indices 1 2 3 4 5 6 
#
# 1 117.5071 32.0336 33.3400 0.0000 -13.3854 0.0000
# 2 32.0336 123.7526 39.7302 0.0000 0.0157 0.0000
# 3 33.3400 39.7302 66.2990 0.0000 -8.6216 0.0000
# 4 0.0000 0.0000 0.0000 7.0553 0.0000 -3.9701
# 5 -13.3854 0.0157 -8.6216 0.0000 38.1120 0.0000
# 6 0.0000 0.0000 0.0000 -3.9701 0.0000 15.7008
#
#
#
# Elastic Compliance Matrix: (Units=1/GPa)
#
#
# Indices 1 2 3 4 5 6 
#
# 1 0.010337 -0.001388 -0.004012 0.000000 0.002723 0.000000
# 2 -0.001388 0.010265 -0.005685 0.000000 -0.001778 0.000000
# 3 -0.004012 -0.005685 0.020941 0.000000 0.003330 0.000000
# 4 0.000000 0.000000 0.000000 0.165251 0.000000 0.041785
# 5 0.002723 -0.001778 0.003330 0.000000 0.027949 0.000000
# 6 0.000000 0.000000 0.000000 0.041785 0.000000 0.074257
#
#
# Mechanical properties :
#
#
# Convention : Reuss Voigt Hill
#
# Bulk Modulus (GPa) = 51.61869 57.52961 54.57415
# Shear Modulus (GPa) = 14.80922 25.67061 20.23992
#
# Velocity S-wave (km/s) = 2.67595 3.52314 3.12836
# Velocity P-wave (km/s) = 5.87425 6.66088 6.27990
#
# Compressibility (1/GPa) = 0.01937283
#
# Stress axis : x y z
#
# Youngs Moduli (GPa) = 96.73847 97.41666 47.75427
#
# Poissons Ratio (x) = 0.13521 0.19161
# Poissons Ratio (y) = 0.13427 0.27147
# Poissons Ratio (z) = 0.38815 0.55378
#
# Static dielectric constant tensor:
#      x y z
#    x 1.777480 0.000000 0.056940 
#    y 0.000000 1.733840 0.000000 
#    z 0.056940 0.000000 1.778720 
# 
# From -- ./inp_files/125717.got.cif
#   From: 2010.05.17/outbox.cif.g08.bks.cpg/sg12_63_cif.got.tgz:125717.got - 2010.06.03 13:09:07.
