data_PCOD9211285
_publ_section_title
;
Structure prediction by ZEFSAII (Michael W. Deem and Ramdas Pophale) SiO2 
 PCOD9211285
Probable space group: C 2/M
;
_chemical_formula_sum "Si O2"
_cell_formula_units_Z 36
_cell_length_a 26.123367
_cell_length_b 10.397135
_cell_length_c 7.236350
_cell_angle_alpha 90.000000
_cell_angle_beta 121.346320
_cell_angle_gamma 90.000000
_cell_volume 1678.571615
_symmetry_space_group_name_H-M "C 2/M"
_symmetry_group_IT_number 12
_symmetry_cell_setting 'monoclinic'
loop_
_space_group_symop_operation_xyz
x,y,z
-x,y,-z
-x,-y,-z
x,-y,z
1/2+x,1/2+y,z
1/2-x,1/2+y,-z
1/2-x,1/2-y,-z
1/2+x,1/2-y,z
loop_
_atom_site_type_symbol
_atom_site_label
_atom_site_fract_x
_atom_site_fract_y
_atom_site_fract_z
Si Si1 0.928206 0.776934 0.843003
Si Si2 0.429316 0.000000 0.836217
Si Si3 0.930224 0.500000 0.395362
Si Si4 0.134625 0.268686 0.653825
Si Si5 0.776925 0.500000 0.224804
Si Si6 0.838997 0.000000 0.734978
Si Si7 0.308503 0.500000 0.241130
O O1 0.908847 0.635344 0.873698
O O2 0.911801 0.773628 0.594049
O O3 0.883862 0.880471 0.844695
O O4 0.000000 0.797684 0.000000
O O5 0.420408 0.000000 0.599254
O O6 0.500000 0.000000 0.000000
O O7 0.900635 0.366392 0.278030
O O8 0.000000 0.500000 0.500000
O O9 0.186622 0.366348 0.676371
O O10 0.161690 0.133917 0.770892
O O11 0.717960 0.500000 0.239626
O O12 0.756931 0.500000 0.972442
O O13 0.814818 0.000000 0.475980
#
# Coordination Sequence:
#
# PCOD9211285 Si02
#       7
#     8   4   4   8   4   4   4
#     4   9  17  34  59  84 117 151 189 239 300 346
#     4   8  15  30  51  76 111 144 178 230 274 335
#     4   9  17  34  57  79 112 154 186 229 294 346
#     4   9  20  38  61  81 123 156 188 255 291 345
#     4  11  22  41  61  87 119 155 207 242 294 345
#     4  10  22  37  62  88 115 159 196 237 294 362
#     4  10  21  40  60  85 121 154 196 247 300 331
#
# _framework density 21.446807
#
# number of rings (size 3 to 8) (size 9 to 14) (size 15 to 20)
#    0.000    2.667    0.000    1.667    0.000    3.556 
#   12.000    1.667   24.444    0.000    0.000    0.000 
#    0.000    0.000    0.000    0.000    0.000    0.000 
#
# Total GULP energy -100212.680177 kJ/mol
# GULP energy per Si atom -5567.371121 kJ/mol
# Density = 2.139799 g / cm^3
# Si number density = 21.446807 Si / 1000 Ang^3
#
#
#
# Elastic Constant Matrix: (Units=GPa)
#
#
# Indices 1 2 3 4 5 6 
#
# 1 107.5691 63.7188 27.8751 0.0000 21.0817 0.0000
# 2 63.7188 192.4672 22.7643 0.0000 24.8972 0.0000
# 3 27.8751 22.7643 120.6477 0.0000 13.7812 0.0000
# 4 0.0000 0.0000 0.0000 37.7067 0.0000 5.5004
# 5 21.0817 24.8972 13.7812 0.0000 36.3120 0.0000
# 6 0.0000 0.0000 0.0000 5.5004 0.0000 -3.7496
#
#
#
# Elastic Compliance Matrix: (Units=1/GPa)
#
#
# Indices 1 2 3 4 5 6 
#
# 1 0.012623 -0.003410 -0.001780 0.000000 -0.004315 0.000000
# 2 -0.003410 0.006673 -0.000183 0.000000 -0.002526 0.000000
# 3 -0.001780 -0.000183 0.008992 0.000000 -0.002254 0.000000
# 4 0.000000 0.000000 0.000000 0.021846 0.000000 0.032046
# 5 -0.004315 -0.002526 -0.002254 0.000000 0.032632 0.000000
# 6 0.000000 0.000000 0.000000 0.032046 0.000000 -0.219684
#
#
# Mechanical properties :
#
#
# Convention : Reuss Voigt Hill
#
# Bulk Modulus (GPa) = 57.00643 72.15559 64.58101
# Shear Modulus (GPa) = -41.55425 34.47552 -3.53936
#
# Velocity S-wave (km/s) = -4.40654 4.01370 -1.28603
# Velocity P-wave (km/s) = 0.86488 7.42945 5.28889
#
# Compressibility (1/GPa) = 0.01754188
#
# Stress axis : x y z
#
# Youngs Moduli (GPa) = 79.21734 149.85454 111.21227
#
# Poissons Ratio (x) = 0.51107 0.19798
# Poissons Ratio (y) = 0.27017 0.02031
# Poissons Ratio (z) = 0.14103 0.02736
#
# Static dielectric constant tensor:
#      x y z
#    x 1.747750 0.000000 -0.006540 
#    y 0.000000 1.866940 0.000000 
#    z -0.006540 0.000000 1.935270 
# 
# From -- ./inp_files/94732.got.cif
#   From: 2010.05.17/outbox.cif.g08.bks.cpg/sg12_48_cif.got.tgz:94732.got - 2010.06.03 13:09:07.
