data_PCOD9211872
_publ_section_title
;
Structure prediction by ZEFSAII (Michael W. Deem and Ramdas Pophale) SiO2 
 PCOD9211872
Probable space group: C 2/M
;
_chemical_formula_sum "Si O2"
_cell_formula_units_Z 42
_cell_length_a 14.246938
_cell_length_b 16.624016
_cell_length_c 14.817689
_cell_angle_alpha 90.000000
_cell_angle_beta 151.301665
_cell_angle_gamma 90.000000
_cell_volume 1685.226624
_symmetry_space_group_name_H-M "C 2/M"
_symmetry_group_IT_number 12
_symmetry_cell_setting 'monoclinic'
loop_
_space_group_symop_operation_xyz
x,y,z
-x,y,-z
-x,-y,-z
x,-y,z
1/2+x,1/2+y,z
1/2-x,1/2+y,-z
1/2-x,1/2-y,-z
1/2+x,1/2-y,z
loop_
_atom_site_type_symbol
_atom_site_label
_atom_site_fract_x
_atom_site_fract_y
_atom_site_fract_z
Si Si1 0.825053 0.000000 0.244275
Si Si2 0.907924 0.757282 0.053840
Si Si3 0.500000 0.872935 0.000000
Si Si4 0.233775 0.000000 0.542486
Si Si5 0.000000 0.000000 0.000000
Si Si6 0.171114 0.500000 0.919647
Si Si7 0.251288 0.834869 0.443103
Si Si8 0.684483 0.125128 0.767343
O O1 0.697687 0.924137 0.165454
O O2 0.813571 0.000000 0.123703
O O3 0.052576 0.000000 0.455874
O O4 0.072994 0.817331 0.226833
O O5 0.750000 0.750000 0.000000
O O6 0.997660 0.675846 0.092050
O O7 0.789055 0.790716 0.868681
O O8 0.220562 0.916312 0.474919
O O9 0.449366 0.000000 0.766533
O O10 0.830011 0.068727 0.834486
O O11 0.195597 0.575793 0.873093
O O12 0.250000 0.750000 0.500000
O O13 0.455595 0.854669 0.563829
#
# Coordination Sequence:
#
# PCOD9211872 Si02
#       8
#     4   8   4   4   2   4   8   8
#     4  11  23  45  64  93 149 179 227 306 362 441
#     4  12  23  44  72  98 143 187 240 303 368 439
#     4  11  27  42  65 107 138 190 248 287 371 450
#     4  10  22  40  70 108 136 183 245 285 383 438
#     4  10  22  44  66  94 152 186 238 304 374 446
#     4   9  19  38  71  99 129 179 231 294 355 434
#     4  11  23  41  73 110 137 188 252 306 365 448
#     4  10  21  40  67 102 134 184 241 293 365 440
#
# _framework density 24.922461999999999
#
# number of rings (size 3 to 8) (size 9 to 14) (size 15 to 20)
#    0.000    1.333    1.905    4.571    2.667    0.762 
#    0.000    8.571    0.000    0.000    0.000    0.000 
#    0.000    0.000    0.000    0.000    0.000    0.000 
#
# Total GULP energy -117148.907068 kJ/mol
# GULP energy per Si atom -5578.519384 kJ/mol
# Density = 2.486574 g / cm^3
# Si number density = 24.922462 Si / 1000 Ang^3
#
#
#
# Elastic Constant Matrix: (Units=GPa)
#
#
# Indices 1 2 3 4 5 6 
#
# 1 103.8191 45.7106 22.6153 -0.0003 22.0958 -0.0001
# 2 45.7106 135.7983 39.1455 -0.0001 20.7287 -0.0002
# 3 22.6153 39.1455 160.7482 -0.0018 42.6494 -0.0015
# 4 -0.0003 -0.0001 -0.0018 28.9450 -0.0013 -14.6482
# 5 22.0958 20.7287 42.6494 -0.0013 31.8076 -0.0009
# 6 -0.0001 -0.0002 -0.0015 -14.6482 -0.0009 25.1440
#
#
#
# Elastic Compliance Matrix: (Units=1/GPa)
#
#
# Indices 1 2 3 4 5 6 
#
# 1 0.012580 -0.003334 0.001217 0.000000 -0.008198 0.000000
# 2 -0.003334 0.009145 -0.001228 0.000000 -0.001997 0.000000
# 3 0.001217 -0.001228 0.009873 0.000000 -0.013284 0.000000
# 4 0.000000 0.000000 0.000000 0.048992 0.000003 0.028542
# 5 -0.008198 -0.001997 -0.013284 0.000003 0.056247 0.000003
# 6 0.000000 0.000000 0.000000 0.028542 0.000003 0.056398
#
#
# Mechanical properties :
#
#
# Convention : Reuss Voigt Hill
#
# Bulk Modulus (GPa) = 40.14761 68.36762 54.25761
# Shear Modulus (GPa) = 24.01218 36.70561 30.35889
#
# Velocity S-wave (km/s) = 3.10736 3.84186 3.49396
# Velocity P-wave (km/s) = 5.38685 6.86815 6.17210
#
# Compressibility (1/GPa) = 0.02490808
#
# Stress axis : x y z
#
# Youngs Moduli (GPa) = 79.49339 109.35041 101.28513
#
# Poissons Ratio (x) = 0.36456 -0.12328
# Poissons Ratio (y) = 0.26502 0.12439
# Poissons Ratio (z) = -0.09676 0.13429
#
# Static dielectric constant tensor:
#      x y z
#    x 2.176250 0.000000 0.009600 
#    y 0.000000 1.970980 0.000000 
#    z 0.009600 0.000000 1.916750 
# 
# From -- ./inp_files/317451.got.cif
#   From: 2010.05.17/outbox.cif.g08.bks.cpg/sg12_159_cif.got.tgz:317451.got - 2010.06.03 13:09:07.
