data_PCOD9211817
_publ_section_title
;
Structure prediction by ZEFSAII (Michael W. Deem and Ramdas Pophale) SiO2 
 PCOD9211817
Probable space group: C 2/M
;
_chemical_formula_sum "Si O2"
_cell_formula_units_Z 64
_cell_length_a 19.594993
_cell_length_b 8.088900
_cell_length_c 29.701065
_cell_angle_alpha 90.000000
_cell_angle_beta 145.447436
_cell_angle_gamma 90.000000
_cell_volume 2670.015458
_symmetry_space_group_name_H-M "C 2/M"
_symmetry_group_IT_number 12
_symmetry_cell_setting 'monoclinic'
loop_
_space_group_symop_operation_xyz
x,y,z
-x,y,-z
-x,-y,-z
x,-y,z
1/2+x,1/2+y,z
1/2-x,1/2+y,-z
1/2-x,1/2-y,-z
1/2+x,1/2-y,z
loop_
_atom_site_type_symbol
_atom_site_label
_atom_site_fract_x
_atom_site_fract_y
_atom_site_fract_z
Si Si1 0.293850 0.199658 0.954824
Si Si2 0.204505 0.693496 0.374596
Si Si3 0.435920 0.195960 0.122111
Si Si4 0.129824 0.810104 0.614395
Si Si5 0.803971 0.693634 0.862292
Si Si6 0.028538 0.298295 0.705207
Si Si7 0.322826 0.684275 0.777406
Si Si8 0.094154 0.692581 0.456283
O O1 0.159598 0.265252 0.891109
O O2 0.341697 0.253816 0.932322
O O3 0.289086 0.000000 0.951920
O O4 0.371737 0.249073 0.040401
O O5 0.189279 0.500000 0.355230
O O6 0.286437 0.765846 0.379267
O O7 0.071252 0.756753 0.312548
O O8 0.287174 0.710710 0.463959
O O9 0.562419 0.286580 0.191524
O O10 0.458506 0.000000 0.132914
O O11 0.216944 0.804521 0.704965
O O12 0.007601 0.720362 0.560880
O O13 0.101238 0.000000 0.588048
O O14 0.833456 0.500000 0.874503
O O15 0.659501 0.720807 0.781856
O O16 0.856714 0.782655 0.847443
O O17 0.040882 0.500000 0.713588
O O18 0.968721 0.256413 0.624484
O O19 0.274414 0.500000 0.746911
O O20 0.124999 0.500000 0.469900
#
# Coordination Sequence:
#
# PCOD9211817 Si02
#       8
#     8   8   8   8   8   8   8   8
#     4   9  21  41  64  95 128 159 200 248 296 352
#     4  10  23  40  60  86 117 155 203 249 296 362
#     4  10  21  40  66  93 126 164 200 243 298 357
#     4  11  23  40  61  87 118 158 203 249 303 359
#     4  11  23  40  63  90 121 161 204 248 301 359
#     4  10  22  40  59  86 121 158 199 247 300 354
#     4  12  25  41  61  88 124 161 204 255 302 357
#     4  11  22  38  61  87 119 157 198 249 304 358
#
# _framework density 23.969899999999999
#
# number of rings (size 3 to 8) (size 9 to 14) (size 15 to 20)
#    0.000    1.500    1.250    3.375    1.750    5.500 
#    0.000    2.500    0.000    0.000    0.000    0.000 
#    0.000    0.000    0.000    0.000    0.000    0.000 
#
# Total GULP energy -179077.920202 kJ/mol
# GULP energy per Si atom -5596.185006 kJ/mol
# Density = 2.391534 g / cm^3
# Si number density = 23.969900 Si / 1000 Ang^3
#
#
#
# Elastic Constant Matrix: (Units=GPa)
#
#
# Indices 1 2 3 4 5 6 
#
# 1 91.9982 6.1486 -2.1416 -0.0001 1.2663 -0.0001
# 2 6.1486 28.4147 -0.4650 -0.0002 -0.9353 0.0001
# 3 -2.1416 -0.4650 42.1716 0.0000 0.8457 0.0000
# 4 -0.0001 -0.0002 0.0000 14.1631 0.0000 0.7155
# 5 1.2663 -0.9353 0.8457 0.0000 41.0235 0.0000
# 6 -0.0001 0.0001 0.0000 0.7155 0.0000 26.0394
#
#
#
# Elastic Compliance Matrix: (Units=1/GPa)
#
#
# Indices 1 2 3 4 5 6 
#
# 1 0.011048 -0.002395 0.000543 0.000000 -0.000407 0.000000
# 2 -0.002395 0.035745 0.000255 0.000000 0.000884 0.000000
# 3 0.000543 0.000255 0.023753 0.000000 -0.000501 0.000000
# 4 0.000000 0.000000 0.000000 0.070704 0.000000 -0.001943
# 5 -0.000407 0.000884 -0.000501 0.000000 0.024419 0.000000
# 6 0.000000 0.000000 0.000000 -0.001943 0.000000 0.038457
#
#
# Mechanical properties :
#
#
# Convention : Reuss Voigt Hill
#
# Bulk Modulus (GPa) = 14.84772 18.85209 16.84991
# Shear Modulus (GPa) = 21.76078 26.84803 24.30440
#
# Velocity S-wave (km/s) = 3.01630 3.35038 3.18772
# Velocity P-wave (km/s) = 4.28235 4.78003 4.53802
#
# Compressibility (1/GPa) = 0.06735039
#
# Stress axis : x y z
#
# Youngs Moduli (GPa) = 90.51339 27.97629 42.09987
#
# Poissons Ratio (x) = 0.06701 -0.02285
# Poissons Ratio (y) = 0.21680 -0.01072
# Poissons Ratio (z) = -0.04913 -0.00713
#
# Static dielectric constant tensor:
#      x y z
#    x 1.948990 0.000000 -0.055930 
#    y 0.000000 1.830530 0.000000 
#    z -0.055930 0.000000 1.921140 
# 
# From -- ./inp_files/378460.got.cif
#   From: 2010.05.17/outbox.cif.g08.bks.cpg/sg12_190_cif.got.tgz:378460.got - 2010.06.03 13:09:07.
