data_PCOD9211846
_publ_section_title
;
Structure prediction by ZEFSAII (Michael W. Deem and Ramdas Pophale) SiO2 
 PCOD9211846
Probable space group: C 2/M
;
_chemical_formula_sum "Si O2"
_cell_formula_units_Z 40
_cell_length_a 12.670764
_cell_length_b 24.996116
_cell_length_c 5.360798
_cell_angle_alpha 90.000000
_cell_angle_beta 99.864333
_cell_angle_gamma 90.000000
_cell_volume 1672.770281
_symmetry_space_group_name_H-M "C 2/M"
_symmetry_group_IT_number 12
_symmetry_cell_setting 'monoclinic'
loop_
_space_group_symop_operation_xyz
x,y,z
-x,y,-z
-x,-y,-z
x,-y,z
1/2+x,1/2+y,z
1/2-x,1/2+y,-z
1/2-x,1/2-y,-z
1/2+x,1/2-y,z
loop_
_atom_site_type_symbol
_atom_site_label
_atom_site_fract_x
_atom_site_fract_y
_atom_site_fract_z
Si Si1 0.888695 0.624153 0.054901
Si Si2 0.294598 0.813490 0.398179
Si Si3 0.609659 0.618351 0.480167
Si Si4 0.388204 0.246034 0.843284
Si Si5 0.670117 0.562472 0.985925
O O1 0.881754 0.684926 0.941674
O O2 0.789871 0.584384 0.981969
O O3 0.874260 0.640616 0.337346
O O4 0.000000 0.602027 0.000000
O O5 0.211110 0.842844 0.546395
O O6 0.367960 0.767305 0.542550
O O7 0.209901 0.787619 0.165076
O O8 0.500000 0.648734 0.500000
O O9 0.611525 0.574728 0.701411
O O10 0.622479 0.593983 0.207090
O O11 0.500000 0.266922 0.000000
O O12 0.668655 0.500000 0.041985
#
# Coordination Sequence:
#
# PCOD9211846 Si02
#       5
#     8   8   8   8   8
#     4  10  22  41  64  92 130 176 222 275 337 399
#     4  10  22  42  63  95 139 173 228 277 334 406
#     4  11  24  44  69  99 136 177 222 280 345 411
#     4  10  21  40  66  95 129 181 223 274 337 402
#     4  11  24  44  69  99 133 173 229 288 341 405
#
# _framework density 23.912431999999999
#
# number of rings (size 3 to 8) (size 9 to 14) (size 15 to 20)
#    0.000    1.600    2.000    1.800    0.000    9.200 
#   14.400    0.000    0.000    3.600    0.000    0.000 
#    0.000    0.000    0.000    0.000    0.000    0.000 
#
# Total GULP energy -111413.823548 kJ/mol
# GULP energy per Si atom -5570.691177 kJ/mol
# Density = 2.385801 g / cm^3
# Si number density = 23.912432 Si / 1000 Ang^3
#
#
#
# Elastic Constant Matrix: (Units=GPa)
#
#
# Indices 1 2 3 4 5 6 
#
# 1 192.6358 12.8379 66.8937 0.0000 -4.9227 0.0000
# 2 12.8379 64.1196 17.7517 0.0000 -2.7970 0.0000
# 3 66.8937 17.7517 88.5961 0.0000 5.6035 0.0000
# 4 0.0000 0.0000 0.0000 33.6351 0.0000 -0.6382
# 5 -4.9227 -2.7970 5.6035 0.0000 30.3058 0.0000
# 6 0.0000 0.0000 0.0000 -0.6382 0.0000 13.6716
#
#
#
# Elastic Compliance Matrix: (Units=1/GPa)
#
#
# Indices 1 2 3 4 5 6 
#
# 1 0.007180 0.000211 -0.005604 0.000000 0.002222 0.000000
# 2 0.000211 0.016659 -0.003639 0.000000 0.002245 0.000000
# 3 -0.005604 -0.003639 0.016519 0.000000 -0.004301 0.000000
# 4 0.000000 0.000000 0.000000 0.029757 0.000000 0.001389
# 5 0.002222 0.002245 -0.004301 0.000000 0.034360 0.000000
# 6 0.000000 0.000000 0.000000 0.001389 0.000000 0.073209
#
#
# Mechanical properties :
#
#
# Convention : Reuss Voigt Hill
#
# Bulk Modulus (GPa) = 44.85477 60.03534 52.44506
# Shear Modulus (GPa) = 24.60865 32.04705 28.32785
#
# Velocity S-wave (km/s) = 3.21146 3.66482 3.44561
# Velocity P-wave (km/s) = 5.70526 6.56268 6.14893
#
# Compressibility (1/GPa) = 0.02229417
#
# Stress axis : x y z
#
# Youngs Moduli (GPa) = 139.27909 60.02748 60.53475
#
# Poissons Ratio (x) = -0.01266 0.33923
# Poissons Ratio (y) = -0.02936 0.22029
# Poissons Ratio (z) = 0.78050 0.21844
#
# Static dielectric constant tensor:
#      x y z
#    x 1.948440 0.000000 -0.049890 
#    y 0.000000 1.876390 0.000000 
#    z -0.049890 0.000000 2.240290 
# 
# From -- ./inp_files/8197.got.cif
#   From: 2010.05.17/outbox.cif.g08.bks.cpg/sg12_5_cif.got.tgz:8197.got - 2010.06.03 13:09:07.
