data_PCOD9211639
_publ_section_title
;
Structure prediction by ZEFSAII (Michael W. Deem and Ramdas Pophale) SiO2 
 PCOD9211639
Probable space group: C 2/M
;
_chemical_formula_sum "Si O2"
_cell_formula_units_Z 36
_cell_length_a 8.804846
_cell_length_b 14.730356
_cell_length_c 19.314967
_cell_angle_alpha 90.000000
_cell_angle_beta 138.976885
_cell_angle_gamma 90.000000
_cell_volume 1644.270886
_symmetry_space_group_name_H-M "C 2/M"
_symmetry_group_IT_number 12
_symmetry_cell_setting 'monoclinic'
loop_
_space_group_symop_operation_xyz
x,y,z
-x,y,-z
-x,-y,-z
x,-y,z
1/2+x,1/2+y,z
1/2-x,1/2+y,-z
1/2-x,1/2-y,-z
1/2+x,1/2-y,z
loop_
_atom_site_type_symbol
_atom_site_label
_atom_site_fract_x
_atom_site_fract_y
_atom_site_fract_z
Si Si1 0.040115 0.178621 0.933082
Si Si2 0.221860 0.500000 0.396081
Si Si3 0.805674 0.194370 0.264221
Si Si4 0.774440 0.500000 0.973154
Si Si5 0.655945 0.000000 0.208780
Si Si6 0.227182 0.696848 0.395187
O O1 0.118606 0.089897 0.917584
O O2 0.820001 0.230837 0.825899
O O3 0.250000 0.250000 0.000000
O O4 0.000000 0.156500 0.000000
O O5 0.500000 0.500000 0.500000
O O6 0.167269 0.500000 0.295618
O O7 0.146818 0.598645 0.397435
O O8 0.689186 0.195168 0.299432
O O9 0.070147 0.221999 0.367321
O O10 0.774932 0.093029 0.224910
O O11 0.000000 0.500000 0.000000
O O12 0.897526 0.500000 0.090953
O O13 0.500000 0.707593 0.500000
#
# Coordination Sequence:
#
# PCOD9211639 Si02
#       6
#     8   4   8   4   4   8
#     4  12  25  43  65  97 131 175 221 266 321 392
#     4   8  18  37  62  87 119 160 206 255 317 375
#     4  11  23  39  65  90 127 166 214 257 323 385
#     4  12  27  44  67  93 136 172 219 275 328 386
#     4  10  22  39  62  87 130 169 205 257 332 374
#     4  10  21  40  64  93 124 163 210 266 320 383
#
# _framework density 21.894203000000001
#
# number of rings (size 3 to 8) (size 9 to 14) (size 15 to 20)
#    0.000    1.333    2.222    3.000    6.222    0.889 
#    0.000    1.667    0.000    0.000    0.000    0.000 
#    0.000    0.000    0.000    0.000    0.000    0.000 
#
# Total GULP energy -100536.259785 kJ/mol
# GULP energy per Si atom -5585.347766 kJ/mol
# Density = 2.184437 g / cm^3
# Si number density = 21.894203 Si / 1000 Ang^3
#
#
#
# Elastic Constant Matrix: (Units=GPa)
#
#
# Indices 1 2 3 4 5 6 
#
# 1 79.2811 36.7725 2.3321 0.0000 2.3756 0.0000
# 2 36.7725 179.2842 30.7678 0.0000 30.2095 0.0000
# 3 2.3321 30.7678 92.2191 -0.0001 7.4801 0.0000
# 4 0.0000 0.0000 -0.0001 32.1122 0.0000 2.9156
# 5 2.3756 30.2095 7.4801 0.0000 36.9745 0.0000
# 6 0.0000 0.0000 0.0000 2.9156 0.0000 12.5018
#
#
#
# Elastic Compliance Matrix: (Units=1/GPa)
#
#
# Indices 1 2 3 4 5 6 
#
# 1 0.014060 -0.003263 0.000600 0.000000 0.001642 0.000000
# 2 -0.003263 0.007519 -0.001977 0.000000 -0.005533 0.000000
# 3 0.000600 -0.001977 0.011550 0.000000 -0.000760 0.000000
# 4 0.000000 0.000000 0.000000 0.031814 0.000000 -0.007420
# 5 0.001642 -0.005533 -0.000760 0.000000 0.031615 0.000000
# 6 0.000000 0.000000 0.000000 -0.007420 0.000000 0.081719
#
#
# Mechanical properties :
#
#
# Convention : Reuss Voigt Hill
#
# Bulk Modulus (GPa) = 41.93271 54.50325 48.21798
# Shear Modulus (GPa) = 25.57446 35.04516 30.30981
#
# Velocity S-wave (km/s) = 3.42145 4.00516 3.72476
# Velocity P-wave (km/s) = 5.89935 6.80709 6.36941
#
# Compressibility (1/GPa) = 0.02384773
#
# Stress axis : x y z
#
# Youngs Moduli (GPa) = 71.12291 133.00002 86.58120
#
# Poissons Ratio (x) = 0.43404 -0.05196
# Poissons Ratio (y) = 0.23211 0.17119
# Poissons Ratio (z) = -0.04268 0.26297
#
# Static dielectric constant tensor:
#      x y z
#    x 1.786770 0.000000 -0.052050 
#    y 0.000000 1.843910 0.000000 
#    z -0.052050 0.000000 1.832260 
# 
# From -- ./inp_files/194027.got.cif
#   From: 2010.05.17/outbox.cif.g08.bks.cpg/sg12_98_cif.got.tgz:194027.got - 2010.06.03 13:09:07.
