data_PCOD9211167
_publ_section_title
;
Structure prediction by ZEFSAII (Michael W. Deem and Ramdas Pophale) SiO2 
 PCOD9211167
Probable space group: C 2/M
;
_chemical_formula_sum "Si O2"
_cell_formula_units_Z 56
_cell_length_a 29.916415
_cell_length_b 19.400221
_cell_length_c 5.211889
_cell_angle_alpha 90.000000
_cell_angle_beta 59.870853
_cell_angle_gamma 90.000000
_cell_volume 2616.226651
_symmetry_space_group_name_H-M "C 2/M"
_symmetry_group_IT_number 12
_symmetry_cell_setting 'monoclinic'
loop_
_space_group_symop_operation_xyz
x,y,z
-x,y,-z
-x,-y,-z
x,-y,z
1/2+x,1/2+y,z
1/2-x,1/2+y,-z
1/2-x,1/2-y,-z
1/2+x,1/2-y,z
loop_
_atom_site_type_symbol
_atom_site_label
_atom_site_fract_x
_atom_site_fract_y
_atom_site_fract_z
Si Si1 0.531593 0.396461 0.156432
Si Si2 0.053873 0.258902 0.228478
Si Si3 0.696266 0.627257 0.224052
Si Si4 0.661182 0.000000 0.637830
Si Si5 0.337961 0.770930 0.834128
Si Si6 0.137182 0.653797 0.747132
Si Si7 0.226889 0.500000 0.947760
Si Si8 0.648840 0.575574 0.854803
O O1 0.500000 0.415699 0.500000
O O2 0.539844 0.313770 0.142972
O O3 0.500000 0.416070 0.000000
O O4 0.588427 0.425915 0.983939
O O5 0.101840 0.246005 0.290234
O O6 0.000000 0.285428 0.500000
O O7 0.081474 0.310995 0.953971
O O8 0.698609 0.705846 0.118029
O O9 0.742139 0.571429 0.092293
O O10 0.673827 0.627418 0.577373
O O11 0.657954 0.594631 0.122665
O O12 0.632832 0.071997 0.769116
O O13 0.707286 0.000000 0.712948
O O14 0.681457 0.000000 0.288604
O O15 0.339486 0.820565 0.586300
O O16 0.328085 0.814739 0.120576
O O17 0.671496 0.500000 0.735930
#
# Coordination Sequence:
#
# PCOD9211167 Si02
#       8
#     8   8   8   4   8   8   4   8
#     4  11  23  34  55  88 128 174 220 262 310 368
#     4   9  21  35  65  96 127 165 218 254 301 385
#     4  12  22  42  63  99 125 166 226 272 324 376
#     4  12  26  50  69  95 131 167 202 278 342 416
#     4  10  21  39  67  95 131 172 209 269 313 376
#     4  10  23  42  67  96 131 172 209 255 342 385
#     4  12  26  44  72  96 124 172 226 264 332 402
#     4  12  22  37  58  84 131 177 219 271 318 368
#
# _framework density 21.404875000000001
#
# number of rings (size 3 to 8) (size 9 to 14) (size 15 to 20)
#    0.857    0.286    2.857    4.286    6.000    0.571 
#    0.000    4.643    0.000    0.857    0.000    0.000 
#    0.000    0.000    0.000    0.000    0.000    0.000 
#
# Total GULP energy -156348.612861 kJ/mol
# GULP energy per Si atom -5583.879031 kJ/mol
# Density = 2.135616 g / cm^3
# Si number density = 21.404875 Si / 1000 Ang^3
#
#
#
# Elastic Constant Matrix: (Units=GPa)
#
#
# Indices 1 2 3 4 5 6 
#
# 1 50.1052 13.2369 11.9338 0.0000 10.8690 0.0000
# 2 13.2369 107.7358 18.0598 0.0000 -1.9994 0.0000
# 3 11.9338 18.0598 61.5579 0.0000 9.1438 0.0000
# 4 0.0000 0.0000 0.0000 12.3126 0.0000 -12.5984
# 5 10.8690 -1.9994 9.1438 0.0000 35.1314 0.0000
# 6 0.0000 0.0000 0.0000 -12.5984 0.0000 28.7278
#
#
#
# Elastic Compliance Matrix: (Units=1/GPa)
#
#
# Indices 1 2 3 4 5 6 
#
# 1 0.022648 -0.002447 -0.002716 0.000000 -0.006439 0.000000
# 2 -0.002447 0.010089 -0.002791 0.000000 0.002058 0.000000
# 3 -0.002716 -0.002791 0.018192 0.000000 -0.004054 0.000000
# 4 0.000000 0.000000 0.000000 0.147327 0.000000 0.064609
# 5 -0.006439 0.002058 -0.004054 0.000000 0.031629 0.000000
# 6 0.000000 0.000000 0.000000 0.064609 0.000000 0.063143
#
#
# Mechanical properties :
#
#
# Convention : Reuss Voigt Hill
#
# Bulk Modulus (GPa) = 28.55446 33.98444 31.26945
# Shear Modulus (GPa) = 15.59526 26.97890 21.28708
#
# Velocity S-wave (km/s) = 2.70216 3.55408 3.15699
# Velocity P-wave (km/s) = 4.80673 5.72306 5.28479
#
# Compressibility (1/GPa) = 0.03502080
#
# Stress axis : x y z
#
# Youngs Moduli (GPa) = 44.15363 99.12129 54.96794
#
# Poissons Ratio (x) = 0.24253 0.14931
# Poissons Ratio (y) = 0.10804 0.15342
# Poissons Ratio (z) = 0.11994 0.27666
#
# Static dielectric constant tensor:
#      x y z
#    x 1.785930 0.000000 -0.005700 
#    y 0.000000 1.797100 0.000000 
#    z -0.005700 0.000000 1.758280 
# 
# From -- ./inp_files/31999.got.cif
#   From: 2010.05.17/outbox.cif.g08.bks.cpg/sg12_16_cif.got.tgz:31999.got - 2010.06.03 13:09:07.
