data_PCOD9211779
_publ_section_title
;
Structure prediction by ZEFSAII (Michael W. Deem and Ramdas Pophale) SiO2 
 PCOD9211779
Probable space group: C 2/M
;
_chemical_formula_sum "Si O2"
_cell_formula_units_Z 64
_cell_length_a 15.601225
_cell_length_b 9.176311
_cell_length_c 27.338527
_cell_angle_alpha 90.000000
_cell_angle_beta 48.076475
_cell_angle_gamma 90.000000
_cell_volume 2912.035273
_symmetry_space_group_name_H-M "C 2/M"
_symmetry_group_IT_number 12
_symmetry_cell_setting 'monoclinic'
loop_
_space_group_symop_operation_xyz
x,y,z
-x,y,-z
-x,-y,-z
x,-y,z
1/2+x,1/2+y,z
1/2-x,1/2+y,-z
1/2-x,1/2-y,-z
1/2+x,1/2-y,z
loop_
_atom_site_type_symbol
_atom_site_label
_atom_site_fract_x
_atom_site_fract_y
_atom_site_fract_z
Si Si1 0.223367 0.669197 0.617391
Si Si2 0.853868 0.166794 0.265147
Si Si3 0.643892 0.670155 0.064045
Si Si4 0.460660 0.832790 0.071078
Si Si5 0.266337 0.761848 0.789299
Si Si6 0.520378 0.173447 0.343594
Si Si7 0.411714 0.160884 0.824206
Si Si8 0.911377 0.667829 0.488852
O O1 0.245890 0.500000 0.620893
O O2 0.234691 0.773808 0.660399
O O3 0.307657 0.726786 0.543108
O O4 0.093075 0.679859 0.646752
O O5 0.807212 0.172005 0.227484
O O6 0.959580 0.278849 0.230055
O O7 0.887288 0.000000 0.263273
O O8 0.652797 0.500000 0.055689
O O9 0.531065 0.728185 0.079924
O O10 0.643983 0.720286 0.119637
O O11 0.750000 0.750000 0.000000
O O12 0.328465 0.822224 0.141093
O O13 0.497760 0.000000 0.063391
O O14 0.500000 0.794923 0.000000
O O15 0.380615 0.717721 0.714116
O O16 0.336931 0.847892 0.803909
O O17 0.477893 0.208430 0.414132
O O18 0.559705 0.000000 0.328763
O O19 0.414697 0.000000 0.845910
O O20 0.870154 0.500000 0.498513
O O21 0.000000 0.671163 0.500000
#
# Coordination Sequence:
#
# PCOD9211779 Si02
#       8
#     8   8   8   8   8   8   8   8
#     4  11  23  42  67  97 139 186 235 295 360 424
#     4  12  25  43  70 103 141 187 242 294 348 426
#     4  12  26  46  73 104 143 189 238 294 361 435
#     4  11  26  48  74 106 146 188 241 305 365 428
#     4  12  25  44  75 106 144 189 242 292 361 432
#     4  10  21  40  65  97 137 185 233 288 358 431
#     4  12  25  45  72 103 143 186 233 295 363 425
#     4  10  21  40  67  96 131 179 236 294 355 424
#
# _framework density 21.977757
#
# number of rings (size 3 to 8) (size 9 to 14) (size 15 to 20)
#    0.000    0.750    2.500    5.250    0.000    5.000 
#    0.000    1.250    0.000    0.000    0.000    0.000 
#    0.000    0.000    0.000    0.000    0.000    0.000 
#
# Total GULP energy -178533.704089 kJ/mol
# GULP energy per Si atom -5579.178253 kJ/mol
# Density = 2.192773 g / cm^3
# Si number density = 21.977757 Si / 1000 Ang^3
#
#
#
# Elastic Constant Matrix: (Units=GPa)
#
#
# Indices 1 2 3 4 5 6 
#
# 1 97.1022 39.5786 40.1549 0.0000 13.5674 0.0000
# 2 39.5786 99.0216 27.7022 0.0000 -6.2820 0.0000
# 3 40.1549 27.7022 151.9291 0.0000 5.6271 0.0000
# 4 0.0000 0.0000 0.0000 18.5605 0.0000 0.9621
# 5 13.5674 -6.2820 5.6271 0.0000 44.1794 0.0000
# 6 0.0000 0.0000 0.0000 0.9621 0.0000 -1.8010
#
#
#
# Elastic Compliance Matrix: (Units=1/GPa)
#
#
# Indices 1 2 3 4 5 6 
#
# 1 0.014182 -0.005239 -0.002616 0.000000 -0.004767 0.000000
# 2 -0.005239 0.012716 -0.001066 0.000000 0.003553 0.000000
# 3 -0.002616 -0.001066 0.007479 0.000000 -0.000301 0.000000
# 4 0.000000 0.000000 0.000000 0.052426 0.000000 0.028008
# 5 -0.004767 0.003553 -0.000301 0.000000 0.024642 0.000000
# 6 0.000000 0.000000 0.000000 0.028008 0.000000 -0.540297
#
#
# Mechanical properties :
#
#
# Convention : Reuss Voigt Hill
#
# Bulk Modulus (GPa) = 60.47699 62.54715 61.51207
# Shear Modulus (GPa) = -12.33051 28.22892 7.94920
#
# Velocity S-wave (km/s) = -2.37121 3.58778 1.90389
# Velocity P-wave (km/s) = 4.48110 6.75899 5.73429
#
# Compressibility (1/GPa) = 0.01653521
#
# Stress axis : x y z
#
# Youngs Moduli (GPa) = 70.51292 78.63947 133.70807
#
# Poissons Ratio (x) = 0.41198 0.34984
# Poissons Ratio (y) = 0.36941 0.14248
# Poissons Ratio (z) = 0.18449 0.08380
#
# Static dielectric constant tensor:
#      x y z
#    x 1.836150 0.000000 -0.005950 
#    y 0.000000 1.803290 0.000000 
#    z -0.005950 0.000000 1.714830 
# 
# From -- ./inp_files/375416.got.cif
#   From: 2010.05.17/outbox.cif.g08.bks.cpg/sg12_188_cif.got.tgz:375416.got - 2010.06.03 13:09:07.
