data_PCOD9211760
_publ_section_title
;
Structure prediction by ZEFSAII (Michael W. Deem and Ramdas Pophale) SiO2 
 PCOD9211760
Probable space group: C 2/M
;
_chemical_formula_sum "Si O2"
_cell_formula_units_Z 36
_cell_length_a 7.981175
_cell_length_b 16.136612
_cell_length_c 17.397814
_cell_angle_alpha 90.000000
_cell_angle_beta 42.445597
_cell_angle_gamma 90.000000
_cell_volume 1512.191422
_symmetry_space_group_name_H-M "C 2/M"
_symmetry_group_IT_number 12
_symmetry_cell_setting 'monoclinic'
loop_
_space_group_symop_operation_xyz
x,y,z
-x,y,-z
-x,-y,-z
x,-y,z
1/2+x,1/2+y,z
1/2-x,1/2+y,-z
1/2-x,1/2-y,-z
1/2+x,1/2-y,z
loop_
_atom_site_type_symbol
_atom_site_label
_atom_site_fract_x
_atom_site_fract_y
_atom_site_fract_z
Si Si1 0.234112 0.000000 0.261110
Si Si2 0.277040 0.825935 0.431016
Si Si3 0.288132 0.173359 0.830292
Si Si4 0.050918 0.350810 0.895636
Si Si5 0.201262 0.000000 0.862846
Si Si6 0.180215 0.500000 0.510709
O O1 0.253349 0.916155 0.205100
O O2 0.499685 0.000000 0.217149
O O3 0.976280 0.000000 0.393001
O O4 0.250000 0.750000 0.500000
O O5 0.449978 0.807122 0.299562
O O6 0.000000 0.843370 0.500000
O O7 0.374874 0.912668 0.430493
O O8 0.137166 0.256363 0.870801
O O9 0.333257 0.152127 0.905043
O O10 0.170332 0.089790 0.834399
O O11 0.000000 0.377860 0.000000
O O12 0.000000 0.000000 0.000000
O O13 0.000000 0.500000 0.500000
#
# Coordination Sequence:
#
# PCOD9211760 Si02
#       6
#     4   8   8   8   4   4
#     4  10  23  44  65  94 132 171 218 277 332 398
#     4  12  24  43  69 101 139 182 229 287 349 413
#     4  11  23  41  64  96 131 172 220 274 332 402
#     4  11  23  42  65  93 130 176 220 273 335 399
#     4  10  21  40  65  94 129 174 219 270 334 400
#     4  12  26  46  71 102 137 183 233 285 345 412
#
# _framework density 23.806509999999999
#
# number of rings (size 3 to 8) (size 9 to 14) (size 15 to 20)
#    0.000    0.889    0.000    8.667    0.000    3.556 
#    0.000    5.556    0.000    0.000    0.000    0.000 
#    0.000    0.000    0.000    0.000    0.000    0.000 
#
# Total GULP energy -100621.954037 kJ/mol
# GULP energy per Si atom -5590.108558 kJ/mol
# Density = 2.375233 g / cm^3
# Si number density = 23.806510 Si / 1000 Ang^3
#
#
#
# Elastic Constant Matrix: (Units=GPa)
#
#
# Indices 1 2 3 4 5 6 
#
# 1 75.9111 19.0322 1.2457 0.0000 11.8800 -0.0004
# 2 19.0322 160.9104 25.9983 0.0014 18.9038 -0.0001
# 3 1.2457 25.9983 117.0523 0.0036 -1.9924 -0.0011
# 4 0.0000 0.0014 0.0036 40.4052 -0.0023 -2.0025
# 5 11.8800 18.9038 -1.9924 -0.0023 30.8999 0.0005
# 6 -0.0004 -0.0001 -0.0011 -2.0025 0.0005 37.9272
#
#
#
# Elastic Compliance Matrix: (Units=1/GPa)
#
#
# Indices 1 2 3 4 5 6 
#
# 1 0.014201 -0.001122 0.000017 0.000000 -0.004773 0.000000
# 2 -0.001122 0.007081 -0.001629 0.000000 -0.004006 0.000000
# 3 0.000017 -0.001629 0.008931 -0.000001 0.001566 0.000000
# 4 0.000000 0.000000 -0.000001 0.024814 0.000002 0.001310
# 5 -0.004773 -0.004006 0.001566 0.000002 0.036749 0.000000
# 6 0.000000 0.000000 0.000000 0.001310 0.000000 0.026435
#
#
# Mechanical properties :
#
#
# Convention : Reuss Voigt Hill
#
# Bulk Modulus (GPa) = 40.41085 49.60290 45.00687
# Shear Modulus (GPa) = 37.89916 42.35298 40.12607
#
# Velocity S-wave (km/s) = 3.99427 4.22245 4.10995
# Velocity P-wave (km/s) = 6.18739 6.68231 6.43961
#
# Compressibility (1/GPa) = 0.02474583
#
# Stress axis : x y z
#
# Youngs Moduli (GPa) = 70.41680 141.22053 111.96338
#
# Poissons Ratio (x) = 0.15841 -0.00188
# Poissons Ratio (y) = 0.07899 0.18239
# Poissons Ratio (z) = -0.00118 0.23005
#
# Static dielectric constant tensor:
#      x y z
#    x 1.869670 0.000000 -0.042680 
#    y 0.000000 1.780290 0.000000 
#    z -0.042680 0.000000 1.787070 
# 
# From -- ./inp_files/118645.got.cif
#   From: 2010.05.17/outbox.cif.g08.bks.cpg/sg12_60_cif.got.tgz:118645.got - 2010.06.03 13:09:07.
