data_PCOD9211286
_publ_section_title
;
Structure prediction by ZEFSAII (Michael W. Deem and Ramdas Pophale) SiO2 
 PCOD9211286
Probable space group: C 2/M
;
_chemical_formula_sum "Si O2"
_cell_formula_units_Z 48
_cell_length_a 11.626571
_cell_length_b 24.059140
_cell_length_c 9.254151
_cell_angle_alpha 90.000000
_cell_angle_beta 110.399187
_cell_angle_gamma 90.000000
_cell_volume 2426.279856
_symmetry_space_group_name_H-M "C 2/M"
_symmetry_group_IT_number 12
_symmetry_cell_setting 'monoclinic'
loop_
_space_group_symop_operation_xyz
x,y,z
-x,y,-z
-x,-y,-z
x,-y,z
1/2+x,1/2+y,z
1/2-x,1/2+y,-z
1/2-x,1/2-y,-z
1/2+x,1/2-y,z
loop_
_atom_site_type_symbol
_atom_site_label
_atom_site_fract_x
_atom_site_fract_y
_atom_site_fract_z
Si Si1 0.610127 0.726001 0.455567
Si Si2 0.876943 0.566516 0.626963
Si Si3 0.115207 0.249414 0.135402
Si Si4 0.863163 0.132092 0.991553
Si Si5 0.838692 0.566624 0.277978
Si Si6 0.709613 0.647890 0.724127
O O1 0.500000 0.755591 0.500000
O O2 0.750000 0.750000 0.500000
O O3 0.570341 0.726264 0.271704
O O4 0.630208 0.669339 0.553565
O O5 0.864661 0.500000 0.636963
O O6 0.831556 0.581582 0.445052
O O7 0.800231 0.600720 0.707686
O O8 0.021077 0.580372 0.703062
O O9 0.160154 0.195891 0.067179
O O10 0.214688 0.296900 0.199055
O O11 0.000000 0.273713 0.000000
O O12 0.760777 0.096178 0.864871
O O13 0.856770 0.127676 0.161161
O O14 0.000000 0.117623 0.000000
O O15 0.825450 0.500000 0.262188
#
# Coordination Sequence:
#
# PCOD9211286 Si02
#       6
#     8   8   8   8   8   8
#     4  10  21  40  60  85 123 164 212 254 307 373
#     4   9  20  41  65  92 118 156 208 264 315 368
#     4  10  22  39  58  86 124 164 206 255 308 368
#     4  11  23  38  58  85 125 166 203 252 310 371
#     4   9  20  41  66  89 122 159 204 257 315 375
#     4  11  23  38  61  91 122 162 206 256 311 370
#
# _framework density 19.783373999999998
#
# number of rings (size 3 to 8) (size 9 to 14) (size 15 to 20)
#    0.000    2.000    0.000    4.500    2.333    2.333 
#   18.000    1.667    0.000    2.500    0.000    0.000 
#    0.000    0.000    0.000    0.000    0.000    0.000 
#
# Total GULP energy -133894.724161 kJ/mol
# GULP energy per Si atom -5578.946840 kJ/mol
# Density = 1.973835 g / cm^3
# Si number density = 19.783374 Si / 1000 Ang^3
#
#
#
# Elastic Constant Matrix: (Units=GPa)
#
#
# Indices 1 2 3 4 5 6 
#
# 1 136.8557 45.5086 67.8876 0.0000 -26.3889 0.0000
# 2 45.5086 23.3941 23.1327 0.0000 -7.2159 0.0000
# 3 67.8876 23.1327 102.6195 0.0000 -18.3038 0.0000
# 4 0.0000 0.0000 0.0000 194.8636 0.0000 29.0239
# 5 -26.3889 -7.2159 -18.3038 0.0000 46.3675 0.0000
# 6 0.0000 0.0000 0.0000 29.0239 0.0000 37.9251
#
#
#
# Elastic Compliance Matrix: (Units=1/GPa)
#
#
# Indices 1 2 3 4 5 6 
#
# 1 0.025129 -0.040835 -0.006456 0.000000 0.005398 0.000000
# 2 -0.040835 0.122043 -0.001349 0.000000 -0.004780 0.000000
# 3 -0.006456 -0.001349 0.014659 0.000000 0.001902 0.000000
# 4 0.000000 0.000000 0.000000 0.005792 0.000000 -0.004433
# 5 0.005398 -0.004780 0.001902 0.000000 0.024646 0.000000
# 6 0.000000 0.000000 0.000000 -0.004433 0.000000 0.029760
#
#
# Mechanical properties :
#
#
# Convention : Reuss Voigt Hill
#
# Bulk Modulus (GPa) = 15.49192 59.54745 37.51968
# Shear Modulus (GPa) = 14.67015 64.25393 39.46204
#
# Velocity S-wave (km/s) = 2.72608 5.70520 4.47106
# Velocity P-wave (km/s) = 4.21384 8.57695 6.75724
#
# Compressibility (1/GPa) = 0.06454980
#
# Stress axis : x y z
#
# Youngs Moduli (GPa) = 39.79395 8.19385 68.21577
#
# Poissons Ratio (x) = 0.33460 0.44042
# Poissons Ratio (y) = 1.62500 0.09205
# Poissons Ratio (z) = 0.25692 0.01106
#
# Static dielectric constant tensor:
#      x y z
#    x 1.738480 0.000000 0.012400 
#    y 0.000000 1.674980 0.000000 
#    z 0.012400 0.000000 1.724190 
# 
# From -- ./inp_files/51440.got.cif
#   From: 2010.05.17/outbox.cif.g08.bks.cpg/sg12_26_cif.got.tgz:51440.got - 2010.06.03 13:09:07.
