data_PCOD9211443
_publ_section_title
;
Structure prediction by ZEFSAII (Michael W. Deem and Ramdas Pophale) SiO2 
 PCOD9211443
Probable space group: C 2/M
;
_chemical_formula_sum "Si O2"
_cell_formula_units_Z 48
_cell_length_a 15.471842
_cell_length_b 17.622308
_cell_length_c 7.685082
_cell_angle_alpha 90.000000
_cell_angle_beta 96.316167
_cell_angle_gamma 90.000000
_cell_volume 2082.615486
_symmetry_space_group_name_H-M "C 2/M"
_symmetry_group_IT_number 12
_symmetry_cell_setting 'monoclinic'
loop_
_space_group_symop_operation_xyz
x,y,z
-x,y,-z
-x,-y,-z
x,-y,z
1/2+x,1/2+y,z
1/2-x,1/2+y,-z
1/2-x,1/2-y,-z
1/2+x,1/2-y,z
loop_
_atom_site_type_symbol
_atom_site_label
_atom_site_fract_x
_atom_site_fract_y
_atom_site_fract_z
Si Si1 0.569877 0.589920 0.744383
Si Si2 0.699392 0.161789 0.772406
Si Si3 0.548680 0.084391 0.830244
Si Si4 0.115822 0.089261 0.164403
Si Si5 0.122876 0.408153 0.403259
Si Si6 0.719667 0.311993 0.645486
O O1 0.572277 0.500000 0.698680
O O2 0.469358 0.614903 0.747181
O O3 0.631117 0.638403 0.629539
O O4 0.602685 0.596179 0.952743
O O5 0.636863 0.127389 0.901281
O O6 0.795359 0.130454 0.771236
O O7 0.642870 0.127985 0.597012
O O8 0.703009 0.251288 0.791897
O O9 0.471525 0.114936 0.688490
O O10 0.571781 0.000000 0.770705
O O11 0.500000 0.076866 0.000000
O O12 0.125418 0.000000 0.203129
O O13 0.128100 0.500000 0.401018
O O14 0.202257 0.370535 0.315406
O O15 0.750000 0.250000 0.500000
#
# Coordination Sequence:
#
# PCOD9211443 Si02
#       6
#     8   8   8   8   8   8
#     4   9  19  39  63  89 122 163 210 263 311 366
#     4  11  22  38  60  91 128 159 197 258 320 375
#     4  10  22  39  61  91 120 158 211 257 300 363
#     4   9  19  36  63  93 119 158 212 261 311 370
#     4  10  21  40  63  85 119 166 208 250 308 369
#     4  10  23  39  58  89 124 164 203 249 310 379
#
# _framework density 23.047939
#
# number of rings (size 3 to 8) (size 9 to 14) (size 15 to 20)
#    0.000    2.167    0.000    3.500    2.333    3.333 
#    3.000    8.333    0.000    9.000    0.000    0.000 
#    0.000    0.000    0.000    0.000    0.000    0.000 
#
# Total GULP energy -133756.789760 kJ/mol
# GULP energy per Si atom -5573.199573 kJ/mol
# Density = 2.299548 g / cm^3
# Si number density = 23.047939 Si / 1000 Ang^3
#
#
#
# Elastic Constant Matrix: (Units=GPa)
#
#
# Indices 1 2 3 4 5 6 
#
# 1 191.8054 77.7217 28.2208 0.0000 -19.4382 0.0000
# 2 77.7217 86.7104 14.5069 0.0000 -19.3246 0.0000
# 3 28.2208 14.5069 57.3556 0.0000 6.1038 0.0000
# 4 0.0000 0.0000 0.0000 0.7050 0.0000 -11.4113
# 5 -19.4382 -19.3246 6.1038 0.0000 38.6999 0.0000
# 6 0.0000 0.0000 0.0000 -11.4113 0.0000 -50.4314
#
#
#
# Elastic Compliance Matrix: (Units=1/GPa)
#
#
# Indices 1 2 3 4 5 6 
#
# 1 0.008529 -0.006942 -0.002571 0.000000 0.001223 0.000000
# 2 -0.006942 0.019618 -0.002255 0.000000 0.006665 0.000000
# 3 -0.002571 -0.002255 0.019861 0.000000 -0.005550 0.000000
# 4 0.000000 0.000000 0.000000 0.304223 0.000000 -0.068838
# 5 0.001223 0.006665 -0.005550 0.000000 0.030657 0.000000
# 6 0.000000 0.000000 0.000000 -0.068838 0.000000 -0.004253
#
#
# Mechanical properties :
#
#
# Convention : Reuss Voigt Hill
#
# Bulk Modulus (GPa) = 40.86446 64.08557 52.47501
# Shear Modulus (GPa) = 12.18534 12.15617 12.17076
#
# Velocity S-wave (km/s) = 2.30183 2.29908 2.30045
# Velocity P-wave (km/s) = 4.98330 5.90875 5.46565
#
# Compressibility (1/GPa) = 0.02447114
#
# Stress axis : x y z
#
# Youngs Moduli (GPa) = 117.25018 50.97417 50.34972
#
# Poissons Ratio (x) = 0.35387 0.12943
# Poissons Ratio (y) = 0.81396 0.11356
# Poissons Ratio (z) = 0.30142 0.11497
#
# Static dielectric constant tensor:
#      x y z
#    x 2.070160 0.000000 -0.195930 
#    y 0.000000 1.872350 0.000000 
#    z -0.195930 0.000000 2.179000 
# 
# From -- ./inp_files/61711.got.cif
#   From: 2010.05.17/outbox.cif.g08.bks.cpg/sg12_31_cif.got.tgz:61711.got - 2010.06.03 13:09:07.
