data_PCOD9211597
_publ_section_title
;
Structure prediction by ZEFSAII (Michael W. Deem and Ramdas Pophale) SiO2 
 PCOD9211597
Probable space group: C 2/M
;
_chemical_formula_sum "Si O2"
_cell_formula_units_Z 64
_cell_length_a 29.188756
_cell_length_b 8.404417
_cell_length_c 18.984808
_cell_angle_alpha 90.000000
_cell_angle_beta 138.198834
_cell_angle_gamma 90.000000
_cell_volume 3104.277833
_symmetry_space_group_name_H-M "C 2/M"
_symmetry_group_IT_number 12
_symmetry_cell_setting 'monoclinic'
loop_
_space_group_symop_operation_xyz
x,y,z
-x,y,-z
-x,-y,-z
x,-y,z
1/2+x,1/2+y,z
1/2-x,1/2+y,-z
1/2-x,1/2-y,-z
1/2+x,1/2-y,z
loop_
_atom_site_type_symbol
_atom_site_label
_atom_site_fract_x
_atom_site_fract_y
_atom_site_fract_z
Si Si1 0.582066 0.809099 0.673099
Si Si2 0.200396 0.817281 0.303137
Si Si3 0.330387 0.317681 0.512845
Si Si4 0.719474 0.310882 0.891945
Si Si5 0.804229 0.692863 0.852012
Si Si6 0.576789 0.807470 0.504508
Si Si7 0.413275 0.814936 0.737216
Si Si8 0.536071 0.193785 0.968941
O O1 0.640751 0.738141 0.789068
O O2 0.593342 0.763284 0.604188
O O3 0.503374 0.767904 0.600729
O O4 0.586600 0.000000 0.681413
O O5 0.262872 0.790374 0.428561
O O6 0.224143 0.767722 0.252479
O O7 0.137482 0.706172 0.254344
O O8 0.178423 0.000000 0.278978
O O9 0.307755 0.500000 0.487822
O O10 0.375807 0.280006 0.496512
O O11 0.377340 0.279506 0.633569
O O12 0.724402 0.500000 0.897811
O O13 0.763204 0.253507 0.874152
O O14 0.750000 0.250000 0.000000
O O15 0.800347 0.500000 0.842710
O O16 0.884703 0.740071 0.947482
O O17 0.584572 0.000000 0.506637
O O18 0.487658 0.757811 0.848334
O O19 0.417321 0.000000 0.721618
O O20 0.534332 0.000000 0.968279
O O21 0.500000 0.249191 0.000000
#
# Coordination Sequence:
#
# PCOD9211597 Si02
#       8
#     8   8   8   8   8   8   8   8
#     4   9  19  38  64  88 117 153 197 245 294 358
#     4  12  24  39  60  87 119 156 197 245 299 356
#     4  12  25  39  56  85 123 158 196 244 296 356
#     4  11  24  39  59  87 123 160 201 251 302 358
#     4  10  21  40  64  91 117 154 203 246 295 356
#     4   9  19  38  63  90 116 152 195 241 297 358
#     4  11  22  39  62  86 117 158 200 246 295 353
#     4   9  17  35  64  89 112 148 195 243 290 348
#
# _framework density 20.616710999999999
#
# number of rings (size 3 to 8) (size 9 to 14) (size 15 to 20)
#    0.000    1.625    1.250    4.875    0.000    5.000 
#    0.000    5.625    0.000    0.000    0.000    0.000 
#    0.000    0.000    0.000    0.000    0.000    0.000 
#
# Total GULP energy -178901.868864 kJ/mol
# GULP energy per Si atom -5590.683402 kJ/mol
# Density = 2.056979 g / cm^3
# Si number density = 20.616711 Si / 1000 Ang^3
#
#
#
# Elastic Constant Matrix: (Units=GPa)
#
#
# Indices 1 2 3 4 5 6 
#
# 1 30.5405 0.6790 10.7783 0.0000 0.0582 0.0000
# 2 0.6790 26.6169 9.2773 0.0000 0.1307 0.0000
# 3 10.7783 9.2773 132.9398 0.0000 3.8491 0.0000
# 4 0.0000 0.0000 0.0000 29.6255 0.0000 -4.3542
# 5 0.0582 0.1307 3.8491 0.0000 20.7291 0.0000
# 6 0.0000 0.0000 0.0000 -4.3542 0.0000 23.5034
#
#
#
# Elastic Compliance Matrix: (Units=1/GPa)
#
#
# Indices 1 2 3 4 5 6 
#
# 1 0.033712 0.000097 -0.002752 0.000000 0.000416 0.000000
# 2 0.000097 0.038508 -0.002703 0.000000 0.000259 0.000000
# 3 -0.002752 -0.002703 0.007976 0.000000 -0.001456 0.000000
# 4 0.000000 0.000000 0.000000 0.034699 0.000000 0.006428
# 5 0.000416 0.000259 -0.001456 0.000000 0.048509 0.000000
# 6 0.000000 0.000000 0.000000 0.006428 0.000000 0.043738
#
#
# Mechanical properties :
#
#
# Convention : Reuss Voigt Hill
#
# Bulk Modulus (GPa) = 14.39244 25.72963 20.06104
# Shear Modulus (GPa) = 20.74533 26.06244 23.40388
#
# Velocity S-wave (km/s) = 3.17557 3.55933 3.37291
# Velocity P-wave (km/s) = 4.52126 5.42207 4.99203
#
# Compressibility (1/GPa) = 0.06948091
#
# Stress axis : x y z
#
# Youngs Moduli (GPa) = 29.66330 25.96839 125.37451
#
# Poissons Ratio (x) = -0.00252 0.34504
# Poissons Ratio (y) = -0.00288 0.33885
# Poissons Ratio (z) = 0.08164 0.07018
#
# Static dielectric constant tensor:
#      x y z
#    x 1.735880 0.000000 -0.000390 
#    y 0.000000 1.702130 0.000000 
#    z -0.000390 0.000000 1.750270 
# 
# From -- ./inp_files/295788.got.cif
#   From: 2010.05.17/outbox.cif.g08.bks.cpg/sg12_148_cif.got.tgz:295788.got - 2010.06.03 13:09:07.
