data_PCOD9211109
_publ_section_title
;
Structure prediction by ZEFSAII (Michael W. Deem and Ramdas Pophale) SiO2 
 PCOD9211109
Probable space group: C 2/M
;
_chemical_formula_sum "Si O2"
_cell_formula_units_Z 40
_cell_length_a 8.808591
_cell_length_b 26.030014
_cell_length_c 16.601496
_cell_angle_alpha 90.000000
_cell_angle_beta 31.742536
_cell_angle_gamma 90.000000
_cell_volume 2002.621932
_symmetry_space_group_name_H-M "C 2/M"
_symmetry_group_IT_number 12
_symmetry_cell_setting 'monoclinic'
loop_
_space_group_symop_operation_xyz
x,y,z
-x,y,-z
-x,-y,-z
x,-y,z
1/2+x,1/2+y,z
1/2-x,1/2+y,-z
1/2-x,1/2-y,-z
1/2+x,1/2-y,z
loop_
_atom_site_type_symbol
_atom_site_label
_atom_site_fract_x
_atom_site_fract_y
_atom_site_fract_z
Si Si1 0.793660 0.707174 0.912295
Si Si2 0.113416 0.500000 0.857951
Si Si3 0.703002 0.888084 0.487008
Si Si4 0.296656 0.791643 0.410597
Si Si5 0.389472 0.886128 0.142811
Si Si6 0.714817 0.000000 0.478469
O O1 0.989747 0.729700 0.752634
O O2 0.955423 0.658408 0.877260
O O3 0.500000 0.692285 0.000000
O O4 0.750000 0.750000 0.000000
O O5 0.031787 0.443788 0.861265
O O6 0.460272 0.500000 0.701488
O O7 0.000000 0.500000 0.000000
O O8 0.500000 0.886039 0.500000
O O9 0.604283 0.844045 0.592242
O O10 0.676582 0.945044 0.537601
O O11 0.040383 0.880279 0.309293
O O12 0.250000 0.750000 0.500000
O O13 0.000000 0.803416 0.500000
O O14 0.500000 0.882577 0.000000
O O15 0.500000 0.000000 0.500000
#
# Coordination Sequence:
#
# PCOD9211109 Si02
#       6
#     8   4   8   8   8   4
#     4  12  27  44  64  89 123 165 211 258 315 370
#     4   8  16  34  60  92 124 164 202 244 299 369
#     4  10  21  39  66  96 127 164 206 254 305 368
#     4  12  25  43  63  90 124 159 208 260 315 370
#     4  10  21  39  66  94 128 165 208 252 305 370
#     4   8  16  34  60  93 126 160 202 244 300 369
#
# _framework density 19.973815999999999
#
# number of rings (size 3 to 8) (size 9 to 14) (size 15 to 20)
#    0.000    1.600    2.000    2.400    5.600    0.000 
#    0.000    2.000    0.000    0.000    0.000    0.000 
#    0.000    0.000    0.000    0.000    0.000    0.000 
#
# Total GULP energy -111614.800347 kJ/mol
# GULP energy per Si atom -5580.740017 kJ/mol
# Density = 1.992835 g / cm^3
# Si number density = 19.973816 Si / 1000 Ang^3
#
#
#
# Elastic Constant Matrix: (Units=GPa)
#
#
# Indices 1 2 3 4 5 6 
#
# 1 92.5511 65.9180 33.4666 0.0000 -7.6040 0.0001
# 2 65.9180 171.0701 36.9517 0.0000 6.5844 0.0000
# 3 33.4666 36.9517 80.8131 0.0002 14.5642 -0.0003
# 4 0.0000 0.0000 0.0002 30.6388 0.0000 -21.2166
# 5 -7.6040 6.5844 14.5642 0.0000 40.2455 -0.0001
# 6 0.0001 0.0000 -0.0003 -21.2166 -0.0001 107.5499
#
#
#
# Elastic Compliance Matrix: (Units=1/GPa)
#
#
# Indices 1 2 3 4 5 6 
#
# 1 0.017498 -0.005741 -0.005762 0.000000 0.006330 0.000000
# 2 -0.005741 0.008370 -0.001078 0.000000 -0.002064 0.000000
# 3 -0.005762 -0.001078 0.016493 0.000000 -0.006881 0.000000
# 4 0.000000 0.000000 0.000000 0.037802 0.000000 0.007457
# 5 0.006330 -0.002064 -0.006881 0.000000 0.028871 0.000000
# 6 0.000000 0.000000 0.000000 0.007457 0.000000 0.010769
#
#
# Mechanical properties :
#
#
# Convention : Reuss Voigt Hill
#
# Bulk Modulus (GPa) = 58.14179 68.56744 63.35462
# Shear Modulus (GPa) = 33.17882 49.56004 41.36943
#
# Velocity S-wave (km/s) = 4.08010 4.98662 4.55596
# Velocity P-wave (km/s) = 7.16718 8.21939 7.71125
#
# Compressibility (1/GPa) = 0.01719933
#
# Stress axis : x y z
#
# Youngs Moduli (GPa) = 57.15044 119.47304 60.63127
#
# Poissons Ratio (x) = 0.68595 0.34935
# Poissons Ratio (y) = 0.32812 0.06533
# Poissons Ratio (z) = 0.32929 0.12874
#
# Static dielectric constant tensor:
#      x y z
#    x 1.757630 0.000000 -0.165150 
#    y 0.000000 1.772610 0.000000 
#    z -0.165150 0.000000 2.043690 
# 
# From -- ./inp_files/259641.got.cif
#   From: 2010.05.17/outbox.cif.g08.bks.cpg/sg12_130_cif.got.tgz:259641.got - 2010.06.03 13:09:07.
