data_PCOD9211959
_publ_section_title
;
Structure prediction by ZEFSAII (Michael W. Deem and Ramdas Pophale) SiO2 
 PCOD9211959
Probable space group: C 2/M
;
_chemical_formula_sum "Si O2"
_cell_formula_units_Z 36
_cell_length_a 5.439368
_cell_length_b 23.550562
_cell_length_c 12.879541
_cell_angle_alpha 90.000000
_cell_angle_beta 117.643959
_cell_angle_gamma 90.000000
_cell_volume 1461.535086
_symmetry_space_group_name_H-M "C 2/M"
_symmetry_group_IT_number 12
_symmetry_cell_setting 'monoclinic'
loop_
_space_group_symop_operation_xyz
x,y,z
-x,y,-z
-x,-y,-z
x,-y,z
1/2+x,1/2+y,z
1/2-x,1/2+y,-z
1/2-x,1/2-y,-z
1/2+x,1/2-y,z
loop_
_atom_site_type_symbol
_atom_site_label
_atom_site_fract_x
_atom_site_fract_y
_atom_site_fract_z
Si Si1 0.672147 0.588494 0.431450
Si Si2 0.500000 0.634193 0.000000
Si Si3 0.683485 0.564190 0.834562
Si Si4 0.490710 0.282250 0.365768
Si Si5 0.467416 0.176947 0.871772
O O1 0.500000 0.568657 0.500000
O O2 0.552626 0.564882 0.299962
O O3 0.615431 0.656245 0.414683
O O4 0.000000 0.577483 0.500000
O O5 0.599513 0.592644 0.927322
O O6 0.285866 0.676926 0.899860
O O7 0.781492 0.500000 0.866170
O O8 0.904747 0.609939 0.837297
O O9 0.748384 0.240693 0.394223
O O10 0.293972 0.291393 0.226155
O O11 0.500000 0.187411 0.000000
#
# Coordination Sequence:
#
# PCOD9211959 Si02
#       5
#     8   4   8   8   8
#     4  11  26  46  70  97 136 180 223 281 333 396
#     4  10  21  40  68  96 136 178 216 276 335 396
#     4  10  23  41  67 100 134 175 224 274 333 401
#     4  11  25  41  68  98 130 172 225 278 335 393
#     4   9  22  39  61  93 137 174 217 271 332 399
#
# _framework density 24.631637000000001
#
# number of rings (size 3 to 8) (size 9 to 14) (size 15 to 20)
#    0.000    1.778    0.000    1.667   15.556    9.333 
#    0.000    0.000    0.000    0.000    0.000    0.000 
#    0.000    0.000    0.000    0.000    0.000    0.000 
#
# Total GULP energy -100496.626613 kJ/mol
# GULP energy per Si atom -5583.145923 kJ/mol
# Density = 2.457557 g / cm^3
# Si number density = 24.631637 Si / 1000 Ang^3
#
#
#
# Elastic Constant Matrix: (Units=GPa)
#
#
# Indices 1 2 3 4 5 6 
#
# 1 124.5254 19.6437 52.2227 0.0000 26.5094 0.0000
# 2 19.6437 109.3811 7.2781 0.0000 2.8005 0.0000
# 3 52.2227 7.2781 151.6424 0.0000 21.4574 0.0000
# 4 0.0000 0.0000 0.0000 -14.2655 0.0000 9.9635
# 5 26.5094 2.8005 21.4574 0.0000 42.8406 0.0000
# 6 0.0000 0.0000 0.0000 9.9635 0.0000 -3.9178
#
#
#
# Elastic Compliance Matrix: (Units=1/GPa)
#
#
# Indices 1 2 3 4 5 6 
#
# 1 0.010535 -0.001575 -0.002846 0.000000 -0.004990 0.000000
# 2 -0.001575 0.009414 0.000043 0.000000 0.000338 0.000000
# 3 -0.002846 0.000043 0.007882 0.000000 -0.002190 0.000000
# 4 0.000000 0.000000 0.000000 0.090305 0.000000 0.229662
# 5 -0.004990 0.000338 -0.002190 0.000000 0.027505 0.000000
# 6 0.000000 0.000000 0.000000 0.229662 0.000000 0.328822
#
#
# Mechanical properties :
#
#
# Convention : Reuss Voigt Hill
#
# Bulk Modulus (GPa) = 52.42652 60.42643 56.42647
# Shear Modulus (GPa) = 10.21288 25.35844 17.78566
#
# Velocity S-wave (km/s) = 2.03844 3.21207 2.69004
# Velocity P-wave (km/s) = 5.18370 6.19208 5.71019
#
# Compressibility (1/GPa) = 0.01907431
#
# Stress axis : x y z
#
# Youngs Moduli (GPa) = 94.92223 106.22839 126.86411
#
# Poissons Ratio (x) = 0.16729 0.36109
# Poissons Ratio (y) = 0.14948 -0.00542
# Poissons Ratio (z) = 0.27018 -0.00454
#
# Static dielectric constant tensor:
#      x y z
#    x 2.163720 0.000000 0.047250 
#    y 0.000000 1.940600 0.000000 
#    z 0.047250 0.000000 2.068320 
# 
# From -- ./inp_files/191531.got.cif
#   From: 2010.05.17/outbox.cif.g08.bks.cpg/sg12_96_cif.got.tgz:191531.got - 2010.06.03 13:09:07.
