data_PCOD9211772
_publ_section_title
;
Structure prediction by ZEFSAII (Michael W. Deem and Ramdas Pophale) SiO2 
 PCOD9211772
Probable space group: C 2/M
;
_chemical_formula_sum "Si O2"
_cell_formula_units_Z 40
_cell_length_a 13.027289
_cell_length_b 17.771672
_cell_length_c 12.341944
_cell_angle_alpha 90.000000
_cell_angle_beta 138.020888
_cell_angle_gamma 90.000000
_cell_volume 1911.176945
_symmetry_space_group_name_H-M "C 2/M"
_symmetry_group_IT_number 12
_symmetry_cell_setting 'monoclinic'
loop_
_space_group_symop_operation_xyz
x,y,z
-x,y,-z
-x,-y,-z
x,-y,z
1/2+x,1/2+y,z
1/2-x,1/2+y,-z
1/2-x,1/2-y,-z
1/2+x,1/2-y,z
loop_
_atom_site_type_symbol
_atom_site_label
_atom_site_fract_x
_atom_site_fract_y
_atom_site_fract_z
Si Si1 0.155583 0.340018 0.189542
Si Si2 0.420715 0.589191 0.258486
Si Si3 0.824205 0.319630 0.341254
Si Si4 0.350321 0.589715 0.955920
Si Si5 0.756093 0.840282 0.492127
O O1 0.282521 0.389939 0.228956
O O2 0.222962 0.255204 0.246274
O O3 0.143251 0.362984 0.306323
O O4 0.000000 0.342722 0.000000
O O5 0.450256 0.500000 0.283529
O O6 0.575465 0.632925 0.409724
O O7 0.377693 0.611944 0.101584
O O8 0.792795 0.369189 0.211210
O O9 0.775445 0.366534 0.410284
O O10 0.000000 0.298548 0.500000
O O11 0.331166 0.500000 0.937314
O O12 0.500000 0.608733 0.000000
O O13 0.750000 0.750000 0.500000
#
# Coordination Sequence:
#
# PCOD9211772 Si02
#       5
#     8   8   8   8   8
#     4  11  25  41  64  96 128 169 218 269 321 379
#     4  11  24  44  69  94 130 174 215 263 322 387
#     4  11  23  40  66  96 132 169 211 269 322 383
#     4  10  21  40  65  96 128 168 217 263 323 386
#     4  10  22  41  63  95 129 164 216 261 314 385
#
# _framework density 20.929511999999999
#
# number of rings (size 3 to 8) (size 9 to 14) (size 15 to 20)
#    0.000    1.400    2.000    3.600    5.600    3.200 
#    0.000    0.000    0.000    0.000    0.000    0.000 
#    0.000    0.000    0.000    0.000    0.000    0.000 
#
# Total GULP energy -111760.462014 kJ/mol
# GULP energy per Si atom -5588.023101 kJ/mol
# Density = 2.088188 g / cm^3
# Si number density = 20.929512 Si / 1000 Ang^3
#
#
#
# Elastic Constant Matrix: (Units=GPa)
#
#
# Indices 1 2 3 4 5 6 
#
# 1 65.8339 15.4733 32.0276 0.0000 -10.3118 0.0000
# 2 15.4733 41.7800 41.6421 0.0000 -2.5364 0.0000
# 3 32.0276 41.6421 167.6952 0.0000 -9.2447 0.0000
# 4 0.0000 0.0000 0.0000 22.1644 0.0000 -0.9292
# 5 -10.3118 -2.5364 -9.2447 0.0000 43.4703 0.0000
# 6 0.0000 0.0000 0.0000 -0.9292 0.0000 26.3921
#
#
#
# Elastic Compliance Matrix: (Units=1/GPa)
#
#
# Indices 1 2 3 4 5 6 
#
# 1 0.017781 -0.004226 -0.002153 0.000000 0.003513 0.000000
# 2 -0.004226 0.032813 -0.007377 0.000000 -0.000657 0.000000
# 3 -0.002153 -0.007377 0.008251 0.000000 0.000814 0.000000
# 4 0.000000 0.000000 0.000000 0.045184 0.000000 0.001591
# 5 0.003513 -0.000657 0.000814 0.000000 0.023972 0.000000
# 6 0.000000 0.000000 0.000000 0.001591 0.000000 0.037946
#
#
# Mechanical properties :
#
#
# Convention : Reuss Voigt Hill
#
# Bulk Modulus (GPa) = 31.91569 50.39946 41.15757
# Shear Modulus (GPa) = 24.52137 30.81644 27.66890
#
# Velocity S-wave (km/s) = 3.42660 3.84134 3.63988
# Velocity P-wave (km/s) = 5.56217 6.61871 6.11331
#
# Compressibility (1/GPa) = 0.03133255
#
# Stress axis : x y z
#
# Youngs Moduli (GPa) = 56.24087 30.47569 121.19588
#
# Poissons Ratio (x) = 0.12880 0.26090
# Poissons Ratio (y) = 0.23768 0.89409
# Poissons Ratio (z) = 0.12107 0.22483
#
# Static dielectric constant tensor:
#      x y z
#    x 1.803650 0.000000 -0.031990 
#    y 0.000000 1.722620 0.000000 
#    z -0.031990 0.000000 1.762910 
# 
# From -- ./inp_files/60831.got.cif
#   From: 2010.05.17/outbox.cif.g08.bks.cpg/sg12_31_cif.got.tgz:60831.got - 2010.06.03 13:09:07.
