data_PCOD9211765
_publ_section_title
;
Structure prediction by ZEFSAII (Michael W. Deem and Ramdas Pophale) SiO2 
 PCOD9211765
Probable space group: C 2/M
;
_chemical_formula_sum "Si O2"
_cell_formula_units_Z 40
_cell_length_a 23.937927
_cell_length_b 8.860271
_cell_length_c 17.206616
_cell_angle_alpha 90.000000
_cell_angle_beta 33.133033
_cell_angle_gamma 90.000000
_cell_volume 1994.741373
_symmetry_space_group_name_H-M "C 2/M"
_symmetry_group_IT_number 12
_symmetry_cell_setting 'monoclinic'
loop_
_space_group_symop_operation_xyz
x,y,z
-x,y,-z
-x,-y,-z
x,-y,z
1/2+x,1/2+y,z
1/2-x,1/2+y,-z
1/2-x,1/2-y,-z
1/2+x,1/2-y,z
loop_
_atom_site_type_symbol
_atom_site_label
_atom_site_fract_x
_atom_site_fract_y
_atom_site_fract_z
Si Si1 0.838243 0.179442 0.345712
Si Si2 0.033543 0.818890 0.219090
Si Si3 0.945240 0.681186 0.645116
Si Si4 0.780656 0.680028 0.087052
Si Si5 0.881663 0.320700 0.136931
O O1 0.750000 0.250000 0.500000
O O2 0.828509 0.236153 0.269387
O O3 0.947626 0.223835 0.255756
O O4 0.832138 0.000000 0.355504
O O5 0.003534 0.753320 0.338100
O O6 0.040825 0.000000 0.214450
O O7 0.141718 0.750377 0.065959
O O8 0.945498 0.500000 0.651196
O O9 0.829849 0.743687 0.781970
O O10 0.000000 0.722464 0.500000
O O11 0.771094 0.500000 0.085285
O O12 0.831946 0.706393 0.111509
O O13 0.878003 0.500000 0.156394
O O14 0.000000 0.273024 0.000000
#
# Coordination Sequence:
#
# PCOD9211765 Si02
#       5
#     8   8   8   8   8
#     4  11  25  41  63  94 130 169 208 256 310 369
#     4  11  24  43  66  93 125 165 212 257 309 372
#     4  11  26  45  65  92 125 163 209 261 316 371
#     4  11  23  41  68  95 126 166 207 258 311 369
#     4  10  21  40  65  95 128 164 206 251 308 372
#
# _framework density 20.052726
#
# number of rings (size 3 to 8) (size 9 to 14) (size 15 to 20)
#    0.000    1.200    2.000    3.000    2.800    6.000 
#    0.000    0.000    0.000    0.000    0.000    0.000 
#    0.000    0.000    0.000    0.000    0.000    0.000 
#
# Total GULP energy -111885.621887 kJ/mol
# GULP energy per Si atom -5594.281094 kJ/mol
# Density = 2.000708 g / cm^3
# Si number density = 20.052726 Si / 1000 Ang^3
#
#
#
# Elastic Constant Matrix: (Units=GPa)
#
#
# Indices 1 2 3 4 5 6 
#
# 1 63.9310 37.5122 22.5985 0.0001 19.8051 0.0000
# 2 37.5122 44.2258 34.4188 0.0012 17.3124 -0.0003
# 3 22.5985 34.4188 105.5629 0.0014 25.6279 -0.0002
# 4 0.0001 0.0012 0.0014 32.8672 -0.0001 7.1999
# 5 19.8051 17.3124 25.6279 -0.0001 38.8408 -0.0001
# 6 0.0000 -0.0003 -0.0002 7.1999 -0.0001 33.1079
#
#
#
# Elastic Compliance Matrix: (Units=1/GPa)
#
#
# Indices 1 2 3 4 5 6 
#
# 1 0.032989 -0.028311 0.003797 0.000001 -0.006708 0.000000
# 2 -0.028311 0.057035 -0.011751 -0.000002 -0.003233 0.000001
# 3 0.003797 -0.011751 0.013920 0.000000 -0.005883 0.000000
# 4 0.000001 -0.000002 0.000000 0.031947 0.000001 -0.006948
# 5 -0.006708 -0.003233 -0.005883 0.000001 0.034489 0.000000
# 6 0.000000 0.000001 0.000000 -0.006948 0.000000 0.031715
#
#
# Mechanical properties :
#
#
# Convention : Reuss Voigt Hill
#
# Bulk Modulus (GPa) = 31.83184 44.75320 38.29252
# Shear Modulus (GPa) = 17.53797 28.90918 23.22358
#
# Velocity S-wave (km/s) = 2.96056 3.80104 3.40682
# Velocity P-wave (km/s) = 5.25310 6.45214 5.88324
#
# Compressibility (1/GPa) = 0.03141509
#
# Stress axis : x y z
#
# Youngs Moduli (GPa) = 30.31286 17.53322 71.84054
#
# Poissons Ratio (x) = 0.49637 -0.27277
# Poissons Ratio (y) = 0.85817 0.84417
# Poissons Ratio (z) = -0.11510 0.20603
#
# Static dielectric constant tensor:
#      x y z
#    x 1.728010 0.000000 -0.008110 
#    y 0.000000 1.669610 0.000000 
#    z -0.008110 0.000000 1.682040 
# 
# From -- ./inp_files/221234.got.cif
#   From: 2010.05.17/outbox.cif.g08.bks.cpg/sg12_111_cif.got.tgz:221234.got - 2010.06.03 13:09:07.
