data_PCOD9211622
_publ_section_title
;
Structure prediction by ZEFSAII (Michael W. Deem and Ramdas Pophale) SiO2 
 PCOD9211622
Probable space group: C 2/M
;
_chemical_formula_sum "Si O2"
_cell_formula_units_Z 64
_cell_length_a 8.998777
_cell_length_b 19.822868
_cell_length_c 23.696134
_cell_angle_alpha 90.000000
_cell_angle_beta 126.948612
_cell_angle_gamma 90.000000
_cell_volume 3378.075397
_symmetry_space_group_name_H-M "C 2/M"
_symmetry_group_IT_number 12
_symmetry_cell_setting 'monoclinic'
loop_
_space_group_symop_operation_xyz
x,y,z
-x,y,-z
-x,-y,-z
x,-y,z
1/2+x,1/2+y,z
1/2-x,1/2+y,-z
1/2-x,1/2-y,-z
1/2+x,1/2-y,z
loop_
_atom_site_type_symbol
_atom_site_label
_atom_site_fract_x
_atom_site_fract_y
_atom_site_fract_z
Si Si1 0.854948 0.423519 0.700808
Si Si2 0.195015 0.073879 0.784093
Si Si3 0.510754 0.077888 0.941721
Si Si4 0.689657 0.581199 0.079617
Si Si5 0.797987 0.704856 0.431862
Si Si6 0.815903 0.332440 0.215442
Si Si7 0.958645 0.844979 0.433955
Si Si8 0.927227 0.198851 0.733479
O O1 0.850321 0.500000 0.680579
O O2 0.840174 0.422227 0.765508
O O3 0.674750 0.384668 0.638110
O O4 0.043520 0.387588 0.726671
O O5 0.309687 0.076262 0.867827
O O6 0.062285 0.136722 0.752228
O O7 0.102636 0.000000 0.757881
O O8 0.652359 0.105078 0.928211
O O9 0.574979 0.000000 0.964687
O O10 0.500000 0.111555 0.000000
O O11 0.713812 0.500000 0.099645
O O12 0.714901 0.629779 0.139760
O O13 0.500000 0.586286 0.000000
O O14 0.837153 0.784650 0.434232
O O15 0.633905 0.683526 0.437769
O O16 0.724941 0.692128 0.351612
O O17 0.000000 0.677526 0.500000
O O18 0.669971 0.309601 0.228736
O O19 0.952234 0.267912 0.236672
O O20 0.000000 0.887596 0.500000
#
# Coordination Sequence:
#
# PCOD9211622 Si02
#       8
#     8   8   8   8   8   8   8   8
#     4  11  22  40  64  89 124 166 207 256 313 371
#     4  10  21  40  64  92 124 162 206 256 312 374
#     4   9  18  34  61  90 120 157 201 248 296 359
#     4  10  22  41  64  93 129 167 209 254 306 373
#     4  11  22  38  62  93 122 161 209 257 311 372
#     4  12  25  41  64  93 125 164 213 262 313 368
#     4  11  22  37  63  90 122 160 206 257 308 375
#     4  12  25  41  66  93 124 164 206 266 314 373
#
# _framework density 18.945699000000001
#
# number of rings (size 3 to 8) (size 9 to 14) (size 15 to 20)
#    0.000    1.250    3.750    3.375    3.500    1.250 
#    0.000    1.250    0.000    0.750    0.000    0.000 
#    0.000    0.000    0.000    0.000    0.000    0.000 
#
# Total GULP energy -178236.446810 kJ/mol
# GULP energy per Si atom -5569.888963 kJ/mol
# Density = 1.890258 g / cm^3
# Si number density = 18.945699 Si / 1000 Ang^3
#
#
#
# Elastic Constant Matrix: (Units=GPa)
#
#
# Indices 1 2 3 4 5 6 
#
# 1 53.7560 24.4333 17.5770 0.0000 -11.0281 0.0000
# 2 24.4333 76.3165 29.5456 0.0000 8.2863 0.0000
# 3 17.5770 29.5456 107.2269 0.0000 -11.1066 0.0000
# 4 0.0000 0.0000 0.0000 11.5132 0.0000 -6.2285
# 5 -11.0281 8.2863 -11.1066 0.0000 36.4752 0.0000
# 6 0.0000 0.0000 0.0000 -6.2285 0.0000 12.4734
#
#
#
# Elastic Compliance Matrix: (Units=1/GPa)
#
#
# Indices 1 2 3 4 5 6 
#
# 1 0.024633 -0.008607 -0.000715 0.000000 0.009185 0.000000
# 2 -0.008607 0.018504 -0.004536 0.000000 -0.008187 0.000000
# 3 -0.000715 -0.004536 0.011128 0.000000 0.004203 0.000000
# 4 0.000000 0.000000 0.000000 0.119006 0.000000 0.059425
# 5 0.009185 -0.008187 0.004203 0.000000 0.033333 0.000000
# 6 0.000000 0.000000 0.000000 0.059425 0.000000 0.109844
#
#
# Mechanical properties :
#
#
# Convention : Reuss Voigt Hill
#
# Bulk Modulus (GPa) = 37.66509 42.26791 39.96650
# Shear Modulus (GPa) = 14.16382 23.14190 18.65286
#
# Velocity S-wave (km/s) = 2.73720 3.49877 3.14115
# Velocity P-wave (km/s) = 5.46931 6.21935 5.85635
#
# Compressibility (1/GPa) = 0.02654978
#
# Stress axis : x y z
#
# Youngs Moduli (GPa) = 40.59646 54.04291 89.86071
#
# Poissons Ratio (x) = 0.46514 0.06424
# Poissons Ratio (y) = 0.34941 0.40759
# Poissons Ratio (z) = 0.02902 0.24512
#
# Static dielectric constant tensor:
#      x y z
#    x 1.661360 0.000000 -0.004170 
#    y 0.000000 1.667320 0.000000 
#    z -0.004170 0.000000 1.779970 
# 
# From -- ./inp_files/333775.got.cif
#   From: 2010.05.17/outbox.cif.g08.bks.cpg/sg12_167_cif.got.tgz:333775.got - 2010.06.03 13:09:07.
