data_PCOD9211786
_publ_section_title
;
Structure prediction by ZEFSAII (Michael W. Deem and Ramdas Pophale) SiO2 
 PCOD9211786
Probable space group: C 2/M
;
_chemical_formula_sum "Si O2"
_cell_formula_units_Z 52
_cell_length_a 12.515792
_cell_length_b 23.054901
_cell_length_c 10.356977
_cell_angle_alpha 90.000000
_cell_angle_beta 124.149989
_cell_angle_gamma 90.000000
_cell_volume 2473.203256
_symmetry_space_group_name_H-M "C 2/M"
_symmetry_group_IT_number 12
_symmetry_cell_setting 'monoclinic'
loop_
_space_group_symop_operation_xyz
x,y,z
-x,y,-z
-x,-y,-z
x,-y,z
1/2+x,1/2+y,z
1/2-x,1/2+y,-z
1/2-x,1/2-y,-z
1/2+x,1/2-y,z
loop_
_atom_site_type_symbol
_atom_site_label
_atom_site_fract_x
_atom_site_fract_y
_atom_site_fract_z
Si Si1 0.005757 0.500000 0.240604
Si Si2 0.735301 0.500000 0.954885
Si Si3 0.127993 0.115629 0.010641
Si Si4 0.318580 0.209645 0.158334
Si Si5 0.312745 0.375915 0.452071
Si Si6 0.915036 0.825850 0.290089
Si Si7 0.529561 0.873364 0.369137
Si Si8 0.696718 0.500000 0.631511
O O1 0.996764 0.440724 0.316959
O O2 0.148082 0.500000 0.276830
O O3 0.890553 0.500000 0.059498
O O4 0.694681 0.557082 0.007268
O O5 0.672932 0.500000 0.769302
O O6 0.093518 0.152150 0.860738
O O7 0.218305 0.162324 0.145792
O O8 0.000000 0.100796 0.000000
O O9 0.376727 0.259616 0.286604
O O10 0.442079 0.167873 0.217005
O O11 0.250000 0.250000 0.000000
O O12 0.307274 0.361719 0.296118
O O13 0.436607 0.338753 0.575443
O O14 0.350740 0.443433 0.476521
O O15 0.180552 0.365292 0.436547
O O16 0.500000 0.861536 0.500000
#
# Coordination Sequence:
#
# PCOD9211786 Si02
#       8
#     4   4   8   8   8   8   8   4
#     4  10  22  41  66  96 127 170 213 272 332 394
#     4  12  20  40  65  96 131 166 222 263 328 404
#     4  11  24  41  65  95 134 170 216 269 329 386
#     4  10  24  45  64  94 129 174 221 263 323 386
#     4  10  23  41  67  97 132 166 218 271 327 392
#     4  10  23  42  63  95 128 174 221 259 322 390
#     4  11  24  42  68  98 132 170 219 272 336 387
#     4  10  21  40  66 101 126 167 209 271 338 384
#
# _framework density 21.025365000000001
#
# number of rings (size 3 to 8) (size 9 to 14) (size 15 to 20)
#    0.000    1.538    3.077    0.692    4.308    4.923 
#    0.000    2.308    0.000    0.000    0.000    0.000 
#    0.000    0.000    0.000    0.000    0.000    0.000 
#
# Total GULP energy -144834.244559 kJ/mol
# GULP energy per Si atom -5570.547868 kJ/mol
# Density = 2.097751 g / cm^3
# Si number density = 21.025365 Si / 1000 Ang^3
#
#
#
# Elastic Constant Matrix: (Units=GPa)
#
#
# Indices 1 2 3 4 5 6 
#
# 1 109.3127 23.2478 31.5264 0.0000 10.8418 0.0000
# 2 23.2478 134.9104 26.6990 0.0000 18.9496 0.0000
# 3 31.5264 26.6990 65.9841 0.0000 15.6435 0.0000
# 4 0.0000 0.0000 0.0000 18.5386 0.0000 1.3705
# 5 10.8418 18.9496 15.6435 0.0000 28.6620 0.0000
# 6 0.0000 0.0000 0.0000 1.3705 0.0000 505.7688
#
#
#
# Elastic Compliance Matrix: (Units=1/GPa)
#
#
# Indices 1 2 3 4 5 6 
#
# 1 0.010737 -0.000801 -0.004558 0.000000 -0.001044 0.000000
# 2 -0.000801 0.008554 -0.002078 0.000000 -0.004218 0.000000
# 3 -0.004558 -0.002078 0.020031 0.000000 -0.007835 0.000000
# 4 0.000000 0.000000 0.000000 0.053952 0.000000 -0.000146
# 5 -0.001044 -0.004218 -0.007835 0.000000 0.042349 0.000000
# 6 0.000000 0.000000 0.000000 -0.000146 0.000000 0.001978
#
#
# Mechanical properties :
#
#
# Convention : Reuss Voigt Hill
#
# Bulk Modulus (GPa) = 40.90586 52.57263 46.73924
# Shear Modulus (GPa) = 31.12828 125.84283 78.48555
#
# Velocity S-wave (km/s) = 3.85191 7.74486 6.11637
# Velocity P-wave (km/s) = 6.26743 10.24869 8.49460
#
# Compressibility (1/GPa) = 0.02444637
#
# Stress axis : x y z
#
# Youngs Moduli (GPa) = 93.13926 116.90158 49.92169
#
# Poissons Ratio (x) = 0.09370 0.22755
# Poissons Ratio (y) = 0.07465 0.10375
# Poissons Ratio (z) = 0.42454 0.24296
#
# Static dielectric constant tensor:
#      x y z
#    x 1.717080 0.000000 -0.011640 
#    y 0.000000 1.819330 0.000000 
#    z -0.011640 0.000000 1.939370 
# 
# From -- ./inp_files/136046.got.cif
#   From: 2010.05.17/outbox.cif.g08.bks.cpg/sg12_69_cif.got.tgz:136046.got - 2010.06.03 13:09:07.
