data_PCOD9211147
_publ_section_title
;
Structure prediction by ZEFSAII (Michael W. Deem and Ramdas Pophale) SiO2 
 PCOD9211147
Probable space group: C 2/M
;
_chemical_formula_sum "Si O2"
_cell_formula_units_Z 32
_cell_length_a 21.323780
_cell_length_b 10.072056
_cell_length_c 20.882529
_cell_angle_alpha 90.000000
_cell_angle_beta 19.334754
_cell_angle_gamma 90.000000
_cell_volume 1484.934522
_symmetry_space_group_name_H-M "C 2/M"
_symmetry_group_IT_number 12
_symmetry_cell_setting 'monoclinic'
loop_
_space_group_symop_operation_xyz
x,y,z
-x,y,-z
-x,-y,-z
x,-y,z
1/2+x,1/2+y,z
1/2-x,1/2+y,-z
1/2-x,1/2-y,-z
1/2+x,1/2-y,z
loop_
_atom_site_type_symbol
_atom_site_label
_atom_site_fract_x
_atom_site_fract_y
_atom_site_fract_z
Si Si1 0.624578 0.000000 0.222018
Si Si2 0.403983 0.301781 0.156690
Si Si3 0.000000 0.792174 0.500000
Si Si4 0.273207 0.298727 0.837244
Si Si5 0.326468 0.500000 0.342664
Si Si6 0.146502 0.000000 0.130155
O O1 0.686069 0.860808 0.196327
O O2 0.398228 0.000000 0.434872
O O3 0.719299 0.000000 0.060994
O O4 0.186351 0.280980 0.347422
O O5 0.393838 0.379200 0.233075
O O6 0.500000 0.361387 0.000000
O O7 0.554050 0.184659 0.027353
O O8 0.909356 0.855206 0.650770
O O9 0.315429 0.372215 0.862463
O O10 0.435546 0.500000 0.304345
#
# Coordination Sequence:
#
# PCOD9211147 Si02
#       6
#     4   8   4   8   4   4
#     4  12  24  41  68  98 134 172 226 271 322 394
#     4  10  21  39  66  99 133 169 220 284 335 380
#     4  10  22  42  72 100 128 172 228 284 328 386
#     4  11  24  45  68  99 135 176 223 275 332 395
#     4  12  23  38  68 100 134 174 219 278 334 393
#     4  12  28  44  64  98 145 182 214 263 338 412
#
# _framework density 21.549772999999998
#
# number of rings (size 3 to 8) (size 9 to 14) (size 15 to 20)
#    0.000    1.000    5.000    1.125    0.000    7.500 
#    0.000    5.625    0.000    0.000    0.000    0.000 
#    0.000    0.000    0.000    0.000    0.000    0.000 
#
# Total GULP energy -89160.376604 kJ/mol
# GULP energy per Si atom -5572.523538 kJ/mol
# Density = 2.150073 g / cm^3
# Si number density = 21.549773 Si / 1000 Ang^3
#
#
#
# Elastic Constant Matrix: (Units=GPa)
#
#
# Indices 1 2 3 4 5 6 
#
# 1 145.6159 41.0467 42.5226 0.0023 -15.9635 0.0005
# 2 41.0467 95.2476 21.4446 0.0012 -6.2019 -0.0001
# 3 42.5226 21.4446 170.5939 0.0044 -23.4790 0.0009
# 4 0.0023 0.0012 0.0044 -12.2062 -0.0017 9.2702
# 5 -15.9635 -6.2019 -23.4790 -0.0017 58.2589 0.0000
# 6 0.0005 -0.0001 0.0009 9.2702 0.0000 87.0669
#
#
#
# Elastic Compliance Matrix: (Units=1/GPa)
#
#
# Indices 1 2 3 4 5 6 
#
# 1 0.008346 -0.003172 -0.001496 0.000000 0.001346 0.000000
# 2 -0.003172 0.012033 -0.000704 0.000000 0.000128 0.000000
# 3 -0.001496 -0.000704 0.006624 0.000002 0.002185 0.000000
# 4 0.000000 0.000000 0.000002 -0.075797 -0.000001 0.008070
# 5 0.001346 0.000128 0.002185 -0.000001 0.018428 0.000000
# 6 0.000000 0.000000 0.000000 0.008070 0.000000 0.010626
#
#
# Mechanical properties :
#
#
# Convention : Reuss Voigt Hill
#
# Bulk Modulus (GPa) = 61.51031 69.05390 65.28210
# Shear Modulus (GPa) = -1398.64645 47.05348 -675.79649
#
# Velocity S-wave (km/s) = -25.50372 4.67784 -17.72791
# Velocity P-wave (km/s) = 28.95941 7.82878 19.71494
#
# Compressibility (1/GPa) = 0.01625744
#
# Stress axis : x y z
#
# Youngs Moduli (GPa) = 119.81636 83.10554 150.96496
#
# Poissons Ratio (x) = 0.26363 0.22589
# Poissons Ratio (y) = 0.38008 0.10632
# Poissons Ratio (z) = 0.17928 0.05853
#
# Static dielectric constant tensor:
#      x y z
#    x 1.768970 0.000000 -0.023780 
#    y 0.000000 1.852840 0.000000 
#    z -0.023780 0.000000 1.770990 
# 
# From -- ./inp_files/321153.got.cif
#   From: 2010.05.17/outbox.cif.g08.bks.cpg/sg12_161_cif.got.tgz:321153.got - 2010.06.03 13:09:07.
