data_PCOD9211241
_publ_section_title
;
Structure prediction by ZEFSAII (Michael W. Deem and Ramdas Pophale) SiO2 
 PCOD9211241
Probable space group: C 2/M
;
_chemical_formula_sum "Si O2"
_cell_formula_units_Z 44
_cell_length_a 18.847289
_cell_length_b 22.163341
_cell_length_c 10.647905
_cell_angle_alpha 90.000000
_cell_angle_beta 33.143784
_cell_angle_gamma 90.000000
_cell_volume 2431.815911
_symmetry_space_group_name_H-M "C 2/M"
_symmetry_group_IT_number 12
_symmetry_cell_setting 'monoclinic'
loop_
_space_group_symop_operation_xyz
x,y,z
-x,y,-z
-x,-y,-z
x,-y,z
1/2+x,1/2+y,z
1/2-x,1/2+y,-z
1/2-x,1/2-y,-z
1/2+x,1/2-y,z
loop_
_atom_site_type_symbol
_atom_site_label
_atom_site_fract_x
_atom_site_fract_y
_atom_site_fract_z
Si Si1 0.610749 0.210656 0.061233
Si Si2 0.588705 0.150173 0.489739
Si Si3 0.812401 0.931019 0.070670
Si Si4 0.000000 0.883980 0.000000
Si Si5 0.310823 0.277870 0.286602
Si Si6 0.114775 0.826299 0.231263
O O1 0.611228 0.231777 0.917142
O O2 0.753447 0.190301 0.891463
O O3 0.509332 0.158297 0.248665
O O4 0.579375 0.270183 0.191988
O O5 0.500000 0.163226 0.500000
O O6 0.700072 0.198671 0.354777
O O7 0.674071 0.090899 0.334069
O O8 0.850975 0.884077 0.904653
O O9 0.804636 0.000000 0.041040
O O10 0.924847 0.922516 0.008243
O O11 0.892048 0.836511 0.208334
O O12 0.250000 0.250000 0.500000
O O13 0.000000 0.836551 0.500000
#
# Coordination Sequence:
#
# PCOD9211241 Si02
#       6
#     8   8   8   4   8   8
#     4  11  19  36  58  91 126 151 191 250 314 368
#     4  11  20  38  59  90 120 157 202 247 309 357
#     4  11  24  42  62  86 121 167 215 249 291 364
#     4  10  21  40  56  90 116 162 211 242 298 356
#     4  11  22  34  59  93 128 158 195 246 313 380
#     4  11  22  35  60  88 122 159 194 248 310 362
#
# _framework density 18.093474000000001
#
# number of rings (size 3 to 8) (size 9 to 14) (size 15 to 20)
#    0.000    1.091    5.455    4.091    2.545    0.727 
#    0.000    0.000    0.000    0.000    0.000    2.545 
#    0.000    0.000    0.000    0.000    0.000    0.000 
#
# Total GULP energy -122767.576998 kJ/mol
# GULP energy per Si atom -5580.344409 kJ/mol
# Density = 1.805229 g / cm^3
# Si number density = 18.093474 Si / 1000 Ang^3
#
#
#
# Elastic Constant Matrix: (Units=GPa)
#
#
# Indices 1 2 3 4 5 6 
#
# 1 91.2621 29.1603 22.4058 -0.0004 -9.1705 -0.0001
# 2 29.1603 105.3198 44.7145 0.0019 5.5348 -0.0006
# 3 22.4058 44.7145 110.9269 0.0052 5.6831 -0.0017
# 4 -0.0004 0.0019 0.0052 12.3300 -0.0008 7.8834
# 5 -9.1705 5.5348 5.6831 -0.0008 34.0876 0.0001
# 6 -0.0001 -0.0006 -0.0017 7.8834 0.0001 11.7362
#
#
#
# Elastic Compliance Matrix: (Units=1/GPa)
#
#
# Indices 1 2 3 4 5 6 
#
# 1 0.012746 -0.003095 -0.001542 0.000004 0.004188 -0.000003
# 2 -0.003095 0.012248 -0.004203 -0.000001 -0.002120 0.000000
# 3 -0.001542 -0.004203 0.011102 -0.000009 -0.001583 0.000007
# 4 0.000004 -0.000001 -0.000009 0.142154 0.000006 -0.095487
# 5 0.004188 -0.002120 -0.001583 0.000006 0.031071 -0.000005
# 6 -0.000003 0.000000 0.000007 -0.095487 -0.000005 0.149346
#
#
# Mechanical properties :
#
#
# Convention : Reuss Voigt Hill
#
# Bulk Modulus (GPa) = 54.30032 55.56333 54.93182
# Shear Modulus (GPa) = 13.07245 25.71265 19.39255
#
# Velocity S-wave (km/s) = 2.69084 3.77384 3.27738
# Velocity P-wave (km/s) = 6.30320 7.05442 6.68936
#
# Compressibility (1/GPa) = 0.01841610
#
# Stress axis : x y z
#
# Youngs Moduli (GPa) = 78.45862 81.64811 90.07543
#
# Poissons Ratio (x) = 0.25266 0.13886
# Poissons Ratio (y) = 0.24279 0.37862
# Poissons Ratio (z) = 0.12095 0.34319
#
# Static dielectric constant tensor:
#      x y z
#    x 1.648380 0.000000 -0.030970 
#    y 0.000000 1.597800 0.000000 
#    z -0.030970 0.000000 1.680540 
# 
# From -- ./inp_files/132368.got.cif
#   From: 2010.05.17/outbox.cif.g08.bks.cpg/sg12_67_cif.got.tgz:132368.got - 2010.06.03 13:09:07.
