data_PCOD9211493
_publ_section_title
;
Structure prediction by ZEFSAII (Michael W. Deem and Ramdas Pophale) SiO2 
 PCOD9211493
Probable space group: C 2/M
;
_chemical_formula_sum "Si O2"
_cell_formula_units_Z 48
_cell_length_a 19.022708
_cell_length_b 16.392530
_cell_length_c 11.996934
_cell_angle_alpha 90.000000
_cell_angle_beta 44.028716
_cell_angle_gamma 90.000000
_cell_volume 2600.070690
_symmetry_space_group_name_H-M "C 2/M"
_symmetry_group_IT_number 12
_symmetry_cell_setting 'monoclinic'
loop_
_space_group_symop_operation_xyz
x,y,z
-x,y,-z
-x,-y,-z
x,-y,z
1/2+x,1/2+y,z
1/2-x,1/2+y,-z
1/2-x,1/2-y,-z
1/2+x,1/2-y,z
loop_
_atom_site_type_symbol
_atom_site_label
_atom_site_fract_x
_atom_site_fract_y
_atom_site_fract_z
Si Si1 0.453069 0.500000 0.223750
Si Si2 0.290786 0.219147 0.281790
Si Si3 0.500574 0.162514 0.678810
Si Si4 0.666317 0.140330 0.320264
Si Si5 0.414677 0.910094 0.003722
Si Si6 0.170479 0.000000 0.866368
Si Si7 0.390777 0.679973 0.356504
O O1 0.378596 0.500000 0.201005
O O2 0.430851 0.587757 0.305480
O O3 0.571158 0.500000 0.056043
O O4 0.220247 0.276071 0.288716
O O5 0.369240 0.277271 0.260435
O O6 0.218038 0.179067 0.457733
O O7 0.339268 0.154138 0.144491
O O8 0.596005 0.120175 0.508083
O O9 0.408345 0.153083 0.698040
O O10 0.466935 0.121850 0.831957
O O11 0.535899 0.255556 0.664053
O O12 0.754985 0.075968 0.201253
O O13 0.369744 0.000000 0.035339
O O14 0.500000 0.917048 0.000000
#
# Coordination Sequence:
#
# PCOD9211493 Si02
#       7
#     4   8   8   8   8   4   8
#     4  11  24  38  64  95 130 155 212 271 314 373
#     4  10  21  40  63  89 124 167 211 253 314 384
#     4  10  23  42  66  89 126 170 208 262 315 375
#     4  10  23  42  65  93 125 166 214 263 316 376
#     4  11  24  37  58  92 126 163 207 258 311 372
#     4  11  24  37  62  98 122 163 211 271 321 360
#     4  10  21  41  64  92 122 171 210 257 314 379
#
# _framework density 18.461036
#
# number of rings (size 3 to 8) (size 9 to 14) (size 15 to 20)
#    0.000    1.667    3.333    0.000    5.833    1.333 
#    0.000    0.000    0.000    2.000    0.000    0.000 
#    0.000    0.000    0.000    0.000    0.000    0.000 
#
# Total GULP energy -133847.041236 kJ/mol
# GULP energy per Si atom -5576.960052 kJ/mol
# Density = 1.841902 g / cm^3
# Si number density = 18.461036 Si / 1000 Ang^3
#
#
#
# Elastic Constant Matrix: (Units=GPa)
#
#
# Indices 1 2 3 4 5 6 
#
# 1 83.7545 38.6464 54.0966 0.0000 -8.1057 0.0000
# 2 38.6464 119.5960 75.7287 0.0000 -4.8682 0.0000
# 3 54.0966 75.7287 112.5138 0.0000 3.9935 0.0000
# 4 0.0000 0.0000 0.0000 49.7368 0.0000 12.1422
# 5 -8.1057 -4.8682 3.9935 0.0000 30.8644 0.0000
# 6 0.0000 0.0000 0.0000 12.1422 0.0000 48.6593
#
#
#
# Elastic Compliance Matrix: (Units=1/GPa)
#
#
# Indices 1 2 3 4 5 6 
#
# 1 0.018358 0.000063 -0.009082 0.000000 0.006006 0.000000
# 2 0.000063 0.014978 -0.010243 0.000000 0.003704 0.000000
# 3 -0.009082 -0.010243 0.020384 0.000000 -0.006638 0.000000
# 4 0.000000 0.000000 0.000000 0.021410 0.000000 -0.005343
# 5 0.006006 0.003704 -0.006638 0.000000 0.035420 0.000000
# 6 0.000000 0.000000 0.000000 -0.005343 0.000000 0.021884
#
#
# Mechanical properties :
#
#
# Convention : Reuss Voigt Hill
#
# Bulk Modulus (GPa) = 65.80599 72.53418 69.17009
# Shear Modulus (GPa) = 28.40541 35.67829 32.04185
#
# Velocity S-wave (km/s) = 3.92684 4.40093 4.17063
# Velocity P-wave (km/s) = 7.50223 8.07465 7.79370
#
# Compressibility (1/GPa) = 0.01519618
#
# Stress axis : x y z
#
# Youngs Moduli (GPa) = 54.47241 66.76664 49.05799
#
# Poissons Ratio (x) = -0.00422 0.44555
# Poissons Ratio (y) = -0.00344 0.50248
# Poissons Ratio (z) = 0.49473 0.68387
#
# Static dielectric constant tensor:
#      x y z
#    x 1.622100 0.000000 0.001340 
#    y 0.000000 1.658650 0.000000 
#    z 0.001340 0.000000 1.672920 
# 
# From -- ./inp_files/167561.got.cif
#   From: 2010.05.17/outbox.cif.g08.bks.cpg/sg12_84_cif.got.tgz:167561.got - 2010.06.03 13:09:07.
