data_PCOD9211591
_publ_section_title
;
Structure prediction by ZEFSAII (Michael W. Deem and Ramdas Pophale) SiO2 
 PCOD9211591
Probable space group: C 2/M
;
_chemical_formula_sum "Si O2"
_cell_formula_units_Z 48
_cell_length_a 9.187865
_cell_length_b 15.219563
_cell_length_c 18.527149
_cell_angle_alpha 90.000000
_cell_angle_beta 81.414249
_cell_angle_gamma 90.000000
_cell_volume 2561.716126
_symmetry_space_group_name_H-M "C 2/M"
_symmetry_group_IT_number 12
_symmetry_cell_setting 'monoclinic'
loop_
_space_group_symop_operation_xyz
x,y,z
-x,y,-z
-x,-y,-z
x,-y,z
1/2+x,1/2+y,z
1/2-x,1/2+y,-z
1/2-x,1/2-y,-z
1/2+x,1/2-y,z
loop_
_atom_site_type_symbol
_atom_site_label
_atom_site_fract_x
_atom_site_fract_y
_atom_site_fract_z
Si Si1 0.709210 0.500000 0.419524
Si Si2 0.238505 0.658676 0.324053
Si Si3 0.370701 0.500000 0.406369
Si Si4 0.888301 0.345929 0.332814
Si Si5 0.079112 0.601041 0.835260
Si Si6 0.638818 0.241007 0.943424
Si Si7 0.769641 0.103386 0.155758
O O1 0.548595 0.500000 0.393532
O O2 0.680666 0.500000 0.506932
O O3 0.801862 0.415050 0.388477
O O4 0.305626 0.584432 0.370471
O O5 0.309541 0.751803 0.338747
O O6 0.278738 0.633387 0.238405
O O7 0.060598 0.660669 0.341145
O O8 0.883278 0.381229 0.250885
O O9 0.109597 0.500000 0.851052
O O10 0.164293 0.667471 0.880908
O O11 0.902253 0.615865 0.854100
O O12 0.632560 0.333117 0.900955
O O13 0.500000 0.213760 0.000000
O O14 0.750000 0.250000 0.000000
O O15 0.803983 0.000000 0.147329
#
# Coordination Sequence:
#
# PCOD9211591 Si02
#       7
#     4   8   4   8   8   8   8
#     4  11  25  45  67  99 137 167 211 267 320 387
#     4  11  22  40  68  98 129 172 218 265 323 383
#     4  11  25  45  67  99 137 169 207 268 326 376
#     4  11  22  40  68  99 129 170 221 265 317 391
#     4  10  21  40  65  90 122 168 215 258 318 385
#     4  12  24  40  61  91 129 166 208 267 322 374
#     4  10  21  40  64  90 125 165 212 265 318 379
#
# _framework density 18.737438000000001
#
# number of rings (size 3 to 8) (size 9 to 14) (size 15 to 20)
#    0.000    1.167    5.000    1.500    0.000    3.333 
#    3.000    0.000    0.000    0.000    0.000    0.000 
#    0.000    0.000    0.000    0.000    0.000    0.000 
#
# Total GULP energy -134017.120302 kJ/mol
# GULP energy per Si atom -5584.046679 kJ/mol
# Density = 1.869479 g / cm^3
# Si number density = 18.737438 Si / 1000 Ang^3
#
#
#
# Elastic Constant Matrix: (Units=GPa)
#
#
# Indices 1 2 3 4 5 6 
#
# 1 42.7303 7.6158 27.4936 0.0000 19.9993 0.0000
# 2 7.6158 136.3401 37.5742 0.0000 15.5502 0.0000
# 3 27.4936 37.5742 82.0672 0.0000 11.6672 0.0000
# 4 0.0000 0.0000 0.0000 39.3679 0.0000 -0.4474
# 5 19.9993 15.5502 11.6672 0.0000 31.0760 0.0000
# 6 0.0000 0.0000 0.0000 -0.4474 0.0000 32.6157
#
#
#
# Elastic Compliance Matrix: (Units=1/GPa)
#
#
# Indices 1 2 3 4 5 6 
#
# 1 0.042098 0.003844 -0.012400 0.000000 -0.024361 0.000000
# 2 0.003844 0.009002 -0.004666 0.000000 -0.005227 0.000000
# 3 -0.012400 -0.004666 0.017968 0.000000 0.003569 0.000000
# 4 0.000000 0.000000 0.000000 0.025405 0.000000 0.000348
# 5 -0.024361 -0.005227 0.003569 0.000000 0.049132 0.000000
# 6 0.000000 0.000000 0.000000 0.000348 0.000000 0.030665
#
#
# Mechanical properties :
#
#
# Convention : Reuss Voigt Hill
#
# Bulk Modulus (GPa) = 23.46120 45.16719 34.31419
# Shear Modulus (GPa) = 23.26422 33.17554 28.21988
#
# Velocity S-wave (km/s) = 3.52744 4.21235 3.88502
# Velocity P-wave (km/s) = 5.39803 6.91493 6.20302
#
# Compressibility (1/GPa) = 0.04262357
#
# Stress axis : x y z
#
# Youngs Moduli (GPa) = 23.75434 111.08648 55.65327
#
# Poissons Ratio (x) = -0.42705 0.69011
# Poissons Ratio (y) = -0.09132 0.25970
# Poissons Ratio (z) = 0.29456 0.51837
#
# Static dielectric constant tensor:
#      x y z
#    x 1.635670 0.000000 -0.003540 
#    y 0.000000 1.623490 0.000000 
#    z -0.003540 0.000000 1.610960 
# 
# From -- ./inp_files/255822.got.cif
#   From: 2010.05.17/outbox.cif.g08.bks.cpg/sg12_128_cif.got.tgz:255822.got - 2010.06.03 13:09:07.
