data_PCOD9211945
_publ_section_title
;
Structure prediction by ZEFSAII (Michael W. Deem and Ramdas Pophale) SiO2 
 PCOD9211945
Probable space group: C 2/M
;
_chemical_formula_sum "Si O2"
_cell_formula_units_Z 50
_cell_length_a 17.850042
_cell_length_b 17.054936
_cell_length_c 9.375683
_cell_angle_alpha 90.000000
_cell_angle_beta 107.057129
_cell_angle_gamma 90.000000
_cell_volume 2728.700939
_symmetry_space_group_name_H-M "C 2/M"
_symmetry_group_IT_number 12
_symmetry_cell_setting 'monoclinic'
loop_
_space_group_symop_operation_xyz
x,y,z
-x,y,-z
-x,-y,-z
x,-y,z
1/2+x,1/2+y,z
1/2-x,1/2+y,-z
1/2-x,1/2-y,-z
1/2+x,1/2-y,z
loop_
_atom_site_type_symbol
_atom_site_label
_atom_site_fract_x
_atom_site_fract_y
_atom_site_fract_z
Si Si1 0.763445 0.688179 0.711705
Si Si2 0.873479 0.200309 0.133443
Si Si3 0.000000 0.500000 0.000000
Si Si4 0.874467 0.630082 0.017890
Si Si5 0.814165 0.854099 0.615534
Si Si6 0.509093 0.408935 0.334075
Si Si7 0.274288 0.586215 0.885560
O O1 0.692091 0.711194 0.778775
O O2 0.802528 0.764621 0.662414
O O3 0.726258 0.639072 0.561288
O O4 0.826448 0.643320 0.843537
O O5 0.899682 0.284284 0.088685
O O6 0.943983 0.147252 0.229566
O O7 0.829562 0.152680 0.983952
O O8 0.942434 0.568774 0.033408
O O9 0.810589 0.598719 0.094478
O O10 0.773912 0.904824 0.716063
O O11 0.904412 0.878795 0.656238
O O12 0.500000 0.405818 0.500000
O O13 0.499733 0.500000 0.284486
O O14 0.303746 0.500000 0.943001
#
# Coordination Sequence:
#
# PCOD9211945 Si02
#       7
#     8   8   2   8   8   8   8
#     4  10  21  40  68  93 118 169 223 253 312 393
#     4  11  21  42  68  90 127 172 219 263 317 389
#     4  12  28  44  64  98 130 168 218 264 328 372
#     4  11  23  44  66  91 126 170 216 265 313 381
#     4  11  21  39  63  96 127 162 211 263 320 385
#     4  11  24  40  59  97 138 169 201 263 329 383
#     4  11  21  39  64  98 127 163 214 268 316 373
#
# _framework density 18.323737000000001
#
# number of rings (size 3 to 8) (size 9 to 14) (size 15 to 20)
#    0.000    1.120    5.600    1.920    2.240    0.640 
#    2.880    1.600    0.000    0.960    0.000    0.000 
#    0.000    0.000    0.000    0.000    0.000    0.000 
#
# Total GULP energy -139374.080337 kJ/mol
# GULP energy per Si atom -5574.963213 kJ/mol
# Density = 1.828203 g / cm^3
# Si number density = 18.323737 Si / 1000 Ang^3
#
#
#
# Elastic Constant Matrix: (Units=GPa)
#
#
# Indices 1 2 3 4 5 6 
#
# 1 92.7884 67.9513 40.2197 0.0000 -4.7741 0.0000
# 2 67.9513 151.2198 43.7152 0.0000 0.5887 0.0000
# 3 40.2197 43.7152 97.5393 0.0000 -9.6503 0.0000
# 4 0.0000 0.0000 0.0000 12.3132 0.0000 -5.5863
# 5 -4.7741 0.5887 -9.6503 0.0000 19.7595 0.0000
# 6 0.0000 0.0000 0.0000 -5.5863 0.0000 21.3556
#
#
#
# Elastic Compliance Matrix: (Units=1/GPa)
#
#
# Indices 1 2 3 4 5 6 
#
# 1 0.017578 -0.006761 -0.003970 0.000000 0.002510 0.000000
# 2 -0.006761 0.010273 -0.002110 0.000000 -0.002970 0.000000
# 3 -0.003970 -0.002110 0.013393 0.000000 0.005645 0.000000
# 4 0.000000 0.000000 0.000000 0.092149 0.000000 0.024105
# 5 0.002510 -0.002970 0.005645 0.000000 0.054060 0.000000
# 6 0.000000 0.000000 0.000000 0.024105 0.000000 0.053132
#
#
# Mechanical properties :
#
#
# Convention : Reuss Voigt Hill
#
# Bulk Modulus (GPa) = 64.25673 71.70220 67.97947
# Shear Modulus (GPa) = 18.41929 23.32977 20.87453
#
# Velocity S-wave (km/s) = 3.17395 3.57206 3.37888
# Velocity P-wave (km/s) = 6.96962 7.49857 7.23893
#
# Compressibility (1/GPa) = 0.01556257
#
# Stress axis : x y z
#
# Youngs Moduli (GPa) = 56.88792 97.34709 74.66408
#
# Poissons Ratio (x) = 0.65817 0.29641
# Poissons Ratio (y) = 0.38462 0.15753
# Poissons Ratio (z) = 0.22584 0.20539
#
# Static dielectric constant tensor:
#      x y z
#    x 1.599640 0.000000 -0.010910 
#    y 0.000000 1.637380 0.000000 
#    z -0.010910 0.000000 1.632140 
# 
# From -- ./inp_files/75371.got.cif
#   From: 2010.05.17/outbox.cif.g08.bks.cpg/sg12_38_cif.got.tgz:75371.got - 2010.06.03 13:09:07.
