data_PCOD9211140
_publ_section_title
;
Structure prediction by ZEFSAII (Michael W. Deem and Ramdas Pophale) SiO2 
 PCOD9211140
Probable space group: C 2/M
;
_chemical_formula_sum "Si O2"
_cell_formula_units_Z 56
_cell_length_a 23.382833
_cell_length_b 14.820922
_cell_length_c 13.271284
_cell_angle_alpha 90.000000
_cell_angle_beta 34.949216
_cell_angle_gamma 90.000000
_cell_volume 2634.670625
_symmetry_space_group_name_H-M "C 2/M"
_symmetry_group_IT_number 12
_symmetry_cell_setting 'monoclinic'
loop_
_space_group_symop_operation_xyz
x,y,z
-x,y,-z
-x,-y,-z
x,-y,z
1/2+x,1/2+y,z
1/2-x,1/2+y,-z
1/2-x,1/2-y,-z
1/2+x,1/2-y,z
loop_
_atom_site_type_symbol
_atom_site_label
_atom_site_fract_x
_atom_site_fract_y
_atom_site_fract_z
Si Si1 0.749393 0.301219 0.825871
Si Si2 0.788628 0.400681 0.190231
Si Si3 0.663039 0.360401 0.563435
Si Si4 0.695264 0.149704 0.473705
Si Si5 0.928713 0.727737 0.697353
Si Si6 0.518126 0.903072 0.199167
Si Si7 0.059815 0.894998 0.190346
O O1 0.747103 0.193209 0.807889
O O2 0.793477 0.349402 0.662912
O O3 0.820959 0.307803 0.818728
O O4 0.642798 0.345756 0.001586
O O5 0.759567 0.500000 0.189162
O O6 0.741991 0.398285 0.368399
O O7 0.908289 0.394192 0.002258
O O8 0.671459 0.252954 0.537490
O O9 0.704577 0.381000 0.614374
O O10 0.551110 0.388888 0.697420
O O11 0.598643 0.098609 0.653176
O O12 0.961064 0.674542 0.750186
O O13 0.936571 0.833174 0.714675
O O14 0.000000 0.709884 0.500000
O O15 0.542699 0.000000 0.211511
O O16 0.083777 0.000000 0.171927
#
# Coordination Sequence:
#
# PCOD9211140 Si02
#       7
#     8   8   8   8   8   8   8
#     4  11  23  43  68  94 134 175 218 270 324 397
#     4  10  21  39  66  97 130 170 217 268 326 384
#     4  10  21  41  68  95 135 175 213 269 322 388
#     4  10  21  42  68  95 130 176 218 264 329 384
#     4  12  23  45  69  92 130 170 215 279 335 381
#     4  11  23  40  65  95 128 166 218 271 326 387
#     4  12  26  43  65  98 136 175 221 267 328 403
#
# _framework density 21.255030000000001
#
# number of rings (size 3 to 8) (size 9 to 14) (size 15 to 20)
#    0.000    1.143    4.286    1.714    0.000    4.571 
#    0.000    6.429    0.000    0.000    0.000    0.000 
#    0.000    0.000    0.000    0.000    0.000    0.000 
#
# Total GULP energy -156208.799204 kJ/mol
# GULP energy per Si atom -5578.885686 kJ/mol
# Density = 2.120665 g / cm^3
# Si number density = 21.255030 Si / 1000 Ang^3
#
#
#
# Elastic Constant Matrix: (Units=GPa)
#
#
# Indices 1 2 3 4 5 6 
#
# 1 89.7882 12.1124 40.7437 0.0000 -22.6776 0.0000
# 2 12.1124 118.6285 29.4454 0.0000 1.4671 0.0000
# 3 40.7437 29.4454 110.7510 0.0000 -15.0828 0.0000
# 4 0.0000 0.0000 0.0000 15.4605 0.0000 -1.8636
# 5 -22.6776 1.4671 -15.0828 0.0000 17.4303 0.0000
# 6 0.0000 0.0000 0.0000 -1.8636 0.0000 2.2593
#
#
#
# Elastic Compliance Matrix: (Units=1/GPa)
#
#
# Indices 1 2 3 4 5 6 
#
# 1 0.018110 -0.001228 -0.003529 0.000000 0.020612 0.000000
# 2 -0.001228 0.009270 -0.002649 0.000000 -0.004670 0.000000
# 3 -0.003529 -0.002649 0.011831 0.000000 0.005869 0.000000
# 4 0.000000 0.000000 0.000000 0.071823 0.000000 0.059244
# 5 0.020612 -0.004670 0.005869 0.000000 0.089660 0.000000
# 6 0.000000 0.000000 0.000000 0.059244 0.000000 0.491479
#
#
# Mechanical properties :
#
#
# Convention : Reuss Voigt Hill
#
# Bulk Modulus (GPa) = 40.98402 53.75229 47.36816
# Shear Modulus (GPa) = 6.99185 22.82110 14.90647
#
# Velocity S-wave (km/s) = 1.81567 3.28026 2.65111
# Velocity P-wave (km/s) = 4.87026 6.30007 5.63073
#
# Compressibility (1/GPa) = 0.02439975
#
# Stress axis : x y z
#
# Youngs Moduli (GPa) = 55.21746 107.87092 84.52294
#
# Poissons Ratio (x) = 0.13248 0.29827
# Poissons Ratio (y) = 0.06781 0.22390
# Poissons Ratio (z) = 0.19486 0.28574
#
# Static dielectric constant tensor:
#      x y z
#    x 1.749240 0.000000 -0.019630 
#    y 0.000000 1.814990 0.000000 
#    z -0.019630 0.000000 1.783870 
# 
# From -- ./inp_files/240906.got.cif
#   From: 2010.05.17/outbox.cif.g08.bks.cpg/sg12_121_cif.got.tgz:240906.got - 2010.06.03 13:09:07.
