data_PCOD9211267
_publ_section_title
;
Structure prediction by ZEFSAII (Michael W. Deem and Ramdas Pophale) SiO2 
 PCOD9211267
Probable space group: C 2/M
;
_chemical_formula_sum "Si O2"
_cell_formula_units_Z 42
_cell_length_a 13.878376
_cell_length_b 7.608820
_cell_length_c 15.238787
_cell_angle_alpha 90.000000
_cell_angle_beta 85.352672
_cell_angle_gamma 90.000000
_cell_volume 1603.895883
_symmetry_space_group_name_H-M "C 2/M"
_symmetry_group_IT_number 12
_symmetry_cell_setting 'monoclinic'
loop_
_space_group_symop_operation_xyz
x,y,z
-x,y,-z
-x,-y,-z
x,-y,z
1/2+x,1/2+y,z
1/2-x,1/2+y,-z
1/2-x,1/2-y,-z
1/2+x,1/2-y,z
loop_
_atom_site_type_symbol
_atom_site_label
_atom_site_fract_x
_atom_site_fract_y
_atom_site_fract_z
Si Si1 0.312943 0.797994 0.411825
Si Si2 0.840990 0.807610 0.936263
Si Si3 0.526369 0.303056 0.370548
Si Si4 0.769894 0.787602 0.223971
Si Si5 0.000000 0.500000 0.500000
Si Si6 0.007982 0.214082 0.822044
O O1 0.250000 0.750000 0.500000
O O2 0.409379 0.686044 0.391463
O O3 0.255756 0.774966 0.324821
O O4 0.350582 0.000000 0.417538
O O5 0.797326 0.804818 0.841505
O O6 0.943677 0.717484 0.907599
O O7 0.864673 0.000000 0.969877
O O8 0.750000 0.750000 0.000000
O O9 0.565622 0.500000 0.381019
O O10 0.554081 0.155664 0.437069
O O11 0.534730 0.236758 0.270089
O O12 0.879764 0.738211 0.187961
O O13 0.760134 0.000000 0.219669
O O14 0.004786 0.000000 0.823952
#
# Coordination Sequence:
#
# PCOD9211267 Si02
#       6
#     8   8   8   8   2   8
#     4  11  21  38  61  91 126 171 220 270 321 391
#     4  11  23  42  64  96 127 163 213 272 329 400
#     4  10  21  40  59  86 126 174 220 268 323 392
#     4  10  21  41  65  92 123 173 215 265 332 391
#     4  12  22  36  56  94 124 166 218 268 324 384
#     4   8  19  41  66  84 124 173 212 257 326 396
#
# _framework density 26.186237999999999
#
# number of rings (size 3 to 8) (size 9 to 14) (size 15 to 20)
#    0.000    1.905    0.952    4.286    0.000    2.286 
#    6.857    7.619    0.000    0.000    0.000    0.000 
#    0.000    0.000    0.000    0.000    0.000    0.000 
#
# Total GULP energy -117290.944644 kJ/mol
# GULP energy per Si atom -5585.283078 kJ/mol
# Density = 2.612664 g / cm^3
# Si number density = 26.186238 Si / 1000 Ang^3
#
#
#
# Elastic Constant Matrix: (Units=GPa)
#
#
# Indices 1 2 3 4 5 6 
#
# 1 62.3459 1.9208 45.6761 0.0000 -22.6601 0.0000
# 2 1.9208 134.7827 2.1029 0.0000 -4.1437 0.0000
# 3 45.6761 2.1029 136.7042 0.0000 -44.4607 0.0000
# 4 0.0000 0.0000 0.0000 29.2311 0.0000 1.4784
# 5 -22.6601 -4.1437 -44.4607 0.0000 64.6363 0.0000
# 6 0.0000 0.0000 0.0000 1.4784 0.0000 21.3542
#
#
#
# Elastic Compliance Matrix: (Units=1/GPa)
#
#
# Indices 1 2 3 4 5 6 
#
# 1 0.021802 -0.000110 -0.006182 0.000000 0.003384 0.000000
# 2 -0.000110 0.007435 0.000084 0.000000 0.000496 0.000000
# 3 -0.006182 0.000084 0.011177 0.000000 0.005526 0.000000
# 4 0.000000 0.000000 0.000000 0.034330 0.000000 -0.002377
# 5 0.003384 0.000496 0.005526 0.000000 0.020490 0.000000
# 6 0.000000 0.000000 0.000000 -0.002377 0.000000 0.046994
#
#
# Mechanical properties :
#
#
# Convention : Reuss Voigt Hill
#
# Bulk Modulus (GPa) = 35.71989 48.13692 41.92840
# Shear Modulus (GPa) = 30.49189 41.98652 36.23921
#
# Velocity S-wave (km/s) = 3.41607 4.00857 3.72412
# Velocity P-wave (km/s) = 5.40645 6.31247 5.87694
#
# Compressibility (1/GPa) = 0.02799561
#
# Stress axis : x y z
#
# Youngs Moduli (GPa) = 45.86705 134.50175 89.47191
#
# Poissons Ratio (x) = 0.01482 0.55315
# Poissons Ratio (y) = 0.00506 -0.00748
# Poissons Ratio (z) = 0.28357 -0.01125
#
# Static dielectric constant tensor:
#      x y z
#    x 1.899340 0.000000 -0.136320 
#    y 0.000000 2.020580 0.000000 
#    z -0.136320 0.000000 1.984220 
# 
# From -- ./inp_files/220681.got.cif
#   From: 2010.05.17/outbox.cif.g08.bks.cpg/sg12_111_cif.got.tgz:220681.got - 2010.06.03 13:09:07.
