data_PCOD9211022
_publ_section_title
;
Structure prediction by ZEFSAII (Michael W. Deem and Ramdas Pophale) SiO2 
 PCOD9211022
Probable space group: C 2/M
;
_chemical_formula_sum "Si O2"
_cell_formula_units_Z 48
_cell_length_a 17.630489
_cell_length_b 17.485873
_cell_length_c 14.588463
_cell_angle_alpha 90.000000
_cell_angle_beta 152.751107
_cell_angle_gamma 90.000000
_cell_volume 2059.163476
_symmetry_space_group_name_H-M "C 2/M"
_symmetry_group_IT_number 12
_symmetry_cell_setting 'monoclinic'
loop_
_space_group_symop_operation_xyz
x,y,z
-x,y,-z
-x,-y,-z
x,-y,z
1/2+x,1/2+y,z
1/2-x,1/2+y,-z
1/2-x,1/2-y,-z
1/2+x,1/2-y,z
loop_
_atom_site_type_symbol
_atom_site_label
_atom_site_fract_x
_atom_site_fract_y
_atom_site_fract_z
Si Si1 0.747651 0.587806 0.932643
Si Si2 0.780450 0.834828 0.569174
Si Si3 0.103353 0.915099 0.966936
Si Si4 0.175797 0.358692 0.654989
Si Si5 0.645580 0.413320 0.532175
Si Si6 0.325086 0.801738 0.863579
O O1 0.799394 0.500000 0.966311
O O2 0.741606 0.596388 0.036175
O O3 0.551868 0.595228 0.695162
O O4 0.841357 0.654077 0.977821
O O5 0.750000 0.750000 0.500000
O O6 0.673721 0.850490 0.544011
O O7 0.765815 0.891506 0.467879
O O8 0.966954 0.849978 0.806060
O O9 0.031200 0.000000 0.871334
O O10 0.182662 0.912245 0.151816
O O11 0.225491 0.277515 0.754914
O O12 0.000000 0.385514 0.500000
O O13 0.678812 0.500000 0.594271
O O14 0.715557 0.358122 0.683767
O O15 0.500000 0.790805 0.000000
#
# Coordination Sequence:
#
# PCOD9211022 Si02
#       6
#     8   8   8   8   8   8
#     4   9  20  40  65  94 130 173 221 270 331 403
#     4  11  22  42  70 100 133 173 220 276 330 402
#     4  10  24  47  73 100 133 180 228 276 337 404
#     4  12  27  44  66  98 135 180 227 283 338 394
#     4  10  21  39  65  94 129 177 220 269 335 406
#     4  12  24  38  61  94 135 177 221 276 340 402
#
# _framework density 23.310438000000001
#
# number of rings (size 3 to 8) (size 9 to 14) (size 15 to 20)
#    0.000    1.333    1.667    5.000    2.333    7.000 
#    0.000    1.667    0.000    0.000    0.000    0.000 
#    0.000    0.000    0.000    0.000    0.000    0.000 
#
# Total GULP energy -134301.276256 kJ/mol
# GULP energy per Si atom -5595.886511 kJ/mol
# Density = 2.325738 g / cm^3
# Si number density = 23.310438 Si / 1000 Ang^3
#
#
#
# Elastic Constant Matrix: (Units=GPa)
#
#
# Indices 1 2 3 4 5 6 
#
# 1 103.5712 1.2050 1.0382 0.0000 -6.9971 0.0000
# 2 1.2050 87.1109 16.2959 0.0000 3.1375 0.0000
# 3 1.0382 16.2959 56.6734 0.0000 1.7426 0.0000
# 4 0.0000 0.0000 0.0000 9.1343 0.0000 -19.7191
# 5 -6.9971 3.1375 1.7426 0.0000 26.8275 0.0000
# 6 0.0000 0.0000 0.0000 -19.7191 0.0000 27.2252
#
#
#
# Elastic Compliance Matrix: (Units=1/GPa)
#
#
# Indices 1 2 3 4 5 6 
#
# 1 0.009835 -0.000191 -0.000205 0.000000 0.002601 0.000000
# 2 -0.000191 0.012174 -0.003459 0.000000 -0.001249 0.000000
# 3 -0.000205 -0.003459 0.018670 0.000000 -0.000862 0.000000
# 4 0.000000 0.000000 0.000000 -0.194247 0.000000 -0.140692
# 5 0.002601 -0.001249 -0.000862 0.000000 0.038156 0.000000
# 6 0.000000 0.000000 0.000000 -0.140692 0.000000 -0.065171
#
#
# Mechanical properties :
#
#
# Convention : Reuss Voigt Hill
#
# Bulk Modulus (GPa) = 30.33165 31.60375 30.96770
# Shear Modulus (GPa) = -30.88645 27.89184 -1.49730
#
# Velocity S-wave (km/s) = -3.64401 3.46285 -0.80233
# Velocity P-wave (km/s) = 2.15981 5.43835 3.52923
#
# Compressibility (1/GPa) = 0.03296886
#
# Stress axis : x y z
#
# Youngs Moduli (GPa) = 101.67573 82.14042 53.56267
#
# Poissons Ratio (x) = 0.01572 0.01099
# Poissons Ratio (y) = 0.01946 0.18526
# Poissons Ratio (z) = 0.02086 0.28410
#
# Static dielectric constant tensor:
#      x y z
#    x 1.901780 0.000000 -0.000830 
#    y 0.000000 1.834340 0.000000 
#    z -0.000830 0.000000 1.885680 
# 
# From -- ./inp_files/226933.got.cif
#   From: 2010.05.17/outbox.cif.g08.bks.cpg/sg12_114_cif.got.tgz:226933.got - 2010.06.03 13:09:07.
