data_PCOD9211823
_publ_section_title
;
Structure prediction by ZEFSAII (Michael W. Deem and Ramdas Pophale) SiO2 
 PCOD9211823
Probable space group: C 2/M
;
_chemical_formula_sum "Si O2"
_cell_formula_units_Z 44
_cell_length_a 23.806354
_cell_length_b 9.620077
_cell_length_c 21.554693
_cell_angle_alpha 90.000000
_cell_angle_beta 155.675073
_cell_angle_gamma 90.000000
_cell_volume 2033.370371
_symmetry_space_group_name_H-M "C 2/M"
_symmetry_group_IT_number 12
_symmetry_cell_setting 'monoclinic'
loop_
_space_group_symop_operation_xyz
x,y,z
-x,y,-z
-x,-y,-z
x,-y,z
1/2+x,1/2+y,z
1/2-x,1/2+y,-z
1/2-x,1/2-y,-z
1/2+x,1/2-y,z
loop_
_atom_site_type_symbol
_atom_site_label
_atom_site_fract_x
_atom_site_fract_y
_atom_site_fract_z
Si Si1 0.599243 0.834866 0.039944
Si Si2 0.835718 0.661451 0.475757
Si Si3 0.659986 0.161444 0.663728
Si Si4 0.905060 0.231622 0.201453
Si Si5 0.542203 0.660815 0.210129
Si Si6 0.220678 0.500000 0.990152
O O1 0.742205 0.759906 0.198881
O O2 0.611042 0.000000 0.042285
O O3 0.500000 0.813796 0.000000
O O4 0.529267 0.760416 0.911001
O O5 0.865435 0.500000 0.520409
O O6 0.795676 0.668695 0.363457
O O7 0.700131 0.703894 0.375999
O O8 0.970236 0.747329 0.626368
O O9 0.500000 0.197484 0.500000
O O10 0.670429 0.000000 0.695560
O O11 0.790187 0.122522 0.103582
O O12 0.968866 0.168063 0.202307
O O13 0.842061 0.378193 0.118622
O O14 0.538866 0.500000 0.185072
#
# Coordination Sequence:
#
# PCOD9211823 Si02
#       6
#     8   8   8   8   8   4
#     4  11  24  43  65  96 135 167 209 270 324 380
#     4  10  21  40  66  93 130 164 214 273 315 375
#     4  10  22  42  67  97 126 173 219 261 319 383
#     4  11  22  44  61  98 127 171 211 266 317 395
#     4  11  23  41  69  95 121 171 221 263 318 385
#     4  10  24  40  64  84 140 168 208 252 324 382
#
# _framework density 21.638949
#
# number of rings (size 3 to 8) (size 9 to 14) (size 15 to 20)
#    0.000    1.455    3.636    1.091    1.273    4.000 
#    6.545    0.000    0.000    0.000    0.000    0.000 
#    0.000    0.000    0.000    0.000    0.000    0.000 
#
# Total GULP energy -122512.308219 kJ/mol
# GULP energy per Si atom -5568.741283 kJ/mol
# Density = 2.158970 g / cm^3
# Si number density = 21.638949 Si / 1000 Ang^3
#
#
#
# Elastic Constant Matrix: (Units=GPa)
#
#
# Indices 1 2 3 4 5 6 
#
# 1 45.0194 -0.3316 -10.9154 0.0000 1.3224 0.0000
# 2 -0.3316 148.4431 72.3026 0.0000 -0.0589 0.0000
# 3 -10.9154 72.3026 112.4825 0.0000 -7.3357 0.0000
# 4 0.0000 0.0000 0.0000 33.6724 0.0000 -2.2426
# 5 1.3224 -0.0589 -7.3357 0.0000 30.2779 0.0000
# 6 0.0000 0.0000 0.0000 -2.2426 0.0000 31.2879
#
#
#
# Elastic Compliance Matrix: (Units=1/GPa)
#
#
# Indices 1 2 3 4 5 6 
#
# 1 0.022979 -0.001496 0.003176 0.000000 -0.000237 0.000000
# 2 -0.001496 0.009975 -0.006657 0.000000 -0.001528 0.000000
# 3 0.003176 -0.006657 0.013684 0.000000 0.003164 0.000000
# 4 0.000000 0.000000 0.000000 0.029840 0.000000 0.002139
# 5 -0.000237 -0.001528 0.003164 0.000000 0.033801 0.000000
# 6 0.000000 0.000000 0.000000 0.002139 0.000000 0.032115
#
#
# Mechanical properties :
#
#
# Convention : Reuss Voigt Hill
#
# Bulk Modulus (GPa) = 27.25965 47.56177 37.41071
# Shear Modulus (GPa) = 30.38148 35.37359 32.87753
#
# Velocity S-wave (km/s) = 3.75109 4.04755 3.90214
# Velocity P-wave (km/s) = 5.60230 6.62352 6.13420
#
# Compressibility (1/GPa) = 0.03668425
#
# Stress axis : x y z
#
# Youngs Moduli (GPa) = 43.51880 100.25214 73.08065
#
# Poissons Ratio (x) = 0.14994 -0.23209
# Poissons Ratio (y) = 0.06509 0.48646
# Poissons Ratio (z) = -0.13821 0.66733
#
# Static dielectric constant tensor:
#      x y z
#    x 1.892110 0.000000 0.052900 
#    y 0.000000 1.743500 0.000000 
#    z 0.052900 0.000000 1.769960 
# 
# From -- ./inp_files/108908.got.cif
#   From: 2010.05.17/outbox.cif.g08.bks.cpg/sg12_55_cif.got.tgz:108908.got - 2010.06.03 13:09:07.
