data_PCOD9211793
_publ_section_title
;
Structure prediction by ZEFSAII (Michael W. Deem and Ramdas Pophale) SiO2 
 PCOD9211793
Probable space group: C 2/M
;
_chemical_formula_sum "Si O2"
_cell_formula_units_Z 64
_cell_length_a 14.405275
_cell_length_b 28.854758
_cell_length_c 11.473588
_cell_angle_alpha 90.000000
_cell_angle_beta 138.861552
_cell_angle_gamma 90.000000
_cell_volume 3137.512279
_symmetry_space_group_name_H-M "C 2/M"
_symmetry_group_IT_number 12
_symmetry_cell_setting 'monoclinic'
loop_
_space_group_symop_operation_xyz
x,y,z
-x,y,-z
-x,-y,-z
x,-y,z
1/2+x,1/2+y,z
1/2-x,1/2+y,-z
1/2-x,1/2-y,-z
1/2+x,1/2-y,z
loop_
_atom_site_type_symbol
_atom_site_label
_atom_site_fract_x
_atom_site_fract_y
_atom_site_fract_z
Si Si1 0.641800 0.193301 0.566717
Si Si2 0.654348 0.143924 0.199532
Si Si3 0.380813 0.055653 0.211247
Si Si4 0.811907 0.598993 0.526058
Si Si5 0.524164 0.216670 0.228198
Si Si6 0.848951 0.055216 0.811297
Si Si7 0.383158 0.305138 0.977545
Si Si8 0.224015 0.359249 0.016440
O O1 0.500000 0.180705 0.500000
O O2 0.692324 0.148149 0.544441
O O3 0.598317 0.227712 0.420842
O O4 0.752594 0.207307 0.769697
O O5 0.691978 0.109667 0.340300
O O6 0.631560 0.194154 0.237138
O O7 0.753941 0.146084 0.181554
O O8 0.500000 0.131051 0.000000
O O9 0.542975 0.072371 0.370157
O O10 0.283799 0.068717 0.231408
O O11 0.374734 0.000000 0.189672
O O12 0.315863 0.087863 0.048691
O O13 0.683693 0.571042 0.349906
O O14 0.444388 0.259787 0.098190
O O15 0.410647 0.174697 0.138227
O O16 0.851242 0.000000 0.817161
O O17 0.000000 0.071624 0.000000
O O18 0.500000 0.323693 0.000000
O O19 0.339391 0.340944 0.035763
#
# Coordination Sequence:
#
# PCOD9211793 Si02
#       8
#     8   8   8   8   8   8   8   8
#     4  11  21  37  61  90 123 164 207 256 320 369
#     4   9  18  37  63  91 123 167 204 254 329 373
#     4  11  21  36  63  96 125 159 214 269 313 369
#     4  11  19  36  64  91 117 160 212 264 314 374
#     4  10  21  40  66  89 124 171 209 259 319 383
#     4  10  22  37  56  87 129 167 203 260 321 370
#     4  12  25  39  65  96 123 165 217 265 308 380
#     4  11  20  39  62  91 130 167 203 258 325 377
#
# _framework density 20.398326999999998
#
# number of rings (size 3 to 8) (size 9 to 14) (size 15 to 20)
#    0.000    1.375    5.000    3.750    0.000    3.500 
#    0.000    1.875    0.000    5.250    0.000    2.625 
#    0.000    0.000    0.000    0.000    0.000    0.000 
#
# Total GULP energy -178698.374390 kJ/mol
# GULP energy per Si atom -5584.324200 kJ/mol
# Density = 2.035190 g / cm^3
# Si number density = 20.398327 Si / 1000 Ang^3
#
#
#
# Elastic Constant Matrix: (Units=GPa)
#
#
# Indices 1 2 3 4 5 6 
#
# 1 105.7316 21.2189 48.6704 0.0000 -23.2216 0.0000
# 2 21.2189 79.0259 26.5236 0.0000 -9.6867 0.0000
# 3 48.6704 26.5236 114.4441 0.0000 -27.0554 0.0000
# 4 0.0000 0.0000 0.0000 48.8191 0.0000 10.8819
# 5 -23.2216 -9.6867 -27.0554 0.0000 32.9956 0.0000
# 6 0.0000 0.0000 0.0000 10.8819 0.0000 28.6522
#
#
#
# Elastic Compliance Matrix: (Units=1/GPa)
#
#
# Indices 1 2 3 4 5 6 
#
# 1 0.012676 -0.001476 -0.003774 0.000000 0.005393 0.000000
# 2 -0.001476 0.013976 -0.002341 0.000000 0.001145 0.000000
# 3 -0.003774 -0.002341 0.012522 0.000000 0.006925 0.000000
# 4 0.000000 0.000000 0.000000 0.022378 0.000000 -0.008499
# 5 0.005393 0.001145 0.006925 0.000000 0.040117 0.000000
# 6 0.000000 0.000000 0.000000 -0.008499 0.000000 0.038129
#
#
# Mechanical properties :
#
#
# Convention : Reuss Voigt Hill
#
# Bulk Modulus (GPa) = 41.67737 54.66972 48.17354
# Shear Modulus (GPa) = 30.67905 35.61262 33.14583
#
# Velocity S-wave (km/s) = 3.88235 4.18288 4.03541
# Velocity P-wave (km/s) = 6.36969 7.08434 6.73650
#
# Compressibility (1/GPa) = 0.02399384
#
# Stress axis : x y z
#
# Youngs Moduli (GPa) = 78.89116 71.54932 79.85735
#
# Poissons Ratio (x) = 0.10560 0.30135
# Poissons Ratio (y) = 0.11643 0.18693
# Poissons Ratio (z) = 0.29770 0.16749
#
# Static dielectric constant tensor:
#      x y z
#    x 1.785060 0.000000 0.024900 
#    y 0.000000 1.729710 0.000000 
#    z 0.024900 0.000000 1.780390 
# 
# From -- ./inp_files/150309.got.cif
#   From: 2010.05.17/outbox.cif.g08.bks.cpg/sg12_76_cif.got.tgz:150309.got - 2010.06.03 13:09:07.
