data_PCOD9211236
_publ_section_title
;
Structure prediction by ZEFSAII (Michael W. Deem and Ramdas Pophale) SiO2 
 PCOD9211236
Probable space group: C 2/M
;
_chemical_formula_sum "Si O2"
_cell_formula_units_Z 24
_cell_length_a 15.636231
_cell_length_b 9.988689
_cell_length_c 10.737473
_cell_angle_alpha 90.000000
_cell_angle_beta 35.014968
_cell_angle_gamma 90.000000
_cell_volume 962.267774
_symmetry_space_group_name_H-M "C 2/M"
_symmetry_group_IT_number 12
_symmetry_cell_setting 'monoclinic'
loop_
_space_group_symop_operation_xyz
x,y,z
-x,y,-z
-x,-y,-z
x,-y,z
1/2+x,1/2+y,z
1/2-x,1/2+y,-z
1/2-x,1/2-y,-z
1/2+x,1/2-y,z
loop_
_atom_site_type_symbol
_atom_site_label
_atom_site_fract_x
_atom_site_fract_y
_atom_site_fract_z
Si Si1 0.960210 0.000000 0.900005
Si Si2 0.934818 0.729215 0.361832
Si Si3 0.882796 0.500000 0.750945
Si Si4 0.167690 0.350858 0.768714
O O1 0.017967 0.130528 0.756362
O O2 0.783412 0.000000 0.097376
O O3 0.000000 0.000000 0.000000
O O4 0.843910 0.645389 0.367118
O O5 0.815110 0.762765 0.614219
O O6 0.074136 0.635782 0.227169
O O7 0.000000 0.500000 0.500000
O O8 0.185201 0.500000 0.800444
O O9 0.000000 0.303441 0.000000
#
# Coordination Sequence:
#
# PCOD9211236 Si02
#       4
#     4   8   4   8
#     4  12  28  50  81 108 144 198 252 307 373 445
#     4  11  24  47  71 109 151 193 244 309 366 439
#     4  12  30  48  72 111 155 194 245 308 374 435
#     4  10  21  39  74 111 143 192 247 299 368 442
#
# _framework density 24.941082999999999
#
# number of rings (size 3 to 8) (size 9 to 14) (size 15 to 20)
#    0.000    1.000    3.333    2.000   14.000    0.000 
#    0.000    1.667    0.000    0.000    0.000    0.000 
#    0.000    0.000    0.000    0.000    0.000    0.000 
#
# Total GULP energy -67057.902865 kJ/mol
# GULP energy per Si atom -5588.158572 kJ/mol
# Density = 2.488432 g / cm^3
# Si number density = 24.941083 Si / 1000 Ang^3
#
#
#
# Elastic Constant Matrix: (Units=GPa)
#
#
# Indices 1 2 3 4 5 6 
#
# 1 97.6533 53.8448 41.6309 0.0000 -42.0699 0.0000
# 2 53.8448 206.9647 72.9993 0.0000 -13.6475 0.0000
# 3 41.6309 72.9993 177.1032 0.0000 -45.7277 0.0000
# 4 0.0000 0.0000 0.0000 28.1677 0.0000 3.7962
# 5 -42.0699 -13.6475 -45.7277 0.0000 49.4307 0.0000
# 6 0.0000 0.0000 0.0000 3.7962 0.0000 23.8454
#
#
#
# Elastic Compliance Matrix: (Units=1/GPa)
#
#
# Indices 1 2 3 4 5 6 
#
# 1 0.019141 -0.004457 0.001611 0.000000 0.016550 0.000000
# 2 -0.004457 0.006714 -0.002918 0.000000 -0.004638 0.000000
# 3 0.001611 -0.002918 0.008693 0.000000 0.008607 0.000000
# 4 0.000000 0.000000 0.000000 0.036280 0.000000 -0.005776
# 5 0.016550 -0.004638 0.008607 0.000000 0.040998 0.000000
# 6 0.000000 0.000000 0.000000 -0.005776 0.000000 0.042856
#
#
# Mechanical properties :
#
#
# Convention : Reuss Voigt Hill
#
# Bulk Modulus (GPa) = 43.43803 90.96347 67.20075
# Shear Modulus (GPa) = 28.75511 41.17187 34.96349
#
# Velocity S-wave (km/s) = 3.39915 4.06737 3.74818
# Velocity P-wave (km/s) = 5.73234 7.65562 6.76270
#
# Compressibility (1/GPa) = 0.02302130
#
# Stress axis : x y z
#
# Youngs Moduli (GPa) = 52.24414 148.93371 115.04023
#
# Poissons Ratio (x) = 0.66374 -0.18531
# Poissons Ratio (y) = 0.23283 0.33563
# Poissons Ratio (z) = -0.08416 0.43452
#
# Static dielectric constant tensor:
#      x y z
#    x 2.036390 0.000000 0.034900 
#    y 0.000000 2.054270 0.000000 
#    z 0.034900 0.000000 2.102120 
# 
# From -- ./inp_files/127592.got.cif
#   From: 2010.05.17/outbox.cif.g08.bks.cpg/sg12_64_cif.got.tgz:127592.got - 2010.06.03 13:09:07.
