data_PCOD9211007
_publ_section_title
;
Structure prediction by ZEFSAII (Michael W. Deem and Ramdas Pophale) SiO2 
 PCOD9211007
Probable space group: C 2/M
;
_chemical_formula_sum "Si O2"
_cell_formula_units_Z 40
_cell_length_a 18.905838
_cell_length_b 16.908824
_cell_length_c 8.584488
_cell_angle_alpha 90.000000
_cell_angle_beta 142.122777
_cell_angle_gamma 90.000000
_cell_volume 1684.891427
_symmetry_space_group_name_H-M "C 2/M"
_symmetry_group_IT_number 12
_symmetry_cell_setting 'monoclinic'
loop_
_space_group_symop_operation_xyz
x,y,z
-x,y,-z
-x,-y,-z
x,-y,z
1/2+x,1/2+y,z
1/2-x,1/2+y,-z
1/2-x,1/2-y,-z
1/2+x,1/2-y,z
loop_
_atom_site_type_symbol
_atom_site_label
_atom_site_fract_x
_atom_site_fract_y
_atom_site_fract_z
Si Si1 0.950546 0.000000 0.149497
Si Si2 0.196674 0.000000 0.397081
Si Si3 0.453030 0.343494 0.567764
Si Si4 0.475495 0.909336 0.640225
Si Si5 0.791385 0.367278 0.777148
Si Si6 0.608289 0.781016 0.291745
O O1 0.070296 0.000000 0.259363
O O2 0.964481 0.080981 0.268629
O O3 0.839431 0.000000 0.845429
O O4 0.263599 0.073696 0.586723
O O5 0.500000 0.296639 0.500000
O O6 0.320617 0.366976 0.310037
O O7 0.440931 0.297286 0.710103
O O8 0.500000 0.901133 0.500000
O O9 0.387926 0.844717 0.560310
O O10 0.439052 0.000000 0.609831
O O11 0.599333 0.894367 0.936582
O O12 0.802313 0.284280 0.700402
O O13 0.500000 0.811870 0.000000
#
# Coordination Sequence:
#
# PCOD9211007 Si02
#       6
#     4   4   8   8   8   8
#     4   9  21  38  64  88 121 166 202 255 300 363
#     4   9  18  36  64  92 122 155 211 250 298 362
#     4  11  23  43  63  91 129 162 203 256 314 365
#     4  10  21  41  64  92 127 163 205 256 313 364
#     4  10  21  39  65  94 122 165 206 254 303 368
#     4  10  23  39  64  91 127 162 209 252 307 363
#
# _framework density 23.740400999999999
#
# number of rings (size 3 to 8) (size 9 to 14) (size 15 to 20)
#    0.000    2.000    1.000    1.500    7.000    1.200 
#    3.600    5.000    0.000    0.000    0.000    0.000 
#    0.000    0.000    0.000    0.000    0.000    0.000 
#
# Total GULP energy -111426.475545 kJ/mol
# GULP energy per Si atom -5571.323777 kJ/mol
# Density = 2.368637 g / cm^3
# Si number density = 23.740401 Si / 1000 Ang^3
#
#
#
# Elastic Constant Matrix: (Units=GPa)
#
#
# Indices 1 2 3 4 5 6 
#
# 1 131.5775 32.2008 22.2930 0.0000 -15.1416 0.0000
# 2 32.2008 90.3684 13.2165 0.0000 -15.3010 0.0000
# 3 22.2930 13.2165 103.6619 0.0000 -17.4505 0.0000
# 4 0.0000 0.0000 0.0000 27.7101 0.0000 3.9724
# 5 -15.1416 -15.3010 -17.4505 0.0000 18.3100 0.0000
# 6 0.0000 0.0000 0.0000 3.9724 0.0000 35.2799
#
#
#
# Elastic Compliance Matrix: (Units=1/GPa)
#
#
# Indices 1 2 3 4 5 6 
#
# 1 0.008822 -0.002237 -0.000832 0.000000 0.004633 0.000000
# 2 -0.002237 0.013461 0.000413 0.000000 0.009792 0.000000
# 3 -0.000832 0.000413 0.011572 0.000000 0.010686 0.000000
# 4 0.000000 0.000000 0.000000 0.036680 0.000000 -0.004130
# 5 0.004633 0.009792 0.010686 0.000000 0.076814 0.000000
# 6 0.000000 0.000000 0.000000 -0.004130 0.000000 0.028810
#
#
# Mechanical properties :
#
#
# Convention : Reuss Voigt Hill
#
# Bulk Modulus (GPa) = 35.03578 51.22536 43.13057
# Shear Modulus (GPa) = 26.18026 33.45316 29.81671
#
# Velocity S-wave (km/s) = 3.32440 3.75790 3.54778
# Velocity P-wave (km/s) = 5.43373 6.36029 5.91518
#
# Compressibility (1/GPa) = 0.02854225
#
# Stress axis : x y z
#
# Youngs Moduli (GPa) = 113.35682 74.29077 86.41636
#
# Poissons Ratio (x) = 0.16622 0.07190
# Poissons Ratio (y) = 0.25362 -0.03573
# Poissons Ratio (z) = 0.09432 -0.03071
#
# Static dielectric constant tensor:
#      x y z
#    x 2.079760 0.000000 0.156000 
#    y 0.000000 2.032090 0.000000 
#    z 0.156000 0.000000 1.967620 
# 
# From -- ./inp_files/88251.got.cif
#   From: 2010.05.17/outbox.cif.g08.bks.cpg/sg12_45_cif.got.tgz:88251.got - 2010.06.03 13:09:07.
