data_PCOD9211312
_publ_section_title
;
Structure prediction by ZEFSAII (Michael W. Deem and Ramdas Pophale) SiO2 
 PCOD9211312
Probable space group: C 2/M
;
_chemical_formula_sum "Si O2"
_cell_formula_units_Z 64
_cell_length_a 20.271353
_cell_length_b 7.935431
_cell_length_c 32.077601
_cell_angle_alpha 90.000000
_cell_angle_beta 142.242515
_cell_angle_gamma 90.000000
_cell_volume 3159.613680
_symmetry_space_group_name_H-M "C 2/M"
_symmetry_group_IT_number 12
_symmetry_cell_setting 'monoclinic'
loop_
_space_group_symop_operation_xyz
x,y,z
-x,y,-z
-x,-y,-z
x,-y,z
1/2+x,1/2+y,z
1/2-x,1/2+y,-z
1/2-x,1/2-y,-z
1/2+x,1/2-y,z
loop_
_atom_site_type_symbol
_atom_site_label
_atom_site_fract_x
_atom_site_fract_y
_atom_site_fract_z
Si Si1 0.261413 0.797920 0.457767
Si Si2 0.492886 0.696089 0.542943
Si Si3 0.029354 0.797002 0.310765
Si Si4 0.026168 0.794178 0.966414
Si Si5 0.626640 0.801104 0.690900
Si Si6 0.990452 0.801683 0.198774
Si Si7 0.259287 0.201527 0.052561
Si Si8 0.626108 0.292809 0.186660
O O1 0.250000 0.750000 0.500000
O O2 0.369123 0.715477 0.494352
O O3 0.150548 0.740676 0.381409
O O4 0.271668 0.000000 0.458527
O O5 0.500000 0.772474 0.500000
O O6 0.522573 0.500000 0.554792
O O7 0.567013 0.766721 0.617160
O O8 0.947298 0.755522 0.307193
O O9 0.001621 0.730224 0.250931
O O10 0.030863 0.000000 0.310103
O O11 0.943673 0.740504 0.888729
O O12 0.023743 0.000000 0.964668
O O13 0.147876 0.741799 0.017417
O O14 0.000000 0.738390 0.000000
O O15 0.749629 0.734490 0.753087
O O16 0.636056 0.000000 0.699877
O O17 0.866933 0.781662 0.124130
O O18 0.066138 0.735004 0.199159
O O19 0.016785 0.000000 0.214580
O O20 0.267864 0.000000 0.061305
O O21 0.250000 0.250000 0.000000
O O22 0.625196 0.500000 0.186486
#
# Coordination Sequence:
#
# PCOD9211312 Si02
#       8
#     8   8   8   8   8   8   8   8
#     4  11  22  39  65  91 118 156 203 251 300 362
#     4  11  25  43  62  87 123 162 200 250 309 359
#     4  10  23  40  61  86 122 161 192 241 305 359
#     4   9  18  33  56  83 113 150 191 238 288 338
#     4  11  23  38  63  90 118 155 202 251 292 356
#     4  10  21  40  61  84 117 157 197 240 294 353
#     4  11  21  36  61  87 115 151 195 247 296 350
#     4   9  19  36  57  83 115 154 197 240 288 347
#
# _framework density 20.255642000000002
#
# number of rings (size 3 to 8) (size 9 to 14) (size 15 to 20)
#    0.000    1.750    2.500    1.500    3.500    2.000 
#    0.000    1.250    0.000    1.500    0.000    0.000 
#    0.000    0.000    0.000    0.000    0.000    0.000 
#
# Total GULP energy -178654.985492 kJ/mol
# GULP energy per Si atom -5582.968297 kJ/mol
# Density = 2.020954 g / cm^3
# Si number density = 20.255642 Si / 1000 Ang^3
#
#
#
# Elastic Constant Matrix: (Units=GPa)
#
#
# Indices 1 2 3 4 5 6 
#
# 1 167.1128 -7.5314 87.1727 0.0000 -6.3620 0.0001
# 2 -7.5314 17.1512 -7.2421 0.0000 -1.7255 0.0004
# 3 87.1727 -7.2421 164.9994 0.0000 -7.0137 0.0000
# 4 0.0000 0.0000 0.0000 18.4238 0.0000 10.1373
# 5 -6.3620 -1.7255 -7.0137 0.0000 42.3616 0.0000
# 6 0.0001 0.0004 0.0000 10.1373 0.0000 3.1845
#
#
#
# Elastic Compliance Matrix: (Units=1/GPa)
#
#
# Indices 1 2 3 4 5 6 
#
# 1 0.008333 0.001909 -0.004292 0.000000 0.000619 0.000001
# 2 0.001909 0.060192 0.001762 -0.000006 0.003030 0.000011
# 3 -0.004292 0.001762 0.008441 0.000000 0.000825 0.000000
# 4 0.000000 -0.000006 0.000000 -0.072221 0.000000 0.229900
# 5 0.000619 0.003030 0.000825 0.000000 0.023959 0.000000
# 6 0.000001 0.000011 0.000000 0.229900 0.000000 -0.417824
#
#
# Mechanical properties :
#
#
# Convention : Reuss Voigt Hill
#
# Bulk Modulus (GPa) = 13.20603 54.89576 34.05089
# Shear Modulus (GPa) = -13.78789 31.25159 8.73185
#
# Velocity S-wave (km/s) = -2.61184 3.93219 2.07850
# Velocity P-wave (km/s) = 1.60056 6.91205 4.75471
#
# Compressibility (1/GPa) = 0.07572300
#
# Stress axis : x y z
#
# Youngs Moduli (GPa) = 120.01156 16.61351 118.47384
#
# Poissons Ratio (x) = -0.03171 0.50851
# Poissons Ratio (y) = -0.22908 -0.20878
# Poissons Ratio (z) = 0.51511 -0.02928
#
# Static dielectric constant tensor:
#      x y z
#    x 1.702840 0.000000 -0.024370 
#    y 0.000000 1.732840 0.000000 
#    z -0.024370 0.000000 1.686360 
# 
# From -- ./inp_files/378508.got.cif
#   From: 2010.05.17/outbox.cif.g08.bks.cpg/sg12_190_cif.got.tgz:378508.got - 2010.06.03 13:09:07.
