data_PCOD9211667
_publ_section_title
;
Structure prediction by ZEFSAII (Michael W. Deem and Ramdas Pophale) SiO2 
 PCOD9211667
Probable space group: C 2/M
;
_chemical_formula_sum "Si O2"
_cell_formula_units_Z 40
_cell_length_a 5.679919
_cell_length_b 26.532337
_cell_length_c 12.121358
_cell_angle_alpha 90.000000
_cell_angle_beta 90.047625
_cell_angle_gamma 90.000000
_cell_volume 1826.706505
_symmetry_space_group_name_H-M "C 2/M"
_symmetry_group_IT_number 12
_symmetry_cell_setting 'monoclinic'
loop_
_space_group_symop_operation_xyz
x,y,z
-x,y,-z
-x,-y,-z
x,-y,z
1/2+x,1/2+y,z
1/2-x,1/2+y,-z
1/2-x,1/2-y,-z
1/2+x,1/2-y,z
loop_
_atom_site_type_symbol
_atom_site_label
_atom_site_fract_x
_atom_site_fract_y
_atom_site_fract_z
Si Si1 0.335744 0.720708 0.326477
Si Si2 0.000000 0.406466 0.000000
Si Si3 0.872842 0.848850 0.118322
Si Si4 0.672108 0.554972 0.172710
Si Si5 0.000000 0.857125 0.500000
Si Si6 0.696040 0.943999 0.594456
O O1 0.583419 0.751416 0.339070
O O2 0.355621 0.695821 0.205285
O O3 0.345906 0.677936 0.420694
O O4 0.116487 0.369755 0.088863
O O5 0.805632 0.440050 0.057687
O O6 0.006339 0.896452 0.173043
O O7 0.000000 0.837147 0.000000
O O8 0.553300 0.500000 0.180119
O O9 0.856117 0.557747 0.274956
O O10 0.146087 0.895589 0.425636
O O11 0.500000 0.941462 0.500000
O O12 0.805917 0.000000 0.580646
#
# Coordination Sequence:
#
# PCOD9211667 Si02
#       6
#     8   4   8   8   4   8
#     4  12  30  49  75 105 137 184 244 302 366 419
#     4  10  23  38  66 100 138 182 230 284 359 412
#     4  10  24  44  68  97 138 181 234 295 357 423
#     4  10  21  40  65 101 141 182 229 280 349 430
#     4  12  25  44  74  98 144 180 235 296 354 426
#     4  10  23  40  68 104 143 185 229 279 349 428
#
# _framework density 21.897331999999999
#
# number of rings (size 3 to 8) (size 9 to 14) (size 15 to 20)
#    0.000    1.400    2.000    1.200   11.200    5.200 
#    0.000    0.000    0.000    0.000    0.000    0.000 
#    0.000    0.000    0.000    0.000    0.000    0.000 
#
# Total GULP energy -111552.644261 kJ/mol
# GULP energy per Si atom -5577.632213 kJ/mol
# Density = 2.184749 g / cm^3
# Si number density = 21.897332 Si / 1000 Ang^3
#
#
#
# Elastic Constant Matrix: (Units=GPa)
#
#
# Indices 1 2 3 4 5 6 
#
# 1 65.2537 39.6773 6.4445 0.0000 14.0484 0.0000
# 2 39.6773 105.4581 34.7107 0.0000 6.9088 0.0000
# 3 6.4445 34.7107 91.3003 0.0000 19.1723 0.0000
# 4 0.0000 0.0000 0.0000 45.9247 0.0000 9.3675
# 5 14.0484 6.9088 19.1723 0.0000 31.6528 0.0000
# 6 0.0000 0.0000 0.0000 9.3675 0.0000 15.7836
#
#
#
# Elastic Compliance Matrix: (Units=1/GPa)
#
#
# Indices 1 2 3 4 5 6 
#
# 1 0.022830 -0.009256 0.004137 0.000000 -0.010618 0.000000
# 2 -0.009256 0.014592 -0.005829 0.000000 0.004454 0.000000
# 3 0.004137 -0.005829 0.014889 0.000000 -0.009582 0.000000
# 4 0.000000 0.000000 0.000000 0.024774 0.000000 -0.014703
# 5 -0.010618 0.004454 -0.009582 0.000000 0.041137 0.000000
# 6 0.000000 0.000000 0.000000 -0.014703 0.000000 0.072083
#
#
# Mechanical properties :
#
#
# Convention : Reuss Voigt Hill
#
# Bulk Modulus (GPa) = 32.87841 47.07524 39.97683
# Shear Modulus (GPa) = 22.48810 30.75086 26.61948
#
# Velocity S-wave (km/s) = 3.20813 3.75149 3.49040
# Velocity P-wave (km/s) = 5.36378 6.34900 5.87707
#
# Compressibility (1/GPa) = 0.03041509
#
# Stress axis : x y z
#
# Youngs Moduli (GPa) = 43.80197 68.53229 67.16221
#
# Poissons Ratio (x) = 0.63430 -0.27785
# Poissons Ratio (y) = 0.40541 0.39152
# Poissons Ratio (z) = -0.18121 0.39951
#
# Static dielectric constant tensor:
#      x y z
#    x 1.823260 0.000000 0.001460 
#    y 0.000000 1.787330 0.000000 
#    z 0.001460 0.000000 1.810990 
# 
# From -- ./inp_files/115520.got.cif
#   From: 2010.05.17/outbox.cif.g08.bks.cpg/sg12_58_cif.got.tgz:115520.got - 2010.06.03 13:09:07.
