data_PCOD9211279
_publ_section_title
;
Structure prediction by ZEFSAII (Michael W. Deem and Ramdas Pophale) SiO2 
 PCOD9211279
Probable space group: C 2/M
;
_chemical_formula_sum "Si O2"
_cell_formula_units_Z 60
_cell_length_a 23.382774
_cell_length_b 19.745027
_cell_length_c 5.646230
_cell_angle_alpha 90.000000
_cell_angle_beta 90.612507
_cell_angle_gamma 90.000000
_cell_volume 2606.678758
_symmetry_space_group_name_H-M "C 2/M"
_symmetry_group_IT_number 12
_symmetry_cell_setting 'monoclinic'
loop_
_space_group_symop_operation_xyz
x,y,z
-x,y,-z
-x,-y,-z
x,-y,z
1/2+x,1/2+y,z
1/2-x,1/2+y,-z
1/2-x,1/2-y,-z
1/2+x,1/2-y,z
loop_
_atom_site_type_symbol
_atom_site_label
_atom_site_fract_x
_atom_site_fract_y
_atom_site_fract_z
Si Si1 0.858797 0.253770 0.376907
Si Si2 0.939735 0.222368 0.998388
Si Si3 0.697246 0.074785 0.388647
Si Si4 0.846746 0.118508 0.890058
Si Si5 0.964742 0.500000 0.747826
Si Si6 0.169936 0.100884 0.597116
Si Si7 0.441924 0.846473 0.660057
Si Si8 0.209570 0.639656 0.890561
O O1 0.827650 0.183506 0.439613
O O2 0.884914 0.314264 0.536686
O O3 0.816478 0.288186 0.184538
O O4 0.917532 0.229421 0.261331
O O5 0.889216 0.182109 0.870159
O O6 0.948023 0.295306 0.879307
O O7 0.000000 0.185613 0.000000
O O8 0.766430 0.073823 0.384063
O O9 0.688926 0.094063 0.666250
O O10 0.673726 0.000000 0.350543
O O11 0.686840 0.117229 0.145670
O O12 0.855894 0.076745 0.651521
O O13 0.778885 0.137360 0.897387
O O14 0.858819 0.088056 0.150742
O O15 0.935621 0.425185 0.732619
O O16 0.000000 0.500000 0.500000
O O17 0.000000 0.500000 0.000000
O O18 0.500000 0.842366 0.500000
#
# Coordination Sequence:
#
# PCOD9211279 Si02
#       8
#     8   8   8   8   4   8   8   8
#     4  11  23  37  58  88 117 154 191 249 305 351
#     4  11  21  35  58  85 117 149 195 243 299 344
#     4  10  21  40  60  83 118 157 195 237 282 353
#     4   9  19  35  54  84 117 146 185 235 287 355
#     4  10  24  42  62  78 106 158 214 250 291 345
#     4   9  19  34  57  84 114 147 189 231 290 356
#     4  11  22  40  60  81 113 154 205 255 297 347
#     4  10  23  38  60  86 118 155 194 237 296 357
#
# _framework density 23.017795
#
# number of rings (size 3 to 8) (size 9 to 14) (size 15 to 20)
#    0.000    1.867    2.667    0.800    3.733    6.933 
#    2.400    0.000    0.000    0.000    0.000    0.000 
#    0.000  141.867    0.000    0.000    0.000    0.000 
#
# Total GULP energy -167034.284743 kJ/mol
# GULP energy per Si atom -5567.809491 kJ/mol
# Density = 2.296541 g / cm^3
# Si number density = 23.017795 Si / 1000 Ang^3
#
#
#
# Elastic Constant Matrix: (Units=GPa)
#
#
# Indices 1 2 3 4 5 6 
#
# 1 78.0596 33.9727 26.7805 0.0000 0.7481 0.0000
# 2 33.9727 104.4576 40.1788 0.0000 9.6289 0.0000
# 3 26.7805 40.1788 159.9202 0.0000 4.5076 0.0000
# 4 0.0000 0.0000 0.0000 -16.4811 0.0000 18.5498
# 5 0.7481 9.6289 4.5076 0.0000 38.8495 0.0000
# 6 0.0000 0.0000 0.0000 18.5498 0.0000 -6.1948
#
#
#
# Elastic Compliance Matrix: (Units=1/GPa)
#
#
# Indices 1 2 3 4 5 6 
#
# 1 0.015256 -0.004494 -0.001454 0.000000 0.000989 0.000000
# 2 -0.004494 0.012135 -0.002221 0.000000 -0.002663 0.000000
# 3 -0.001454 -0.002221 0.007061 0.000000 -0.000241 0.000000
# 4 0.000000 0.000000 0.000000 0.025599 0.000000 0.076653
# 5 0.000989 -0.002663 -0.000241 0.000000 0.026409 0.000000
# 6 0.000000 0.000000 0.000000 0.076653 0.000000 0.068105
#
#
# Mechanical properties :
#
#
# Convention : Reuss Voigt Hill
#
# Bulk Modulus (GPa) = 55.20332 60.47796 57.84064
# Shear Modulus (GPa) = 28.25831 19.33507 23.79669
#
# Velocity S-wave (km/s) = 3.50762 2.90143 3.21882
# Velocity P-wave (km/s) = 6.35920 6.12828 6.24481
#
# Compressibility (1/GPa) = 0.01811485
#
# Stress axis : x y z
#
# Youngs Moduli (GPa) = 65.54955 82.40922 141.61545
#
# Poissons Ratio (x) = 0.37031 0.20585
# Poissons Ratio (y) = 0.29455 0.31455
# Poissons Ratio (z) = 0.09528 0.18304
#
# Static dielectric constant tensor:
#      x y z
#    x 1.901440 0.000000 0.025070 
#    y 0.000000 1.935910 0.000000 
#    z 0.025070 0.000000 1.948710 
# 
# From -- ./inp_files/21892.got.cif
#   From: 2010.05.17/outbox.cif.g08.bks.cpg/sg12_11_cif.got.tgz:21892.got - 2010.06.03 13:09:07.
