data_PCOD9211514
_publ_section_title
;
Structure prediction by ZEFSAII (Michael W. Deem and Ramdas Pophale) SiO2 
 PCOD9211514
Probable space group: C 2/M
;
_chemical_formula_sum "Si O2"
_cell_formula_units_Z 44
_cell_length_a 13.855415
_cell_length_b 23.314290
_cell_length_c 14.535476
_cell_angle_alpha 90.000000
_cell_angle_beta 28.659747
_cell_angle_gamma 90.000000
_cell_volume 2251.939055
_symmetry_space_group_name_H-M "C 2/M"
_symmetry_group_IT_number 12
_symmetry_cell_setting 'monoclinic'
loop_
_space_group_symop_operation_xyz
x,y,z
-x,y,-z
-x,-y,-z
x,-y,z
1/2+x,1/2+y,z
1/2-x,1/2+y,-z
1/2-x,1/2-y,-z
1/2+x,1/2-y,z
loop_
_atom_site_type_symbol
_atom_site_label
_atom_site_fract_x
_atom_site_fract_y
_atom_site_fract_z
Si Si1 0.853144 0.000000 0.308306
Si Si2 0.021067 0.403392 0.581626
Si Si3 0.752544 0.000000 0.919547
Si Si4 0.179024 0.369852 0.922508
Si Si5 0.479638 0.190087 0.262703
Si Si6 0.239405 0.000000 0.878028
Si Si7 0.524121 0.713973 0.585516
O O1 0.711260 0.945421 0.424465
O O2 0.004389 0.000000 0.095645
O O3 0.005602 0.000000 0.266627
O O4 0.043530 0.360266 0.644706
O O5 0.000000 0.374893 0.500000
O O6 0.827334 0.443953 0.757161
O O7 0.694389 0.061237 0.924882
O O8 0.668390 0.000000 0.094789
O O9 0.387420 0.342859 0.711586
O O10 0.000000 0.358847 0.000000
O O11 0.121505 0.335519 0.064220
O O12 0.544205 0.243120 0.274628
O O13 0.261229 0.204033 0.403197
O O14 0.500000 0.734518 0.500000
#
# Coordination Sequence:
#
# PCOD9211514 Si02
#       7
#     4   8   4   8   8   4   8
#     4   9  19  36  56  85 125 165 203 256 312 363
#     4  11  21  35  60  90 122 168 208 254 315 370
#     4  10  21  40  63  91 125 168 209 251 317 370
#     4  12  23  43  66  92 128 168 207 263 314 372
#     4  11  23  42  65  90 129 161 208 264 311 372
#     4   9  19  36  55  82 127 159 201 256 304 367
#     4  11  24  43  67  94 121 166 211 261 317 368
#
# _framework density 19.538717999999999
#
# number of rings (size 3 to 8) (size 9 to 14) (size 15 to 20)
#    0.545    0.727    3.636    3.545    0.000    1.455 
#    0.000    0.455    0.000    0.000    0.000    0.000 
#    0.000    0.000    0.000    0.000    0.000    0.000 
#
# Total GULP energy -122689.499649 kJ/mol
# GULP energy per Si atom -5576.795439 kJ/mol
# Density = 1.949425 g / cm^3
# Si number density = 19.538718 Si / 1000 Ang^3
#
#
#
# Elastic Constant Matrix: (Units=GPa)
#
#
# Indices 1 2 3 4 5 6 
#
# 1 111.8972 34.9885 29.8195 0.3753 17.2930 0.6488
# 2 34.9885 105.5602 37.5967 -0.0278 7.2013 -0.0185
# 3 29.8195 37.5967 83.9549 -0.2438 2.4920 -0.4613
# 4 0.3753 -0.0278 -0.2438 -38.9122 0.0426 -78.2063
# 5 17.2930 7.2013 2.4920 0.0426 30.3635 0.0417
# 6 0.6488 -0.0185 -0.4613 -78.2063 0.0417 -149.2844
#
#
#
# Elastic Compliance Matrix: (Units=1/GPa)
#
#
# Indices 1 2 3 4 5 6 
#
# 1 0.011290 -0.002366 -0.002783 -0.000161 -0.005640 0.000141
# 2 -0.002366 0.011924 -0.004466 0.000152 -0.001114 -0.000078
# 3 -0.002783 -0.004466 0.014857 0.000009 0.001425 -0.000062
# 4 -0.000161 0.000152 0.000009 0.485901 -0.000277 -0.254552
# 5 -0.005640 -0.001114 0.001425 -0.000277 0.036294 0.000127
# 6 0.000141 -0.000078 -0.000062 -0.254552 0.000127 0.126655
#
#
# Mechanical properties :
#
#
# Convention : Reuss Voigt Hill
#
# Bulk Modulus (GPa) = 53.07688 56.24685 54.66186
# Shear Modulus (GPa) = 7.01822 -18.29944 -5.64061
#
# Velocity S-wave (km/s) = 1.89730 -3.06367 -1.70093
# Velocity P-wave (km/s) = 5.65894 4.04167 4.91725
#
# Compressibility (1/GPa) = 0.01884060
#
# Stress axis : x y z
#
# Youngs Moduli (GPa) = 88.57764 83.86185 67.30819
#
# Poissons Ratio (x) = 0.19843 0.18729
# Poissons Ratio (y) = 0.20959 0.30063
# Poissons Ratio (z) = 0.24647 0.37457
#
# Static dielectric constant tensor:
#      x y z
#    x 1.696490 -0.000010 0.015800 
#    y -0.000010 1.670010 0.000030 
#    z 0.015800 0.000030 1.668230 
# 
# From -- ./inp_files/135782.got.cif
#   From: 2010.05.17/outbox.cif.g08.bks.cpg/sg12_68_cif.got.tgz:135782.got - 2010.06.03 13:09:07.
