data_PCOD9211197
_publ_section_title
;
Structure prediction by ZEFSAII (Michael W. Deem and Ramdas Pophale) SiO2 
 PCOD9211197
Probable space group: C 2/M
;
_chemical_formula_sum "Si O2"
_cell_formula_units_Z 44
_cell_length_a 16.016512
_cell_length_b 26.746203
_cell_length_c 5.300591
_cell_angle_alpha 90.000000
_cell_angle_beta 115.597600
_cell_angle_gamma 90.000000
_cell_volume 2047.806821
_symmetry_space_group_name_H-M "C 2/M"
_symmetry_group_IT_number 12
_symmetry_cell_setting 'monoclinic'
loop_
_space_group_symop_operation_xyz
x,y,z
-x,y,-z
-x,-y,-z
x,-y,z
1/2+x,1/2+y,z
1/2-x,1/2+y,-z
1/2-x,1/2-y,-z
1/2+x,1/2-y,z
loop_
_atom_site_type_symbol
_atom_site_label
_atom_site_fract_x
_atom_site_fract_y
_atom_site_fract_z
Si Si1 0.255648 0.912399 0.587952
Si Si2 0.324082 0.226924 0.401506
Si Si3 0.440301 0.865295 0.673140
Si Si4 0.180791 0.826282 0.845627
Si Si5 0.403943 0.418428 0.014858
Si Si6 0.686375 0.500000 0.788480
O O1 0.350779 0.900753 0.573063
O O2 0.220600 0.861290 0.674444
O O3 0.178685 0.930952 0.288662
O O4 0.259157 0.955601 0.798818
O O5 0.250000 0.250000 0.500000
O O6 0.400066 0.191237 0.620449
O O7 0.364220 0.275620 0.315131
O O8 0.266185 0.192714 0.129098
O O9 0.500000 0.872594 0.500000
O O10 0.500000 0.873279 0.000000
O O11 0.113297 0.862041 0.914466
O O12 0.500000 0.424565 0.000000
O O13 0.387899 0.456169 0.221943
#
# Coordination Sequence:
#
# PCOD9211197 Si02
#       6
#     8   8   8   8   8   4
#     4  11  23  47  67 100 138 186 232 303 361 431
#     4  11  21  42  66  96 137 189 237 292 352 418
#     4  12  27  46  73 106 145 196 246 294 357 421
#     4  10  21  39  68  93 144 184 234 286 359 424
#     4  11  23  42  68 104 139 182 233 299 374 442
#     4  10  25  41  77  96 140 177 239 292 388 427
#
# _framework density 21.486404
#
# number of rings (size 3 to 8) (size 9 to 14) (size 15 to 20)
#    0.000    1.091    3.636    1.909    5.091    3.636 
#    6.545    0.909    0.000    0.000    0.000    0.000 
#    0.000    0.000    0.000    0.000    0.000    0.000 
#
# Total GULP energy -122524.348611 kJ/mol
# GULP energy per Si atom -5569.288573 kJ/mol
# Density = 2.143750 g / cm^3
# Si number density = 21.486404 Si / 1000 Ang^3
#
#
#
# Elastic Constant Matrix: (Units=GPa)
#
#
# Indices 1 2 3 4 5 6 
#
# 1 156.3567 40.3938 22.2439 0.0000 -12.6444 0.0000
# 2 40.3938 128.4210 -8.0025 0.0000 -2.0552 0.0000
# 3 22.2439 -8.0025 52.6255 0.0000 5.1174 0.0000
# 4 0.0000 0.0000 0.0000 17.2706 0.0000 -13.2597
# 5 -12.6444 -2.0552 5.1174 0.0000 30.6846 0.0000
# 6 0.0000 0.0000 0.0000 -13.2597 0.0000 22.3553
#
#
#
# Elastic Compliance Matrix: (Units=1/GPa)
#
#
# Indices 1 2 3 4 5 6 
#
# 1 0.007997 -0.002714 -0.004163 0.000000 0.003808 0.000000
# 2 -0.002714 0.008786 0.002576 0.000000 -0.000960 0.000000
# 3 -0.004163 0.002576 0.021655 0.000000 -0.005154 0.000000
# 4 0.000000 0.000000 0.000000 0.106317 0.000000 0.063060
# 5 0.003808 -0.000960 -0.005154 0.000000 0.034954 0.000000
# 6 0.000000 0.000000 0.000000 0.063060 0.000000 0.082135
#
#
# Mechanical properties :
#
#
# Convention : Reuss Voigt Hill
#
# Bulk Modulus (GPa) = 33.51615 49.63038 41.57327
# Shear Modulus (GPa) = 17.83227 32.91330 25.37279
#
# Velocity S-wave (km/s) = 2.88398 3.91809 3.44012
# Velocity P-wave (km/s) = 5.16937 6.60434 5.93042
#
# Compressibility (1/GPa) = 0.02983636
#
# Stress axis : x y z
#
# Youngs Moduli (GPa) = 125.04776 113.82128 46.17896
#
# Poissons Ratio (x) = 0.30889 0.19225
# Poissons Ratio (y) = 0.33936 -0.11898
# Poissons Ratio (z) = 0.52059 -0.29325
#
# Static dielectric constant tensor:
#      x y z
#    x 1.769300 0.000000 -0.046570 
#    y 0.000000 1.807160 0.000000 
#    z -0.046570 0.000000 1.843200 
# 
# From -- ./inp_files/12221.got.cif
#   From: 2010.05.17/outbox.cif.g08.bks.cpg/sg12_7_cif.got.tgz:12221.got - 2010.06.03 13:09:07.
