data_PCOD9211928
_publ_section_title
;
Structure prediction by ZEFSAII (Michael W. Deem and Ramdas Pophale) SiO2 
 PCOD9211928
Probable space group: C 2/M
;
_chemical_formula_sum "Si O2"
_cell_formula_units_Z 48
_cell_length_a 14.522658
_cell_length_b 17.122708
_cell_length_c 18.144499
_cell_angle_alpha 90.000000
_cell_angle_beta 30.119691
_cell_angle_gamma 90.000000
_cell_volume 2264.128931
_symmetry_space_group_name_H-M "C 2/M"
_symmetry_group_IT_number 12
_symmetry_cell_setting 'monoclinic'
loop_
_space_group_symop_operation_xyz
x,y,z
-x,y,-z
-x,-y,-z
x,-y,z
1/2+x,1/2+y,z
1/2-x,1/2+y,-z
1/2-x,1/2-y,-z
1/2+x,1/2-y,z
loop_
_atom_site_type_symbol
_atom_site_label
_atom_site_fract_x
_atom_site_fract_y
_atom_site_fract_z
Si Si1 0.269262 0.667261 0.030205
Si Si2 0.678286 0.376397 0.570906
Si Si3 0.583636 0.000000 0.155918
Si Si4 0.000000 0.741586 0.500000
Si Si5 0.971439 0.733973 0.684311
Si Si6 0.316210 0.380518 0.275138
Si Si7 0.852665 0.000000 0.534257
Si Si8 0.218431 0.000000 0.825066
O O1 0.163253 0.586775 0.076389
O O2 0.199155 0.691534 0.160377
O O3 0.250000 0.750000 0.000000
O O4 0.478880 0.642247 0.886834
O O5 0.530103 0.309001 0.690393
O O6 0.691391 0.420182 0.639424
O O7 0.627197 0.427494 0.535882
O O8 0.866361 0.330054 0.424104
O O9 0.364520 0.000000 0.293449
O O10 0.649791 0.000000 0.195800
O O11 0.031402 0.771614 0.395547
O O12 0.184123 0.691850 0.379299
O O13 0.243122 0.428719 0.256724
O O14 0.000000 0.000000 0.500000
O O15 0.000000 0.000000 0.000000
#
# Coordination Sequence:
#
# PCOD9211928 Si02
#       8
#     8   8   4   4   8   8   4   4
#     4  12  23  44  73 106 148 203 241 300 386 444
#     4  10  22  43  65 100 139 188 244 302 357 428
#     4  12  26  45  74 109 156 189 252 317 371 455
#     4  10  24  35  64 101 140 178 238 298 358 447
#     4  10  21  40  67  99 142 184 239 303 359 431
#     4  11  23  40  65 106 145 186 232 298 385 451
#     4  12  27  46  76 100 144 207 256 301 368 434
#     4  12  23  38  68 110 147 182 227 306 389 453
#
# _framework density 21.200205
#
# number of rings (size 3 to 8) (size 9 to 14) (size 15 to 20)
#    0.000    1.000    5.000    1.500    3.500    0.333 
#    0.000    0.000    0.000    2.000    0.000    0.000 
#    0.000    0.000    0.000    0.000    0.000    0.000 
#
# Total GULP energy -133605.529485 kJ/mol
# GULP energy per Si atom -5566.897062 kJ/mol
# Density = 2.115195 g / cm^3
# Si number density = 21.200205 Si / 1000 Ang^3
#
#
#
# Elastic Constant Matrix: (Units=GPa)
#
#
# Indices 1 2 3 4 5 6 
#
# 1 130.0095 40.4029 17.8235 0.0017 6.7592 -0.0008
# 2 40.4029 122.0891 27.2244 -0.0064 5.0017 -0.0089
# 3 17.8235 27.2244 86.9054 0.0132 -9.9599 -0.0113
# 4 0.0017 -0.0064 0.0132 13.2269 -0.0067 26.1807
# 5 6.7592 5.0017 -9.9599 -0.0067 41.4261 0.0053
# 6 -0.0008 -0.0089 -0.0113 26.1807 0.0053 26.0265
#
#
#
# Elastic Compliance Matrix: (Units=1/GPa)
#
#
# Indices 1 2 3 4 5 6 
#
# 1 0.008720 -0.002575 -0.001141 0.000000 -0.001386 -0.000001
# 2 -0.002575 0.009695 -0.002669 -0.000002 -0.001392 0.000005
# 3 -0.001141 -0.002669 0.012993 0.000020 0.003632 -0.000016
# 4 0.000000 -0.000002 0.000020 -0.076285 -0.000017 0.076736
# 5 -0.001386 -0.001392 0.003632 -0.000017 0.025407 0.000013
# 6 -0.000001 0.000005 -0.000016 0.076736 0.000013 -0.038768
#
#
# Mechanical properties :
#
#
# Convention : Reuss Voigt Hill
#
# Bulk Modulus (GPa) = 53.64756 56.65615 55.15185
# Shear Modulus (GPa) = -127.36726 33.03945 -47.16391
#
# Velocity S-wave (km/s) = -7.75943 3.95200 -4.72178
# Velocity P-wave (km/s) = 7.41068 6.89977 1.91199
#
# Compressibility (1/GPa) = 0.01864018
#
# Stress axis : x y z
#
# Youngs Moduli (GPa) = 114.67456 103.14756 76.96475
#
# Poissons Ratio (x) = 0.26557 0.08780
# Poissons Ratio (y) = 0.29525 0.20538
# Poissons Ratio (z) = 0.13082 0.27526
#
# Static dielectric constant tensor:
#      x y z
#    x 1.844340 0.000000 0.036620 
#    y 0.000000 1.843820 0.000000 
#    z 0.036620 0.000000 1.758140 
# 
# From -- ./inp_files/271653.got.cif
#   From: 2010.05.17/outbox.cif.g08.bks.cpg/sg12_136_cif.got.tgz:271653.got - 2010.06.03 13:09:07.
