data_PCOD9211242
_publ_section_title
;
Structure prediction by ZEFSAII (Michael W. Deem and Ramdas Pophale) SiO2 
 PCOD9211242
Probable space group: C 2/M
;
_chemical_formula_sum "Si O2"
_cell_formula_units_Z 56
_cell_length_a 13.882625
_cell_length_b 13.671864
_cell_length_c 16.553392
_cell_angle_alpha 90.000000
_cell_angle_beta 120.524902
_cell_angle_gamma 90.000000
_cell_volume 2706.421723
_symmetry_space_group_name_H-M "C 2/M"
_symmetry_group_IT_number 12
_symmetry_cell_setting 'monoclinic'
loop_
_space_group_symop_operation_xyz
x,y,z
-x,y,-z
-x,-y,-z
x,-y,z
1/2+x,1/2+y,z
1/2-x,1/2+y,-z
1/2-x,1/2-y,-z
1/2+x,1/2-y,z
loop_
_atom_site_type_symbol
_atom_site_label
_atom_site_fract_x
_atom_site_fract_y
_atom_site_fract_z
Si Si1 0.658613 0.000000 0.540946
Si Si2 0.715973 0.210277 0.284712
Si Si3 0.534433 0.000000 0.659146
Si Si4 0.505250 0.205117 0.315839
Si Si5 0.373801 0.616287 0.038850
Si Si6 0.656774 0.615651 0.795305
Si Si7 0.836313 0.712728 0.472476
Si Si8 0.140965 0.883260 0.145916
O O1 0.711867 0.105379 0.567852
O O2 0.588597 0.000000 0.593974
O O3 0.595752 0.000000 0.426384
O O4 0.607896 0.195496 0.295767
O O5 0.743290 0.133339 0.225896
O O6 0.822449 0.219255 0.389423
O O7 0.701841 0.313856 0.234241
O O8 0.558837 0.899239 0.715497
O O9 0.437284 0.303788 0.268725
O O10 0.549755 0.206720 0.428207
O O11 0.363954 0.500000 0.026855
O O12 0.317479 0.641220 0.099918
O O13 0.507412 0.634465 0.100823
O O14 0.331773 0.651438 0.933908
O O15 0.622698 0.500000 0.778430
O O16 0.750000 0.750000 0.500000
O O17 0.161462 0.000000 0.165131
#
# Coordination Sequence:
#
# PCOD9211242 Si02
#       8
#     4   8   4   8   8   8   8   8
#     4   9  16  32  54  76  97 148 191 243 284 335
#     4  11  22  34  57  89 118 154 197 243 297 355
#     4   9  18  32  60  72 100 147 203 238 285 328
#     4  10  21  40  57  80 116 164 199 245 292 346
#     4   8  16  34  58  85 115 151 193 241 295 350
#     4  11  23  39  60  89 122 158 196 240 300 358
#     4   9  20  36  52  82 119 149 197 243 291 343
#     4   9  17  33  60  88 115 148 196 247 292 349
#
# _framework density 20.691528000000002
#
# number of rings (size 3 to 8) (size 9 to 14) (size 15 to 20)
#    0.000    2.429    1.429    1.714    2.000    2.286 
#    6.429    0.714    0.000    0.000    1.857    2.000 
#    0.000    0.000    0.000    0.000    0.000    0.000 
#
# Total GULP energy -155886.785341 kJ/mol
# GULP energy per Si atom -5567.385191 kJ/mol
# Density = 2.064443 g / cm^3
# Si number density = 20.691528 Si / 1000 Ang^3
#
#
#
# Elastic Constant Matrix: (Units=GPa)
#
#
# Indices 1 2 3 4 5 6 
#
# 1 83.3683 33.4288 18.7860 0.0000 -29.3761 0.0000
# 2 33.4288 113.0442 23.5113 0.0000 -12.3272 0.0000
# 3 18.7860 23.5113 90.4477 0.0000 -34.6572 0.0000
# 4 0.0000 0.0000 0.0000 27.7180 0.0000 -7.6517
# 5 -29.3761 -12.3272 -34.6572 0.0000 31.0195 0.0000
# 6 0.0000 0.0000 0.0000 -7.6517 0.0000 33.8628
#
#
#
# Elastic Compliance Matrix: (Units=1/GPa)
#
#
# Indices 1 2 3 4 5 6 
#
# 1 0.021672 -0.004974 0.006817 0.000000 0.026164 0.000000
# 2 -0.004974 0.010548 -0.003335 0.000000 -0.004245 0.000000
# 3 0.006817 -0.003335 0.021810 0.000000 0.029498 0.000000
# 4 0.000000 0.000000 0.000000 0.038478 0.000000 0.008694
# 5 0.026164 -0.004245 0.029498 0.000000 0.088286 0.000000
# 6 0.000000 0.000000 0.000000 0.008694 0.000000 0.031496
#
#
# Mechanical properties :
#
#
# Convention : Reuss Voigt Hill
#
# Bulk Modulus (GPa) = 19.59005 48.70137 34.14571
# Shear Modulus (GPa) = 21.52489 32.59565 27.06027
#
# Velocity S-wave (km/s) = 3.22883 3.97333 3.62027
# Velocity P-wave (km/s) = 4.83618 6.68115 5.83208
#
# Compressibility (1/GPa) = 0.05104632
#
# Stress axis : x y z
#
# Youngs Moduli (GPa) = 46.14157 94.80799 45.85014
#
# Poissons Ratio (x) = 0.47153 -0.31255
# Poissons Ratio (y) = 0.22949 0.15292
# Poissons Ratio (z) = -0.31454 0.31621
#
# Static dielectric constant tensor:
#      x y z
#    x 1.805730 0.000000 0.033600 
#    y 0.000000 1.745010 0.000000 
#    z 0.033600 0.000000 1.773480 
# 
# From -- ./inp_files/276701.got.cif
#   From: 2010.05.17/outbox.cif.g08.bks.cpg/sg12_139_cif.got.tgz:276701.got - 2010.06.03 13:09:07.
