data_PCOD9211585
_publ_section_title
;
Structure prediction by ZEFSAII (Michael W. Deem and Ramdas Pophale) SiO2 
 PCOD9211585
Probable space group: C 2/M
;
_chemical_formula_sum "Si O2"
_cell_formula_units_Z 56
_cell_length_a 19.882012
_cell_length_b 24.342028
_cell_length_c 6.955921
_cell_angle_alpha 90.000000
_cell_angle_beta 122.451901
_cell_angle_gamma 90.000000
_cell_volume 2840.749721
_symmetry_space_group_name_H-M "C 2/M"
_symmetry_group_IT_number 12
_symmetry_cell_setting 'monoclinic'
loop_
_space_group_symop_operation_xyz
x,y,z
-x,y,-z
-x,-y,-z
x,-y,z
1/2+x,1/2+y,z
1/2-x,1/2+y,-z
1/2-x,1/2-y,-z
1/2+x,1/2-y,z
loop_
_atom_site_type_symbol
_atom_site_label
_atom_site_fract_x
_atom_site_fract_y
_atom_site_fract_z
Si Si1 0.910109 0.246247 0.300558
Si Si2 0.587435 0.666066 0.043420
Si Si3 0.690409 0.059461 0.534424
Si Si4 0.793392 0.798101 0.449912
Si Si5 0.719380 0.097444 0.162123
Si Si6 0.155709 0.937894 0.958779
Si Si7 0.908435 0.623412 0.339383
O O1 0.849049 0.226374 0.368793
O O2 0.906056 0.312040 0.287970
O O3 0.000000 0.230966 0.500000
O O4 0.894447 0.215823 0.075792
O O5 0.651547 0.669242 0.313275
O O6 0.596223 0.609741 0.935649
O O7 0.500000 0.671667 0.000000
O O8 0.704724 0.063705 0.331424
O O9 0.774174 0.062100 0.774059
O O10 0.636346 0.108513 0.531599
O O11 0.653634 0.000000 0.526750
O O12 0.750000 0.750000 0.500000
O O13 0.733859 0.840447 0.256445
O O14 0.797656 0.078547 0.164614
O O15 0.644197 0.094059 0.904558
O O16 0.123345 0.000000 0.895382
O O17 0.000000 0.606459 0.500000
#
# Coordination Sequence:
#
# PCOD9211585 Si02
#       7
#     8   8   8   8   8   8   8
#     4  11  23  42  62  91 133 167 200 258 318 376
#     4  12  24  41  65  95 129 165 208 255 316 372
#     4  10  21  40  64  90 122 164 211 258 312 369
#     4  12  24  37  65  95 124 165 214 255 313 376
#     4  11  21  39  64  90 122 162 212 256 309 370
#     4  10  22  40  63  91 125 163 210 262 306 367
#     4  10  24  41  60  91 128 163 207 258 316 370
#
# _framework density 19.713106
#
# number of rings (size 3 to 8) (size 9 to 14) (size 15 to 20)
#    0.000    1.143    4.286    2.143    2.000    2.857 
#    0.000    0.714    0.000    1.286    0.000    0.000 
#    0.000    0.000    0.000    0.000    0.000    0.000 
#
# Total GULP energy -156433.503382 kJ/mol
# GULP energy per Si atom -5586.910835 kJ/mol
# Density = 1.966824 g / cm^3
# Si number density = 19.713106 Si / 1000 Ang^3
#
#
#
# Elastic Constant Matrix: (Units=GPa)
#
#
# Indices 1 2 3 4 5 6 
#
# 1 98.3563 41.3826 33.0228 0.0000 -25.6951 0.0000
# 2 41.3826 73.3003 0.7471 0.0000 -15.5809 0.0000
# 3 33.0228 0.7471 81.5184 0.0000 -22.0055 0.0000
# 4 0.0000 0.0000 0.0000 1.4457 0.0000 -8.8770
# 5 -25.6951 -15.5809 -22.0055 0.0000 32.4481 0.0000
# 6 0.0000 0.0000 0.0000 -8.8770 0.0000 14.1216
#
#
#
# Elastic Compliance Matrix: (Units=1/GPa)
#
#
# Indices 1 2 3 4 5 6 
#
# 1 0.016922 -0.008240 -0.005178 0.000000 0.005932 0.000000
# 2 -0.008240 0.019547 0.004812 0.000000 0.006125 0.000000
# 3 -0.005178 0.004812 0.016939 0.000000 0.009697 0.000000
# 4 0.000000 0.000000 0.000000 -0.241868 0.000000 -0.152041
# 5 0.005932 0.006125 0.009697 0.000000 0.045033 0.000000
# 6 0.000000 0.000000 0.000000 -0.152041 0.000000 -0.024762
#
#
# Mechanical properties :
#
#
# Convention : Reuss Voigt Hill
#
# Bulk Modulus (GPa) = 27.62754 44.83110 36.22932
# Shear Modulus (GPa) = -35.99452 21.47126 -7.26163
#
# Velocity S-wave (km/s) = -4.27771 3.30386 -1.92137
# Velocity P-wave (km/s) = 3.21764 6.11107 3.67369
#
# Compressibility (1/GPa) = 0.03619577
#
# Stress axis : x y z
#
# Youngs Moduli (GPa) = 59.09345 51.15790 59.03700
#
# Poissons Ratio (x) = 0.42154 0.30571
# Poissons Ratio (y) = 0.48693 -0.28409
# Poissons Ratio (z) = 0.30601 -0.24618
#
# Static dielectric constant tensor:
#      x y z
#    x 1.667980 0.000000 0.007710 
#    y 0.000000 1.718770 0.000000 
#    z 0.007710 0.000000 1.687860 
# 
# From -- ./inp_files/17702.got.cif
#   From: 2010.05.17/outbox.cif.g08.bks.cpg/sg12_9_cif.got.tgz:17702.got - 2010.06.03 13:09:07.
