data_PCOD9211551
_publ_section_title
;
Structure prediction by ZEFSAII (Michael W. Deem and Ramdas Pophale) SiO2 
 PCOD9211551
Probable space group: C 2/M
;
_chemical_formula_sum "Si O2"
_cell_formula_units_Z 48
_cell_length_a 16.276927
_cell_length_b 19.826123
_cell_length_c 12.742721
_cell_angle_alpha 90.000000
_cell_angle_beta 33.914477
_cell_angle_gamma 90.000000
_cell_volume 2294.412042
_symmetry_space_group_name_H-M "C 2/M"
_symmetry_group_IT_number 12
_symmetry_cell_setting 'monoclinic'
loop_
_space_group_symop_operation_xyz
x,y,z
-x,y,-z
-x,-y,-z
x,-y,z
1/2+x,1/2+y,z
1/2-x,1/2+y,-z
1/2-x,1/2-y,-z
1/2+x,1/2-y,z
loop_
_atom_site_type_symbol
_atom_site_label
_atom_site_fract_x
_atom_site_fract_y
_atom_site_fract_z
Si Si1 0.479367 0.500000 0.780276
Si Si2 0.928971 0.865492 0.192617
Si Si3 0.324382 0.000000 0.794157
Si Si4 0.365551 0.894196 0.062993
Si Si5 0.980461 0.500000 0.238370
Si Si6 0.660465 0.256855 0.988032
Si Si7 0.828667 0.637715 0.666919
Si Si8 0.704706 0.500000 0.368675
O O1 0.535156 0.431783 0.778392
O O2 0.547736 0.500000 0.591640
O O3 0.303988 0.500000 0.981838
O O4 0.753698 0.860561 0.357901
O O5 0.000000 0.873923 0.000000
O O6 0.005418 0.798174 0.159379
O O7 0.489579 0.000000 0.668758
O O8 0.299643 0.065688 0.750984
O O9 0.344875 0.817257 0.055031
O O10 0.238156 0.935417 0.258958
O O11 0.500000 0.898371 0.000000
O O12 0.427378 0.935242 0.898452
O O13 0.825678 0.500000 0.338537
O O14 0.752179 0.304158 0.814255
O O15 0.750000 0.250000 0.000000
O O16 0.000000 0.648993 0.500000
#
# Coordination Sequence:
#
# PCOD9211551 Si02
#       8
#     4   8   4   8   4   8   8   4
#     4  12  21  38  63  96 129 156 213 251 318 382
#     4  10  21  40  64  87 125 168 204 253 320 374
#     4  12  21  37  63  90 127 162 203 262 311 377
#     4   9  18  40  64  86 123 164 203 253 313 369
#     4   9  20  36  64  91 116 157 212 253 298 367
#     4  11  22  41  66  88 122 167 215 254 312 387
#     4  11  24  40  60  94 123 163 209 256 324 371
#     4   9  22  38  62  95 120 164 207 258 312 374
#
# _framework density 20.920392
#
# number of rings (size 3 to 8) (size 9 to 14) (size 15 to 20)
#    0.000    1.667    3.333    4.500    2.333    0.000 
#    3.000    2.500    0.000    0.000    0.000    0.000 
#    0.000    0.000    0.000    0.000    0.000    0.000 
#
# Total GULP energy -133919.585124 kJ/mol
# GULP energy per Si atom -5579.982714 kJ/mol
# Density = 2.087278 g / cm^3
# Si number density = 20.920392 Si / 1000 Ang^3
#
#
#
# Elastic Constant Matrix: (Units=GPa)
#
#
# Indices 1 2 3 4 5 6 
#
# 1 80.1711 27.8249 6.7372 -0.0009 -28.7483 -0.0016
# 2 27.8249 170.1249 22.8372 0.0007 -4.7115 -0.0018
# 3 6.7372 22.8372 72.2608 -0.0014 -21.6544 -0.0020
# 4 -0.0009 0.0007 -0.0014 0.6793 0.0015 -15.4695
# 5 -28.7483 -4.7115 -21.6544 0.0015 36.7464 0.0010
# 6 -0.0016 -0.0018 -0.0020 -15.4695 0.0010 20.2112
#
#
#
# Elastic Compliance Matrix: (Units=1/GPa)
#
#
# Indices 1 2 3 4 5 6 
#
# 1 0.019510 -0.003306 0.004460 -0.000001 0.017468 0.000000
# 2 -0.003306 0.006704 -0.002827 0.000000 -0.003393 0.000000
# 3 0.004460 -0.002827 0.018525 -0.000003 0.014044 -0.000001
# 4 -0.000001 0.000000 -0.000003 -0.089599 0.000003 -0.068578
# 5 0.017468 -0.003393 0.014044 0.000003 0.048720 0.000002
# 6 0.000000 0.000000 -0.000001 -0.068578 0.000002 -0.003011
#
#
# Mechanical properties :
#
#
# Convention : Reuss Voigt Hill
#
# Bulk Modulus (GPa) = 24.15860 48.59503 36.37682
# Shear Modulus (GPa) = 277.89847 29.20458 153.55152
#
# Velocity S-wave (km/s) = 11.53796 3.74034 8.57656
# Velocity P-wave (km/s) = 13.75036 6.47553 10.74721
#
# Compressibility (1/GPa) = 0.04139313
#
# Stress axis : x y z
#
# Youngs Moduli (GPa) = 51.25693 149.15799 53.98137
#
# Poissons Ratio (x) = 0.49310 -0.24078
# Poissons Ratio (y) = 0.16945 0.15262
# Poissons Ratio (z) = -0.22863 0.42172
#
# Static dielectric constant tensor:
#      x y z
#    x 1.761420 0.000000 -0.030900 
#    y 0.000000 1.623420 0.000000 
#    z -0.030900 0.000000 1.820630 
# 
# From -- ./inp_files/226806.got.cif
#   From: 2010.05.17/outbox.cif.g08.bks.cpg/sg12_114_cif.got.tgz:226806.got - 2010.06.03 13:09:07.
