data_PCOD9211574
_publ_section_title
;
Structure prediction by ZEFSAII (Michael W. Deem and Ramdas Pophale) SiO2 
 PCOD9211574
Probable space group: C 2/M
;
_chemical_formula_sum "Si O2"
_cell_formula_units_Z 58
_cell_length_a 9.532734
_cell_length_b 28.471973
_cell_length_c 9.546890
_cell_angle_alpha 90.000000
_cell_angle_beta 91.544330
_cell_angle_gamma 90.000000
_cell_volume 2590.235076
_symmetry_space_group_name_H-M "C 2/M"
_symmetry_group_IT_number 12
_symmetry_cell_setting 'monoclinic'
loop_
_space_group_symop_operation_xyz
x,y,z
-x,y,-z
-x,-y,-z
x,-y,z
1/2+x,1/2+y,z
1/2-x,1/2+y,-z
1/2-x,1/2-y,-z
1/2+x,1/2-y,z
loop_
_atom_site_type_symbol
_atom_site_label
_atom_site_fract_x
_atom_site_fract_y
_atom_site_fract_z
Si Si1 0.819601 0.918676 0.096228
Si Si2 0.677909 0.209596 0.698235
Si Si3 0.350057 0.206988 0.751497
Si Si4 0.000000 0.000000 0.000000
Si Si5 0.664799 0.686626 0.011430
Si Si6 0.689700 0.893050 0.605717
Si Si7 0.532951 0.554612 0.335289
Si Si8 0.109207 0.402509 0.296313
O O1 0.832321 0.868523 0.025176
O O2 0.668840 0.927461 0.161556
O O3 0.915741 0.920502 0.239446
O O4 0.879062 0.958871 0.001819
O O5 0.515510 0.218898 0.737543
O O6 0.755617 0.257619 0.657717
O O7 0.685752 0.163998 0.597986
O O8 0.768943 0.193187 0.834707
O O9 0.272704 0.209482 0.901396
O O10 0.346000 0.151971 0.717607
O O11 0.500000 0.701999 0.000000
O O12 0.827480 0.915259 0.673198
O O13 0.666588 0.915701 0.451514
O O14 0.556820 0.905106 0.697031
O O15 0.500000 0.553273 0.500000
O O16 0.539171 0.500000 0.283723
#
# Coordination Sequence:
#
# PCOD9211574 Si02
#       8
#     8   8   8   2   8   8   8   8
#     4  11  22  40  61  92 122 163 200 254 310 369
#     4  11  22  37  59  89 120 164 211 257 307 363
#     4  10  22  38  58  87 125 162 210 260 306 367
#     4  12  24  40  66  92 132 158 206 256 306 378
#     4  11  21  36  59  83 119 163 207 252 305 367
#     4  10  21  40  64  89 125 164 206 259 310 370
#     4  11  22  39  64  94 123 154 201 258 308 365
#     4   9  21  42  62  88 126 165 206 252 316 369
#
# _framework density 22.391791000000001
#
# number of rings (size 3 to 8) (size 9 to 14) (size 15 to 20)
#    0.000    1.517    2.759    2.483    0.000    1.655 
#    1.241    0.690    0.000    0.828    0.000    0.000 
#    0.000    0.000    0.000    0.000    0.000    0.000 
#
# Total GULP energy -161729.075065 kJ/mol
# GULP energy per Si atom -5576.864657 kJ/mol
# Density = 2.234083 g / cm^3
# Si number density = 22.391791 Si / 1000 Ang^3
#
#
#
# Elastic Constant Matrix: (Units=GPa)
#
#
# Indices 1 2 3 4 5 6 
#
# 1 129.3443 27.4433 8.2671 0.0000 -27.0993 0.0000
# 2 27.4433 85.2391 0.2325 0.0000 -17.5236 0.0000
# 3 8.2671 0.2325 54.5563 0.0000 -17.0435 0.0000
# 4 0.0000 0.0000 0.0000 26.9629 0.0000 -7.6734
# 5 -27.0993 -17.5236 -17.0435 0.0000 22.3401 0.0000
# 6 0.0000 0.0000 0.0000 -7.6734 0.0000 34.2462
#
#
#
# Elastic Compliance Matrix: (Units=1/GPa)
#
#
# Indices 1 2 3 4 5 6 
#
# 1 0.010789 -0.000363 0.003107 0.000000 0.015172 0.000000
# 2 -0.000363 0.014862 0.004590 0.000000 0.014720 0.000000
# 3 0.003107 0.004590 0.026444 0.000000 0.027543 0.000000
# 4 0.000000 0.000000 0.000000 0.039614 0.000000 0.008876
# 5 0.015172 0.014720 0.027543 0.000000 0.095726 0.000000
# 6 0.000000 0.000000 0.000000 0.008876 0.000000 0.031189
#
#
# Mechanical properties :
#
#
# Convention : Reuss Voigt Hill
#
# Bulk Modulus (GPa) = 14.97850 37.89171 26.43511
# Shear Modulus (GPa) = 22.10333 32.25630 27.17982
#
# Velocity S-wave (km/s) = 3.14525 3.79956 3.48779
# Velocity P-wave (km/s) = 4.46026 6.01729 5.29631
#
# Compressibility (1/GPa) = 0.06676236
#
# Stress axis : x y z
#
# Youngs Moduli (GPa) = 92.69110 67.28552 37.81585
#
# Poissons Ratio (x) = 0.02441 -0.11748
# Poissons Ratio (y) = 0.03362 -0.17358
# Poissons Ratio (z) = -0.28796 -0.30884
#
# Static dielectric constant tensor:
#      x y z
#    x 1.799890 0.000000 0.013590 
#    y 0.000000 1.755380 0.000000 
#    z 0.013590 0.000000 1.730950 
# 
# From -- ./inp_files/124306.got.cif
#   From: 2010.05.17/outbox.cif.g08.bks.cpg/sg12_63_cif.got.tgz:124306.got - 2010.06.03 13:09:07.
