data_PCOD9211074
_publ_section_title
;
Structure prediction by ZEFSAII (Michael W. Deem and Ramdas Pophale) SiO2 
 PCOD9211074
Probable space group: C 2/M
;
_chemical_formula_sum "Si O2"
_cell_formula_units_Z 52
_cell_length_a 11.812465
_cell_length_b 25.018703
_cell_length_c 10.465601
_cell_angle_alpha 90.000000
_cell_angle_beta 128.410564
_cell_angle_gamma 90.000000
_cell_volume 2423.551445
_symmetry_space_group_name_H-M "C 2/M"
_symmetry_group_IT_number 12
_symmetry_cell_setting 'monoclinic'
loop_
_space_group_symop_operation_xyz
x,y,z
-x,y,-z
-x,-y,-z
x,-y,z
1/2+x,1/2+y,z
1/2-x,1/2+y,-z
1/2-x,1/2-y,-z
1/2+x,1/2-y,z
loop_
_atom_site_type_symbol
_atom_site_label
_atom_site_fract_x
_atom_site_fract_y
_atom_site_fract_z
Si Si1 0.723481 0.439551 0.089225
Si Si2 0.944732 0.558829 0.774944
Si Si3 0.662255 0.904603 0.564134
Si Si4 0.879479 0.167062 0.099589
Si Si5 0.321462 0.308233 0.551787
Si Si6 0.000000 0.246941 0.000000
Si Si7 0.810894 0.336316 0.791935
O O1 0.672007 0.500000 0.029993
O O2 0.746018 0.429817 0.256602
O O3 0.885962 0.434967 0.142958
O O4 0.626158 0.392790 0.961177
O O5 0.922159 0.500000 0.815235
O O6 0.855093 0.562523 0.579034
O O7 0.887046 0.607281 0.819566
O O8 0.500000 0.898868 0.500000
O O9 0.722408 0.847249 0.567061
O O10 0.748855 0.170073 0.107686
O O11 0.021418 0.183806 0.277964
O O12 0.882819 0.208560 0.984493
O O13 0.250000 0.250000 0.500000
O O14 0.312675 0.329557 0.400518
O O15 0.077455 0.287766 0.150468
#
# Coordination Sequence:
#
# PCOD9211074 Si02
#       7
#     8   8   8   8   8   4   8
#     4  10  21  39  66 101 136 174 215 265 325 383
#     4   9  19  39  67  98 132 170 219 266 312 384
#     4   9  19  37  67  97 130 170 219 267 321 378
#     4  12  25  42  64  93 132 170 214 268 327 389
#     4  11  23  44  61  89 128 172 221 265 323 387
#     4  12  24  44  62  90 128 164 216 268 322 384
#     4  11  24  41  65  94 126 169 215 268 322 382
#
# _framework density 21.456113999999999
#
# number of rings (size 3 to 8) (size 9 to 14) (size 15 to 20)
#    0.000    1.538    1.538    3.231    0.000    3.692 
#    0.000    8.462    0.000    4.615    0.000    0.000 
#    0.000    0.000    0.000    0.000    0.000    0.000 
#
# Total GULP energy -145264.289228 kJ/mol
# GULP energy per Si atom -5587.088047 kJ/mol
# Density = 2.140728 g / cm^3
# Si number density = 21.456114 Si / 1000 Ang^3
#
#
#
# Elastic Constant Matrix: (Units=GPa)
#
#
# Indices 1 2 3 4 5 6 
#
# 1 76.0490 64.0384 17.8079 0.0000 -18.3488 0.0000
# 2 64.0384 211.6198 40.7027 0.0000 2.4882 0.0000
# 3 17.8079 40.7027 85.8249 0.0000 6.9687 0.0000
# 4 0.0000 0.0000 0.0000 25.7860 0.0000 6.9136
# 5 -18.3488 2.4882 6.9687 0.0000 24.0689 0.0000
# 6 0.0000 0.0000 0.0000 6.9136 0.0000 23.6469
#
#
#
# Elastic Compliance Matrix: (Units=1/GPa)
#
#
# Indices 1 2 3 4 5 6 
#
# 1 0.024997 -0.007137 -0.003491 0.000000 0.020805 0.000000
# 2 -0.007137 0.007239 -0.001484 0.000000 -0.005760 0.000000
# 3 -0.003491 -0.001484 0.013603 0.000000 -0.006446 0.000000
# 4 0.000000 0.000000 0.000000 0.042079 0.000000 -0.012303
# 5 0.020805 -0.005760 -0.006446 0.000000 0.059870 0.000000
# 6 0.000000 0.000000 0.000000 -0.012303 0.000000 0.045886
#
#
# Mechanical properties :
#
#
# Convention : Reuss Voigt Hill
#
# Bulk Modulus (GPa) = 46.26776 68.73243 57.50010
# Shear Modulus (GPa) = 22.21204 31.43000 26.82102
#
# Velocity S-wave (km/s) = 3.22099 3.83149 3.53943
# Velocity P-wave (km/s) = 5.95347 7.18869 6.60004
#
# Compressibility (1/GPa) = 0.02161332
#
# Stress axis : x y z
#
# Youngs Moduli (GPa) = 40.00506 138.14945 73.51149
#
# Poissons Ratio (x) = 0.98604 0.25662
# Poissons Ratio (y) = 0.28554 0.10911
# Poissons Ratio (z) = 0.13966 0.20505
#
# Static dielectric constant tensor:
#      x y z
#    x 1.792430 0.000000 -0.027800 
#    y 0.000000 1.754370 0.000000 
#    z -0.027800 0.000000 1.845420 
# 
# From -- ./inp_files/136011.got.cif
#   From: 2010.05.17/outbox.cif.g08.bks.cpg/sg12_69_cif.got.tgz:136011.got - 2010.06.03 13:09:07.
