data_PCOD9211987
_publ_section_title
;
Structure prediction by ZEFSAII (Michael W. Deem and Ramdas Pophale) SiO2 
 PCOD9211987
Probable space group: C 2/M
;
_chemical_formula_sum "Si O2"
_cell_formula_units_Z 48
_cell_length_a 12.479759
_cell_length_b 19.884968
_cell_length_c 11.311823
_cell_angle_alpha 90.000000
_cell_angle_beta 52.075816
_cell_angle_gamma 90.000000
_cell_volume 2214.339534
_symmetry_space_group_name_H-M "C 2/M"
_symmetry_group_IT_number 12
_symmetry_cell_setting 'monoclinic'
loop_
_space_group_symop_operation_xyz
x,y,z
-x,y,-z
-x,-y,-z
x,-y,z
1/2+x,1/2+y,z
1/2-x,1/2+y,-z
1/2-x,1/2-y,-z
1/2+x,1/2-y,z
loop_
_atom_site_type_symbol
_atom_site_label
_atom_site_fract_x
_atom_site_fract_y
_atom_site_fract_z
Si Si1 0.842886 0.236038 0.653516
Si Si2 0.202015 0.128424 0.493499
Si Si3 0.088773 0.857008 0.188125
Si Si4 0.787548 0.500000 0.314858
Si Si5 0.500000 0.372707 0.000000
Si Si6 0.221571 0.390132 0.300962
Si Si7 0.565628 0.000000 0.268694
Si Si8 0.737591 0.500000 0.087031
O O1 0.762929 0.195445 0.604262
O O2 0.830011 0.193194 0.782404
O O3 0.794140 0.310931 0.710842
O O4 0.000000 0.239505 0.500000
O O5 0.203503 0.066669 0.402420
O O6 0.286355 0.107156 0.551605
O O7 0.054612 0.138353 0.648625
O O8 0.150363 0.931701 0.141148
O O9 0.061836 0.834359 0.071555
O O10 0.817885 0.500000 0.156150
O O11 0.918285 0.500000 0.310308
O O12 0.629671 0.410904 0.852785
O O13 0.108407 0.435392 0.316658
O O14 0.664506 0.000000 0.089616
#
# Coordination Sequence:
#
# PCOD9211987 Si02
#       8
#     8   8   8   4   4   8   4   4
#     4  10  22  41  66  97 134 171 210 270 328 381
#     4  10  22  40  67 103 126 167 220 270 325 378
#     4  10  21  40  69  96 127 165 218 273 326 376
#     4  12  25  42  66  97 132 169 223 264 322 399
#     4  10  22  43  64  96 120 165 224 262 326 381
#     4  11  24  43  66  93 134 172 218 271 319 391
#     4  12  28  44  63  95 133 182 215 261 327 381
#     4  12  22  44  67  91 132 167 214 278 315 388
#
# _framework density 21.676893
#
# number of rings (size 3 to 8) (size 9 to 14) (size 15 to 20)
#    0.000    1.333    3.333    1.750    2.333    4.667 
#    0.000    0.000    0.000    0.000    0.000    0.000 
#    0.000    0.000    0.000    0.000    0.000    0.000 
#
# Total GULP energy -134003.008141 kJ/mol
# GULP energy per Si atom -5583.458673 kJ/mol
# Density = 2.162756 g / cm^3
# Si number density = 21.676893 Si / 1000 Ang^3
#
#
#
# Elastic Constant Matrix: (Units=GPa)
#
#
# Indices 1 2 3 4 5 6 
#
# 1 87.5030 21.5940 52.8774 0.0000 38.4193 0.0000
# 2 21.5940 122.9583 49.7551 0.0000 28.8445 0.0000
# 3 52.8774 49.7551 98.3159 0.0000 27.5091 0.0000
# 4 0.0000 0.0000 0.0000 29.3423 0.0000 9.0839
# 5 38.4193 28.8445 27.5091 0.0000 30.6810 0.0000
# 6 0.0000 0.0000 0.0000 9.0839 0.0000 23.6373
#
#
#
# Elastic Compliance Matrix: (Units=1/GPa)
#
#
# Indices 1 2 3 4 5 6 
#
# 1 0.033323 0.007757 -0.010855 0.000000 -0.039288 0.000000
# 2 0.007757 0.013158 -0.006209 0.000000 -0.016516 0.000000
# 3 -0.010855 -0.006209 0.018308 0.000000 0.003015 0.000000
# 4 0.000000 0.000000 0.000000 0.038683 0.000000 -0.014866
# 5 -0.039288 -0.016516 0.003015 0.000000 0.094614 0.000000
# 6 0.000000 0.000000 0.000000 -0.014866 0.000000 0.048019
#
#
# Mechanical properties :
#
#
# Convention : Reuss Voigt Hill
#
# Bulk Modulus (GPa) = 21.65735 61.91446 41.78590
# Shear Modulus (GPa) = 17.85006 29.03552 23.44279
#
# Velocity S-wave (km/s) = 2.87271 3.66385 3.29213
# Velocity P-wave (km/s) = 4.58432 6.82076 5.81114
#
# Compressibility (1/GPa) = 0.04617370
#
# Stress axis : x y z
#
# Youngs Moduli (GPa) = 30.00900 76.00171 54.62024
#
# Poissons Ratio (x) = -0.58952 0.59290
# Poissons Ratio (y) = -0.23277 0.33916
# Poissons Ratio (z) = 0.32575 0.47192
#
# Static dielectric constant tensor:
#      x y z
#    x 1.846390 0.000000 0.028150 
#    y 0.000000 1.767830 0.000000 
#    z 0.028150 0.000000 1.773980 
# 
# From -- ./inp_files/133058.got.cif
#   From: 2010.05.17/outbox.cif.g08.bks.cpg/sg12_67_cif.got.tgz:133058.got - 2010.06.03 13:09:07.
