data_PCOD9211415
_publ_section_title
;
Structure prediction by ZEFSAII (Michael W. Deem and Ramdas Pophale) SiO2 
 PCOD9211415
Probable space group: C 2/M
;
_chemical_formula_sum "Si O2"
_cell_formula_units_Z 48
_cell_length_a 26.055848
_cell_length_b 19.281677
_cell_length_c 7.983789
_cell_angle_alpha 90.000000
_cell_angle_beta 145.603505
_cell_angle_gamma 90.000000
_cell_volume 2265.913603
_symmetry_space_group_name_H-M "C 2/M"
_symmetry_group_IT_number 12
_symmetry_cell_setting 'monoclinic'
loop_
_space_group_symop_operation_xyz
x,y,z
-x,y,-z
-x,-y,-z
x,-y,z
1/2+x,1/2+y,z
1/2-x,1/2+y,-z
1/2-x,1/2-y,-z
1/2+x,1/2-y,z
loop_
_atom_site_type_symbol
_atom_site_label
_atom_site_fract_x
_atom_site_fract_y
_atom_site_fract_z
Si Si1 0.314898 0.349740 0.727046
Si Si2 0.126651 0.715215 0.253198
Si Si3 0.564782 0.780277 0.432815
Si Si4 0.402729 0.366726 0.313839
Si Si5 0.216768 0.000000 0.930500
Si Si6 0.269783 0.500000 0.635474
Si Si7 0.000000 0.383471 0.500000
Si Si8 0.132157 0.500000 0.967757
O O1 0.212110 0.325692 0.412983
O O2 0.369230 0.298327 0.755788
O O3 0.324693 0.431236 0.736222
O O4 0.345638 0.337156 0.001438
O O5 0.129960 0.700133 0.458025
O O6 0.033794 0.700394 0.908967
O O7 0.575574 0.700403 0.513839
O O8 0.570971 0.831670 0.603211
O O9 0.500000 0.391543 0.500000
O O10 0.346277 0.430118 0.244504
O O11 0.295201 0.000000 0.996019
O O12 0.251057 0.000000 0.219962
O O13 0.183838 0.500000 0.282757
O O14 0.935444 0.434718 0.223005
#
# Coordination Sequence:
#
# PCOD9211415 Si02
#       8
#     8   8   8   8   4   4   4   4
#     4  10  21  40  62  91 127 171 212 273 322 389
#     4  10  22  38  62  94 127 167 218 261 333 392
#     4  11  22  40  64  93 128 169 213 273 328 391
#     4  11  21  41  64  93 131 170 212 275 328 386
#     4  10  26  43  67  97 130 180 224 260 332 405
#     4  10  23  40  64  91 130 166 216 273 318 387
#     4  11  24  44  66  95 132 166 222 279 326 386
#     4  11  26  47  67  96 132 176 221 276 328 392
#
# _framework density 21.183509000000001
#
# number of rings (size 3 to 8) (size 9 to 14) (size 15 to 20)
#    0.000    1.500    2.500    1.250    7.000    2.000 
#    0.000    0.833    0.000    4.000    0.000    0.000 
#    0.000    0.000    0.000    0.000    0.000    0.000 
#
# Total GULP energy -133747.183340 kJ/mol
# GULP energy per Si atom -5572.799306 kJ/mol
# Density = 2.113529 g / cm^3
# Si number density = 21.183509 Si / 1000 Ang^3
#
#
#
# Elastic Constant Matrix: (Units=GPa)
#
#
# Indices 1 2 3 4 5 6 
#
# 1 19.2963 22.5024 1.5106 0.0000 -1.5711 0.0000
# 2 22.5024 113.0255 5.0054 0.0000 -5.7923 0.0000
# 3 1.5106 5.0054 72.6040 0.0000 1.4036 0.0000
# 4 0.0000 0.0000 0.0000 -2.7032 0.0000 -4.4049
# 5 -1.5711 -5.7923 1.4036 0.0000 23.6116 0.0000
# 6 0.0000 0.0000 0.0000 -4.4049 0.0000 -17.3215
#
#
#
# Elastic Compliance Matrix: (Units=1/GPa)
#
#
# Indices 1 2 3 4 5 6 
#
# 1 0.067546 -0.013361 -0.000508 0.000000 0.001247 0.000000
# 2 -0.013361 0.011635 -0.000563 0.000000 0.001999 0.000000
# 3 -0.000508 -0.000563 0.013842 0.000000 -0.000995 0.000000
# 4 0.000000 0.000000 0.000000 -0.631730 0.000000 0.160652
# 5 0.001247 0.001999 -0.000995 0.000000 0.042984 0.000000
# 6 0.000000 0.000000 0.000000 0.160652 0.000000 -0.098587
#
#
# Mechanical properties :
#
#
# Convention : Reuss Voigt Hill
#
# Bulk Modulus (GPa) = 15.58650 29.21805 22.40227
# Shear Modulus (GPa) = -9.19019 12.44457 1.62719
#
# Velocity S-wave (km/s) = -2.08514 2.42640 0.87739
# Velocity P-wave (km/s) = 1.25569 4.65539 3.40950
#
# Compressibility (1/GPa) = 0.06415808
#
# Stress axis : x y z
#
# Youngs Moduli (GPa) = 14.80470 85.94719 72.24411
#
# Poissons Ratio (x) = 1.14838 0.03672
# Poissons Ratio (y) = 0.19781 0.04066
# Poissons Ratio (z) = 0.00753 0.04837
#
# Static dielectric constant tensor:
#      x y z
#    x 1.821430 0.000000 -0.017960 
#    y 0.000000 1.757830 0.000000 
#    z -0.017960 0.000000 1.782220 
# 
# From -- ./inp_files/112985.got.cif
#   From: 2010.05.17/outbox.cif.g08.bks.cpg/sg12_57_cif.got.tgz:112985.got - 2010.06.03 13:09:07.
