data_PCOD9211890
_publ_section_title
;
Structure prediction by ZEFSAII (Michael W. Deem and Ramdas Pophale) SiO2 
 PCOD9211890
Probable space group: C 2/M
;
_chemical_formula_sum "Si O2"
_cell_formula_units_Z 42
_cell_length_a 15.176358
_cell_length_b 7.621545
_cell_length_c 16.301810
_cell_angle_alpha 90.000000
_cell_angle_beta 107.321892
_cell_angle_gamma 90.000000
_cell_volume 1800.069480
_symmetry_space_group_name_H-M "C 2/M"
_symmetry_group_IT_number 12
_symmetry_cell_setting 'monoclinic'
loop_
_space_group_symop_operation_xyz
x,y,z
-x,y,-z
-x,-y,-z
x,-y,z
1/2+x,1/2+y,z
1/2-x,1/2+y,-z
1/2-x,1/2-y,-z
1/2+x,1/2-y,z
loop_
_atom_site_type_symbol
_atom_site_label
_atom_site_fract_x
_atom_site_fract_y
_atom_site_fract_z
Si Si1 0.673570 0.209886 0.911263
Si Si2 0.003031 0.293348 0.409376
Si Si3 0.500000 0.000000 0.000000
Si Si4 0.354700 0.709440 0.680605
Si Si5 0.035574 0.803355 0.124235
Si Si6 0.820488 0.285980 0.273018
O O1 0.575295 0.300021 0.898995
O O2 0.703303 0.259436 0.827240
O O3 0.652411 0.000000 0.909265
O O4 0.750000 0.250000 0.000000
O O5 0.983359 0.500000 0.411658
O O6 0.099705 0.276166 0.389713
O O7 0.000000 0.217884 0.500000
O O8 0.921259 0.222900 0.328661
O O9 0.557367 0.154741 0.064981
O O10 0.349270 0.500000 0.670907
O O11 0.422515 0.745698 0.776019
O O12 0.255330 0.774760 0.682598
O O13 0.068074 0.000000 0.111379
O O14 0.819193 0.500000 0.272875
#
# Coordination Sequence:
#
# PCOD9211890 Si02
#       6
#     8   8   2   8   8   8
#     4  11  22  39  62  90 130 178 222 273 332 396
#     4  10  21  40  67  94 125 166 214 269 330 402
#     4  12  26  40  64  90 126 184 218 276 334 386
#     4  10  22  40  64  92 127 171 213 270 329 393
#     4  11  24  42  63  94 132 172 228 278 329 396
#     4   9  20  39  62  88 127 172 215 261 332 398
#
# _framework density 23.332433000000002
#
# number of rings (size 3 to 8) (size 9 to 14) (size 15 to 20)
#    0.000    1.714    2.857    0.857    4.000    1.143 
#    0.000    2.857    0.000    0.000    0.000    0.000 
#    0.000    0.000    0.000    0.000    0.000    0.000 
#
# Total GULP energy -117188.479188 kJ/mol
# GULP energy per Si atom -5580.403771 kJ/mol
# Density = 2.327933 g / cm^3
# Si number density = 23.332433 Si / 1000 Ang^3
#
#
#
# Elastic Constant Matrix: (Units=GPa)
#
#
# Indices 1 2 3 4 5 6 
#
# 1 97.1200 -12.8255 21.6305 0.0000 -12.0591 0.0000
# 2 -12.8255 81.4301 17.7580 0.0000 -9.9201 0.0000
# 3 21.6305 17.7580 86.0339 0.0000 -30.9884 0.0000
# 4 0.0000 0.0000 0.0000 15.8521 0.0000 -7.6888
# 5 -12.0591 -9.9201 -30.9884 0.0000 29.5441 0.0000
# 6 0.0000 0.0000 0.0000 -7.6888 0.0000 20.3071
#
#
#
# Elastic Compliance Matrix: (Units=1/GPa)
#
#
# Indices 1 2 3 4 5 6 
#
# 1 0.011569 0.002718 -0.002314 0.000000 0.003207 0.000000
# 2 0.002718 0.013610 -0.002325 0.000000 0.003240 0.000000
# 3 -0.002314 -0.002325 0.019389 0.000000 0.018611 0.000000
# 4 0.000000 0.000000 0.000000 0.077274 0.000000 0.029258
# 5 0.003207 0.003240 0.018611 0.000000 0.055765 0.000000
# 6 0.000000 0.000000 0.000000 0.029258 0.000000 0.060322
#
#
# Mechanical properties :
#
#
# Convention : Reuss Voigt Hill
#
# Bulk Modulus (GPa) = 24.55589 35.30112 29.92851
# Shear Modulus (GPa) = 19.58109 29.00874 24.29491
#
# Velocity S-wave (km/s) = 2.90008 3.52984 3.23034
# Velocity P-wave (km/s) = 4.66488 5.63698 5.17381
#
# Compressibility (1/GPa) = 0.04072343
#
# Stress axis : x y z
#
# Youngs Moduli (GPa) = 86.43706 73.47351 51.57647
#
# Poissons Ratio (x) = -0.19967 0.11937
# Poissons Ratio (y) = -0.23490 0.11994
# Poissons Ratio (z) = 0.20006 0.17086
#
# Static dielectric constant tensor:
#      x y z
#    x 1.933990 0.000000 -0.052230 
#    y 0.000000 1.893130 0.000000 
#    z -0.052230 0.000000 1.879880 
# 
# From -- ./inp_files/267335.got.cif
#   From: 2010.05.17/outbox.cif.g08.bks.cpg/sg12_134_cif.got.tgz:267335.got - 2010.06.03 13:09:07.
