data_PCOD9211526
_publ_section_title
;
Structure prediction by ZEFSAII (Michael W. Deem and Ramdas Pophale) SiO2 
 PCOD9211526
Probable space group: C 2/M
;
_chemical_formula_sum "Si O2"
_cell_formula_units_Z 50
_cell_length_a 29.378109
_cell_length_b 7.730734
_cell_length_c 16.166897
_cell_angle_alpha 90.000000
_cell_angle_beta 144.134236
_cell_angle_gamma 90.000000
_cell_volume 2151.225865
_symmetry_space_group_name_H-M "C 2/M"
_symmetry_group_IT_number 12
_symmetry_cell_setting 'monoclinic'
loop_
_space_group_symop_operation_xyz
x,y,z
-x,y,-z
-x,-y,-z
x,-y,z
1/2+x,1/2+y,z
1/2-x,1/2+y,-z
1/2-x,1/2-y,-z
1/2+x,1/2-y,z
loop_
_atom_site_type_symbol
_atom_site_label
_atom_site_fract_x
_atom_site_fract_y
_atom_site_fract_z
Si Si1 0.893440 0.201159 0.071088
Si Si2 0.990698 0.201247 0.894661
Si Si3 0.164389 0.302103 0.843586
Si Si4 0.902686 0.195132 0.424450
Si Si5 0.321515 0.206078 0.663238
Si Si6 0.000000 0.500000 0.500000
Si Si7 0.737554 0.208234 0.245191
O O1 0.887024 0.288250 0.150133
O O2 0.956143 0.276634 0.099247
O O3 0.910619 0.000000 0.111905
O O4 0.810975 0.215315 0.902285
O O5 0.899853 0.212120 0.743621
O O6 0.015361 0.000000 0.937265
O O7 0.000000 0.280283 0.000000
O O8 0.160723 0.500000 0.807741
O O9 0.135261 0.191803 0.723810
O O10 0.250000 0.250000 0.000000
O O11 0.829188 0.244139 0.373862
O O12 0.965470 0.345483 0.510470
O O13 0.930400 0.000000 0.485416
O O14 0.250000 0.250000 0.500000
O O15 0.301543 0.267072 0.726858
O O16 0.332252 0.000000 0.682317
O O17 0.730304 0.000000 0.229082
#
# Coordination Sequence:
#
# PCOD9211526 Si02
#       7
#     8   8   8   8   8   2   8
#     4  11  22  36  63  97 132 171 212 271 340 398
#     4  10  21  40  63  94 130 167 212 271 334 392
#     4  12  23  39  63  97 135 168 218 275 338 402
#     4  11  24  46  69  97 136 179 226 283 332 399
#     4  11  24  43  65  93 129 173 222 271 329 400
#     4  12  26  48  68  98 132 182 236 262 336 414
#     4  10  22  40  65  94 126 168 219 273 333 398
#
# _framework density 23.242560999999998
#
# number of rings (size 3 to 8) (size 9 to 14) (size 15 to 20)
#    0.000    1.120    4.000    2.640    1.120    2.240 
#    2.880    0.000    0.000    0.000    0.000    0.000 
#    0.000    0.000    0.000    0.000    0.000    0.000 
#
# Total GULP energy -139634.096153 kJ/mol
# GULP energy per Si atom -5585.363846 kJ/mol
# Density = 2.318966 g / cm^3
# Si number density = 23.242561 Si / 1000 Ang^3
#
#
#
# Elastic Constant Matrix: (Units=GPa)
#
#
# Indices 1 2 3 4 5 6 
#
# 1 121.0296 17.8115 9.2065 0.0000 26.2720 0.0000
# 2 17.8115 99.0917 -3.9203 0.0000 15.3590 0.0000
# 3 9.2065 -3.9203 53.4049 0.0000 4.9300 0.0000
# 4 0.0000 0.0000 0.0000 24.8811 0.0000 11.7673
# 5 26.2720 15.3590 4.9300 0.0000 40.4703 0.0000
# 6 0.0000 0.0000 0.0000 11.7673 0.0000 12.9230
#
#
#
# Elastic Compliance Matrix: (Units=1/GPa)
#
#
# Indices 1 2 3 4 5 6 
#
# 1 0.009755 -0.000895 -0.001208 0.000000 -0.005846 0.000000
# 2 -0.000895 0.010878 0.001295 0.000000 -0.003705 0.000000
# 3 -0.001208 0.001295 0.019217 0.000000 -0.002048 0.000000
# 4 0.000000 0.000000 0.000000 0.070591 0.000000 -0.064278
# 5 -0.005846 -0.003705 -0.002048 0.000000 0.030160 0.000000
# 6 0.000000 0.000000 0.000000 -0.064278 0.000000 0.135911
#
#
# Mechanical properties :
#
#
# Convention : Reuss Voigt Hill
#
# Bulk Modulus (GPa) = 26.15455 35.52461 30.83958
# Shear Modulus (GPa) = 17.18967 32.35012 24.76989
#
# Velocity S-wave (km/s) = 2.72247 3.73480 3.26807
# Velocity P-wave (km/s) = 4.59997 5.82372 5.24764
#
# Compressibility (1/GPa) = 0.03823427
#
# Stress axis : x y z
#
# Youngs Moduli (GPa) = 102.51154 91.92814 52.03665
#
# Poissons Ratio (x) = 0.08229 0.06285
# Poissons Ratio (y) = 0.09176 -0.06738
# Poissons Ratio (z) = 0.12381 -0.11903
#
# Static dielectric constant tensor:
#      x y z
#    x 1.889240 0.000000 0.053450 
#    y 0.000000 1.965800 0.000000 
#    z 0.053450 0.000000 1.818710 
# 
# From -- ./inp_files/292279.got.cif
#   From: 2010.05.17/outbox.cif.g08.bks.cpg/sg12_147_cif.got.tgz:292279.got - 2010.06.03 13:09:07.
