data_PCOD9211986
_publ_section_title
;
Structure prediction by ZEFSAII (Michael W. Deem and Ramdas Pophale) SiO2 
 PCOD9211986
Probable space group: C 2/M
;
_chemical_formula_sum "Si O2"
_cell_formula_units_Z 44
_cell_length_a 16.779511
_cell_length_b 19.623775
_cell_length_c 6.716968
_cell_angle_alpha 90.000000
_cell_angle_beta 109.769657
_cell_angle_gamma 90.000000
_cell_volume 2081.385199
_symmetry_space_group_name_H-M "C 2/M"
_symmetry_group_IT_number 12
_symmetry_cell_setting 'monoclinic'
loop_
_space_group_symop_operation_xyz
x,y,z
-x,y,-z
-x,-y,-z
x,-y,z
1/2+x,1/2+y,z
1/2-x,1/2+y,-z
1/2-x,1/2-y,-z
1/2+x,1/2-y,z
loop_
_atom_site_type_symbol
_atom_site_label
_atom_site_fract_x
_atom_site_fract_y
_atom_site_fract_z
Si Si1 0.102623 0.921500 0.741414
Si Si2 0.795731 0.425044 0.034901
Si Si3 0.639807 0.319429 0.421972
Si Si4 0.075808 0.577584 0.208977
Si Si5 0.829033 0.669719 0.413605
Si Si6 0.000000 0.151616 0.000000
O O1 0.104522 0.875728 0.544843
O O2 0.043123 0.893347 0.864719
O O3 0.084497 0.000000 0.679025
O O4 0.196901 0.918330 0.911609
O O5 0.812093 0.500000 0.143803
O O6 0.827246 0.363387 0.195527
O O7 0.842830 0.424869 0.865222
O O8 0.733581 0.339448 0.422027
O O9 0.650422 0.249156 0.551358
O O10 0.575133 0.309561 0.182208
O O11 0.056652 0.500000 0.261008
O O12 0.100879 0.628124 0.403963
O O13 0.000000 0.599692 0.000000
#
# Coordination Sequence:
#
# PCOD9211986 Si02
#       6
#     8   8   8   8   8   4
#     4  11  24  44  69  98 131 172 222 277 330 387
#     4  10  21  40  69  96 126 171 217 268 330 388
#     4  11  26  42  66  96 132 173 218 263 329 391
#     4  10  22  41  66  96 128 167 221 275 321 384
#     4  11  23  43  66  95 130 178 211 265 326 398
#     4  12  25  46  64 100 131 172 224 278 321 392
#
# _framework density 21.139768
#
# number of rings (size 3 to 8) (size 9 to 14) (size 15 to 20)
#    0.000    1.273    3.636    1.364    1.273    5.818 
#    3.273    2.727    0.000    0.000    0.000    0.000 
#    0.000    0.000    0.000    0.000    0.000    0.000 
#
# Total GULP energy -122960.524765 kJ/mol
# GULP energy per Si atom -5589.114762 kJ/mol
# Density = 2.109165 g / cm^3
# Si number density = 21.139768 Si / 1000 Ang^3
#
#
#
# Elastic Constant Matrix: (Units=GPa)
#
#
# Indices 1 2 3 4 5 6 
#
# 1 50.7226 -4.3344 -8.1837 0.0000 13.8232 0.0000
# 2 -4.3344 57.1833 34.4974 0.0000 -0.7637 0.0000
# 3 -8.1837 34.4974 71.0725 0.0000 17.7112 0.0000
# 4 0.0000 0.0000 0.0000 173.1515 0.0000 -32.9678
# 5 13.8232 -0.7637 17.7112 0.0000 40.3631 0.0000
# 6 0.0000 0.0000 0.0000 -32.9678 0.0000 19.5688
#
#
#
# Elastic Compliance Matrix: (Units=1/GPa)
#
#
# Indices 1 2 3 4 5 6 
#
# 1 0.023581 -0.002338 0.006595 0.000000 -0.011014 0.000000
# 2 -0.002338 0.026547 -0.015134 0.000000 0.007944 0.000000
# 3 0.006595 -0.015134 0.025610 0.000000 -0.013782 0.000000
# 4 0.000000 0.000000 0.000000 0.008503 0.000000 0.014325
# 5 -0.011014 0.007944 -0.013782 0.000000 0.034745 0.000000
# 6 0.000000 0.000000 0.000000 0.014325 0.000000 0.075235
#
#
# Mechanical properties :
#
#
# Convention : Reuss Voigt Hill
#
# Bulk Modulus (GPa) = 18.52459 24.77077 21.64768
# Shear Modulus (GPa) = 21.37037 57.08327 39.22682
#
# Velocity S-wave (km/s) = 3.18293 5.20206 4.31233
# Velocity P-wave (km/s) = 4.72123 6.91556 5.92093
#
# Compressibility (1/GPa) = 0.05398231
#
# Stress axis : x y z
#
# Youngs Moduli (GPa) = 42.40734 37.66968 39.04733
#
# Poissons Ratio (x) = 0.08808 -0.25751
# Poissons Ratio (y) = 0.09916 0.59095
# Poissons Ratio (z) = -0.27967 0.57010
#
# Static dielectric constant tensor:
#      x y z
#    x 1.771840 0.000000 0.027530 
#    y 0.000000 1.745360 0.000000 
#    z 0.027530 0.000000 1.734740 
# 
# From -- ./inp_files/16217.got.cif
#   From: 2010.05.17/outbox.cif.g08.bks.cpg/sg12_9_cif.got.tgz:16217.got - 2010.06.03 13:09:07.
