data_PCOD9211291
_publ_section_title
;
Structure prediction by ZEFSAII (Michael W. Deem and Ramdas Pophale) SiO2 
 PCOD9211291
Probable space group: C 2/M
;
_chemical_formula_sum "Si O2"
_cell_formula_units_Z 28
_cell_length_a 8.959320
_cell_length_b 5.367806
_cell_length_c 29.125190
_cell_angle_alpha 90.000000
_cell_angle_beta 117.073911
_cell_angle_gamma 90.000000
_cell_volume 1247.198562
_symmetry_space_group_name_H-M "C 2/M"
_symmetry_group_IT_number 12
_symmetry_cell_setting 'monoclinic'
loop_
_space_group_symop_operation_xyz
x,y,z
-x,y,-z
-x,-y,-z
x,-y,z
1/2+x,1/2+y,z
1/2-x,1/2+y,-z
1/2-x,1/2-y,-z
1/2+x,1/2-y,z
loop_
_atom_site_type_symbol
_atom_site_label
_atom_site_fract_x
_atom_site_fract_y
_atom_site_fract_z
Si Si1 0.147004 0.000000 0.155509
Si Si2 0.918031 0.000000 0.642791
Si Si3 0.182508 0.000000 0.940477
Si Si4 0.187444 0.000000 0.043967
Si Si5 0.455987 0.000000 0.804439
Si Si6 0.801014 0.500000 0.479881
Si Si7 0.687230 0.000000 0.318274
O O1 0.017897 0.000000 0.093765
O O2 0.101024 0.749233 0.176888
O O3 0.343941 0.000000 0.174039
O O4 0.796116 0.000000 0.581940
O O5 0.880983 0.749597 0.666653
O O6 0.110722 0.000000 0.653331
O O7 0.248989 0.753639 0.926098
O O8 0.271396 0.000000 0.003252
O O9 0.000000 0.000000 0.000000
O O10 0.372857 0.000000 0.742678
O O11 0.750000 0.750000 0.500000
O O12 0.000000 0.500000 0.500000
#
# Coordination Sequence:
#
# PCOD9211291 Si02
#       7
#     4   4   4   4   4   4   4
#     4  12  26  44  69  98 132 172 215 266 338 397
#     4  12  24  42  69 100 130 182 225 274 332 391
#     4  10  23  37  60  89 118 161 206 254 310 387
#     4  10  21  40  60  87 119 158 205 255 308 369
#     4  12  26  47  68 100 132 173 216 280 334 389
#     4  12  24  42  64  97 141 179 223 276 330 393
#     4  12  24  44  69  96 132 170 229 278 328 395
#
# _framework density 22.450315
#
# number of rings (size 3 to 8) (size 9 to 14) (size 15 to 20)
#    0.000    0.571    0.000    8.571    4.000    0.000 
#    0.000    0.000    0.000    0.000    0.000    0.000 
#    0.000    0.000    0.000    0.000    0.000    0.000 
#
# Total GULP energy -78369.609344 kJ/mol
# GULP energy per Si atom -5597.829239 kJ/mol
# Density = 2.239922 g / cm^3
# Si number density = 22.450315 Si / 1000 Ang^3
#
#
#
# Elastic Constant Matrix: (Units=GPa)
#
#
# Indices 1 2 3 4 5 6 
#
# 1 121.2013 52.5765 -33.7172 0.0000 29.3436 0.0000
# 2 52.5765 224.2910 6.9055 0.0000 -5.5696 0.0000
# 3 -33.7172 6.9055 106.4238 0.0000 -3.2132 0.0000
# 4 0.0000 0.0000 0.0000-4845.9514 0.0000 5638.2762
# 5 29.3436 -5.5696 -3.2132 0.0000 41.2636 0.0000
# 6 0.0000 0.0000 0.0000 5638.2762 0.0000-6480.0919
#
#
#
# Elastic Compliance Matrix: (Units=1/GPa)
#
#
# Indices 1 2 3 4 5 6 
#
# 1 0.013207 -0.003460 0.004121 0.000000 -0.009538 0.000000
# 2 -0.003460 0.005388 -0.001353 0.000000 0.003082 0.000000
# 3 0.004121 -0.001353 0.010721 0.000000 -0.002278 0.000000
# 4 0.000000 0.000000 0.000000 0.016704 0.000000 0.014534
# 5 -0.009538 0.003082 -0.002278 0.000000 0.031256 0.000000
# 6 0.000000 0.000000 0.000000 0.014534 0.000000 0.012491
#
#
# Mechanical properties :
#
#
# Convention : Reuss Voigt Hill
#
# Bulk Modulus (GPa) = 35.80024 55.93839 45.86932
# Shear Modulus (GPa) = 49.77107 -2228.54586 -1089.38740
#
# Velocity S-wave (km/s) = 4.71355 -31.54064 -22.05215
# Velocity P-wave (km/s) = 6.75311 36.07555 25.05834
#
# Compressibility (1/GPa) = 0.02793277
#
# Stress axis : x y z
#
# Youngs Moduli (GPa) = 75.71702 185.60974 93.27548
#
# Poissons Ratio (x) = 0.64214 -0.38437
# Poissons Ratio (y) = 0.26195 0.12617
# Poissons Ratio (z) = -0.31201 0.25106
#
# Static dielectric constant tensor:
#      x y z
#    x 1.937890 0.000000 -0.102270 
#    y 0.000000 1.678380 0.000000 
#    z -0.102270 0.000000 1.833930 
# 
# From -- ./inp_files/371767.got.cif
#   From: 2010.05.17/outbox.cif.g08.bks.cpg/sg12_186_cif.got.tgz:371767.got - 2010.06.03 13:09:07.
