data_PCOD9211596
_publ_section_title
;
Structure prediction by ZEFSAII (Michael W. Deem and Ramdas Pophale) SiO2 
 PCOD9211596
Probable space group: C 2/M
;
_chemical_formula_sum "Si O2"
_cell_formula_units_Z 52
_cell_length_a 20.200826
_cell_length_b 9.201066
_cell_length_c 19.840497
_cell_angle_alpha 90.000000
_cell_angle_beta 45.261257
_cell_angle_gamma 90.000000
_cell_volume 2619.486196
_symmetry_space_group_name_H-M "C 2/M"
_symmetry_group_IT_number 12
_symmetry_cell_setting 'monoclinic'
loop_
_space_group_symop_operation_xyz
x,y,z
-x,y,-z
-x,-y,-z
x,-y,z
1/2+x,1/2+y,z
1/2-x,1/2+y,-z
1/2-x,1/2-y,-z
1/2+x,1/2-y,z
loop_
_atom_site_type_symbol
_atom_site_label
_atom_site_fract_x
_atom_site_fract_y
_atom_site_fract_z
Si Si1 0.202344 0.326500 0.598081
Si Si2 0.249825 0.325913 0.296725
Si Si3 0.564948 0.327608 0.389601
Si Si4 0.744504 0.000000 0.036030
Si Si5 0.479597 0.335842 0.304959
Si Si6 0.456295 0.328507 0.104750
Si Si7 0.107941 0.237927 0.095495
O O1 0.214649 0.500000 0.588960
O O2 0.250000 0.250000 0.500000
O O3 0.243029 0.255696 0.636817
O O4 0.094750 0.279248 0.668437
O O5 0.242698 0.500000 0.310984
O O6 0.159200 0.264858 0.324167
O O7 0.346726 0.294530 0.188475
O O8 0.500000 0.290486 0.500000
O O9 0.587265 0.500000 0.378076
O O10 0.509301 0.305210 0.360136
O O11 0.824283 0.873721 0.990693
O O12 0.667326 0.875609 0.072604
O O13 0.439428 0.500000 0.330231
O O14 0.569151 0.330717 0.192642
O O15 0.464404 0.500000 0.118011
O O16 0.518028 0.238896 0.113073
O O17 0.500000 0.309845 0.000000
#
# Coordination Sequence:
#
# PCOD9211596 Si02
#       7
#     8   8   8   4   8   8   8
#     4  12  25  41  68  99 130 169 217 270 331 400
#     4  11  23  41  67  96 133 173 219 271 331 395
#     4  10  23  43  64  91 128 170 216 271 335 395
#     4  10  24  36  66  90 128 166 218 264 326 378
#     4  11  22  40  67  92 132 172 212 273 332 386
#     4  10  21  40  64  90 130 174 215 264 323 382
#     4  11  21  43  62  95 128 170 215 274 319 392
#
# _framework density 19.851222
#
# number of rings (size 3 to 8) (size 9 to 14) (size 15 to 20)
#    0.000    1.231    3.077    2.769    1.077    4.615 
#    4.154    0.385    0.000    0.000    0.000    0.000 
#    0.000    0.000    0.000    0.000    0.000    0.000 
#
# Total GULP energy -144750.115831 kJ/mol
# GULP energy per Si atom -5567.312147 kJ/mol
# Density = 1.980604 g / cm^3
# Si number density = 19.851222 Si / 1000 Ang^3
#
#
#
# Elastic Constant Matrix: (Units=GPa)
#
#
# Indices 1 2 3 4 5 6 
#
# 1 46.9453 13.6643 3.2184 0.0000 -13.1998 0.0000
# 2 13.6643 84.0655 2.2579 0.0001 -13.1792 -0.0002
# 3 3.2184 2.2579 34.3348 0.0000 -5.1454 0.0000
# 4 0.0000 0.0001 0.0000 36.8311 0.0000 -23.3637
# 5 -13.1998 -13.1792 -5.1454 0.0000 34.1907 0.0000
# 6 0.0000 -0.0002 0.0000 -23.3637 0.0000 42.7650
#
#
#
# Elastic Compliance Matrix: (Units=1/GPa)
#
#
# Indices 1 2 3 4 5 6 
#
# 1 0.024465 -0.002653 -0.000876 0.000000 0.008290 0.000000
# 2 -0.002653 0.012949 -0.000009 0.000000 0.003966 0.000000
# 3 -0.000876 -0.000009 0.029829 0.000000 0.004147 0.000000
# 4 0.000000 0.000000 0.000000 0.041551 0.000000 0.022700
# 5 0.008290 0.003966 0.004147 0.000000 0.034601 0.000000
# 6 0.000000 0.000000 0.000000 0.022700 0.000000 0.035786
#
#
# Mechanical properties :
#
#
# Convention : Reuss Voigt Hill
#
# Bulk Modulus (GPa) = 16.62064 22.62521 19.62293
# Shear Modulus (GPa) = 24.23512 32.50435 28.36973
#
# Velocity S-wave (km/s) = 3.49784 4.05087 3.78447
# Velocity P-wave (km/s) = 4.97031 5.77075 5.38542
#
# Compressibility (1/GPa) = 0.06016616
#
# Stress axis : x y z
#
# Youngs Moduli (GPa) = 40.87499 77.22783 33.52421
#
# Poissons Ratio (x) = 0.20491 0.02938
# Poissons Ratio (y) = 0.10846 0.00029
# Poissons Ratio (z) = 0.03582 0.00066
#
# Static dielectric constant tensor:
#      x y z
#    x 1.671810 0.000000 0.001820 
#    y 0.000000 1.665450 0.000000 
#    z 0.001820 0.000000 1.715520 
# 
# From -- ./inp_files/250159.got.cif
#   From: 2010.05.17/outbox.cif.g08.bks.cpg/sg12_126_cif.got.tgz:250159.got - 2010.06.03 13:09:07.
