data_PCOD9211193
_publ_section_title
;
Structure prediction by ZEFSAII (Michael W. Deem and Ramdas Pophale) SiO2 
 PCOD9211193
Probable space group: C 2/M
;
_chemical_formula_sum "Si O2"
_cell_formula_units_Z 46
_cell_length_a 21.440430
_cell_length_b 12.632072
_cell_length_c 12.227370
_cell_angle_alpha 90.000000
_cell_angle_beta 131.129864
_cell_angle_gamma 90.000000
_cell_volume 2494.384248
_symmetry_space_group_name_H-M "C 2/M"
_symmetry_group_IT_number 12
_symmetry_cell_setting 'monoclinic'
loop_
_space_group_symop_operation_xyz
x,y,z
-x,y,-z
-x,-y,-z
x,-y,z
1/2+x,1/2+y,z
1/2-x,1/2+y,-z
1/2-x,1/2-y,-z
1/2+x,1/2-y,z
loop_
_atom_site_type_symbol
_atom_site_label
_atom_site_fract_x
_atom_site_fract_y
_atom_site_fract_z
Si Si1 0.722466 0.223918 0.288052
Si Si2 0.500000 0.000000 0.000000
Si Si3 0.115780 0.229499 0.377135
Si Si4 0.373288 0.500000 0.165375
Si Si5 0.822506 0.782244 0.001141
Si Si6 0.030029 0.616834 0.813280
Si Si7 0.723114 0.500000 0.723830
Si Si8 0.063524 0.000000 0.385325
O O1 0.810783 0.241124 0.449240
O O2 0.655424 0.247643 0.304109
O O3 0.708100 0.286509 0.159509
O O4 0.724440 0.101505 0.251962
O O5 0.491689 0.089854 0.086608
O O6 0.080473 0.109851 0.340884
O O7 0.045013 0.314562 0.320848
O O8 0.304757 0.500000 0.182798
O O9 0.468702 0.500000 0.316360
O O10 0.359607 0.394254 0.080193
O O11 0.750000 0.750000 0.000000
O O12 0.890098 0.690226 0.093207
O O13 0.042015 0.500000 0.774778
O O14 0.635356 0.500000 0.559548
#
# Coordination Sequence:
#
# PCOD9211193 Si02
#       8
#     8   2   8   4   8   8   4   4
#     4  10  23  39  63  95 126 167 205 260 310 372
#     4   8  20  36  66  96 110 166 208 258 292 352
#     4  10  21  42  65  94 128 162 207 258 318 372
#     4  12  23  42  63  91 124 176 206 262 312 374
#     4  12  25  41  62  92 131 162 211 259 313 368
#     4  10  22  39  65  93 119 160 211 262 304 362
#     4  10  21  39  68  90 119 169 226 258 287 371
#     4  10  21  41  64  95 125 162 211 258 318 376
#
# _framework density 18.441424999999999
#
# number of rings (size 3 to 8) (size 9 to 14) (size 15 to 20)
#    0.522    1.043    3.478    1.304    3.652    0.696 
#    3.130    1.739    0.000    1.043    0.000    0.000 
#    0.000    0.000    0.000    0.000    0.000    0.000 
#
# Total GULP energy -128039.977589 kJ/mol
# GULP energy per Si atom -5566.955547 kJ/mol
# Density = 1.839945 g / cm^3
# Si number density = 18.441425 Si / 1000 Ang^3
#
#
#
# Elastic Constant Matrix: (Units=GPa)
#
#
# Indices 1 2 3 4 5 6 
#
# 1 58.4897 41.4545 32.1031 0.0000 -0.6341 0.0000
# 2 41.4545 152.1933 44.4111 0.0000 2.6007 0.0000
# 3 32.1031 44.4111 60.2256 0.0000 -5.1127 0.0000
# 4 0.0000 0.0000 0.0000 28.2165 0.0000 -1.8230
# 5 -0.6341 2.6007 -5.1127 0.0000 27.4845 0.0000
# 6 0.0000 0.0000 0.0000 -1.8230 0.0000 21.2138
#
#
#
# Elastic Compliance Matrix: (Units=1/GPa)
#
#
# Indices 1 2 3 4 5 6 
#
# 1 0.025852 -0.003790 -0.011080 0.000000 -0.001106 0.000000
# 2 -0.003790 0.009034 -0.004798 0.000000 -0.001835 0.000000
# 3 -0.011080 -0.004798 0.026483 0.000000 0.005125 0.000000
# 4 0.000000 0.000000 0.000000 0.035638 0.000000 0.003063
# 5 -0.001106 -0.001835 0.005125 0.000000 0.037486 0.000000
# 6 0.000000 0.000000 0.000000 0.003063 0.000000 0.047402
#
#
# Mechanical properties :
#
#
# Convention : Reuss Voigt Hill
#
# Bulk Modulus (GPa) = 45.38141 56.31622 50.84882
# Shear Modulus (GPa) = 21.87467 25.57895 23.72681
#
# Velocity S-wave (km/s) = 3.44782 3.72834 3.59082
# Velocity P-wave (km/s) = 6.36489 7.00986 6.69515
#
# Compressibility (1/GPa) = 0.02203546
#
# Stress axis : x y z
#
# Youngs Moduli (GPa) = 38.68128 110.69140 37.75981
#
# Poissons Ratio (x) = 0.41947 0.41837
# Poissons Ratio (y) = 0.14659 0.18116
# Poissons Ratio (z) = 0.42858 0.53105
#
# Static dielectric constant tensor:
#      x y z
#    x 1.616270 0.000000 0.025890 
#    y 0.000000 1.637180 0.000000 
#    z 0.025890 0.000000 1.640740 
# 
# From -- ./inp_files/165872.got.cif
#   From: 2010.05.17/outbox.cif.g08.bks.cpg/sg12_83_cif.got.tgz:165872.got - 2010.06.03 13:09:07.
