data_PCOD9211003
_publ_section_title
;
Structure prediction by ZEFSAII (Michael W. Deem and Ramdas Pophale) SiO2 
 PCOD9211003
Probable space group: C 2/M
;
_chemical_formula_sum "Si O2"
_cell_formula_units_Z 36
_cell_length_a 14.614895
_cell_length_b 8.003997
_cell_length_c 11.890528
_cell_angle_alpha 90.000000
_cell_angle_beta 88.333026
_cell_angle_gamma 90.000000
_cell_volume 1390.336492
_symmetry_space_group_name_H-M "C 2/M"
_symmetry_group_IT_number 12
_symmetry_cell_setting 'monoclinic'
loop_
_space_group_symop_operation_xyz
x,y,z
-x,y,-z
-x,-y,-z
x,-y,z
1/2+x,1/2+y,z
1/2-x,1/2+y,-z
1/2-x,1/2-y,-z
1/2+x,1/2-y,z
loop_
_atom_site_type_symbol
_atom_site_label
_atom_site_fract_x
_atom_site_fract_y
_atom_site_fract_z
Si Si1 0.306330 0.814911 0.892546
Si Si2 0.566767 0.183415 0.392168
Si Si3 0.508156 0.000000 0.135769
Si Si4 0.246594 0.308723 0.659896
Si Si5 0.930631 0.820882 0.235725
O O1 0.413746 0.855208 0.903977
O O2 0.288109 0.701690 0.785051
O O3 0.269355 0.000000 0.863213
O O4 0.250000 0.750000 0.000000
O O5 0.500000 0.171463 0.500000
O O6 0.670980 0.225783 0.414076
O O7 0.520377 0.311916 0.310907
O O8 0.562356 0.000000 0.328754
O O9 0.434398 0.849673 0.165984
O O10 0.229191 0.500000 0.628296
O O11 0.154311 0.203774 0.675464
O O12 0.927829 0.000000 0.177945
#
# Coordination Sequence:
#
# PCOD9211003 Si02
#       5
#     8   8   4   8   8
#     4  10  21  39  65  93 128 167 213 257 321 382
#     4  11  23  42  65  94 132 169 213 269 322 384
#     4  10  22  44  64  96 136 160 220 263 319 382
#     4  12  23  40  67  92 130 171 214 267 325 379
#     4  12  23  41  68  95 130 173 215 263 323 380
#
# _framework density 25.893014000000001
#
# number of rings (size 3 to 8) (size 9 to 14) (size 15 to 20)
#    0.667    0.222    4.444    3.333    0.000    3.556 
#    0.000    2.222    0.000    2.667    0.000    0.000 
#    0.000    0.000    0.000    0.000    0.000    0.000 
#
# Total GULP energy -100214.710308 kJ/mol
# GULP energy per Si atom -5567.483906 kJ/mol
# Density = 2.583408 g / cm^3
# Si number density = 25.893014 Si / 1000 Ang^3
#
#
#
# Elastic Constant Matrix: (Units=GPa)
#
#
# Indices 1 2 3 4 5 6 
#
# 1 136.0342 27.3667 29.9253 0.0000 -47.6053 0.0000
# 2 27.3667 211.5574 27.2221 0.0000 -15.8992 0.0000
# 3 29.9253 27.2221 91.7630 0.0000 -35.8812 0.0000
# 4 0.0000 0.0000 0.0000 14.9810 0.0000 -20.8302
# 5 -47.6053 -15.8992 -35.8812 0.0000 48.6264 0.0000
# 6 0.0000 0.0000 0.0000 -20.8302 0.0000 0.9690
#
#
#
# Elastic Compliance Matrix: (Units=1/GPa)
#
#
# Indices 1 2 3 4 5 6 
#
# 1 0.011341 -0.000729 0.001077 0.000000 0.011659 0.000000
# 2 -0.000729 0.004981 -0.001240 0.000000 0.000000 0.000000
# 3 0.001077 -0.001240 0.015697 0.000000 0.012232 0.000000
# 4 0.000000 0.000000 0.000000 -0.002311 0.000000 -0.049669
# 5 0.011659 0.000000 0.012232 0.000000 0.041005 0.000000
# 6 0.000000 0.000000 0.000000 -0.049669 0.000000 -0.035722
#
#
# Mechanical properties :
#
#
# Convention : Reuss Voigt Hill
#
# Bulk Modulus (GPa) = 33.07554 67.59808 50.33681
# Shear Modulus (GPa) = 106.71501 36.57132 71.64316
#
# Velocity S-wave (km/s) = 6.42676 3.76227 5.26583
# Velocity P-wave (km/s) = 8.23849 6.71091 7.51362
#
# Compressibility (1/GPa) = 0.03023382
#
# Stress axis : x y z
#
# Youngs Moduli (GPa) = 88.17574 200.77463 63.70603
#
# Poissons Ratio (x) = 0.14645 -0.06860
# Poissons Ratio (y) = 0.06432 0.07899
# Poissons Ratio (z) = -0.09495 0.24893
#
# Static dielectric constant tensor:
#      x y z
#    x 2.808130 0.000000 1.349240 
#    y 0.000000 2.005780 0.000000 
#    z 1.349240 0.000000 4.398390 
# 
# From -- ./inp_files/210668.got.cif
#   From: 2010.05.17/outbox.cif.g08.bks.cpg/sg12_106_cif.got.tgz:210668.got - 2010.06.03 13:09:07.
