data_PCOD9211065
_publ_section_title
;
Structure prediction by ZEFSAII (Michael W. Deem and Ramdas Pophale) SiO2 
 PCOD9211065
Probable space group: C 2/M
;
_chemical_formula_sum "Si O2"
_cell_formula_units_Z 42
_cell_length_a 13.433767
_cell_length_b 12.830414
_cell_length_c 10.853180
_cell_angle_alpha 90.000000
_cell_angle_beta 110.581613
_cell_angle_gamma 90.000000
_cell_volume 1751.262789
_symmetry_space_group_name_H-M "C 2/M"
_symmetry_group_IT_number 12
_symmetry_cell_setting 'monoclinic'
loop_
_space_group_symop_operation_xyz
x,y,z
-x,y,-z
-x,-y,-z
x,-y,z
1/2+x,1/2+y,z
1/2-x,1/2+y,-z
1/2-x,1/2-y,-z
1/2+x,1/2-y,z
loop_
_atom_site_type_symbol
_atom_site_label
_atom_site_fract_x
_atom_site_fract_y
_atom_site_fract_z
Si Si1 0.855419 0.339839 0.683354
Si Si2 0.842994 0.614167 0.963479
Si Si3 0.000000 0.000000 0.000000
Si Si4 0.438523 0.801674 0.351759
Si Si5 0.729344 0.384668 0.384900
Si Si6 0.605861 0.674114 0.893226
O O1 0.838553 0.378173 0.813619
O O2 0.769745 0.376723 0.544419
O O3 0.845082 0.213575 0.675824
O O4 0.972226 0.366304 0.683084
O O5 0.884331 0.500000 0.016649
O O6 0.723795 0.627826 0.965127
O O7 0.902590 0.714722 0.041547
O O8 0.974744 0.908738 0.090859
O O9 0.500000 0.765236 0.500000
O O10 0.335097 0.865119 0.348423
O O11 0.403652 0.705392 0.253122
O O12 0.687155 0.500000 0.341773
#
# Coordination Sequence:
#
# PCOD9211065 Si02
#       6
#     8   8   2   8   8   8
#     4  10  21  40  65  95 139 177 231 285 343 408
#     4  11  23  44  70  97 134 179 233 287 336 410
#     4  12  24  48  72  96 148 178 220 292 348 422
#     4  10  22  43  67  97 141 172 228 286 334 418
#     4  10  21  39  65  97 136 184 229 283 344 409
#     4  11  24  44  67 101 135 182 226 281 353 410
#
# _framework density 23.982695
#
# number of rings (size 3 to 8) (size 9 to 14) (size 15 to 20)
#    0.000    1.524    2.857    1.714    0.000    4.952 
#    6.857    3.810    0.000    0.000    0.000    0.000 
#    0.000    0.000    0.000    0.000    0.000    0.000 
#
# Total GULP energy -117301.446475 kJ/mol
# GULP energy per Si atom -5585.783165 kJ/mol
# Density = 2.392811 g / cm^3
# Si number density = 23.982695 Si / 1000 Ang^3
#
#
#
# Elastic Constant Matrix: (Units=GPa)
#
#
# Indices 1 2 3 4 5 6 
#
# 1 50.7805 16.9849 18.9769 0.0000 -7.9590 0.0000
# 2 16.9849 217.2881 56.7729 0.0000 -5.2267 0.0000
# 3 18.9769 56.7729 94.6048 0.0000 -18.6233 0.0000
# 4 0.0000 0.0000 0.0000 21.0612 0.0000 -7.5558
# 5 -7.9590 -5.2267 -18.6233 0.0000 27.3916 0.0000
# 6 0.0000 0.0000 0.0000 -7.5558 0.0000 -74.4239
#
#
#
# Elastic Compliance Matrix: (Units=1/GPa)
#
#
# Indices 1 2 3 4 5 6 
#
# 1 0.021749 -0.000797 -0.003083 0.000000 0.004071 0.000000
# 2 -0.000797 0.005532 -0.003461 0.000000 -0.001529 0.000000
# 3 -0.003083 -0.003461 0.014962 0.000000 0.008616 0.000000
# 4 0.000000 0.000000 0.000000 0.045812 0.000000 -0.004651
# 5 0.004071 -0.001529 0.008616 0.000000 0.043257 0.000000
# 6 0.000000 0.000000 0.000000 -0.004651 0.000000 -0.012964
#
#
# Mechanical properties :
#
#
# Convention : Reuss Voigt Hill
#
# Bulk Modulus (GPa) = 36.28237 60.90476 48.59356
# Shear Modulus (GPa) = 35.15768 12.80170 23.97969
#
# Velocity S-wave (km/s) = 3.83294 2.31289 3.16551
# Velocity P-wave (km/s) = 5.89491 5.70816 5.80229
#
# Compressibility (1/GPa) = 0.02756160
#
# Stress axis : x y z
#
# Youngs Moduli (GPa) = 45.97829 180.76811 66.83672
#
# Poissons Ratio (x) = 0.14400 0.20607
# Poissons Ratio (y) = 0.03663 0.23132
# Poissons Ratio (z) = 0.14176 0.62563
#
# Static dielectric constant tensor:
#      x y z
#    x 1.946660 0.000000 0.014720 
#    y 0.000000 1.848590 0.000000 
#    z 0.014720 0.000000 1.924500 
# 
# From -- ./inp_files/141068.got.cif
#   From: 2010.05.17/outbox.cif.g08.bks.cpg/sg12_71_cif.got.tgz:141068.got - 2010.06.03 13:09:07.
