data_PCOD9211414
_publ_section_title
;
Structure prediction by ZEFSAII (Michael W. Deem and Ramdas Pophale) SiO2 
 PCOD9211414
Probable space group: C 2/M
;
_chemical_formula_sum "Si O2"
_cell_formula_units_Z 32
_cell_length_a 10.639208
_cell_length_b 21.957016
_cell_length_c 6.720838
_cell_angle_alpha 90.000000
_cell_angle_beta 111.008901
_cell_angle_gamma 90.000000
_cell_volume 1465.655419
_symmetry_space_group_name_H-M "C 2/M"
_symmetry_group_IT_number 12
_symmetry_cell_setting 'monoclinic'
loop_
_space_group_symop_operation_xyz
x,y,z
-x,y,-z
-x,-y,-z
x,-y,z
1/2+x,1/2+y,z
1/2-x,1/2+y,-z
1/2-x,1/2-y,-z
1/2+x,1/2-y,z
loop_
_atom_site_type_symbol
_atom_site_label
_atom_site_fract_x
_atom_site_fract_y
_atom_site_fract_z
Si Si1 0.140747 0.385270 0.472970
Si Si2 0.170429 0.659940 0.067613
Si Si3 0.122527 0.738505 0.684355
Si Si4 0.657770 0.570588 0.113276
O O1 0.123184 0.381342 0.226043
O O2 0.166036 0.316245 0.564605
O O3 0.269685 0.421569 0.629849
O O4 0.000000 0.405128 0.500000
O O5 0.268254 0.711700 0.208442
O O6 0.083096 0.701836 0.864237
O O7 0.255517 0.614777 0.976588
O O8 0.000000 0.769030 0.500000
O O9 0.669717 0.500000 0.061670
O O10 0.500000 0.587234 0.000000
#
# Coordination Sequence:
#
# PCOD9211414 Si02
#       4
#     8   8   8   8
#     4  10  22  40  62  92 126 163 208 258 311 376
#     4  10  21  40  62  91 126 169 207 253 319 370
#     4   9  20  36  60  94 127 160 206 259 307 379
#     4  10  24  43  62  92 126 162 216 267 306 366
#
# _framework density 21.833234999999998
#
# number of rings (size 3 to 8) (size 9 to 14) (size 15 to 20)
#    0.000    2.250    0.000    0.750    3.500   10.500 
#    9.000    3.750    0.000    0.000    0.000    0.000 
#    0.000    0.000    0.000    0.000    0.000    0.000 
#
# Total GULP energy -89189.554346 kJ/mol
# GULP energy per Si atom -5574.347147 kJ/mol
# Density = 2.178354 g / cm^3
# Si number density = 21.833235 Si / 1000 Ang^3
#
#
#
# Elastic Constant Matrix: (Units=GPa)
#
#
# Indices 1 2 3 4 5 6 
#
# 1 81.3590 11.7417 60.2908 0.0000 12.8178 0.0000
# 2 11.7417 22.1934 3.4128 0.0000 10.6355 0.0000
# 3 60.2908 3.4128 164.5528 0.0000 -0.1129 0.0000
# 4 0.0000 0.0000 0.0000 17.0500 0.0000 9.5635
# 5 12.8178 10.6355 -0.1129 0.0000 51.9955 0.0000
# 6 0.0000 0.0000 0.0000 9.5635 0.0000 22.5036
#
#
#
# Elastic Compliance Matrix: (Units=1/GPa)
#
#
# Indices 1 2 3 4 5 6 
#
# 1 0.018871 -0.007437 -0.006762 0.000000 -0.003146 0.000000
# 2 -0.007437 0.053066 0.001618 0.000000 -0.009018 0.000000
# 3 -0.006762 0.001618 0.008522 0.000000 0.001355 0.000000
# 4 0.000000 0.000000 0.000000 0.077007 0.000000 -0.032726
# 5 -0.003146 -0.009018 0.001355 0.000000 0.021855 0.000000
# 6 0.000000 0.000000 0.000000 -0.032726 0.000000 0.058345
#
#
# Mechanical properties :
#
#
# Convention : Reuss Voigt Hill
#
# Bulk Modulus (GPa) = 18.08415 46.55508 32.31962
# Shear Modulus (GPa) = 17.77709 31.15380 24.46544
#
# Velocity S-wave (km/s) = 2.85655 3.78153 3.35111
# Velocity P-wave (km/s) = 4.37958 6.35893 5.45970
#
# Compressibility (1/GPa) = 0.05529704
#
# Stress axis : x y z
#
# Youngs Moduli (GPa) = 52.99104 18.84460 117.34272
#
# Poissons Ratio (x) = 0.14014 0.79349
# Poissons Ratio (y) = 0.39408 -0.18986
# Poissons Ratio (z) = 0.35833 -0.03049
#
# Static dielectric constant tensor:
#      x y z
#    x 1.956490 0.000000 -0.014690 
#    y 0.000000 1.743950 0.000000 
#    z -0.014690 0.000000 1.898630 
# 
# From -- ./inp_files/6751.got.cif
#   From: 2010.05.17/outbox.cif.g08.bks.cpg/sg12_4_cif.got.tgz:6751.got - 2010.06.03 13:09:07.
