data_PCOD9211825
_publ_section_title
;
Structure prediction by ZEFSAII (Michael W. Deem and Ramdas Pophale) SiO2 
 PCOD9211825
Probable space group: C 2/M
;
_chemical_formula_sum "Si O2"
_cell_formula_units_Z 40
_cell_length_a 5.025964
_cell_length_b 28.855932
_cell_length_c 13.506438
_cell_angle_alpha 90.000000
_cell_angle_beta 109.623981
_cell_angle_gamma 90.000000
_cell_volume 1845.049105
_symmetry_space_group_name_H-M "C 2/M"
_symmetry_group_IT_number 12
_symmetry_cell_setting 'monoclinic'
loop_
_space_group_symop_operation_xyz
x,y,z
-x,y,-z
-x,-y,-z
x,-y,z
1/2+x,1/2+y,z
1/2-x,1/2+y,-z
1/2-x,1/2-y,-z
1/2+x,1/2-y,z
loop_
_atom_site_type_symbol
_atom_site_label
_atom_site_fract_x
_atom_site_fract_y
_atom_site_fract_z
Si Si1 0.188514 0.000000 0.423699
Si Si2 0.610831 0.218935 0.124086
Si Si3 0.109338 0.347423 0.310879
Si Si4 0.306706 0.447249 0.071350
Si Si5 0.922924 0.093658 0.706930
Si Si6 0.000000 0.784262 0.500000
O O1 0.500000 0.000000 0.500000
O O2 0.163693 0.045807 0.353670
O O3 0.000000 0.000000 0.500000
O O4 0.425380 0.261829 0.144132
O O5 0.577897 0.179185 0.201929
O O6 0.500000 0.206434 0.000000
O O7 0.294043 0.392450 0.314524
O O8 0.322144 0.316200 0.402418
O O9 0.815400 0.365681 0.321287
O O10 0.264218 0.500000 0.106487
O O11 0.474168 0.416087 0.169257
O O12 0.500000 0.450545 0.000000
O O13 0.000000 0.429440 0.000000
O O14 0.250000 0.750000 0.500000
#
# Coordination Sequence:
#
# PCOD9211825 Si02
#       6
#     4   8   8   8   8   4
#     4  12  28  48  72  92 136 196 236 290 362 411
#     4  10  21  41  67  97 135 179 222 272 346 425
#     4  12  26  41  71 102 140 173 235 294 344 409
#     4  10  21  40  66  93 132 181 226 272 337 410
#     4  12  26  45  67 105 137 180 237 292 341 418
#     4  12  26  48  72  97 138 183 226 282 356 430
#
# _framework density 21.679639000000002
#
# number of rings (size 3 to 8) (size 9 to 14) (size 15 to 20)
#    0.000    0.800    1.000    6.000    4.200    2.400 
#    0.000    0.000    0.000    0.000    0.000    0.000 
#    0.000    0.000    0.000    0.000    0.000    0.000 
#
# Total GULP energy -111674.320456 kJ/mol
# GULP energy per Si atom -5583.716023 kJ/mol
# Density = 2.163030 g / cm^3
# Si number density = 21.679639 Si / 1000 Ang^3
#
#
#
# Elastic Constant Matrix: (Units=GPa)
#
#
# Indices 1 2 3 4 5 6 
#
# 1 125.4832 6.3866 31.3973 0.0000 6.8780 0.0000
# 2 6.3866 66.1465 39.1050 0.0000 9.4776 0.0000
# 3 31.3973 39.1050 92.7951 0.0000 14.0352 0.0000
# 4 0.0000 0.0000 0.0000 20.9168 0.0000 -2.6100
# 5 6.8780 9.4776 14.0352 0.0000 29.5009 0.0000
# 6 0.0000 0.0000 0.0000 -2.6100 0.0000 59.9075
#
#
#
# Elastic Compliance Matrix: (Units=1/GPa)
#
#
# Indices 1 2 3 4 5 6 
#
# 1 0.008798 0.001273 -0.003385 0.000000 -0.000850 0.000000
# 2 0.001273 0.020508 -0.008655 0.000000 -0.002768 0.000000
# 3 -0.003385 -0.008655 0.016194 0.000000 -0.004135 0.000000
# 4 0.000000 0.000000 0.000000 0.048070 0.000000 0.002094
# 5 -0.000850 -0.002768 -0.004135 0.000000 0.036952 0.000000
# 6 0.000000 0.000000 0.000000 0.002094 0.000000 0.016784
#
#
# Mechanical properties :
#
#
# Convention : Reuss Voigt Hill
#
# Bulk Modulus (GPa) = 41.72191 48.68916 45.20554
# Shear Modulus (GPa) = 28.27622 35.90077 32.08849
#
# Velocity S-wave (km/s) = 3.61539 4.07377 3.85141
# Velocity P-wave (km/s) = 6.05926 6.68092 6.37767
#
# Compressibility (1/GPa) = 0.02396822
#
# Stress axis : x y z
#
# Youngs Moduli (GPa) = 113.66355 48.76121 61.75035
#
# Poissons Ratio (x) = -0.06209 0.20902
# Poissons Ratio (y) = -0.14474 0.53442
# Poissons Ratio (z) = 0.38473 0.42201
#
# Static dielectric constant tensor:
#      x y z
#    x 1.726390 0.000000 0.026510 
#    y 0.000000 1.735900 0.000000 
#    z 0.026510 0.000000 1.664060 
# 
# From -- ./inp_files/116196.got.cif
#   From: 2010.05.17/outbox.cif.g08.bks.cpg/sg12_59_cif.got.tgz:116196.got - 2010.06.03 13:09:07.
