data_PCOD9211394
_publ_section_title
;
Structure prediction by ZEFSAII (Michael W. Deem and Ramdas Pophale) SiO2 
 PCOD9211394
Probable space group: C 2/M
;
_chemical_formula_sum "Si O2"
_cell_formula_units_Z 40
_cell_length_a 7.223088
_cell_length_b 31.266600
_cell_length_c 11.323840
_cell_angle_alpha 90.000000
_cell_angle_beta 129.465616
_cell_angle_gamma 90.000000
_cell_volume 1974.322323
_symmetry_space_group_name_H-M "C 2/M"
_symmetry_group_IT_number 12
_symmetry_cell_setting 'monoclinic'
loop_
_space_group_symop_operation_xyz
x,y,z
-x,y,-z
-x,-y,-z
x,-y,z
1/2+x,1/2+y,z
1/2-x,1/2+y,-z
1/2-x,1/2-y,-z
1/2+x,1/2-y,z
loop_
_atom_site_type_symbol
_atom_site_label
_atom_site_fract_x
_atom_site_fract_y
_atom_site_fract_z
Si Si1 0.052850 0.591729 0.649621
Si Si2 0.593354 0.374062 0.844012
Si Si3 0.844436 0.297775 0.052502
Si Si4 0.267966 0.047379 0.054437
Si Si5 0.253575 0.661686 0.350036
O O1 0.314458 0.613703 0.742520
O O2 0.068238 0.560476 0.768063
O O3 0.000000 0.571928 0.500000
O O4 0.853632 0.626787 0.603464
O O5 0.670945 0.360907 0.743190
O O6 0.648586 0.334667 0.954786
O O7 0.747890 0.414606 0.951765
O O8 0.031174 0.306510 0.233556
O O9 0.750000 0.250000 0.000000
O O10 0.000000 0.304891 0.000000
O O11 0.324717 0.000000 0.032844
O O12 0.000000 0.045798 0.000000
O O13 0.500000 0.681244 0.500000
#
# Coordination Sequence:
#
# PCOD9211394 Si02
#       5
#     8   8   8   8   8
#     4  11  21  36  64  88 121 169 200 249 314 365
#     4  10  21  40  62  89 120 163 209 252 303 364
#     4  10  23  39  63  91 119 157 205 254 302 368
#     4   9  19  36  62  93 122 160 212 258 300 363
#     4  11  22  40  61  90 127 159 204 253 308 366
#
# _framework density 20.260114999999999
#
# number of rings (size 3 to 8) (size 9 to 14) (size 15 to 20)
#    0.000    1.800    4.000    0.000    2.800    0.400 
#    0.000    7.000    0.000    1.200    0.000    0.000 
#    0.000    0.000    0.000    0.000    0.000    0.000 
#
# Total GULP energy -111516.661446 kJ/mol
# GULP energy per Si atom -5575.833072 kJ/mol
# Density = 2.021400 g / cm^3
# Si number density = 20.260115 Si / 1000 Ang^3
#
#
#
# Elastic Constant Matrix: (Units=GPa)
#
#
# Indices 1 2 3 4 5 6 
#
# 1 76.7497 1.5830 9.0378 0.0000 -4.3051 0.0000
# 2 1.5830 109.4915 46.8152 0.0000 2.9371 0.0000
# 3 9.0378 46.8152 130.1844 0.0000 1.2767 0.0000
# 4 0.0000 0.0000 0.0000 13.3576 0.0000 -0.5522
# 5 -4.3051 2.9371 1.2767 0.0000 29.0306 0.0000
# 6 0.0000 0.0000 0.0000 -0.5522 0.0000 2.9764
#
#
#
# Elastic Compliance Matrix: (Units=1/GPa)
#
#
# Indices 1 2 3 4 5 6 
#
# 1 0.013256 0.000185 -0.001006 0.000000 0.001991 0.000000
# 2 0.000185 0.010820 -0.003895 0.000000 -0.000896 0.000000
# 3 -0.001006 -0.003895 0.009153 0.000000 -0.000158 0.000000
# 4 0.000000 0.000000 0.000000 0.075443 0.000000 0.013996
# 5 0.001991 -0.000896 -0.000158 0.000000 0.034839 0.000000
# 6 0.000000 0.000000 0.000000 0.013996 0.000000 0.338575
#
#
# Mechanical properties :
#
#
# Convention : Reuss Voigt Hill
#
# Bulk Modulus (GPa) = 42.02240 47.92196 44.97218
# Shear Modulus (GPa) = 10.01100 26.33889 18.17495
#
# Velocity S-wave (km/s) = 2.22530 3.60951 2.99838
# Velocity P-wave (km/s) = 5.23346 6.40907 5.85086
#
# Compressibility (1/GPa) = 0.02379683
#
# Stress axis : x y z
#
# Youngs Moduli (GPa) = 75.43899 92.42277 109.24809
#
# Poissons Ratio (x) = -0.01712 0.10995
# Poissons Ratio (y) = -0.01397 0.42552
# Poissons Ratio (z) = 0.07592 0.35998
#
# Static dielectric constant tensor:
#      x y z
#    x 1.783910 0.000000 0.009890 
#    y 0.000000 1.525400 0.000000 
#    z 0.009890 0.000000 1.774650 
# 
# From -- ./inp_files/124712.got.cif
#   From: 2010.05.17/outbox.cif.g08.bks.cpg/sg12_63_cif.got.tgz:124712.got - 2010.06.03 13:09:07.
