data_PCOD9211492
_publ_section_title
;
Structure prediction by ZEFSAII (Michael W. Deem and Ramdas Pophale) SiO2 
 PCOD9211492
Probable space group: C 2/M
;
_chemical_formula_sum "Si O2"
_cell_formula_units_Z 56
_cell_length_a 20.560587
_cell_length_b 17.595955
_cell_length_c 8.886858
_cell_angle_alpha 90.000000
_cell_angle_beta 60.955187
_cell_angle_gamma 90.000000
_cell_volume 2810.783478
_symmetry_space_group_name_H-M "C 2/M"
_symmetry_group_IT_number 12
_symmetry_cell_setting 'monoclinic'
loop_
_space_group_symop_operation_xyz
x,y,z
-x,y,-z
-x,-y,-z
x,-y,z
1/2+x,1/2+y,z
1/2-x,1/2+y,-z
1/2-x,1/2-y,-z
1/2+x,1/2-y,z
loop_
_atom_site_type_symbol
_atom_site_label
_atom_site_fract_x
_atom_site_fract_y
_atom_site_fract_z
Si Si1 0.591914 0.088297 0.231243
Si Si2 0.663007 0.409327 0.458936
Si Si3 0.919576 0.409282 0.396838
Si Si4 0.563800 0.326591 0.323632
Si Si5 0.967005 0.909268 0.192141
Si Si6 0.327252 0.223455 0.986826
Si Si7 0.301397 0.190358 0.351613
O O1 0.594704 0.100106 0.408324
O O2 0.507433 0.105422 0.273579
O O3 0.653272 0.137643 0.079918
O O4 0.604503 0.000000 0.188848
O O5 0.659555 0.500000 0.447423
O O6 0.621541 0.368662 0.367479
O O7 0.615403 0.386223 0.661404
O O8 0.745614 0.378612 0.375685
O O9 0.905649 0.500000 0.377572
O O10 0.868983 0.348567 0.366128
O O11 0.500000 0.288931 0.500000
O O12 0.520633 0.386305 0.268076
O O13 0.607502 0.270453 0.166738
O O14 0.965287 0.000000 0.180740
O O15 0.000000 0.877353 0.000000
O O16 0.250000 0.250000 0.000000
O O17 0.325888 0.228739 0.167844
O O18 0.250000 0.250000 0.500000
#
# Coordination Sequence:
#
# PCOD9211492 Si02
#       7
#     8   8   8   8   8   8   8
#     4   9  21  43  70  94 125 168 219 268 321 388
#     4  10  21  40  63  89 123 167 209 259 319 379
#     4   9  20  42  70  96 125 169 216 268 325 387
#     4  10  22  40  65  90 122 166 206 260 311 381
#     4   9  19  37  62  91 120 155 208 258 306 377
#     4  12  25  43  62  96 129 166 212 263 323 387
#     4  12  26  40  62  91 138 170 209 267 330 387
#
# _framework density 19.923271
#
# number of rings (size 3 to 8) (size 9 to 14) (size 15 to 20)
#    0.000    1.857    1.429    2.571    4.000    4.571 
#    0.000    1.429    0.000    0.000    0.000    0.000 
#    0.000    0.000    0.000    0.000    0.000    0.000 
#
# Total GULP energy -156363.029788 kJ/mol
# GULP energy per Si atom -5584.393921 kJ/mol
# Density = 1.987792 g / cm^3
# Si number density = 19.923271 Si / 1000 Ang^3
#
#
#
# Elastic Constant Matrix: (Units=GPa)
#
#
# Indices 1 2 3 4 5 6 
#
# 1 107.1996 47.3235 39.8098 0.0000 2.8702 0.0000
# 2 47.3235 68.7178 51.0390 0.0000 0.9322 0.0000
# 3 39.8098 51.0390 135.5317 0.0000 -3.1218 0.0000
# 4 0.0000 0.0000 0.0000 39.1482 0.0000 -2.9026
# 5 2.8702 0.9322 -3.1218 0.0000 21.3904 0.0000
# 6 0.0000 0.0000 0.0000 -2.9026 0.0000 49.0597
#
#
#
# Elastic Compliance Matrix: (Units=1/GPa)
#
#
# Indices 1 2 3 4 5 6 
#
# 1 0.013493 -0.008748 -0.000704 0.000000 -0.001532 0.000000
# 2 -0.008748 0.025961 -0.007230 0.000000 -0.001013 0.000000
# 3 -0.000704 -0.007230 0.010352 0.000000 0.001920 0.000000
# 4 0.000000 0.000000 0.000000 0.025657 0.000000 0.001518
# 5 -0.001532 -0.001013 0.001920 0.000000 0.047280 0.000000
# 6 0.000000 0.000000 0.000000 0.001518 0.000000 0.020473
#
#
# Mechanical properties :
#
#
# Convention : Reuss Voigt Hill
#
# Bulk Modulus (GPa) = 60.82449 65.31041 63.06745
# Shear Modulus (GPa) = 27.46345 33.47145 30.46745
#
# Velocity S-wave (km/s) = 3.71679 4.10325 3.91479
# Velocity P-wave (km/s) = 7.00107 7.43646 7.22205
#
# Compressibility (1/GPa) = 0.01644075
#
# Stress axis : x y z
#
# Youngs Moduli (GPa) = 74.11345 38.51985 96.59873
#
# Poissons Ratio (x) = 0.33698 0.06801
# Poissons Ratio (y) = 0.64837 0.69841
# Poissons Ratio (z) = 0.05218 0.27850
#
# Static dielectric constant tensor:
#      x y z
#    x 1.687160 0.000000 -0.010630 
#    y 0.000000 1.716550 0.000000 
#    z -0.010630 0.000000 1.712630 
# 
# From -- ./inp_files/75826.got.cif
#   From: 2010.05.17/outbox.cif.g08.bks.cpg/sg12_38_cif.got.tgz:75826.got - 2010.06.03 13:09:07.
