data_PCOD9211199
_publ_section_title
;
Structure prediction by ZEFSAII (Michael W. Deem and Ramdas Pophale) SiO2 
 PCOD9211199
Probable space group: C 2/M
;
_chemical_formula_sum "Si O2"
_cell_formula_units_Z 48
_cell_length_a 17.256097
_cell_length_b 14.427321
_cell_length_c 18.779931
_cell_angle_alpha 90.000000
_cell_angle_beta 32.706741
_cell_angle_gamma 90.000000
_cell_volume 2526.322758
_symmetry_space_group_name_H-M "C 2/M"
_symmetry_group_IT_number 12
_symmetry_cell_setting 'monoclinic'
loop_
_space_group_symop_operation_xyz
x,y,z
-x,y,-z
-x,-y,-z
x,-y,z
1/2+x,1/2+y,z
1/2-x,1/2+y,-z
1/2-x,1/2-y,-z
1/2+x,1/2-y,z
loop_
_atom_site_type_symbol
_atom_site_label
_atom_site_fract_x
_atom_site_fract_y
_atom_site_fract_z
Si Si1 0.931565 0.500000 0.207803
Si Si2 0.846886 0.500000 0.661566
Si Si3 0.542180 0.000000 0.641338
Si Si4 0.660351 0.309485 0.239359
Si Si5 0.139243 0.000000 0.342214
Si Si6 0.366281 0.792667 0.461437
Si Si7 0.283082 0.305345 0.275570
Si Si8 0.455371 0.814133 0.951070
O O1 0.951127 0.500000 0.277948
O O2 0.773119 0.500000 0.294051
O O3 0.002349 0.406603 0.123090
O O4 0.753205 0.411582 0.712245
O O5 0.000000 0.500000 0.500000
O O6 0.895104 0.500000 0.707641
O O7 0.615446 0.096955 0.562295
O O8 0.643025 0.411184 0.287041
O O9 0.512613 0.261578 0.332656
O O10 0.719149 0.248576 0.258551
O O11 0.784176 0.304420 0.084317
O O12 0.000000 0.000000 0.500000
O O13 0.250000 0.750000 0.500000
O O14 0.308739 0.775925 0.585208
O O15 0.448053 0.271180 0.152516
O O16 0.500000 0.827086 0.000000
#
# Coordination Sequence:
#
# PCOD9211199 Si02
#       8
#     4   4   4   8   4   8   8   8
#     4  12  22  42  62  97 138 166 206 262 339 381
#     4  12  20  42  68  90 127 174 222 265 317 380
#     4  12  26  40  62  96 129 173 206 264 339 367
#     4  11  23  40  65  97 129 168 215 260 325 382
#     4  12  23  35  66 101 132 160 215 277 316 385
#     4  12  25  41  65  95 130 165 214 277 325 380
#     4  11  20  40  66  94 121 169 219 261 312 383
#     4  10  21  39  68  96 128 169 211 259 323 396
#
# _framework density 18.999946999999999
#
# number of rings (size 3 to 8) (size 9 to 14) (size 15 to 20)
#    0.000    0.667    6.667    3.250    2.333    0.000 
#    0.000    7.917    0.000    0.000    0.000    0.000 
#    0.000    0.000    0.000    0.000    0.000    0.000 
#
# Total GULP energy -133961.403274 kJ/mol
# GULP energy per Si atom -5581.725136 kJ/mol
# Density = 1.895670 g / cm^3
# Si number density = 18.999947 Si / 1000 Ang^3
#
#
#
# Elastic Constant Matrix: (Units=GPa)
#
#
# Indices 1 2 3 4 5 6 
#
# 1 72.1956 27.0030 53.8400 -0.0002 -22.9470 0.0002
# 2 27.0030 147.6753 72.9341 0.0000 -27.1086 0.0000
# 3 53.8400 72.9341 161.7595 0.0003 -32.1676 -0.0001
# 4 -0.0002 0.0000 0.0003 22.6166 -0.0002 10.1958
# 5 -22.9470 -27.1086 -32.1676 -0.0002 30.2812 0.0000
# 6 0.0002 0.0000 -0.0001 10.1958 0.0000 14.4244
#
#
#
# Elastic Compliance Matrix: (Units=1/GPa)
#
#
# Indices 1 2 3 4 5 6 
#
# 1 0.020888 0.000721 -0.005073 0.000001 0.011085 -0.000001
# 2 0.000721 0.009272 -0.003374 0.000000 0.005263 0.000000
# 3 -0.005073 -0.003374 0.010176 0.000000 0.003945 0.000000
# 4 0.000001 0.000000 0.000000 0.064894 0.000001 -0.045870
# 5 0.011085 0.005263 0.003945 0.000001 0.050327 -0.000001
# 6 -0.000001 0.000000 0.000000 -0.045870 -0.000001 0.101750
#
#
# Mechanical properties :
#
#
# Convention : Reuss Voigt Hill
#
# Bulk Modulus (GPa) = 40.18545 76.57607 58.38076
# Shear Modulus (GPa) = 17.79012 28.65466 23.22239
#
# Velocity S-wave (km/s) = 3.06326 3.88770 3.49984
# Velocity P-wave (km/s) = 5.80583 7.78094 6.86479
#
# Compressibility (1/GPa) = 0.02488463
#
# Stress axis : x y z
#
# Youngs Moduli (GPa) = 47.87364 107.84835 98.26630
#
# Poissons Ratio (x) = -0.07775 0.49851
# Poissons Ratio (y) = -0.03451 0.33156
# Poissons Ratio (z) = 0.24287 0.36389
#
# Static dielectric constant tensor:
#      x y z
#    x 1.690480 0.000000 -0.004560 
#    y 0.000000 1.676340 0.000000 
#    z -0.004560 0.000000 1.735040 
# 
# From -- ./inp_files/278080.got.cif
#   From: 2010.05.17/outbox.cif.g08.bks.cpg/sg12_140_cif.got.tgz:278080.got - 2010.06.03 13:09:07.
