data_PCOD9211033
_publ_section_title
;
Structure prediction by ZEFSAII (Michael W. Deem and Ramdas Pophale) SiO2 
 PCOD9211033
Probable space group: C 2/M
;
_chemical_formula_sum "Si O2"
_cell_formula_units_Z 56
_cell_length_a 9.710834
_cell_length_b 19.060000
_cell_length_c 33.513897
_cell_angle_alpha 90.000000
_cell_angle_beta 152.354853
_cell_angle_gamma 90.000000
_cell_volume 2878.173017
_symmetry_space_group_name_H-M "C 2/M"
_symmetry_group_IT_number 12
_symmetry_cell_setting 'monoclinic'
loop_
_space_group_symop_operation_xyz
x,y,z
-x,y,-z
-x,-y,-z
x,-y,z
1/2+x,1/2+y,z
1/2-x,1/2+y,-z
1/2-x,1/2-y,-z
1/2+x,1/2-y,z
loop_
_atom_site_type_symbol
_atom_site_label
_atom_site_fract_x
_atom_site_fract_y
_atom_site_fract_z
Si Si1 0.768411 0.083797 0.332839
Si Si2 0.772876 0.080454 0.478371
Si Si3 0.240623 0.179563 0.317804
Si Si4 0.676218 0.227796 0.936862
Si Si5 0.158968 0.299629 0.750847
Si Si6 0.145780 0.920414 0.731889
Si Si7 0.351112 0.074893 0.085586
O O1 0.474065 0.125289 0.270246
O O2 0.884260 0.110715 0.319677
O O3 0.029302 0.093117 0.431798
O O4 0.710615 0.000000 0.314729
O O5 0.541947 0.142821 0.410722
O O6 0.000000 0.079764 0.500000
O O7 0.647313 0.000000 0.448653
O O8 0.261402 0.196707 0.275883
O O9 0.114629 0.246772 0.309330
O O10 0.007315 0.119965 0.271487
O O11 0.435181 0.271339 0.848815
O O12 0.567395 0.147569 0.913475
O O13 0.750000 0.250000 0.000000
O O14 0.000000 0.228420 0.000000
O O15 0.494194 0.921055 0.831560
O O16 0.037001 0.000000 0.702977
O O17 0.449745 0.000000 0.092963
O O18 0.000000 0.073190 0.000000
#
# Coordination Sequence:
#
# PCOD9211033 Si02
#       7
#     8   8   8   8   8   8   8
#     4  10  23  43  68  96 127 170 221 270 326 395
#     4  10  21  43  68  95 130 172 217 264 328 393
#     4  12  24  41  64  96 129 171 214 269 321 385
#     4  11  24  41  65  93 130 171 211 263 327 388
#     4  12  25  41  66  94 132 170 218 266 327 390
#     4  10  21  39  65  95 126 164 215 269 321 381
#     4   9  19  37  64  93 123 162 211 264 322 384
#
# _framework density 19.456786999999998
#
# number of rings (size 3 to 8) (size 9 to 14) (size 15 to 20)
#    0.000    1.429    2.857    2.143    4.000    1.714 
#    0.000    2.143    0.000    0.857    0.000    0.000 
#    0.000    0.000    0.000    0.000    0.000    0.000 
#
# Total GULP energy -155946.745498 kJ/mol
# GULP energy per Si atom -5569.526625 kJ/mol
# Density = 1.941250 g / cm^3
# Si number density = 19.456787 Si / 1000 Ang^3
#
#
#
# Elastic Constant Matrix: (Units=GPa)
#
#
# Indices 1 2 3 4 5 6 
#
# 1 136.1912 58.8322 53.8570 0.0006 -21.3808 -0.0014
# 2 58.8322 109.4989 63.5127 -0.0039 -16.9281 -0.0017
# 3 53.8570 63.5127 128.2570 -0.0070 -8.5025 -0.0002
# 4 0.0006 -0.0039 -0.0070 35.8058 -0.0022 7.6304
# 5 -21.3808 -16.9281 -8.5025 -0.0022 32.5652 -0.0010
# 6 -0.0014 -0.0017 -0.0002 7.6304 -0.0010 42.6547
#
#
#
# Elastic Compliance Matrix: (Units=1/GPa)
#
#
# Indices 1 2 3 4 5 6 
#
# 1 0.010522 -0.003616 -0.002335 -0.000001 0.004419 0.000000
# 2 -0.003616 0.014942 -0.005621 0.000001 0.003926 0.000000
# 3 -0.002335 -0.005621 0.011464 0.000002 -0.001462 -0.000001
# 4 -0.000001 0.000001 0.000002 0.029035 0.000002 -0.005194
# 5 0.004419 0.003926 -0.001462 0.000002 0.035268 0.000001
# 6 0.000000 0.000000 -0.000001 -0.005194 0.000001 0.024373
#
#
# Mechanical properties :
#
#
# Convention : Reuss Voigt Hill
#
# Bulk Modulus (GPa) = 72.54233 80.70567 76.62400
# Shear Modulus (GPa) = 32.60683 35.38813 33.99748
#
# Velocity S-wave (km/s) = 4.09817 4.26937 4.18465
# Velocity P-wave (km/s) = 7.73033 8.11621 7.92562
#
# Compressibility (1/GPa) = 0.01378506
#
# Stress axis : x y z
#
# Youngs Moduli (GPa) = 95.04322 66.92354 87.23115
#
# Poissons Ratio (x) = 0.24198 0.20366
# Poissons Ratio (y) = 0.34365 0.49032
# Poissons Ratio (z) = 0.22190 0.37617
#
# Static dielectric constant tensor:
#      x y z
#    x 1.623530 0.000000 0.056910 
#    y 0.000000 1.763970 -0.000010 
#    z 0.056910 -0.000010 1.599830 
# 
# From -- ./inp_files/373186.got.cif
#   From: 2010.05.17/outbox.cif.g08.bks.cpg/sg12_187_cif.got.tgz:373186.got - 2010.06.03 13:09:07.
