data_PCOD9211320
_publ_section_title
;
Structure prediction by ZEFSAII (Michael W. Deem and Ramdas Pophale) SiO2 
 PCOD9211320
Probable space group: C 2/M
;
_chemical_formula_sum "Si O2"
_cell_formula_units_Z 36
_cell_length_a 11.103620
_cell_length_b 17.353270
_cell_length_c 13.736898
_cell_angle_alpha 90.000000
_cell_angle_beta 44.071381
_cell_angle_gamma 90.000000
_cell_volume 1841.049417
_symmetry_space_group_name_H-M "C 2/M"
_symmetry_group_IT_number 12
_symmetry_cell_setting 'monoclinic'
loop_
_space_group_symop_operation_xyz
x,y,z
-x,y,-z
-x,-y,-z
x,-y,z
1/2+x,1/2+y,z
1/2-x,1/2+y,-z
1/2-x,1/2-y,-z
1/2+x,1/2-y,z
loop_
_atom_site_type_symbol
_atom_site_label
_atom_site_fract_x
_atom_site_fract_y
_atom_site_fract_z
Si Si1 0.500000 0.285251 0.500000
Si Si2 0.411877 0.855334 0.685106
Si Si3 0.274834 0.412523 0.547314
Si Si4 0.610956 0.587362 0.734717
Si Si5 0.635026 0.302801 0.998507
O O1 0.529687 0.227967 0.391485
O O2 0.339197 0.343150 0.577919
O O3 0.577700 0.899150 0.629422
O O4 0.305149 0.895308 0.660107
O O5 0.271257 0.847821 0.852135
O O6 0.296836 0.500000 0.572343
O O7 0.385859 0.404581 0.383330
O O8 0.566379 0.500000 0.785999
O O9 0.481522 0.644065 0.864390
O O10 0.500000 0.264575 0.000000
O O11 0.750000 0.250000 0.000000
#
# Coordination Sequence:
#
# PCOD9211320 Si02
#       5
#     4   8   8   8   8
#     4  12  23  36  61  90 122 158 196 246 305 358
#     4  11  22  36  64  87 116 152 204 248 291 353
#     4  11  23  39  60  87 123 158 199 246 301 359
#     4  10  21  40  61  87 119 155 196 250 303 350
#     4  10  23  38  60  88 119 156 199 248 299 358
#
# _framework density 19.554065999999999
#
# number of rings (size 3 to 8) (size 9 to 14) (size 15 to 20)
#    0.000    1.333    2.222    3.000    6.222    6.667 
#    0.000    0.000    0.000    0.667    0.000    0.000 
#    0.000    0.000    0.000    0.000    0.000    0.000 
#
# Total GULP energy -100495.346292 kJ/mol
# GULP energy per Si atom -5583.074794 kJ/mol
# Density = 1.950956 g / cm^3
# Si number density = 19.554066 Si / 1000 Ang^3
#
#
#
# Elastic Constant Matrix: (Units=GPa)
#
#
# Indices 1 2 3 4 5 6 
#
# 1 71.2271 40.1277 7.9800 0.0000 -17.3114 0.0001
# 2 40.1277 87.1877 2.3382 0.0000 -13.8324 0.0000
# 3 7.9800 2.3382 65.0156 0.0002 -18.2980 -0.0001
# 4 0.0000 0.0000 0.0002 6.9232 -0.0001 -4.4657
# 5 -17.3114 -13.8324 -18.2980 -0.0001 24.0025 0.0000
# 6 0.0001 0.0000 -0.0001 -4.4657 0.0000 22.4026
#
#
#
# Elastic Compliance Matrix: (Units=1/GPa)
#
#
# Indices 1 2 3 4 5 6 
#
# 1 0.021196 -0.007976 0.000884 0.000000 0.011364 0.000000
# 2 -0.007976 0.015839 0.001731 0.000000 0.004694 0.000000
# 3 0.000884 0.001731 0.019951 0.000000 0.016844 0.000000
# 4 0.000000 0.000000 0.000000 0.165756 0.000000 0.033042
# 5 0.011364 0.004694 0.016844 0.000000 0.065405 0.000000
# 6 0.000000 0.000000 0.000000 0.033042 0.000000 0.051224
#
#
# Mechanical properties :
#
#
# Convention : Reuss Voigt Hill
#
# Bulk Modulus (GPa) = 21.61604 36.03579 28.82591
# Shear Modulus (GPa) = 13.67931 22.19795 17.93863
#
# Velocity S-wave (km/s) = 2.64780 3.37294 3.03212
# Velocity P-wave (km/s) = 4.51954 5.79981 5.19923
#
# Compressibility (1/GPa) = 0.04626194
#
# Stress axis : x y z
#
# Youngs Moduli (GPa) = 47.17812 63.13586 50.12338
#
# Poissons Ratio (x) = 0.50358 -0.04429
# Poissons Ratio (y) = 0.37630 -0.08674
# Poissons Ratio (z) = -0.04169 -0.10926
#
# Static dielectric constant tensor:
#      x y z
#    x 1.743650 0.000000 0.023780 
#    y 0.000000 1.687830 0.000000 
#    z 0.023780 0.000000 1.694420 
# 
# From -- ./inp_files/46554.got.cif
#   From: 2010.05.17/outbox.cif.g08.bks.cpg/sg12_24_cif.got.tgz:46554.got - 2010.06.03 13:09:07.
