data_PCOD9211455
_publ_section_title
;
Structure prediction by ZEFSAII (Michael W. Deem and Ramdas Pophale) SiO2 
 PCOD9211455
Probable space group: C 2/M
;
_chemical_formula_sum "Si O2"
_cell_formula_units_Z 56
_cell_length_a 12.337236
_cell_length_b 28.586626
_cell_length_c 9.217475
_cell_angle_alpha 90.000000
_cell_angle_beta 53.638640
_cell_angle_gamma 90.000000
_cell_volume 2617.864135
_symmetry_space_group_name_H-M "C 2/M"
_symmetry_group_IT_number 12
_symmetry_cell_setting 'monoclinic'
loop_
_space_group_symop_operation_xyz
x,y,z
-x,y,-z
-x,-y,-z
x,-y,z
1/2+x,1/2+y,z
1/2-x,1/2+y,-z
1/2-x,1/2-y,-z
1/2+x,1/2-y,z
loop_
_atom_site_type_symbol
_atom_site_label
_atom_site_fract_x
_atom_site_fract_y
_atom_site_fract_z
Si Si1 0.737134 0.197407 0.568405
Si Si2 0.835488 0.810795 0.814068
Si Si3 0.774787 0.099792 0.433688
Si Si4 0.062358 0.444089 0.797938
Si Si5 0.545085 0.776438 0.125686
Si Si6 0.055167 0.098565 0.115690
Si Si7 0.813758 0.445943 0.782859
O O1 0.750000 0.250000 0.500000
O O2 0.814935 0.191673 0.658325
O O3 0.786535 0.155887 0.427242
O O4 0.576816 0.191855 0.721842
O O5 0.928429 0.768215 0.794628
O O6 0.892097 0.858725 0.830630
O O7 0.686783 0.802600 0.999234
O O8 0.694439 0.082575 0.638360
O O9 0.694139 0.084569 0.355184
O O10 0.923529 0.078247 0.299149
O O11 0.089849 0.500000 0.786071
O O12 0.945281 0.437017 0.772946
O O13 0.000000 0.428141 0.000000
O O14 0.500000 0.760616 0.000000
O O15 0.180023 0.064842 0.982797
O O16 0.000000 0.113990 0.000000
O O17 0.814024 0.500000 0.737966
#
# Coordination Sequence:
#
# PCOD9211455 Si02
#       7
#     8   8   8   8   8   8   8
#     4  11  25  41  57  92 134 174 226 277 328 385
#     4  10  21  40  63  86 127 169 216 277 335 384
#     4  11  24  40  67  97 132 178 222 271 327 402
#     4  10  23  44  70 102 136 169 215 280 340 403
#     4   9  20  38  63  87 116 170 222 272 326 389
#     4  10  23  40  64  98 128 170 217 272 327 404
#     4  10  23  45  71  99 132 172 219 277 339 403
#
# _framework density 21.391484999999999
#
# number of rings (size 3 to 8) (size 9 to 14) (size 15 to 20)
#    0.000    1.857    0.000    2.143    4.000   12.857 
#    2.571    0.000    0.000    2.571    0.000    0.000 
#    0.000    0.000    0.000    0.000    0.000    0.000 
#
# Total GULP energy -156585.373537 kJ/mol
# GULP energy per Si atom -5592.334769 kJ/mol
# Density = 2.134280 g / cm^3
# Si number density = 21.391485 Si / 1000 Ang^3
#
#
#
# Elastic Constant Matrix: (Units=GPa)
#
#
# Indices 1 2 3 4 5 6 
#
# 1 69.6541 20.3935 18.5823 0.0000 -7.4220 0.0000
# 2 20.3935 48.7020 25.5271 0.0000 7.2212 0.0000
# 3 18.5823 25.5271 104.0758 0.0000 -15.9008 0.0000
# 4 0.0000 0.0000 0.0000 31.9501 0.0000 6.3150
# 5 -7.4220 7.2212 -15.9008 0.0000 26.8172 0.0000
# 6 0.0000 0.0000 0.0000 6.3150 0.0000 26.1836
#
#
#
# Elastic Compliance Matrix: (Units=1/GPa)
#
#
# Indices 1 2 3 4 5 6 
#
# 1 0.017582 -0.008434 0.000022 0.000000 0.007150 0.000000
# 2 -0.008434 0.030805 -0.008438 0.000000 -0.015633 0.000000
# 3 0.000022 -0.008438 0.013220 0.000000 0.010117 0.000000
# 4 0.000000 0.000000 0.000000 0.032866 0.000000 -0.007927
# 5 0.007150 -0.015633 0.010117 0.000000 0.049476 0.000000
# 6 0.000000 0.000000 0.000000 -0.007927 0.000000 0.040104
#
#
# Mechanical properties :
#
#
# Convention : Reuss Voigt Hill
#
# Bulk Modulus (GPa) = 35.83394 39.04865 37.44129
# Shear Modulus (GPa) = 22.02101 27.51877 24.76989
#
# Velocity S-wave (km/s) = 3.21195 3.59058 3.40653
# Velocity P-wave (km/s) = 5.52661 5.95681 5.74574
#
# Compressibility (1/GPa) = 0.02790650
#
# Stress axis : x y z
#
# Youngs Moduli (GPa) = 56.87639 32.46174 75.64383
#
# Poissons Ratio (x) = 0.27378 -0.00165
# Poissons Ratio (y) = 0.47969 0.63831
# Poissons Ratio (z) = -0.00124 0.27392
#
# Static dielectric constant tensor:
#      x y z
#    x 1.751870 0.000000 -0.036640 
#    y 0.000000 1.746020 0.000000 
#    z -0.036640 0.000000 1.824290 
# 
# From -- ./inp_files/54602.got.cif
#   From: 2010.05.17/outbox.cif.g08.bks.cpg/sg12_28_cif.got.tgz:54602.got - 2010.06.03 13:09:07.
