data_PCOD9211768
_publ_section_title
;
Structure prediction by ZEFSAII (Michael W. Deem and Ramdas Pophale) SiO2 
 PCOD9211768
Probable space group: C 2/M
;
_chemical_formula_sum "Si O2"
_cell_formula_units_Z 32
_cell_length_a 13.120740
_cell_length_b 14.415897
_cell_length_c 17.856438
_cell_angle_alpha 90.000000
_cell_angle_beta 156.779311
_cell_angle_gamma 90.000000
_cell_volume 1331.658060
_symmetry_space_group_name_H-M "C 2/M"
_symmetry_group_IT_number 12
_symmetry_cell_setting 'monoclinic'
loop_
_space_group_symop_operation_xyz
x,y,z
-x,y,-z
-x,-y,-z
x,-y,z
1/2+x,1/2+y,z
1/2-x,1/2+y,-z
1/2-x,1/2-y,-z
1/2+x,1/2-y,z
loop_
_atom_site_type_symbol
_atom_site_label
_atom_site_fract_x
_atom_site_fract_y
_atom_site_fract_z
Si Si1 0.748949 0.397230 0.279425
Si Si2 0.816991 0.391837 0.065981
Si Si3 0.690636 0.391537 0.696911
Si Si4 0.558666 0.242487 0.714824
O O1 0.727577 0.500000 0.230160
O O2 0.797227 0.321708 0.249318
O O3 0.000000 0.395481 0.500000
O O4 0.489956 0.383617 0.153012
O O5 0.863184 0.500000 0.123077
O O6 0.880524 0.311642 0.168287
O O7 0.017717 0.378590 0.134706
O O8 0.500000 0.356814 0.500000
O O9 0.634729 0.500000 0.666898
O O10 0.648243 0.342817 0.747349
O O11 0.250000 0.250000 0.500000
#
# Coordination Sequence:
#
# PCOD9211768 Si02
#       4
#     8   8   8   8
#     4  10  23  44  68  95 130 171 223 281 329 384
#     4  10  22  44  72  96 128 178 225 270 332 396
#     4  10  21  40  65  95 135 180 220 266 328 399
#     4  12  23  37  65 102 134 171 218 270 329 399
#
# _framework density 24.030193000000001
#
# number of rings (size 3 to 8) (size 9 to 14) (size 15 to 20)
#    0.000    1.500    2.500    2.250    0.000    4.000 
#    4.500    0.000    0.000    3.000    0.000    0.000 
#    0.000    0.000    0.000    0.000    0.000    0.000 
#
# Total GULP energy -89502.232824 kJ/mol
# GULP energy per Si atom -5593.889551 kJ/mol
# Density = 2.397550 g / cm^3
# Si number density = 24.030193 Si / 1000 Ang^3
#
#
#
# Elastic Constant Matrix: (Units=GPa)
#
#
# Indices 1 2 3 4 5 6 
#
# 1 87.0739 56.5437 48.8762 0.0030 22.3608 -0.0181
# 2 56.5437 107.7751 40.7670 -0.0379 5.7047 0.0254
# 3 48.8762 40.7670 165.8448 -0.0928 30.0149 0.0351
# 4 0.0030 -0.0379 -0.0928 13.4228 0.0102 25.7297
# 5 22.3608 5.7047 30.0149 0.0102 44.3608 -0.0133
# 6 -0.0181 0.0254 0.0351 25.7297 -0.0133 26.6976
#
#
#
# Elastic Compliance Matrix: (Units=1/GPa)
#
#
# Indices 1 2 3 4 5 6 
#
# 1 0.021211 -0.009795 -0.002434 0.000103 -0.007785 -0.000076
# 2 -0.009795 0.014761 -0.001472 -0.000074 0.004035 0.000055
# 3 -0.002434 -0.001472 0.007809 -0.000091 -0.003867 0.000075
# 4 0.000103 -0.000074 -0.000091 -0.087918 0.000065 0.084731
# 5 -0.007785 0.004035 -0.003867 0.000065 0.028564 -0.000052
# 6 -0.000076 0.000055 0.000075 0.084731 -0.000052 -0.044202
#
#
# Mechanical properties :
#
#
# Convention : Reuss Voigt Hill
#
# Bulk Modulus (GPa) = 61.05959 72.56306 66.81133
# Shear Modulus (GPa) = -185.78327 31.19670 -77.29328
#
# Velocity S-wave (km/s) = -8.80229 3.60700 -5.67758
# Velocity P-wave (km/s) = 8.82283 6.89996 3.88799
#
# Compressibility (1/GPa) = 0.01637744
#
# Stress axis : x y z
#
# Youngs Moduli (GPa) = 47.14550 67.74692 128.06098
#
# Poissons Ratio (x) = 0.66360 0.31173
# Poissons Ratio (y) = 0.46181 0.18851
# Poissons Ratio (z) = 0.11476 0.09972
#
# Static dielectric constant tensor:
#      x y z
#    x 1.904420 -0.000070 -0.072040 
#    y -0.000070 1.968010 0.000000 
#    z -0.072040 0.000000 1.961660 
# 
# From -- ./inp_files/46264.got.cif
#   From: 2010.05.17/outbox.cif.g08.bks.cpg/sg12_24_cif.got.tgz:46264.got - 2010.06.03 13:09:07.
