data_PCOD9211781
_publ_section_title
;
Structure prediction by ZEFSAII (Michael W. Deem and Ramdas Pophale) SiO2 
 PCOD9211781
Probable space group: C 2/M
;
_chemical_formula_sum "Si O2"
_cell_formula_units_Z 56
_cell_length_a 13.330708
_cell_length_b 19.971731
_cell_length_c 15.711782
_cell_angle_alpha 90.000000
_cell_angle_beta 144.877000
_cell_angle_gamma 90.000000
_cell_volume 2406.656622
_symmetry_space_group_name_H-M "C 2/M"
_symmetry_group_IT_number 12
_symmetry_cell_setting 'monoclinic'
loop_
_space_group_symop_operation_xyz
x,y,z
-x,y,-z
-x,-y,-z
x,-y,z
1/2+x,1/2+y,z
1/2-x,1/2+y,-z
1/2-x,1/2-y,-z
1/2+x,1/2-y,z
loop_
_atom_site_type_symbol
_atom_site_label
_atom_site_fract_x
_atom_site_fract_y
_atom_site_fract_z
Si Si1 0.363411 0.925155 0.160101
Si Si2 0.288412 0.897526 0.693225
Si Si3 0.490560 0.775909 0.125483
Si Si4 0.633115 0.839724 0.668533
Si Si5 0.478054 0.575333 0.345509
Si Si6 0.153491 0.786434 0.803286
Si Si7 0.004923 0.122039 0.099338
O O1 0.522723 0.923538 0.204587
O O2 0.408882 0.881614 0.275038
O O3 0.338261 0.000000 0.172511
O O4 0.178076 0.902456 0.990531
O O5 0.337999 0.819797 0.742438
O O6 0.191564 0.923341 0.710175
O O7 0.149754 0.914148 0.523126
O O8 0.416165 0.759482 0.167539
O O9 0.496680 0.702251 0.090876
O O10 0.346533 0.809734 0.965247
O O11 0.500000 0.833066 0.500000
O O12 0.655734 0.765071 0.725690
O O13 0.793776 0.881811 0.736040
O O14 0.487454 0.500000 0.312639
O O15 0.459812 0.645781 0.282797
O O16 0.000000 0.094671 0.000000
#
# Coordination Sequence:
#
# PCOD9211781 Si02
#       7
#     8   8   8   8   8   8   8
#     4  11  22  43  69  94 134 186 228 279 342 405
#     4  11  23  43  72  96 135 183 226 281 339 417
#     4  11  21  42  70 103 127 177 232 283 334 392
#     4  11  24  41  65 104 138 173 225 279 346 406
#     4  11  26  45  66 103 144 181 224 281 354 419
#     4  11  23  43  71 101 139 178 226 290 337 408
#     4  10  21  40  65  98 135 166 221 282 330 401
#
# _framework density 23.268794
#
# number of rings (size 3 to 8) (size 9 to 14) (size 15 to 20)
#    0.000    1.143    4.286    3.429    4.000    4.571 
#    0.000    5.000    0.000    0.000    0.000    0.000 
#    0.000    0.000    0.000    0.000    0.000    0.000 
#
# Total GULP energy -156003.090633 kJ/mol
# GULP energy per Si atom -5571.538951 kJ/mol
# Density = 2.321583 g / cm^3
# Si number density = 23.268794 Si / 1000 Ang^3
#
#
#
# Elastic Constant Matrix: (Units=GPa)
#
#
# Indices 1 2 3 4 5 6 
#
# 1 73.0481 19.5379 48.2384 0.0000 19.5402 0.0000
# 2 19.5379 145.9247 40.0024 0.0000 -5.9578 0.0000
# 3 48.2384 40.0024 112.8680 -0.0001 3.1874 0.0000
# 4 0.0000 0.0000 -0.0001 23.9204 0.0000 3.0383
# 5 19.5402 -5.9578 3.1874 0.0000 36.0009 0.0000
# 6 0.0000 0.0000 0.0000 3.0383 0.0000 22.5163
#
#
#
# Elastic Compliance Matrix: (Units=1/GPa)
#
#
# Indices 1 2 3 4 5 6 
#
# 1 0.023282 -0.001077 -0.009230 0.000000 -0.011998 0.000000
# 2 -0.001077 0.007722 -0.002335 0.000000 0.002069 0.000000
# 3 -0.009230 -0.002335 0.013536 0.000000 0.003425 0.000000
# 4 0.000000 0.000000 0.000000 0.042534 0.000000 -0.005740
# 5 -0.011998 0.002069 0.003425 0.000000 0.034328 0.000000
# 6 0.000000 0.000000 0.000000 -0.005740 0.000000 0.045187
#
#
# Mechanical properties :
#
#
# Convention : Reuss Voigt Hill
#
# Bulk Modulus (GPa) = 51.93250 60.82201 56.37725
# Shear Modulus (GPa) = 25.21546 31.42498 28.32022
#
# Velocity S-wave (km/s) = 3.29547 3.67893 3.49247
# Velocity P-wave (km/s) = 6.07018 6.65144 6.36745
#
# Compressibility (1/GPa) = 0.01925576
#
# Stress axis : x y z
#
# Youngs Moduli (GPa) = 42.95115 129.50756 73.87975
#
# Poissons Ratio (x) = 0.13946 0.68192
# Poissons Ratio (y) = 0.04625 0.17250
# Poissons Ratio (z) = 0.39644 0.30238
#
# Static dielectric constant tensor:
#      x y z
#    x 2.031630 0.000000 0.059130 
#    y 0.000000 1.924400 0.000000 
#    z 0.059130 0.000000 1.899370 
# 
# From -- ./inp_files/272427.got.cif
#   From: 2010.05.17/outbox.cif.g08.bks.cpg/sg12_137_cif.got.tgz:272427.got - 2010.06.03 13:09:07.
