data_PCOD9211737
_publ_section_title
;
Structure prediction by ZEFSAII (Michael W. Deem and Ramdas Pophale) SiO2 
 PCOD9211737
Probable space group: C 2/M
;
_chemical_formula_sum "Si O2"
_cell_formula_units_Z 56
_cell_length_a 20.341637
_cell_length_b 11.132916
_cell_length_c 14.656820
_cell_angle_alpha 90.000000
_cell_angle_beta 71.808187
_cell_angle_gamma 90.000000
_cell_volume 3153.303793
_symmetry_space_group_name_H-M "C 2/M"
_symmetry_group_IT_number 12
_symmetry_cell_setting 'monoclinic'
loop_
_space_group_symop_operation_xyz
x,y,z
-x,y,-z
-x,-y,-z
x,-y,z
1/2+x,1/2+y,z
1/2-x,1/2+y,-z
1/2-x,1/2-y,-z
1/2+x,1/2-y,z
loop_
_atom_site_type_symbol
_atom_site_label
_atom_site_fract_x
_atom_site_fract_y
_atom_site_fract_z
Si Si1 0.554574 0.750261 0.246377
Si Si2 0.542379 0.859810 0.569911
Si Si3 0.396665 0.500000 0.486362
Si Si4 0.192201 0.639417 0.266545
Si Si5 0.683913 0.746789 0.464443
Si Si6 0.781103 0.858889 0.048634
Si Si7 0.459563 0.500000 0.659431
Si Si8 0.055918 0.140540 0.054183
O O1 0.486964 0.797359 0.327591
O O2 0.618825 0.831414 0.250128
O O3 0.567906 0.617871 0.280003
O O4 0.546633 0.730646 0.142705
O O5 0.500000 0.810041 0.500000
O O6 0.622890 0.838209 0.519185
O O7 0.526752 0.000000 0.582663
O O8 0.350758 0.617996 0.505037
O O9 0.433236 0.500000 0.568269
O O10 0.456799 0.500000 0.384025
O O11 0.192852 0.500000 0.295443
O O12 0.200606 0.722351 0.351903
O O13 0.249597 0.656489 0.163420
O O14 0.750000 0.750000 0.500000
O O15 0.764665 0.000000 0.027814
O O16 0.750000 0.750000 0.000000
O O17 0.864313 0.849476 0.011870
O O18 0.045248 0.000000 0.086882
O O19 0.000000 0.165061 0.000000
#
# Coordination Sequence:
#
# PCOD9211737 Si02
#       8
#     8   8   4   8   8   8   4   8
#     4  12  20  36  64  93 118 157 206 250 300 358
#     4  11  22  39  62  89 121 162 209 249 289 359
#     4  11  22  40  58  88 129 156 196 254 302 353
#     4  11  23  40  63  89 121 164 209 247 299 367
#     4  12  26  40  60  90 129 164 199 247 305 361
#     4  10  21  40  65  93 122 157 207 260 307 367
#     4  11  20  36  61  92 118 152 203 256 297 344
#     4  10  22  39  62  92 126 160 198 252 314 367
#
# _framework density 17.759152
#
# number of rings (size 3 to 8) (size 9 to 14) (size 15 to 20)
#    0.000    1.000    6.429    0.857    2.000    1.143 
#    1.286    0.000    0.000    3.857    0.000    0.000 
#    0.000    0.000    0.000    0.000    0.000    0.000 
#
# Total GULP energy -156270.092715 kJ/mol
# GULP energy per Si atom -5581.074740 kJ/mol
# Density = 1.771873 g / cm^3
# Si number density = 17.759152 Si / 1000 Ang^3
#
#
#
# Elastic Constant Matrix: (Units=GPa)
#
#
# Indices 1 2 3 4 5 6 
#
# 1 112.8660 15.8352 41.9490 0.0000 5.6869 0.0000
# 2 15.8352 58.7447 13.0219 0.0000 -3.5759 0.0000
# 3 41.9490 13.0219 101.4247 0.0000 -5.0088 0.0000
# 4 0.0000 0.0000 0.0000 28.4948 0.0000 -6.7610
# 5 5.6869 -3.5759 -5.0088 0.0000 21.8848 0.0000
# 6 0.0000 0.0000 0.0000 -6.7610 0.0000 -89.6673
#
#
#
# Elastic Compliance Matrix: (Units=1/GPa)
#
#
# Indices 1 2 3 4 5 6 
#
# 1 0.011062 -0.002245 -0.004498 0.000000 -0.004271 0.000000
# 2 -0.002245 0.018100 -0.001235 0.000000 0.003258 0.000000
# 3 -0.004498 -0.001235 0.012062 0.000000 0.003728 0.000000
# 4 0.000000 0.000000 0.000000 0.034477 0.000000 -0.002600
# 5 -0.004271 0.003258 0.003728 0.000000 0.048189 0.000000
# 6 0.000000 0.000000 0.000000 -0.002600 0.000000 -0.010956
#
#
# Mechanical properties :
#
#
# Convention : Reuss Voigt Hill
#
# Bulk Modulus (GPa) = 39.57273 46.07197 42.82235
# Shear Modulus (GPa) = 36.41341 5.62443 21.01892
#
# Velocity S-wave (km/s) = 4.53305 1.78155 3.44401
# Velocity P-wave (km/s) = 7.05191 5.49826 6.32299
#
# Compressibility (1/GPa) = 0.02526993
#
# Stress axis : x y z
#
# Youngs Moduli (GPa) = 90.40009 55.24893 82.90187
#
# Poissons Ratio (x) = 0.12402 0.37288
# Poissons Ratio (y) = 0.20293 0.10234
# Poissons Ratio (z) = 0.40661 0.06821
#
# Static dielectric constant tensor:
#      x y z
#    x 1.538770 0.000000 0.027150 
#    y 0.000000 1.618330 0.000000 
#    z 0.027150 0.000000 1.579690 
# 
# From -- ./inp_files/223754.got.cif
#   From: 2010.05.17/outbox.cif.g08.bks.cpg/sg12_112_cif.got.tgz:223754.got - 2010.06.03 13:09:07.
