data_PCOD9211336
_publ_section_title
;
Structure prediction by ZEFSAII (Michael W. Deem and Ramdas Pophale) SiO2 
 PCOD9211336
Probable space group: C 2/M
;
_chemical_formula_sum "Si O2"
_cell_formula_units_Z 56
_cell_length_a 17.167032
_cell_length_b 29.411763
_cell_length_c 9.521457
_cell_angle_alpha 90.000000
_cell_angle_beta 146.307805
_cell_angle_gamma 90.000000
_cell_volume 2666.872127
_symmetry_space_group_name_H-M "C 2/M"
_symmetry_group_IT_number 12
_symmetry_cell_setting 'monoclinic'
loop_
_space_group_symop_operation_xyz
x,y,z
-x,y,-z
-x,-y,-z
x,-y,z
1/2+x,1/2+y,z
1/2-x,1/2+y,-z
1/2-x,1/2-y,-z
1/2+x,1/2-y,z
loop_
_atom_site_type_symbol
_atom_site_label
_atom_site_fract_x
_atom_site_fract_y
_atom_site_fract_z
Si Si1 0.337946 0.500000 0.212518
Si Si2 0.265789 0.296582 0.938061
Si Si3 0.345455 0.000000 0.340553
Si Si4 0.317077 0.183830 0.483943
Si Si5 0.124721 0.577484 0.384558
Si Si6 0.422131 0.722872 0.685335
Si Si7 0.800960 0.574975 0.806814
Si Si8 0.658275 0.336621 0.680999
O O1 0.500000 0.500000 0.500000
O O2 0.275768 0.543435 0.198038
O O3 0.277353 0.500000 0.962215
O O4 0.422602 0.295352 0.108395
O O5 0.252558 0.332536 0.043345
O O6 0.250000 0.250000 0.000000
O O7 0.170323 0.307542 0.663499
O O8 0.500000 0.000000 0.500000
O O9 0.340483 0.044759 0.432892
O O10 0.338123 0.130703 0.541304
O O11 0.419710 0.222673 0.702142
O O12 0.167552 0.199638 0.326085
O O13 0.197027 0.558737 0.350975
O O14 0.959751 0.577497 0.100347
O O15 0.343860 0.707669 0.422624
O O16 0.722206 0.622975 0.688341
O O17 0.500000 0.344063 0.500000
#
# Coordination Sequence:
#
# PCOD9211336 Si02
#       8
#     4   8   4   8   8   8   8   8
#     4  12  27  49  79 107 140 185 223 288 365 428
#     4  11  23  37  58  89 127 180 226 288 347 401
#     4  12  25  51  71 111 146 176 235 302 356 413
#     4  11  23  40  63  94 131 175 239 279 348 416
#     4  11  25  43  75 102 137 186 230 293 350 426
#     4  10  22  42  59  88 135 181 227 290 340 412
#     4  11  23  46  70 104 137 181 232 279 358 433
#     4  10  21  40  61  89 134 177 219 280 345 413
#
# _framework density 20.998381999999999
#
# number of rings (size 3 to 8) (size 9 to 14) (size 15 to 20)
#    0.000    1.143    4.286    1.286    4.000    1.143 
#    2.571    1.429    0.000    0.000    0.000    0.000 
#    0.000    0.000    0.000    0.000    0.000    0.000 
#
# Total GULP energy -156257.808784 kJ/mol
# GULP energy per Si atom -5580.636028 kJ/mol
# Density = 2.095059 g / cm^3
# Si number density = 20.998382 Si / 1000 Ang^3
#
#
#
# Elastic Constant Matrix: (Units=GPa)
#
#
# Indices 1 2 3 4 5 6 
#
# 1 103.8539 30.6273 43.5754 0.0000 -26.2685 0.0000
# 2 30.6273 121.6612 37.6845 0.0000 -17.3400 0.0000
# 3 43.5754 37.6845 91.4023 0.0000 -36.4696 0.0000
# 4 0.0000 0.0000 0.0000 15.6580 0.0000 -8.4110
# 5 -26.2685 -17.3400 -36.4696 0.0000 31.1610 0.0000
# 6 0.0000 0.0000 0.0000 -8.4110 0.0000 40.3347
#
#
#
# Elastic Compliance Matrix: (Units=1/GPa)
#
#
# Indices 1 2 3 4 5 6 
#
# 1 0.012971 -0.001401 -0.002916 0.000000 0.006742 0.000000
# 2 -0.001401 0.009603 -0.003059 0.000000 0.000583 0.000000
# 3 -0.002916 -0.003059 0.022385 0.000000 0.022039 0.000000
# 4 0.000000 0.000000 0.000000 0.071922 0.000000 0.014998
# 5 0.006742 0.000583 0.022039 0.000000 0.063892 0.000000
# 6 0.000000 0.000000 0.000000 0.014998 0.000000 0.027920
#
#
# Mechanical properties :
#
#
# Convention : Reuss Voigt Hill
#
# Bulk Modulus (GPa) = 33.10475 60.07686 46.59081
# Shear Modulus (GPa) = 21.41202 31.09943 26.25573
#
# Velocity S-wave (km/s) = 3.19674 3.85260 3.53989
# Velocity P-wave (km/s) = 5.42449 6.96149 6.24049
#
# Compressibility (1/GPa) = 0.03020714
#
# Stress axis : x y z
#
# Youngs Moduli (GPa) = 77.09554 104.13692 44.67204
#
# Poissons Ratio (x) = 0.14591 0.13027
# Poissons Ratio (y) = 0.10802 0.13664
# Poissons Ratio (z) = 0.22482 0.31852
#
# Static dielectric constant tensor:
#      x y z
#    x 1.731440 0.000000 -0.037330 
#    y 0.000000 1.686250 0.000000 
#    z -0.037330 0.000000 1.785500 
# 
# From -- ./inp_files/80156.got.cif
#   From: 2010.05.17/outbox.cif.g08.bks.cpg/sg12_41_cif.got.tgz:80156.got - 2010.06.03 13:09:07.
