data_PCOD9211376
_publ_section_title
;
Structure prediction by ZEFSAII (Michael W. Deem and Ramdas Pophale) SiO2 
 PCOD9211376
Probable space group: C 2/M
;
_chemical_formula_sum "Si O2"
_cell_formula_units_Z 56
_cell_length_a 17.189134
_cell_length_b 15.116937
_cell_length_c 11.135917
_cell_angle_alpha 90.000000
_cell_angle_beta 65.284287
_cell_angle_gamma 90.000000
_cell_volume 2628.559582
_symmetry_space_group_name_H-M "C 2/M"
_symmetry_group_IT_number 12
_symmetry_cell_setting 'monoclinic'
loop_
_space_group_symop_operation_xyz
x,y,z
-x,y,-z
-x,-y,-z
x,-y,z
1/2+x,1/2+y,z
1/2-x,1/2+y,-z
1/2-x,1/2-y,-z
1/2+x,1/2-y,z
loop_
_atom_site_type_symbol
_atom_site_label
_atom_site_fract_x
_atom_site_fract_y
_atom_site_fract_z
Si Si1 0.008470 0.759964 0.673551
Si Si2 0.101258 0.403114 0.293616
Si Si3 0.639749 0.598793 0.213800
Si Si4 0.173181 0.841555 0.451984
Si Si5 0.085952 0.241583 0.877807
Si Si6 0.171209 0.602862 0.977821
Si Si7 0.738021 0.655691 0.664756
O O1 0.964273 0.675497 0.644935
O O2 0.934018 0.829417 0.754985
O O3 0.078668 0.806932 0.546050
O O4 0.057083 0.730394 0.762930
O O5 0.062338 0.500000 0.331067
O O6 0.183088 0.393605 0.326547
O O7 0.134824 0.391984 0.135402
O O8 0.611538 0.500000 0.199021
O O9 0.665858 0.600723 0.337886
O O10 0.727178 0.621705 0.088380
O O11 0.229941 0.756376 0.379711
O O12 0.210113 0.880272 0.552344
O O13 0.124671 0.324664 0.925279
O O14 0.157841 0.167112 0.806598
O O15 0.000000 0.210367 0.000000
O O16 0.160468 0.500000 0.943439
#
# Coordination Sequence:
#
# PCOD9211376 Si02
#       7
#     8   8   8   8   8   8   8
#     4  11  23  37  61  95 125 156 207 257 306 364
#     4  11  23  40  63  92 130 166 202 253 312 372
#     4  11  23  41  67  93 121 162 209 261 311 363
#     4  10  21  40  62  86 124 163 206 255 297 365
#     4  11  21  36  62  90 118 165 203 250 317 359
#     4  10  22  39  61  93 125 160 211 256 305 376
#     4  10  22  39  61  87 123 164 206 246 305 373
#
# _framework density 21.304444
#
# number of rings (size 3 to 8) (size 9 to 14) (size 15 to 20)
#    0.000    1.429    4.286    0.429    2.000    3.714 
#    0.000    3.571    0.000    0.857    0.000    0.000 
#    0.000    0.000    0.000    0.000    0.000    0.000 
#
# Total GULP energy -156551.129142 kJ/mol
# GULP energy per Si atom -5591.111755 kJ/mol
# Density = 2.125595 g / cm^3
# Si number density = 21.304444 Si / 1000 Ang^3
#
#
#
# Elastic Constant Matrix: (Units=GPa)
#
#
# Indices 1 2 3 4 5 6 
#
# 1 73.0581 23.6053 -4.4395 0.0000 11.7417 0.0000
# 2 23.6053 64.1187 -0.3383 0.0000 4.3207 0.0000
# 3 -4.4395 -0.3383 57.2650 0.0000 -0.7525 0.0000
# 4 0.0000 0.0000 0.0000 8.8590 0.0000 10.8266
# 5 11.7417 4.3207 -0.7525 0.0000 38.1171 0.0000
# 6 0.0000 0.0000 0.0000 10.8266 0.0000 -14.9132
#
#
#
# Elastic Compliance Matrix: (Units=1/GPa)
#
#
# Indices 1 2 3 4 5 6 
#
# 1 0.016301 -0.005702 0.001173 0.000000 -0.004352 0.000000
# 2 -0.005702 0.017711 -0.000341 0.000000 -0.000258 0.000000
# 3 0.001173 -0.000341 0.017552 0.000000 0.000024 0.000000
# 4 0.000000 0.000000 0.000000 0.059813 0.000000 0.043422
# 5 -0.004352 -0.000258 0.000024 0.000000 0.027605 0.000000
# 6 0.000000 0.000000 0.000000 0.043422 0.000000 -0.035531
#
#
# Mechanical properties :
#
#
# Convention : Reuss Voigt Hill
#
# Bulk Modulus (GPa) = 23.90964 25.78852 24.84908
# Shear Modulus (GPa) = 39.32966 18.12021 28.72493
#
# Velocity S-wave (km/s) = 4.30126 2.91956 3.67591
# Velocity P-wave (km/s) = 5.99291 4.84728 5.45028
#
# Compressibility (1/GPa) = 0.04182414
#
# Stress axis : x y z
#
# Youngs Moduli (GPa) = 61.34730 56.46305 56.97388
#
# Poissons Ratio (x) = 0.32193 -0.06682
# Poissons Ratio (y) = 0.34978 0.01942
# Poissons Ratio (z) = -0.07195 0.01924
#
# Static dielectric constant tensor:
#      x y z
#    x 1.765430 0.000000 0.005450 
#    y 0.000000 1.742440 0.000000 
#    z 0.005450 0.000000 1.785430 
# 
# From -- ./inp_files/156000.got.cif
#   From: 2010.05.17/outbox.cif.g08.bks.cpg/sg12_78_cif.got.tgz:156000.got - 2010.06.03 13:09:07.
