data_PCOD9211039
_publ_section_title
;
Structure prediction by ZEFSAII (Michael W. Deem and Ramdas Pophale) SiO2 
 PCOD9211039
Probable space group: C 2/M
;
_chemical_formula_sum "Si O2"
_cell_formula_units_Z 28
_cell_length_a 14.765305
_cell_length_b 10.601823
_cell_length_c 13.805169
_cell_angle_alpha 90.000000
_cell_angle_beta 37.901713
_cell_angle_gamma 90.000000
_cell_volume 1327.551659
_symmetry_space_group_name_H-M "C 2/M"
_symmetry_group_IT_number 12
_symmetry_cell_setting 'monoclinic'
loop_
_space_group_symop_operation_xyz
x,y,z
-x,y,-z
-x,-y,-z
x,-y,z
1/2+x,1/2+y,z
1/2-x,1/2+y,-z
1/2-x,1/2-y,-z
1/2+x,1/2-y,z
loop_
_atom_site_type_symbol
_atom_site_label
_atom_site_fract_x
_atom_site_fract_y
_atom_site_fract_z
Si Si1 0.000000 0.757433 0.500000
Si Si2 0.073900 0.359069 0.072742
Si Si3 0.721314 0.858470 0.162017
Si Si4 0.251329 0.858491 0.418663
O O1 0.896112 0.673812 0.656228
O O2 0.893067 0.840600 0.523986
O O3 0.107885 0.500000 0.006006
O O4 0.136960 0.353843 0.129631
O O5 0.899084 0.343917 0.230468
O O6 0.154168 0.248451 0.947748
O O7 0.780388 0.000000 0.124334
O O8 0.250000 0.750000 0.500000
O O9 0.255950 0.000000 0.457274
#
# Coordination Sequence:
#
# PCOD9211039 Si02
#       4
#     4   8   8   8
#     4  12  24  40  66 102 132 164 214 270 320 382
#     4   9  20  41  64  89 127 171 213 261 320 380
#     4  10  21  39  65  95 127 169 216 264 316 379
#     4  11  24  43  66  96 131 171 214 264 323 381
#
# _framework density 21.091457999999999
#
# number of rings (size 3 to 8) (size 9 to 14) (size 15 to 20)
#    0.000    1.714    2.857    0.857    0.000    5.714 
#    0.000    4.286    0.000    0.000    0.000    0.000 
#    0.000    0.000    0.000    0.000    0.000    0.000 
#
# Total GULP energy -78302.028517 kJ/mol
# GULP energy per Si atom -5593.002037 kJ/mol
# Density = 2.104345 g / cm^3
# Si number density = 21.091458 Si / 1000 Ang^3
#
#
#
# Elastic Constant Matrix: (Units=GPa)
#
#
# Indices 1 2 3 4 5 6 
#
# 1 82.2849 49.6634 25.2881 0.0000 -13.1396 0.0000
# 2 49.6634 217.1334 116.5251 0.0000 -0.6830 0.0000
# 3 25.2881 116.5251 118.6467 0.0000 -2.1279 0.0000
# 4 0.0000 0.0000 0.0000 35.4347 0.0000 -4.7778
# 5 -13.1396 -0.6830 -2.1279 0.0000 34.6583 0.0000
# 6 0.0000 0.0000 0.0000 -4.7778 0.0000 7.0787
#
#
#
# Elastic Compliance Matrix: (Units=1/GPa)
#
#
# Indices 1 2 3 4 5 6 
#
# 1 0.015154 -0.003742 0.000547 0.000000 0.005705 0.000000
# 2 -0.003742 0.010667 -0.009711 0.000000 -0.001805 0.000000
# 3 0.000547 -0.009711 0.017869 0.000000 0.001113 0.000000
# 4 0.000000 0.000000 0.000000 0.031046 0.000000 0.020955
# 5 0.005705 -0.001805 0.001113 0.000000 0.031049 0.000000
# 6 0.000000 0.000000 0.000000 0.020955 0.000000 0.155413
#
#
# Mechanical properties :
#
#
# Convention : Reuss Voigt Hill
#
# Bulk Modulus (GPa) = 55.93140 89.00203 72.46671
# Shear Modulus (GPa) = 17.06660 30.54023 23.80341
#
# Velocity S-wave (km/s) = 2.84768 3.80938 3.36308
# Velocity P-wave (km/s) = 6.11461 7.85100 7.03657
#
# Compressibility (1/GPa) = 0.01787905
#
# Stress axis : x y z
#
# Youngs Moduli (GPa) = 65.98865 93.74487 55.96175
#
# Poissons Ratio (x) = 0.35079 -0.03063
# Poissons Ratio (y) = 0.24692 0.54346
# Poissons Ratio (z) = -0.03612 0.91039
#
# Static dielectric constant tensor:
#      x y z
#    x 1.777530 0.000000 0.012150 
#    y 0.000000 1.744170 0.000000 
#    z 0.012150 0.000000 1.712070 
# 
# From -- ./inp_files/56701.got.cif
#   From: 2010.05.17/outbox.cif.g08.bks.cpg/sg12_29_cif.got.tgz:56701.got - 2010.06.03 13:09:07.
