data_PCOD9211272
_publ_section_title
;
Structure prediction by ZEFSAII (Michael W. Deem and Ramdas Pophale) SiO2 
 PCOD9211272
Probable space group: C 2/M
;
_chemical_formula_sum "Si O2"
_cell_formula_units_Z 48
_cell_length_a 13.239092
_cell_length_b 19.632176
_cell_length_c 9.687508
_cell_angle_alpha 90.000000
_cell_angle_beta 113.792297
_cell_angle_gamma 90.000000
_cell_volume 2303.914780
_symmetry_space_group_name_H-M "C 2/M"
_symmetry_group_IT_number 12
_symmetry_cell_setting 'monoclinic'
loop_
_space_group_symop_operation_xyz
x,y,z
-x,y,-z
-x,-y,-z
x,-y,z
1/2+x,1/2+y,z
1/2-x,1/2+y,-z
1/2-x,1/2-y,-z
1/2+x,1/2-y,z
loop_
_atom_site_type_symbol
_atom_site_label
_atom_site_fract_x
_atom_site_fract_y
_atom_site_fract_z
Si Si1 0.629171 0.422006 0.590747
Si Si2 0.972741 0.500000 0.322537
Si Si3 0.416203 0.219344 0.685170
Si Si4 0.706800 0.852754 0.142670
Si Si5 0.644971 0.143928 0.800174
Si Si6 0.777021 0.849069 0.599036
Si Si7 0.611297 0.000000 0.148016
O O1 0.500000 0.413542 0.500000
O O2 0.646980 0.500000 0.650510
O O3 0.676392 0.361538 0.714991
O O4 0.688129 0.412621 0.474938
O O5 0.908425 0.568301 0.241183
O O6 0.000000 0.500000 0.500000
O O7 0.083985 0.500000 0.294646
O O8 0.375314 0.194436 0.814127
O O9 0.540858 0.195500 0.725579
O O10 0.331938 0.180958 0.535840
O O11 0.380378 0.297344 0.649618
O O12 0.665775 0.929771 0.138548
O O13 0.699888 0.838862 0.977482
O O14 0.737204 0.144496 0.733116
O O15 0.500000 0.000000 0.000000
#
# Coordination Sequence:
#
# PCOD9211272 Si02
#       7
#     8   4   8   8   8   8   4
#     4  10  23  44  67  88 120 171 222 262 313 393
#     4  12  24  32  60  99 138 168 201 273 331 369
#     4  10  21  40  59  88 132 173 214 249 315 389
#     4  11  21  37  64  93 126 167 211 261 324 394
#     4  12  23  38  62 101 134 162 211 269 326 381
#     4  10  24  39  63  92 124 173 213 268 310 370
#     4  12  18  36  57  95 132 173 199 257 334 386
#
# _framework density 20.834104
#
# number of rings (size 3 to 8) (size 9 to 14) (size 15 to 20)
#    0.000    1.167    4.167    2.000    3.500    4.667 
#    0.000    2.500    0.000    2.000    0.000    0.000 
#    0.000    0.000    0.000    0.000    0.000    0.000 
#
# Total GULP energy -133993.361721 kJ/mol
# GULP energy per Si atom -5583.056738 kJ/mol
# Density = 2.078668 g / cm^3
# Si number density = 20.834104 Si / 1000 Ang^3
#
#
#
# Elastic Constant Matrix: (Units=GPa)
#
#
# Indices 1 2 3 4 5 6 
#
# 1 81.3644 13.4648 31.2348 0.0000 1.9866 0.0000
# 2 13.4648 49.9884 1.0184 0.0000 13.8120 0.0000
# 3 31.2348 1.0184 113.7767 0.0000 -19.4883 0.0000
# 4 0.0000 0.0000 0.0000 -5.8982 0.0000 -6.6887
# 5 1.9866 13.8120 -19.4883 0.0000 36.7577 0.0000
# 6 0.0000 0.0000 0.0000 -6.6887 0.0000 14.1660
#
#
#
# Elastic Compliance Matrix: (Units=1/GPa)
#
#
# Indices 1 2 3 4 5 6 
#
# 1 0.014522 -0.003329 -0.004264 0.000000 -0.001795 0.000000
# 2 -0.003329 0.023426 -0.000850 0.000000 -0.009073 0.000000
# 3 -0.004264 -0.000850 0.011067 0.000000 0.006417 0.000000
# 4 0.000000 0.000000 0.000000 -0.110420 0.000000 -0.052137
# 5 -0.001795 -0.009073 0.006417 0.000000 0.034114 0.000000
# 6 0.000000 0.000000 0.000000 -0.052137 0.000000 0.045975
#
#
# Mechanical properties :
#
#
# Convention : Reuss Voigt Hill
#
# Bulk Modulus (GPa) = 31.12545 37.39616 34.26081
# Shear Modulus (GPa) = 108.04296 22.29921 65.17109
#
# Velocity S-wave (km/s) = 7.20911 3.27513 5.59901
# Velocity P-wave (km/s) = 9.17971 5.68247 7.63405
#
# Compressibility (1/GPa) = 0.03212805
#
# Stress axis : x y z
#
# Youngs Moduli (GPa) = 68.86041 42.68849 90.36192
#
# Poissons Ratio (x) = 0.14210 0.38534
# Poissons Ratio (y) = 0.22923 0.07680
# Poissons Ratio (z) = 0.29365 0.03628
#
# Static dielectric constant tensor:
#      x y z
#    x 1.802940 0.000000 0.133810 
#    y 0.000000 1.782080 0.000000 
#    z 0.133810 0.000000 2.123310 
# 
# From -- ./inp_files/51507.got.cif
#   From: 2010.05.17/outbox.cif.g08.bks.cpg/sg12_26_cif.got.tgz:51507.got - 2010.06.03 13:09:07.
