data_PCOD9211348
_publ_section_title
;
Structure prediction by ZEFSAII (Michael W. Deem and Ramdas Pophale) SiO2 
 PCOD9211348
Probable space group: C 2/M
;
_chemical_formula_sum "Si O2"
_cell_formula_units_Z 50
_cell_length_a 20.369814
_cell_length_b 7.642938
_cell_length_c 16.144669
_cell_angle_alpha 90.000000
_cell_angle_beta 66.295987
_cell_angle_gamma 90.000000
_cell_volume 2301.434740
_symmetry_space_group_name_H-M "C 2/M"
_symmetry_group_IT_number 12
_symmetry_cell_setting 'monoclinic'
loop_
_space_group_symop_operation_xyz
x,y,z
-x,y,-z
-x,-y,-z
x,-y,z
1/2+x,1/2+y,z
1/2-x,1/2+y,-z
1/2-x,1/2-y,-z
1/2+x,1/2-y,z
loop_
_atom_site_type_symbol
_atom_site_label
_atom_site_fract_x
_atom_site_fract_y
_atom_site_fract_z
Si Si1 0.833395 0.292968 0.461903
Si Si2 0.894658 0.795909 0.091065
Si Si3 0.000000 0.500000 0.000000
Si Si4 0.742295 0.290815 0.100254
Si Si5 0.911000 0.797915 0.766972
Si Si6 0.935210 0.791333 0.255923
Si Si7 0.920054 0.290652 0.573925
O O1 0.841147 0.500000 0.463851
O O2 0.750000 0.250000 0.500000
O O3 0.878810 0.242374 0.357901
O O4 0.867545 0.220943 0.529317
O O5 0.416365 0.500000 0.069654
O O6 0.939406 0.656990 0.014831
O O7 0.810623 0.784743 0.113478
O O8 0.909583 0.734044 0.178243
O O9 0.743513 0.500000 0.113322
O O10 0.664665 0.220150 0.167126
O O11 0.750000 0.250000 0.000000
O O12 0.912537 0.793276 0.667041
O O13 0.985931 0.718854 0.761459
O O14 0.910320 0.000000 0.796197
O O15 0.941162 0.000000 0.248110
O O16 0.909459 0.500000 0.590387
O O17 0.000000 0.263991 0.500000
#
# Coordination Sequence:
#
# PCOD9211348 Si02
#       7
#     8   8   2   8   8   8   8
#     4  11  24  40  63  91 131 175 221 277 333 403
#     4  11  26  47  72 105 142 181 227 288 344 415
#     4  12  26  48  76 102 136 182 234 280 352 418
#     4  11  25  46  69 102 140 179 231 284 348 414
#     4  10  23  41  66  95 130 175 221 280 335 402
#     4  10  23  43  66  97 133 174 227 275 339 407
#     4  10  21  40  61  92 128 168 220 272 331 400
#
# _framework density 21.725579
#
# number of rings (size 3 to 8) (size 9 to 14) (size 15 to 20)
#    0.000    1.440    2.400    1.200    5.600    2.880 
#    0.000    0.000    0.000    0.000    0.000    0.000 
#    0.000    0.000    0.000    0.000    0.000    0.000 
#
# Total GULP energy -139472.312475 kJ/mol
# GULP energy per Si atom -5578.892499 kJ/mol
# Density = 2.167613 g / cm^3
# Si number density = 21.725579 Si / 1000 Ang^3
#
#
#
# Elastic Constant Matrix: (Units=GPa)
#
#
# Indices 1 2 3 4 5 6 
#
# 1 188.0409 15.0654 51.2073 0.0001 -0.7752 -0.0001
# 2 15.0654 84.4536 3.4789 0.0004 -7.2669 -0.0004
# 3 51.2073 3.4789 74.7198 0.0000 -3.4675 0.0000
# 4 0.0001 0.0004 0.0000 10.8042 0.0000 4.2093
# 5 -0.7752 -7.2669 -3.4675 0.0000 42.5929 0.0000
# 6 -0.0001 -0.0004 0.0000 4.2093 0.0000 23.4751
#
#
#
# Elastic Compliance Matrix: (Units=1/GPa)
#
#
# Indices 1 2 3 4 5 6 
#
# 1 0.006628 -0.001033 -0.004514 0.000000 -0.000423 0.000000
# 2 -0.001033 0.012194 0.000237 -0.000001 0.002081 0.000000
# 3 -0.004514 0.000237 0.016526 0.000000 0.001304 0.000000
# 4 0.000000 -0.000001 0.000000 0.099508 0.000000 -0.017842
# 5 -0.000423 0.002081 0.001304 0.000000 0.023932 0.000000
# 6 0.000000 0.000000 0.000000 -0.017842 0.000000 0.045798
#
#
# Mechanical properties :
#
#
# Convention : Reuss Voigt Hill
#
# Bulk Modulus (GPa) = 40.43911 54.07974 47.25942
# Shear Modulus (GPa) = 22.37642 33.87195 28.12418
#
# Velocity S-wave (km/s) = 3.21278 3.95280 3.60185
# Velocity P-wave (km/s) = 5.69356 6.76603 6.25283
#
# Compressibility (1/GPa) = 0.02472854
#
# Stress axis : x y z
#
# Youngs Moduli (GPa) = 150.86899 82.00496 60.50917
#
# Poissons Ratio (x) = 0.08470 0.27314
# Poissons Ratio (y) = 0.15583 -0.01432
# Poissons Ratio (z) = 0.68103 -0.01941
#
# Static dielectric constant tensor:
#      x y z
#    x 1.787810 0.000000 0.025350 
#    y 0.000000 1.849110 0.000000 
#    z 0.025350 0.000000 1.757110 
# 
# From -- ./inp_files/274190.got.cif
#   From: 2010.05.17/outbox.cif.g08.bks.cpg/sg12_138_cif.got.tgz:274190.got - 2010.06.03 13:09:07.
