data_PCOD9211319
_publ_section_title
;
Structure prediction by ZEFSAII (Michael W. Deem and Ramdas Pophale) SiO2 
 PCOD9211319
Probable space group: C 2/M
;
_chemical_formula_sum "Si O2"
_cell_formula_units_Z 60
_cell_length_a 30.294791
_cell_length_b 9.605405
_cell_length_c 12.098742
_cell_angle_alpha 90.000000
_cell_angle_beta 114.788653
_cell_angle_gamma 90.000000
_cell_volume 3196.266571
_symmetry_space_group_name_H-M "C 2/M"
_symmetry_group_IT_number 12
_symmetry_cell_setting 'monoclinic'
loop_
_space_group_symop_operation_xyz
x,y,z
-x,y,-z
-x,-y,-z
x,-y,z
1/2+x,1/2+y,z
1/2-x,1/2+y,-z
1/2-x,1/2-y,-z
1/2+x,1/2-y,z
loop_
_atom_site_type_symbol
_atom_site_label
_atom_site_fract_x
_atom_site_fract_y
_atom_site_fract_z
Si Si1 0.272330 0.751353 0.686235
Si Si2 0.537082 0.335700 0.217821
Si Si3 0.114600 0.665219 0.718199
Si Si4 0.734218 0.500000 0.499678
Si Si5 0.615966 0.161697 0.168164
Si Si6 0.940750 0.337047 0.113822
Si Si7 0.728054 0.834187 0.874672
Si Si8 0.449586 0.336145 0.505851
O O1 0.269634 0.621281 0.600884
O O2 0.328242 0.800745 0.754424
O O3 0.253311 0.709253 0.786872
O O4 0.241774 0.877331 0.601918
O O5 0.534775 0.500000 0.190664
O O6 0.580993 0.261499 0.201078
O O7 0.486753 0.259046 0.136265
O O8 0.545392 0.318663 0.357968
O O9 0.110096 0.500000 0.693171
O O10 0.082234 0.699395 0.791995
O O11 0.170578 0.695335 0.802326
O O12 0.093671 0.748955 0.592878
O O13 0.607833 0.000000 0.191197
O O14 0.599673 0.176499 0.023631
O O15 0.955920 0.500000 0.132107
O O16 0.733809 0.000000 0.898192
O O17 0.750000 0.750000 0.000000
O O18 0.500000 0.293120 0.500000
O O19 0.442327 0.500000 0.475062
#
# Coordination Sequence:
#
# PCOD9211319 Si02
#       8
#     8   8   8   4   8   8   8   8
#     4  11  23  47  68  96 132 174 221 277 333 392
#     4  11  24  40  61  93 129 163 208 262 316 377
#     4  10  22  40  64  95 122 164 212 257 313 375
#     4  10  24  42  72  92 130 176 220 272 338 388
#     4  11  24  42  65  93 124 169 214 260 319 384
#     4  10  21  40  64  88 126 166 208 255 311 380
#     4  11  25  44  68 101 136 172 222 274 329 395
#     4  10  21  40  61  86 127 164 204 256 317 380
#
# _framework density 18.771902000000001
#
# number of rings (size 3 to 8) (size 9 to 14) (size 15 to 20)
#    0.000    1.467    2.667    1.600    1.867    7.200 
#    2.400    0.000    0.000    0.000    0.000    0.000 
#    0.000    0.000    0.000    0.000    0.000    0.000 
#
# Total GULP energy -167117.961010 kJ/mol
# GULP energy per Si atom -5570.598700 kJ/mol
# Density = 1.872918 g / cm^3
# Si number density = 18.771902 Si / 1000 Ang^3
#
#
#
# Elastic Constant Matrix: (Units=GPa)
#
#
# Indices 1 2 3 4 5 6 
#
# 1 51.4186 18.7034 12.6769 0.0000 -0.2204 0.0000
# 2 18.7034 90.0686 46.7738 0.0000 5.8438 0.0000
# 3 12.6769 46.7738 86.7834 0.0000 2.7229 0.0000
# 4 0.0000 0.0000 0.0000 40.8825 0.0000 3.0221
# 5 -0.2204 5.8438 2.7229 0.0000 12.8992 0.0000
# 6 0.0000 0.0000 0.0000 3.0221 0.0000 20.3035
#
#
#
# Elastic Compliance Matrix: (Units=1/GPa)
#
#
# Indices 1 2 3 4 5 6 
#
# 1 0.021172 -0.004037 -0.000992 0.000000 0.002400 0.000000
# 2 -0.004037 0.016552 -0.008148 0.000000 -0.005848 0.000000
# 3 -0.000992 -0.008148 0.016050 0.000000 0.000286 0.000000
# 4 0.000000 0.000000 0.000000 0.024732 0.000000 -0.003681
# 5 0.002400 -0.005848 0.000286 0.000000 0.080154 0.000000
# 6 0.000000 0.000000 0.000000 -0.003681 0.000000 0.049800
#
#
# Mechanical properties :
#
#
# Convention : Reuss Voigt Hill
#
# Bulk Modulus (GPa) = 36.46990 42.73099 39.60045
# Shear Modulus (GPa) = 20.49570 24.82481 22.66025
#
# Velocity S-wave (km/s) = 3.30787 3.64049 3.47816
# Velocity P-wave (km/s) = 5.83604 6.36267 6.10504
#
# Compressibility (1/GPa) = 0.02741987
#
# Stress axis : x y z
#
# Youngs Moduli (GPa) = 47.23318 60.41741 62.30436
#
# Poissons Ratio (x) = 0.24390 0.06182
# Poissons Ratio (y) = 0.19068 0.50763
# Poissons Ratio (z) = 0.04686 0.49226
#
# Static dielectric constant tensor:
#      x y z
#    x 1.613150 0.000000 0.015790 
#    y 0.000000 1.627030 0.000000 
#    z 0.015790 0.000000 1.620370 
# 
# From -- ./inp_files/187670.got.cif
#   From: 2010.05.17/outbox.cif.g08.bks.cpg/sg12_94_cif.got.tgz:187670.got - 2010.06.03 13:09:07.
