data_PCOD9211124
_publ_section_title
;
Structure prediction by ZEFSAII (Michael W. Deem and Ramdas Pophale) SiO2 
 PCOD9211124
Probable space group: C 2/M
;
_chemical_formula_sum "Si O2"
_cell_formula_units_Z 54
_cell_length_a 18.371070
_cell_length_b 15.501654
_cell_length_c 11.660234
_cell_angle_alpha 90.000000
_cell_angle_beta 48.341062
_cell_angle_gamma 90.000000
_cell_volume 2480.887446
_symmetry_space_group_name_H-M "C 2/M"
_symmetry_group_IT_number 12
_symmetry_cell_setting 'monoclinic'
loop_
_space_group_symop_operation_xyz
x,y,z
-x,y,-z
-x,-y,-z
x,-y,z
1/2+x,1/2+y,z
1/2-x,1/2+y,-z
1/2-x,1/2-y,-z
1/2+x,1/2-y,z
loop_
_atom_site_type_symbol
_atom_site_label
_atom_site_fract_x
_atom_site_fract_y
_atom_site_fract_z
Si Si1 0.298174 0.340909 0.592705
Si Si2 0.610348 0.196202 0.662601
Si Si3 0.950355 0.344342 0.672309
Si Si4 0.227966 0.101496 0.906214
Si Si5 0.098872 0.855496 0.835799
Si Si6 0.366854 0.500000 0.392214
Si Si7 0.624571 0.652134 0.250452
Si Si8 0.500000 0.500000 0.500000
O O1 0.342182 0.253774 0.490233
O O2 0.196036 0.355712 0.635132
O O3 0.360467 0.425003 0.497822
O O4 0.296418 0.334679 0.730944
O O5 0.525363 0.139324 0.697362
O O6 0.578444 0.266478 0.790481
O O7 0.843549 0.384449 0.794128
O O8 0.935054 0.240937 0.692362
O O9 0.000000 0.368796 0.500000
O O10 0.182167 0.149773 0.844585
O O11 0.207007 0.000000 0.913250
O O12 0.174936 0.133601 0.076642
O O13 0.129370 0.924522 0.709643
O O14 0.000000 0.884399 0.000000
O O15 0.555500 0.575173 0.362071
#
# Coordination Sequence:
#
# PCOD9211124 Si02
#       8
#     8   8   8   8   8   4   8   2
#     4  10  21  39  66  95 127 169 219 287 332 396
#     4  10  22  41  65  95 128 172 233 274 332 405
#     4  12  25  44  70  99 138 185 234 277 346 423
#     4  12  28  45  67 102 146 188 228 285 345 417
#     4  11  23  42  67  96 134 173 219 283 350 404
#     4  10  22  35  62  97 130 157 215 272 347 393
#     4  12  23  44  68 104 138 171 227 291 363 413
#     4  12  22  38  76 102 134 168 220 304 364 408
#
# _framework density 21.766404000000001
#
# number of rings (size 3 to 8) (size 9 to 14) (size 15 to 20)
#    0.000    0.889    3.704    2.889    4.148    5.037 
#    1.333    0.000    0.000    0.889    0.000    0.000 
#    0.000    0.000    0.000    0.000    0.000    0.000 
#
# Total GULP energy -150374.301413 kJ/mol
# GULP energy per Si atom -5569.418571 kJ/mol
# Density = 2.171686 g / cm^3
# Si number density = 21.766404 Si / 1000 Ang^3
#
#
#
# Elastic Constant Matrix: (Units=GPa)
#
#
# Indices 1 2 3 4 5 6 
#
# 1 149.6319 0.1017 20.4217 0.0000 -2.3502 0.0000
# 2 0.1017 35.2383 -2.4290 0.0000 6.5328 0.0000
# 3 20.4217 -2.4290 86.3849 0.0000 12.3662 0.0000
# 4 0.0000 0.0000 0.0000 18.1737 0.0000 -2.2514
# 5 -2.3502 6.5328 12.3662 0.0000 35.2422 0.0000
# 6 0.0000 0.0000 0.0000 -2.2514 0.0000 -1.1288
#
#
#
# Elastic Compliance Matrix: (Units=1/GPa)
#
#
# Indices 1 2 3 4 5 6 
#
# 1 0.006950 -0.000362 -0.001821 0.000000 0.001170 0.000000
# 2 -0.000362 0.029644 0.001800 0.000000 -0.006151 0.000000
# 3 -0.001821 0.001800 0.012763 0.000000 -0.004934 0.000000
# 4 0.000000 0.000000 0.000000 0.044122 0.000000 -0.088004
# 5 0.001170 -0.006151 -0.004934 0.000000 0.031324 0.000000
# 6 0.000000 0.000000 0.000000 -0.088004 0.000000 -0.710378
#
#
# Mechanical properties :
#
#
# Convention : Reuss Voigt Hill
#
# Bulk Modulus (GPa) = 20.58020 34.16045 27.37032
# Shear Modulus (GPa) = -8.79337 27.33480 9.27071
#
# Velocity S-wave (km/s) = -2.01213 3.54761 2.06602
# Velocity P-wave (km/s) = 2.01925 5.70166 4.27704
#
# Compressibility (1/GPa) = 0.04859040
#
# Stress axis : x y z
#
# Youngs Moduli (GPa) = 143.88153 33.73413 78.34930
#
# Poissons Ratio (x) = 0.01222 0.14265
# Poissons Ratio (y) = 0.05214 -0.14100
# Poissons Ratio (z) = 0.26196 -0.06071
#
# Static dielectric constant tensor:
#      x y z
#    x 1.944670 0.000000 -0.045540 
#    y 0.000000 1.769590 0.000000 
#    z -0.045540 0.000000 1.765900 
# 
# From -- ./inp_files/158256.got.cif
#   From: 2010.05.17/outbox.cif.g08.bks.cpg/sg12_80_cif.got.tgz:158256.got - 2010.06.03 13:09:07.
