data_PCOD9211957
_publ_section_title
;
Structure prediction by ZEFSAII (Michael W. Deem and Ramdas Pophale) SiO2 
 PCOD9211957
Probable space group: C 2/M
;
_chemical_formula_sum "Si O2"
_cell_formula_units_Z 28
_cell_length_a 11.003254
_cell_length_b 19.182375
_cell_length_c 5.366780
_cell_angle_alpha 90.000000
_cell_angle_beta 99.965035
_cell_angle_gamma 90.000000
_cell_volume 1115.669127
_symmetry_space_group_name_H-M "C 2/M"
_symmetry_group_IT_number 12
_symmetry_cell_setting 'monoclinic'
loop_
_space_group_symop_operation_xyz
x,y,z
-x,y,-z
-x,-y,-z
x,-y,z
1/2+x,1/2+y,z
1/2-x,1/2+y,-z
1/2-x,1/2-y,-z
1/2+x,1/2-y,z
loop_
_atom_site_type_symbol
_atom_site_label
_atom_site_fract_x
_atom_site_fract_y
_atom_site_fract_z
Si Si1 0.287525 0.424975 0.592001
Si Si2 0.000000 0.108384 0.000000
Si Si3 0.916443 0.644208 0.221884
Si Si4 0.630479 0.299010 0.693431
O O1 0.264792 0.500000 0.455008
O O2 0.425416 0.428727 0.756307
O O3 0.186310 0.414880 0.773329
O O4 0.283900 0.353300 0.428335
O O5 0.897439 0.158810 0.070931
O O6 0.848257 0.719578 0.220802
O O7 0.000000 0.638096 0.500000
O O8 0.000000 0.641740 0.000000
O O9 0.500000 0.295531 0.500000
#
# Coordination Sequence:
#
# PCOD9211957 Si02
#       4
#     8   4   8   8
#     4  11  25  41  66 100 138 179 221 281 344 406
#     4  10  21  40  68  96 129 174 228 282 337 396
#     4  11  25  46  72 100 135 180 232 278 332 403
#     4   9  20  41  66  98 128 173 228 283 336 390
#
# _framework density 25.097045000000001
#
# number of rings (size 3 to 8) (size 9 to 14) (size 15 to 20)
#    0.000    1.714    1.429    1.286    4.000    8.571 
#    0.000    0.000    0.000    0.000    0.000    0.000 
#    0.000    0.000    0.000    0.000    0.000    0.000 
#
# Total GULP energy -78057.664024 kJ/mol
# GULP energy per Si atom -5575.547430 kJ/mol
# Density = 2.503992 g / cm^3
# Si number density = 25.097045 Si / 1000 Ang^3
#
#
#
# Elastic Constant Matrix: (Units=GPa)
#
#
# Indices 1 2 3 4 5 6 
#
# 1 99.4344 47.9588 41.5223 0.0000 -12.6258 0.0000
# 2 47.9588 100.0288 8.0411 0.0000 -34.9708 0.0000
# 3 41.5223 8.0411 98.5010 0.0000 -29.3860 0.0000
# 4 0.0000 0.0000 0.0000 -17.0763 0.0000 22.9171
# 5 -12.6258 -34.9708 -29.3860 0.0000 56.0462 0.0000
# 6 0.0000 0.0000 0.0000 22.9171 0.0000 10.3457
#
#
#
# Elastic Compliance Matrix: (Units=1/GPa)
#
#
# Indices 1 2 3 4 5 6 
#
# 1 0.017762 -0.010252 -0.008731 0.000000 -0.006973 0.000000
# 2 -0.010252 0.018916 0.006650 0.000000 0.012980 0.000000
# 3 -0.008731 0.006650 0.016526 0.000000 0.010847 0.000000
# 4 0.000000 0.000000 0.000000 -0.014740 0.000000 0.032652
# 5 -0.006973 0.012980 0.010847 0.000000 0.030058 0.000000
# 6 0.000000 0.000000 0.000000 0.032652 0.000000 0.024330
#
#
# Mechanical properties :
#
#
# Convention : Reuss Voigt Hill
#
# Bulk Modulus (GPa) = 35.04190 54.77874 44.91032
# Shear Modulus (GPa) = 39.36073 23.22590 31.29332
#
# Velocity S-wave (km/s) = 3.96453 3.04541 3.53497
# Velocity P-wave (km/s) = 5.91181 5.85151 5.88174
#
# Compressibility (1/GPa) = 0.02853726
#
# Stress axis : x y z
#
# Youngs Moduli (GPa) = 56.29966 52.86587 60.51131
#
# Poissons Ratio (x) = 0.54199 0.52832
# Poissons Ratio (y) = 0.57719 -0.40239
# Poissons Ratio (z) = 0.49155 -0.35155
#
# Static dielectric constant tensor:
#      x y z
#    x 2.055380 0.000000 0.034230 
#    y 0.000000 2.000420 0.000000 
#    z 0.034230 0.000000 2.071510 
# 
# From -- ./inp_files/5725.got.cif
#   From: 2010.05.17/outbox.cif.g08.bks.cpg/sg12_3_cif.got.tgz:5725.got - 2010.06.03 13:09:07.
