data_PCOD9211050
_publ_section_title
;
Structure prediction by ZEFSAII (Michael W. Deem and Ramdas Pophale) SiO2 
 PCOD9211050
Probable space group: C 2/M
;
_chemical_formula_sum "Si O2"
_cell_formula_units_Z 64
_cell_length_a 33.794994
_cell_length_b 8.652237
_cell_length_c 16.481613
_cell_angle_alpha 90.000000
_cell_angle_beta 42.378786
_cell_angle_gamma 90.000000
_cell_volume 3248.321654
_symmetry_space_group_name_H-M "C 2/M"
_symmetry_group_IT_number 12
_symmetry_cell_setting 'monoclinic'
loop_
_space_group_symop_operation_xyz
x,y,z
-x,y,-z
-x,-y,-z
x,-y,z
1/2+x,1/2+y,z
1/2-x,1/2+y,-z
1/2-x,1/2-y,-z
1/2+x,1/2-y,z
loop_
_atom_site_type_symbol
_atom_site_label
_atom_site_fract_x
_atom_site_fract_y
_atom_site_fract_z
Si Si1 0.657276 0.316307 0.793583
Si Si2 0.485288 0.812048 0.275874
Si Si3 0.383781 0.184558 0.305309
Si Si4 0.615986 0.185681 0.028671
Si Si5 0.176122 0.818344 0.307544
Si Si6 0.050066 0.313126 0.488859
Si Si7 0.775099 0.182826 0.045292
Si Si8 0.713602 0.682381 0.434087
O O1 0.662213 0.500000 0.789844
O O2 0.615692 0.264478 0.782746
O O3 0.634750 0.252278 0.913273
O O4 0.720927 0.244489 0.677262
O O5 0.436530 0.763344 0.284406
O O6 0.468831 0.763648 0.391919
O O7 0.484702 0.000000 0.277200
O O8 0.550526 0.763571 0.151988
O O9 0.323403 0.229500 0.441988
O O10 0.386726 0.000000 0.290801
O O11 0.663495 0.241435 0.022129
O O12 0.617398 0.000000 0.022314
O O13 0.112794 0.761005 0.374605
O O14 0.227891 0.725196 0.186020
O O15 0.181337 0.796079 0.396406
O O16 0.184331 0.000000 0.278026
O O17 0.056383 0.500000 0.478752
O O18 0.000000 0.272251 0.500000
O O19 0.781996 0.000000 0.028787
O O20 0.750000 0.250000 0.000000
O O21 0.715181 0.500000 0.450648
#
# Coordination Sequence:
#
# PCOD9211050 Si02
#       8
#     8   8   8   8   8   8   8   8
#     4  12  25  41  62  91 125 165 210 258 317 376
#     4   9  21  40  63  91 124 165 209 253 310 376
#     4  11  22  40  65  92 124 163 209 258 311 377
#     4  11  23  43  66  92 126 165 212 261 310 373
#     4  11  23  40  65  96 130 167 208 259 313 368
#     4  10  21  39  65  96 128 167 211 256 310 377
#     4  12  26  44  67  96 129 168 211 260 315 374
#     4  11  22  39  63  93 128 164 204 257 315 372
#
# _framework density 19.702483999999998
#
# number of rings (size 3 to 8) (size 9 to 14) (size 15 to 20)
#    0.000    1.125    2.500    4.125    1.750    1.750 
#    0.000    6.250    0.000    0.000    0.000    0.000 
#    0.000    0.000    0.000    0.000    0.000    0.000 
#
# Total GULP energy -179023.339306 kJ/mol
# GULP energy per Si atom -5594.479353 kJ/mol
# Density = 1.965764 g / cm^3
# Si number density = 19.702484 Si / 1000 Ang^3
#
#
#
# Elastic Constant Matrix: (Units=GPa)
#
#
# Indices 1 2 3 4 5 6 
#
# 1 113.8826 12.1555 18.5211 0.0001 -4.4957 0.0000
# 2 12.1555 49.4101 -5.0642 -0.0007 3.1829 -0.0001
# 3 18.5211 -5.0642 55.2568 0.0000 -13.7687 0.0000
# 4 0.0001 -0.0007 0.0000 30.2342 0.0000 0.9323
# 5 -4.4957 3.1829 -13.7687 0.0000 34.0164 0.0000
# 6 0.0000 -0.0001 0.0000 0.9323 0.0000 30.0143
#
#
#
# Elastic Compliance Matrix: (Units=1/GPa)
#
#
# Indices 1 2 3 4 5 6 
#
# 1 0.009639 -0.002733 -0.003448 0.000000 0.000134 0.000000
# 2 -0.002733 0.021256 0.002534 0.000001 -0.001324 0.000000
# 3 -0.003448 0.002534 0.021479 0.000000 0.008001 0.000000
# 4 0.000000 0.000001 0.000000 0.033107 0.000000 -0.001028
# 5 0.000134 -0.001324 0.008001 0.000000 0.032778 0.000000
# 6 0.000000 0.000000 0.000000 -0.001028 0.000000 0.033349
#
#
# Mechanical properties :
#
#
# Convention : Reuss Voigt Hill
#
# Bulk Modulus (GPa) = 22.18269 29.97492 26.07881
# Shear Modulus (GPa) = 28.74747 31.71547 30.23147
#
# Velocity S-wave (km/s) = 3.82393 4.01648 3.92139
# Velocity P-wave (km/s) = 5.54796 6.06270 5.81103
#
# Compressibility (1/GPa) = 0.04508019
#
# Stress axis : x y z
#
# Youngs Moduli (GPa) = 103.74799 47.04504 46.55722
#
# Poissons Ratio (x) = 0.12859 0.16052
# Poissons Ratio (y) = 0.28357 -0.11799
# Poissons Ratio (z) = 0.35771 -0.11922
#
# Static dielectric constant tensor:
#      x y z
#    x 1.691490 0.000000 0.011290 
#    y 0.000000 1.662420 0.000000 
#    z 0.011290 0.000000 1.664760 
# 
# From -- ./inp_files/249836.got.cif
#   From: 2010.05.17/outbox.cif.g08.bks.cpg/sg12_125_cif.got.tgz:249836.got - 2010.06.03 13:09:07.
