data_PCOD9211879
_publ_section_title
;
Structure prediction by ZEFSAII (Michael W. Deem and Ramdas Pophale) SiO2 
 PCOD9211879
Probable space group: C 2/M
;
_chemical_formula_sum "Si O2"
_cell_formula_units_Z 40
_cell_length_a 23.117535
_cell_length_b 15.476902
_cell_length_c 8.678776
_cell_angle_alpha 90.000000
_cell_angle_beta 35.546948
_cell_angle_gamma 90.000000
_cell_volume 1805.246606
_symmetry_space_group_name_H-M "C 2/M"
_symmetry_group_IT_number 12
_symmetry_cell_setting 'monoclinic'
loop_
_space_group_symop_operation_xyz
x,y,z
-x,y,-z
-x,-y,-z
x,-y,z
1/2+x,1/2+y,z
1/2-x,1/2+y,-z
1/2-x,1/2-y,-z
1/2+x,1/2-y,z
loop_
_atom_site_type_symbol
_atom_site_label
_atom_site_fract_x
_atom_site_fract_y
_atom_site_fract_z
Si Si1 0.724482 0.398749 0.348255
Si Si2 0.546013 0.324193 0.573981
Si Si3 0.596878 0.096468 0.212242
Si Si4 0.149009 0.105827 0.847850
Si Si5 0.298897 0.817130 0.770302
O O1 0.744198 0.500000 0.318273
O O2 0.640033 0.386734 0.401611
O O3 0.680371 0.370303 0.606244
O O4 0.833337 0.360144 0.068275
O O5 0.500000 0.326028 0.500000
O O6 0.601667 0.234270 0.497841
O O7 0.458059 0.356189 0.874478
O O8 0.500000 0.137358 0.500000
O O9 0.670320 0.099480 0.198495
O O10 0.568166 0.000000 0.225947
O O11 0.227180 0.151398 0.792716
O O12 0.148312 0.000000 0.863444
O O13 0.250000 0.750000 0.000000
#
# Coordination Sequence:
#
# PCOD9211879 Si02
#       5
#     8   8   8   8   8
#     4  10  22  42  66  98 135 175 227 280 335 402
#     4  12  23  39  66  99 133 175 221 280 333 396
#     4  10  21  40  67  91 124 175 227 273 326 399
#     4  11  25  45  69  98 137 181 224 275 340 406
#     4  12  23  41  63  95 133 174 219 279 328 399
#
# _framework density 22.157637999999999
#
# number of rings (size 3 to 8) (size 9 to 14) (size 15 to 20)
#    0.000    1.000    4.000    2.400    0.000    5.600 
#    0.000    3.000    0.000    4.800    0.000    0.000 
#    0.000    0.000    0.000    0.000    0.000    0.000 
#
# Total GULP energy -111370.597407 kJ/mol
# GULP energy per Si atom -5568.529870 kJ/mol
# Density = 2.210721 g / cm^3
# Si number density = 22.157638 Si / 1000 Ang^3
#
#
#
# Elastic Constant Matrix: (Units=GPa)
#
#
# Indices 1 2 3 4 5 6 
#
# 1 95.6068 17.1279 67.7126 0.0000 -13.0766 0.0000
# 2 17.1279 75.6378 38.9307 0.0000 4.0887 0.0000
# 3 67.7126 38.9307 236.6270 0.0000 -8.5520 0.0000
# 4 0.0000 0.0000 0.0000 18.7970 0.0000 -3.3703
# 5 -13.0766 4.0887 -8.5520 0.0000 25.1328 0.0000
# 6 0.0000 0.0000 0.0000 -3.3703 0.0000 35.0798
#
#
#
# Elastic Compliance Matrix: (Units=1/GPa)
#
#
# Indices 1 2 3 4 5 6 
#
# 1 0.014153 -0.001736 -0.003532 0.000000 0.006444 0.000000
# 2 -0.001736 0.014915 -0.002103 0.000000 -0.004045 0.000000
# 3 -0.003532 -0.002103 0.005598 0.000000 0.000409 0.000000
# 4 0.000000 0.000000 0.000000 0.054133 0.000000 0.005201
# 5 0.006444 -0.004045 0.000409 0.000000 0.043939 0.000000
# 6 0.000000 0.000000 0.000000 0.005201 0.000000 0.029006
#
#
# Mechanical properties :
#
#
# Convention : Reuss Voigt Hill
#
# Bulk Modulus (GPa) = 50.18916 72.82380 61.50648
# Shear Modulus (GPa) = 27.30357 34.74195 31.02276
#
# Velocity S-wave (km/s) = 3.51414 3.96402 3.74584
# Velocity P-wave (km/s) = 6.25825 7.34091 6.82109
#
# Compressibility (1/GPa) = 0.01992462
#
# Stress axis : x y z
#
# Youngs Moduli (GPa) = 70.65603 67.04553 178.65100
#
# Poissons Ratio (x) = 0.11636 0.63092
# Poissons Ratio (y) = 0.12263 0.37578
# Poissons Ratio (z) = 0.24953 0.14103
#
# Static dielectric constant tensor:
#      x y z
#    x 1.801920 0.000000 -0.018750 
#    y 0.000000 1.862560 0.000000 
#    z -0.018750 0.000000 1.937140 
# 
# From -- ./inp_files/47068.got.cif
#   From: 2010.05.17/outbox.cif.g08.bks.cpg/sg12_24_cif.got.tgz:47068.got - 2010.06.03 13:09:07.
