data_PCOD9211884
_publ_section_title
;
Structure prediction by ZEFSAII (Michael W. Deem and Ramdas Pophale) SiO2 
 PCOD9211884
Probable space group: C 2/M
;
_chemical_formula_sum "Si O2"
_cell_formula_units_Z 56
_cell_length_a 19.283795
_cell_length_b 13.732818
_cell_length_c 14.220789
_cell_angle_alpha 90.000000
_cell_angle_beta 42.117633
_cell_angle_gamma 90.000000
_cell_volume 2525.660584
_symmetry_space_group_name_H-M "C 2/M"
_symmetry_group_IT_number 12
_symmetry_cell_setting 'monoclinic'
loop_
_space_group_symop_operation_xyz
x,y,z
-x,y,-z
-x,-y,-z
x,-y,z
1/2+x,1/2+y,z
1/2-x,1/2+y,-z
1/2-x,1/2-y,-z
1/2+x,1/2-y,z
loop_
_atom_site_type_symbol
_atom_site_label
_atom_site_fract_x
_atom_site_fract_y
_atom_site_fract_z
Si Si1 0.949223 0.885693 0.809175
Si Si2 0.402510 0.264460 0.040252
Si Si3 0.232726 0.789822 0.661169
Si Si4 0.276126 0.887486 0.048719
Si Si5 0.456282 0.291823 0.455455
Si Si6 0.837261 0.608220 0.387556
Si Si7 0.946597 0.392207 0.720302
O O1 0.841497 0.866939 0.861765
O O2 0.036626 0.848008 0.650191
O O3 0.958258 0.000000 0.817380
O O4 0.943580 0.827417 0.911734
O O5 0.335106 0.325088 0.183447
O O6 0.327280 0.182806 0.073168
O O7 0.500000 0.223696 0.000000
O O8 0.341641 0.746302 0.585519
O O9 0.176906 0.697512 0.668731
O O10 0.262985 0.867820 0.551181
O O11 0.283303 0.000000 0.071962
O O12 0.344775 0.877963 0.884911
O O13 0.500000 0.350580 0.500000
O O14 0.530758 0.197672 0.369407
O O15 0.815779 0.500000 0.371389
O O16 0.954488 0.609038 0.308951
O O17 0.942841 0.500000 0.679789
#
# Coordination Sequence:
#
# PCOD9211884 Si02
#       7
#     8   8   8   8   8   8   8
#     4  11  26  45  66  94 134 181 223 266 319 388
#     4  12  25  41  67  99 133 171 215 274 331 391
#     4  10  23  37  60  93 120 163 217 253 318 383
#     4  10  21  40  67  93 126 168 214 270 329 384
#     4  11  23  40  64  91 125 172 216 271 316 380
#     4   9  19  38  60  85 123 162 205 262 316 377
#     4   9  18  35  62  93 120 154 203 264 331 380
#
# _framework density 22.172416999999999
#
# number of rings (size 3 to 8) (size 9 to 14) (size 15 to 20)
#    0.000    1.714    1.429    2.143    6.000    2.857 
#    0.000    0.000    0.000    0.000    0.000    0.000 
#    0.000    0.000    0.000    0.000    0.000    0.000 
#
# Total GULP energy -156584.040610 kJ/mol
# GULP energy per Si atom -5592.287165 kJ/mol
# Density = 2.212195 g / cm^3
# Si number density = 22.172417 Si / 1000 Ang^3
#
#
#
# Elastic Constant Matrix: (Units=GPa)
#
#
# Indices 1 2 3 4 5 6 
#
# 1 70.4524 13.3973 6.8345 0.0000 6.5509 0.0000
# 2 13.3973 71.1361 -12.2177 0.0000 6.3234 0.0000
# 3 6.8345 -12.2177 75.9086 0.0000 6.4956 0.0000
# 4 0.0000 0.0000 0.0000 9.9077 0.0000 -3.9831
# 5 6.5509 6.3234 6.4956 0.0000 30.3954 0.0000
# 6 0.0000 0.0000 0.0000 -3.9831 0.0000 13.8006
#
#
#
# Elastic Compliance Matrix: (Units=1/GPa)
#
#
# Indices 1 2 3 4 5 6 
#
# 1 0.015123 -0.002924 -0.001635 0.000000 -0.002301 0.000000
# 2 -0.002924 0.015413 0.003020 0.000000 -0.003222 0.000000
# 3 -0.001635 0.003020 0.014088 0.000000 -0.003286 0.000000
# 4 0.000000 0.000000 0.000000 0.114179 0.000000 0.032954
# 5 -0.002301 -0.003222 -0.003286 0.000000 0.034768 0.000000
# 6 0.000000 0.000000 0.000000 0.032954 0.000000 0.081972
#
#
# Mechanical properties :
#
#
# Convention : Reuss Voigt Hill
#
# Bulk Modulus (GPa) = 24.07062 25.94726 25.00894
# Shear Modulus (GPa) = 17.09567 24.78628 20.94098
#
# Velocity S-wave (km/s) = 2.77976 3.34711 3.07654
# Velocity P-wave (km/s) = 4.60244 5.16386 4.89121
#
# Compressibility (1/GPa) = 0.04154443
#
# Stress axis : x y z
#
# Youngs Moduli (GPa) = 66.12564 64.87878 70.98112
#
# Poissons Ratio (x) = 0.18973 0.11608
# Poissons Ratio (y) = 0.19338 -0.21435
# Poissons Ratio (z) = 0.10814 -0.19592
#
# Static dielectric constant tensor:
#      x y z
#    x 1.842860 0.000000 -0.007870 
#    y 0.000000 1.794100 0.000000 
#    z -0.007870 0.000000 1.836130 
# 
# From -- ./inp_files/233673.got.cif
#   From: 2010.05.17/outbox.cif.g08.bks.cpg/sg12_117_cif.got.tgz:233673.got - 2010.06.03 13:09:07.
