data_PCOD9211782
_publ_section_title
;
Structure prediction by ZEFSAII (Michael W. Deem and Ramdas Pophale) SiO2 
 PCOD9211782
Probable space group: C 2/M
;
_chemical_formula_sum "Si O2"
_cell_formula_units_Z 48
_cell_length_a 23.981865
_cell_length_b 16.260194
_cell_length_c 15.066947
_cell_angle_alpha 90.000000
_cell_angle_beta 159.953254
_cell_angle_gamma 90.000000
_cell_volume 2013.992727
_symmetry_space_group_name_H-M "C 2/M"
_symmetry_group_IT_number 12
_symmetry_cell_setting 'monoclinic'
loop_
_space_group_symop_operation_xyz
x,y,z
-x,y,-z
-x,-y,-z
x,-y,z
1/2+x,1/2+y,z
1/2-x,1/2+y,-z
1/2-x,1/2-y,-z
1/2+x,1/2-y,z
loop_
_atom_site_type_symbol
_atom_site_label
_atom_site_fract_x
_atom_site_fract_y
_atom_site_fract_z
Si Si1 0.030340 0.365978 0.783514
Si Si2 0.864650 0.819416 0.220959
Si Si3 0.617179 0.088134 0.093104
Si Si4 0.978590 0.900007 0.072214
Si Si5 0.092968 0.178748 0.410611
Si Si6 0.639146 0.908729 0.643690
O O1 0.959277 0.273483 0.675911
O O2 0.948684 0.412554 0.581583
O O3 0.224290 0.370295 0.058668
O O4 0.003944 0.403546 0.838903
O O5 0.000000 0.799508 0.500000
O O6 0.959319 0.858571 0.279291
O O7 0.750000 0.750000 0.000000
O O8 0.739077 0.163771 0.287239
O O9 0.707310 0.000000 0.224618
O O10 0.500000 0.087917 0.000000
O O11 0.104920 0.863357 0.332062
O O12 0.978789 0.000000 0.073487
O O13 0.810777 0.870180 0.870446
O O14 0.000000 0.875764 0.000000
O O15 0.500000 0.871535 0.500000
O O16 0.673547 0.000000 0.731612
#
# Coordination Sequence:
#
# PCOD9211782 Si02
#       6
#     8   8   8   8   8   8
#     4  11  24  40  69  99 134 169 224 278 341 405
#     4  10  21  40  65  98 137 177 218 275 349 410
#     4  11  26  46  66  93 136 184 227 275 342 412
#     4  10  23  42  66  94 128 171 223 282 344 411
#     4  11  24  41  69  97 132 173 223 280 341 415
#     4  10  22  42  67  95 130 176 225 277 340 413
#
# _framework density 23.833252999999999
#
# number of rings (size 3 to 8) (size 9 to 14) (size 15 to 20)
#    0.000    1.500    1.667    2.000    4.667    5.333 
#    0.000    3.333    0.000    0.000    0.000    0.000 
#    0.000    0.000    0.000    0.000    0.000    0.000 
#
# Total GULP energy -133844.453456 kJ/mol
# GULP energy per Si atom -5576.852227 kJ/mol
# Density = 2.377901 g / cm^3
# Si number density = 23.833253 Si / 1000 Ang^3
#
#
#
# Elastic Constant Matrix: (Units=GPa)
#
#
# Indices 1 2 3 4 5 6 
#
# 1 152.3239 19.3779 11.6130 0.0000 -28.9399 0.0000
# 2 19.3779 62.4950 4.4818 0.0000 4.2049 0.0000
# 3 11.6130 4.4818 79.0637 0.0000 -16.5978 0.0000
# 4 0.0000 0.0000 0.0000 20.1963 0.0000 -7.7994
# 5 -28.9399 4.2049 -16.5978 0.0000 46.8084 0.0000
# 6 0.0000 0.0000 0.0000 -7.7994 0.0000 10.1196
#
#
#
# Elastic Compliance Matrix: (Units=1/GPa)
#
#
# Indices 1 2 3 4 5 6 
#
# 1 0.007896 -0.002802 0.000083 0.000000 0.005163 0.000000
# 2 -0.002802 0.017220 -0.001354 0.000000 -0.003759 0.000000
# 3 0.000083 -0.001354 0.013774 0.000000 0.005057 0.000000
# 4 0.000000 0.000000 0.000000 0.070497 0.000000 0.054334
# 5 0.005163 -0.003759 0.005057 0.000000 0.026687 0.000000
# 6 0.000000 0.000000 0.000000 0.054334 0.000000 0.140695
#
#
# Mechanical properties :
#
#
# Convention : Reuss Voigt Hill
#
# Bulk Modulus (GPa) = 32.52545 40.53644 36.53095
# Shear Modulus (GPa) = 16.93988 32.65217 24.79602
#
# Velocity S-wave (km/s) = 2.66891 3.70540 3.22902
# Velocity P-wave (km/s) = 4.81396 5.94575 5.40953
#
# Compressibility (1/GPa) = 0.03074515
#
# Stress axis : x y z
#
# Youngs Moduli (GPa) = 126.64753 58.07204 72.59934
#
# Poissons Ratio (x) = 0.16270 -0.00602
# Poissons Ratio (y) = 0.35482 0.09828
# Poissons Ratio (z) = -0.01050 0.07862
#
# Static dielectric constant tensor:
#      x y z
#    x 1.980080 0.000000 0.048390 
#    y 0.000000 1.859300 0.000000 
#    z 0.048390 0.000000 2.288370 
# 
# From -- ./inp_files/241876.got.cif
#   From: 2010.05.17/outbox.cif.g08.bks.cpg/sg12_121_cif.got.tgz:241876.got - 2010.06.03 13:09:07.
