data_PCOD9211699
_publ_section_title
;
Structure prediction by ZEFSAII (Michael W. Deem and Ramdas Pophale) SiO2 
 PCOD9211699
Probable space group: C 2/M
;
_chemical_formula_sum "Si O2"
_cell_formula_units_Z 40
_cell_length_a 28.158218
_cell_length_b 8.954830
_cell_length_c 7.320570
_cell_angle_alpha 90.000000
_cell_angle_beta 78.070818
_cell_angle_gamma 90.000000
_cell_volume 1806.032478
_symmetry_space_group_name_H-M "C 2/M"
_symmetry_group_IT_number 12
_symmetry_cell_setting 'monoclinic'
loop_
_space_group_symop_operation_xyz
x,y,z
-x,y,-z
-x,-y,-z
x,-y,z
1/2+x,1/2+y,z
1/2-x,1/2+y,-z
1/2-x,1/2-y,-z
1/2+x,1/2-y,z
loop_
_atom_site_type_symbol
_atom_site_label
_atom_site_fract_x
_atom_site_fract_y
_atom_site_fract_z
Si Si1 0.359677 0.325195 0.236374
Si Si2 0.667817 0.823290 0.090110
Si Si3 0.565392 0.678990 0.276635
Si Si4 0.286806 0.672984 0.609884
Si Si5 0.038825 0.821349 0.724537
O O1 0.359585 0.500000 0.181947
O O2 0.337454 0.319909 0.456375
O O3 0.414878 0.265950 0.199211
O O4 0.327120 0.235177 0.120162
O O5 0.614163 0.763811 0.187315
O O6 0.704957 0.752706 0.204718
O O7 0.670422 0.000000 0.096929
O O8 0.571968 0.500000 0.242591
O O9 0.516562 0.729924 0.208757
O O10 0.552781 0.699530 0.500493
O O11 0.274284 0.500000 0.647048
O O12 0.250000 0.750000 0.500000
O O13 0.037486 0.000000 0.756550
#
# Coordination Sequence:
#
# PCOD9211699 Si02
#       5
#     8   8   8   8   8
#     4  10  21  40  65  91 119 159 207 251 296 355
#     4  12  25  39  59  91 129 165 200 244 301 364
#     4   9  16  33  60  88 119 159 208 254 294 348
#     4  11  24  45  71  93 118 153 198 254 310 363
#     4   8  15  31  60  90 116 155 209 255 293 347
#
# _framework density 22.147995999999999
#
# number of rings (size 3 to 8) (size 9 to 14) (size 15 to 20)
#    0.000    2.000    2.000    3.600    0.000    3.200 
#    0.000    7.000    0.000    0.000    0.000    0.000 
#    0.000    0.000    0.000    0.000    0.000    0.000 
#
# Total GULP energy -111798.517241 kJ/mol
# GULP energy per Si atom -5589.925862 kJ/mol
# Density = 2.209759 g / cm^3
# Si number density = 22.147996 Si / 1000 Ang^3
#
#
#
# Elastic Constant Matrix: (Units=GPa)
#
#
# Indices 1 2 3 4 5 6 
#
# 1 103.6457 32.4198 19.5477 0.0000 35.0198 0.0000
# 2 32.4198 106.8378 36.6989 0.0000 28.1209 0.0000
# 3 19.5477 36.6989 88.9835 0.0000 26.9458 0.0000
# 4 0.0000 0.0000 0.0000 5.2585 0.0000 29.9767
# 5 35.0198 28.1209 26.9458 0.0000 51.6009 0.0000
# 6 0.0000 0.0000 0.0000 29.9767 0.0000 -11.8922
#
#
#
# Elastic Compliance Matrix: (Units=1/GPa)
#
#
# Indices 1 2 3 4 5 6 
#
# 1 0.012840 -0.001957 0.000359 0.000000 -0.007835 0.000000
# 2 -0.001957 0.012057 -0.003510 0.000000 -0.003409 0.000000
# 3 0.000359 -0.003510 0.014374 0.000000 -0.005837 0.000000
# 4 0.000000 0.000000 0.000000 0.012373 0.000000 0.031189
# 5 -0.007835 -0.003409 -0.005837 0.000000 0.029603 0.000000
# 6 0.000000 0.000000 0.000000 0.031189 0.000000 -0.005471
#
#
# Mechanical properties :
#
#
# Convention : Reuss Voigt Hill
#
# Bulk Modulus (GPa) = 34.41805 52.97775 43.69790
# Shear Modulus (GPa) = 52.25853 23.04681 37.65267
#
# Velocity S-wave (km/s) = 4.86275 3.22931 4.12764
# Velocity P-wave (km/s) = 6.86311 6.15438 6.51838
#
# Compressibility (1/GPa) = 0.02905452
#
# Stress axis : x y z
#
# Youngs Moduli (GPa) = 77.88136 82.93873 69.56809
#
# Poissons Ratio (x) = 0.16235 -0.02499
# Poissons Ratio (y) = 0.15245 0.24420
# Poissons Ratio (z) = -0.02797 0.29114
#
# Static dielectric constant tensor:
#      x y z
#    x 1.870490 0.000000 -0.022070 
#    y 0.000000 1.732170 0.000000 
#    z -0.022070 0.000000 1.849470 
# 
# From -- ./inp_files/107490.got.cif
#   From: 2010.05.17/outbox.cif.g08.bks.cpg/sg12_54_cif.got.tgz:107490.got - 2010.06.03 13:09:07.
