data_PCOD9211835
_publ_section_title
;
Structure prediction by ZEFSAII (Michael W. Deem and Ramdas Pophale) SiO2 
 PCOD9211835
Probable space group: C 2/M
;
_chemical_formula_sum "Si O2"
_cell_formula_units_Z 36
_cell_length_a 17.446652
_cell_length_b 20.035014
_cell_length_c 5.294319
_cell_angle_alpha 90.000000
_cell_angle_beta 123.736831
_cell_angle_gamma 90.000000
_cell_volume 1538.951440
_symmetry_space_group_name_H-M "C 2/M"
_symmetry_group_IT_number 12
_symmetry_cell_setting 'monoclinic'
loop_
_space_group_symop_operation_xyz
x,y,z
-x,y,-z
-x,-y,-z
x,-y,z
1/2+x,1/2+y,z
1/2-x,1/2+y,-z
1/2-x,1/2-y,-z
1/2+x,1/2-y,z
loop_
_atom_site_type_symbol
_atom_site_label
_atom_site_fract_x
_atom_site_fract_y
_atom_site_fract_z
Si Si1 0.500000 0.373835 0.000000
Si Si2 0.891487 0.350078 0.237017
Si Si3 0.896924 0.199467 0.188236
Si Si4 0.145944 0.072460 0.597735
Si Si5 0.673061 0.923637 0.382618
O O1 0.580428 0.324768 0.052111
O O2 0.455698 0.419828 0.706153
O O3 0.859245 0.273450 0.144691
O O4 0.843757 0.385302 0.388124
O O5 0.000000 0.349331 0.500000
O O6 0.876268 0.388540 0.946236
O O7 0.842534 0.138803 0.216047
O O8 0.000000 0.201195 0.500000
O O9 0.220700 0.074231 0.511362
O O10 0.156842 0.000000 0.746605
O O11 0.640790 0.000000 0.351518
#
# Coordination Sequence:
#
# PCOD9211835 Si02
#       5
#     4   8   8   8   8
#     4  10  21  40  66  94 127 176 220 258 327 396
#     4  11  25  44  71  95 131 174 217 275 329 389
#     4   9  22  39  64  95 129 169 219 265 322 390
#     4  10  23  41  63  95 135 172 216 269 321 388
#     4  11  26  44  67 100 133 169 220 275 326 386
#
# _framework density 23.392551999999998
#
# number of rings (size 3 to 8) (size 9 to 14) (size 15 to 20)
#    0.000    1.778    0.000    1.667   12.444    9.333 
#    0.000    0.000    0.000    0.000    0.000    0.000 
#    0.000    0.000    0.000    0.000    0.000    0.000 
#
# Total GULP energy -100640.739348 kJ/mol
# GULP energy per Si atom -5591.152186 kJ/mol
# Density = 2.333931 g / cm^3
# Si number density = 23.392552 Si / 1000 Ang^3
#
#
#
# Elastic Constant Matrix: (Units=GPa)
#
#
# Indices 1 2 3 4 5 6 
#
# 1 85.0919 79.7376 16.3681 0.0000 -24.2111 0.0000
# 2 79.7376 264.1665 52.9351 0.0000 -31.0849 0.0000
# 3 16.3681 52.9351 87.1394 0.0000 -6.0984 0.0000
# 4 0.0000 0.0000 0.0000 8.0705 0.0000 -11.5540
# 5 -24.2111 -31.0849 -6.0984 0.0000 41.9427 0.0000
# 6 0.0000 0.0000 0.0000 -11.5540 0.0000 26.1685
#
#
#
# Elastic Compliance Matrix: (Units=1/GPa)
#
#
# Indices 1 2 3 4 5 6 
#
# 1 0.018090 -0.004615 -0.000104 0.000000 0.007007 0.000000
# 2 -0.004615 0.005851 -0.002597 0.000000 0.001295 0.000000
# 3 -0.000104 -0.002597 0.013067 0.000000 -0.000085 0.000000
# 4 0.000000 0.000000 0.000000 0.336800 0.000000 0.148705
# 5 0.007007 0.001295 -0.000085 0.000000 0.028834 0.000000
# 6 0.000000 0.000000 0.000000 0.148705 0.000000 0.103871
#
#
# Mechanical properties :
#
#
# Convention : Reuss Voigt Hill
#
# Bulk Modulus (GPa) = 44.69003 81.60883 63.14943
# Shear Modulus (GPa) = 9.45886 34.39347 21.92616
#
# Velocity S-wave (km/s) = 2.01304 3.83858 3.06488
# Velocity P-wave (km/s) = 4.95469 7.38976 6.29117
#
# Compressibility (1/GPa) = 0.02237635
#
# Stress axis : x y z
#
# Youngs Moduli (GPa) = 55.27772 170.90110 76.52800
#
# Poissons Ratio (x) = 0.78873 0.00797
# Poissons Ratio (y) = 0.25511 0.19874
# Poissons Ratio (z) = 0.00576 0.44383
#
# Static dielectric constant tensor:
#      x y z
#    x 1.919230 0.000000 0.006890 
#    y 0.000000 1.865090 0.000000 
#    z 0.006890 0.000000 1.904930 
# 
# From -- ./inp_files/15947.got.cif
#   From: 2010.05.17/outbox.cif.g08.bks.cpg/sg12_8_cif.got.tgz:15947.got - 2010.06.03 13:09:07.
