data_PCOD9211759
_publ_section_title
;
Structure prediction by ZEFSAII (Michael W. Deem and Ramdas Pophale) SiO2 
 PCOD9211759
Probable space group: C 2/M
;
_chemical_formula_sum "Si O2"
_cell_formula_units_Z 40
_cell_length_a 19.434243
_cell_length_b 8.747409
_cell_length_c 11.860087
_cell_angle_alpha 90.000000
_cell_angle_beta 104.883704
_cell_angle_gamma 90.000000
_cell_volume 1948.560775
_symmetry_space_group_name_H-M "C 2/M"
_symmetry_group_IT_number 12
_symmetry_cell_setting 'monoclinic'
loop_
_space_group_symop_operation_xyz
x,y,z
-x,y,-z
-x,-y,-z
x,-y,z
1/2+x,1/2+y,z
1/2-x,1/2+y,-z
1/2-x,1/2-y,-z
1/2+x,1/2-y,z
loop_
_atom_site_type_symbol
_atom_site_label
_atom_site_fract_x
_atom_site_fract_y
_atom_site_fract_z
Si Si1 0.563950 0.820017 0.116290
Si Si2 0.113515 0.817100 0.719353
Si Si3 0.828411 0.317223 0.028226
Si Si4 0.048267 0.819603 0.351441
Si Si5 0.818028 0.318789 0.464517
O O1 0.554057 0.716976 0.221133
O O2 0.565799 0.000000 0.150623
O O3 0.500000 0.802934 0.000000
O O4 0.634307 0.781472 0.074957
O O5 0.127522 0.751226 0.849083
O O6 0.169784 0.749779 0.654798
O O7 0.032600 0.778186 0.648772
O O8 0.119205 0.000000 0.724398
O O9 0.827652 0.500000 0.038965
O O10 0.750000 0.250000 0.000000
O O11 0.110471 0.727632 0.438504
O O12 0.058363 0.000000 0.378007
O O13 0.810675 0.500000 0.455271
O O14 0.750000 0.250000 0.500000
#
# Coordination Sequence:
#
# PCOD9211759 Si02
#       5
#     8   8   8   8   8
#     4  10  21  40  65  94 129 169 216 263 313 377
#     4  11  24  44  68  96 131 169 216 267 320 384
#     4  11  24  41  64  94 132 174 216 267 323 380
#     4  11  24  42  68  98 131 170 214 264 319 382
#     4  12  27  46  69  95 128 168 214 267 325 384
#
# _framework density 20.527971999999998
#
# number of rings (size 3 to 8) (size 9 to 14) (size 15 to 20)
#    0.000    1.000    2.000    4.200    2.800    6.800 
#    0.000    0.000    0.000    0.000    0.000    0.000 
#    0.000    0.000    0.000    0.000    0.000    0.000 
#
# Total GULP energy -111935.242568 kJ/mol
# GULP energy per Si atom -5596.762128 kJ/mol
# Density = 2.048125 g / cm^3
# Si number density = 20.527972 Si / 1000 Ang^3
#
#
#
# Elastic Constant Matrix: (Units=GPa)
#
#
# Indices 1 2 3 4 5 6 
#
# 1 121.3768 46.9321 8.6394 0.0000 -20.8082 0.0000
# 2 46.9321 74.3263 16.7145 0.0000 -13.6144 0.0000
# 3 8.6394 16.7145 49.4980 0.0000 -13.6849 0.0000
# 4 0.0000 0.0000 0.0000 35.1075 0.0000 2.8761
# 5 -20.8082 -13.6144 -13.6849 0.0000 36.2745 0.0000
# 6 0.0000 0.0000 0.0000 2.8761 0.0000 31.7754
#
#
#
# Elastic Compliance Matrix: (Units=1/GPa)
#
#
# Indices 1 2 3 4 5 6 
#
# 1 0.011554 -0.006793 0.001568 0.000000 0.004670 0.000000
# 2 -0.006793 0.019101 -0.004867 0.000000 0.001436 0.000000
# 3 0.001568 -0.004867 0.023799 0.000000 0.008051 0.000000
# 4 0.000000 0.000000 0.000000 0.028697 0.000000 -0.002597
# 5 0.004670 0.001436 0.008051 0.000000 0.033823 0.000000
# 6 0.000000 0.000000 0.000000 -0.002597 0.000000 0.031706
#
#
# Mechanical properties :
#
#
# Convention : Reuss Voigt Hill
#
# Bulk Modulus (GPa) = 29.18008 43.30810 36.24409
# Shear Modulus (GPa) = 27.73348 32.15916 29.94632
#
# Velocity S-wave (km/s) = 3.67960 3.96233 3.82357
# Velocity P-wave (km/s) = 5.68315 6.48662 6.09813
#
# Compressibility (1/GPa) = 0.03426995
#
# Stress axis : x y z
#
# Youngs Moduli (GPa) = 86.54675 52.35279 42.01917
#
# Poissons Ratio (x) = 0.35564 -0.06590
# Poissons Ratio (y) = 0.58792 0.20452
# Poissons Ratio (z) = -0.13574 0.25482
#
# Static dielectric constant tensor:
#      x y z
#    x 1.725160 0.000000 -0.003750 
#    y 0.000000 1.682390 0.000000 
#    z -0.003750 0.000000 1.715010 
# 
# From -- ./inp_files/151652.got.cif
#   From: 2010.05.17/outbox.cif.g08.bks.cpg/sg12_76_cif.got.tgz:151652.got - 2010.06.03 13:09:07.
