data_PCOD9211350
_publ_section_title
;
Structure prediction by ZEFSAII (Michael W. Deem and Ramdas Pophale) SiO2 
 PCOD9211350
Probable space group: C 2/M
;
_chemical_formula_sum "Si O2"
_cell_formula_units_Z 42
_cell_length_a 5.055301
_cell_length_b 23.776270
_cell_length_c 15.702399
_cell_angle_alpha 90.000000
_cell_angle_beta 103.913487
_cell_angle_gamma 90.000000
_cell_volume 1831.993140
_symmetry_space_group_name_H-M "C 2/M"
_symmetry_group_IT_number 12
_symmetry_cell_setting 'monoclinic'
loop_
_space_group_symop_operation_xyz
x,y,z
-x,y,-z
-x,-y,-z
x,-y,z
1/2+x,1/2+y,z
1/2-x,1/2+y,-z
1/2-x,1/2-y,-z
1/2+x,1/2-y,z
loop_
_atom_site_type_symbol
_atom_site_label
_atom_site_fract_x
_atom_site_fract_y
_atom_site_fract_z
Si Si1 0.770630 0.916707 0.413567
Si Si2 0.275410 0.000000 0.148411
Si Si3 0.634350 0.500000 0.730133
Si Si4 0.000000 0.500000 0.500000
Si Si5 0.500000 0.845988 0.000000
Si Si6 0.655789 0.209692 0.369569
Si Si7 0.399718 0.782790 0.826425
Si Si8 0.000000 0.085735 0.000000
O O1 0.851842 0.944967 0.330154
O O2 0.730594 0.849892 0.416365
O O3 0.000000 0.935024 0.500000
O O4 0.510601 0.950694 0.426816
O O5 0.595032 0.000000 0.190582
O O6 0.118743 0.000000 0.225782
O O7 0.174936 0.948683 0.082109
O O8 0.458573 0.811635 0.083120
O O9 0.774441 0.880383 0.034064
O O10 0.400106 0.244642 0.385859
O O11 0.592168 0.191340 0.266793
O O12 0.585448 0.727542 0.825653
#
# Coordination Sequence:
#
# PCOD9211350 Si02
#       8
#     8   4   4   2   4   8   8   4
#     4  11  27  46  74 106 144 185 234 307 349 434
#     4  11  26  47  63 100 139 183 223 293 340 426
#     4  11  26  45  77 100 137 189 241 277 367 405
#     4  10  24  48  68 106 136 182 226 298 350 412
#     4  12  22  38  66  99 124 189 222 282 356 400
#     4  10  25  45  69 105 141 187 233 286 353 428
#     4  10  21  40  61  93 136 173 227 283 335 409
#     4  11  26  41  64  99 144 167 236 283 342 413
#
# _framework density 22.925851000000002
#
# number of rings (size 3 to 8) (size 9 to 14) (size 15 to 20)
#    0.000    1.333    0.000    4.000   13.333    2.286 
#    0.000    0.000    0.000    0.000    0.000    0.000 
#    0.000    0.000    0.000    0.000    0.000    0.000 
#
# Total GULP energy -117068.318725 kJ/mol
# GULP energy per Si atom -5574.681844 kJ/mol
# Density = 2.287367 g / cm^3
# Si number density = 22.925851 Si / 1000 Ang^3
#
#
#
# Elastic Constant Matrix: (Units=GPa)
#
#
# Indices 1 2 3 4 5 6 
#
# 1 75.4317 -4.3453 -7.2901 0.0000 4.7324 0.0000
# 2 -4.3453 88.9946 17.0726 0.0000 0.9278 0.0000
# 3 -7.2901 17.0726 77.5969 0.0000 16.5243 0.0000
# 4 0.0000 0.0000 0.0000 2383.0195 0.0000 593.7124
# 5 4.7324 0.9278 16.5243 0.0000 40.9016 0.0000
# 6 0.0000 0.0000 0.0000 593.7124 0.0000 237.9308
#
#
#
# Elastic Compliance Matrix: (Units=1/GPa)
#
#
# Indices 1 2 3 4 5 6 
#
# 1 0.013582 0.000365 0.001676 0.000000 -0.002257 0.000000
# 2 0.000365 0.011769 -0.002723 0.000000 0.000791 0.000000
# 3 0.001676 -0.002723 0.014959 0.000000 -0.006176 0.000000
# 4 0.000000 0.000000 0.000000 0.001109 0.000000 -0.002768
# 5 -0.002257 0.000791 -0.006176 0.000000 0.027187 0.000000
# 6 0.000000 0.000000 0.000000 -0.002768 0.000000 0.011110
#
#
# Mechanical properties :
#
#
# Convention : Reuss Voigt Hill
#
# Bulk Modulus (GPa) = 25.67722 28.09974 26.88848
# Shear Modulus (GPa) = 53.15693 548.14278 300.64985
#
# Velocity S-wave (km/s) = 4.82046 15.47943 11.46407
# Velocity P-wave (km/s) = 6.49668 18.21448 13.67432
#
# Compressibility (1/GPa) = 0.03894502
#
# Stress axis : x y z
#
# Youngs Moduli (GPa) = 73.62872 84.97124 66.84984
#
# Poissons Ratio (x) = -0.03102 -0.11206
# Poissons Ratio (y) = -0.02688 0.18206
# Poissons Ratio (z) = -0.12342 0.23142
#
# Static dielectric constant tensor:
#      x y z
#    x 1.943300 0.000000 -0.003060 
#    y 0.000000 1.867680 0.000000 
#    z -0.003060 0.000000 1.854880 
# 
# From -- ./inp_files/191633.got.cif
#   From: 2010.05.17/outbox.cif.g08.bks.cpg/sg12_96_cif.got.tgz:191633.got - 2010.06.03 13:09:07.
