data_PCOD9211053
_publ_section_title
;
Structure prediction by ZEFSAII (Michael W. Deem and Ramdas Pophale) SiO2 
 PCOD9211053
Probable space group: C 2/M
;
_chemical_formula_sum "Si O2"
_cell_formula_units_Z 34
_cell_length_a 22.365013
_cell_length_b 11.187709
_cell_length_c 7.041729
_cell_angle_alpha 90.000000
_cell_angle_beta 102.593621
_cell_angle_gamma 90.000000
_cell_volume 1719.543656
_symmetry_space_group_name_H-M "C 2/M"
_symmetry_group_IT_number 12
_symmetry_cell_setting 'monoclinic'
loop_
_space_group_symop_operation_xyz
x,y,z
-x,y,-z
-x,-y,-z
x,-y,z
1/2+x,1/2+y,z
1/2-x,1/2+y,-z
1/2-x,1/2-y,-z
1/2+x,1/2-y,z
loop_
_atom_site_type_symbol
_atom_site_label
_atom_site_fract_x
_atom_site_fract_y
_atom_site_fract_z
Si Si1 0.603032 0.699810 0.611988
Si Si2 0.942073 0.639060 0.080756
Si Si3 0.233054 0.864229 0.858004
Si Si4 0.500000 0.500000 0.500000
Si Si5 0.344566 0.135112 0.679944
O O1 0.571030 0.788298 0.739854
O O2 0.661711 0.643110 0.758505
O O3 0.553439 0.603348 0.517974
O O4 0.630324 0.772588 0.454198
O O5 0.953913 0.500000 0.134381
O O6 0.884035 0.645624 0.900383
O O7 0.000000 0.685013 0.000000
O O8 0.274656 0.850797 0.698176
O O9 0.246778 0.000000 0.943237
O O10 0.250000 0.750000 0.000000
O O11 0.353108 0.000000 0.611899
#
# Coordination Sequence:
#
# PCOD9211053 Si02
#       5
#     8   8   8   2   8
#     4  12  23  44  65  95 138 183 218 276 345 409
#     4  10  21  39  65  96 131 170 223 281 333 405
#     4  11  23  44  70 101 136 175 232 291 341 404
#     4  12  28  44  64  96 148 182 222 274 332 432
#     4  10  22  40  68 101 129 171 231 286 338 398
#
# _framework density 19.772689
#
# number of rings (size 3 to 8) (size 9 to 14) (size 15 to 20)
#    0.000    1.176    3.529    2.824    0.000    0.941 
#    2.118   10.000    0.000    0.000    0.000    0.000 
#    0.000    0.000    0.000    0.000    0.000    0.000 
#
# Total GULP energy -94685.281921 kJ/mol
# GULP energy per Si atom -5569.722466 kJ/mol
# Density = 1.972769 g / cm^3
# Si number density = 19.772689 Si / 1000 Ang^3
#
#
#
# Elastic Constant Matrix: (Units=GPa)
#
#
# Indices 1 2 3 4 5 6 
#
# 1 119.9588 49.8292 9.7197 0.0000 -13.5723 0.0000
# 2 49.8292 162.3680 60.2097 0.0000 -20.2735 0.0000
# 3 9.7197 60.2097 40.1904 0.0000 -21.0784 0.0000
# 4 0.0000 0.0000 0.0000 -11.1049 0.0000 -15.0378
# 5 -13.5723 -20.2735 -21.0784 0.0000 30.4822 0.0000
# 6 0.0000 0.0000 0.0000 -15.0378 0.0000 31.9272
#
#
#
# Elastic Compliance Matrix: (Units=1/GPa)
#
#
# Indices 1 2 3 4 5 6 
#
# 1 0.011202 -0.006865 0.012234 0.000000 0.008881 0.000000
# 2 -0.006865 0.019454 -0.034991 0.000000 -0.014314 0.000000
# 3 0.012234 -0.034991 0.101979 0.000000 0.052693 0.000000
# 4 0.000000 0.000000 0.000000 -0.054982 0.000000 -0.025897
# 5 0.008881 -0.014314 0.052693 0.000000 0.063677 0.000000
# 6 0.000000 0.000000 0.000000 -0.025897 0.000000 0.019124
#
#
# Mechanical properties :
#
#
# Convention : Reuss Voigt Hill
#
# Bulk Modulus (GPa) = 13.62602 62.44827 38.03715
# Shear Modulus (GPa) = 20.47823 23.77814 22.12818
#
# Velocity S-wave (km/s) = 3.22169 3.47158 3.34897
# Velocity P-wave (km/s) = 4.55471 6.90802 5.85090
#
# Compressibility (1/GPa) = 0.07338898
#
# Stress axis : x y z
#
# Youngs Moduli (GPa) = 89.27366 51.40346 9.80593
#
# Poissons Ratio (x) = 0.35290 -0.11996
# Poissons Ratio (y) = 0.61289 0.34312
# Poissons Ratio (z) = -1.09215 1.79867
#
# Static dielectric constant tensor:
#      x y z
#    x 1.714880 0.000000 0.033440 
#    y 0.000000 1.693960 0.000000 
#    z 0.033440 0.000000 1.678500 
# 
# From -- ./inp_files/23579.got.cif
#   From: 2010.05.17/outbox.cif.g08.bks.cpg/sg12_12_cif.got.tgz:23579.got - 2010.06.03 13:09:07.
