data_PCOD9211098
_publ_section_title
;
Structure prediction by ZEFSAII (Michael W. Deem and Ramdas Pophale) SiO2 
 PCOD9211098
Probable space group: C 2/M
;
_chemical_formula_sum "Si O2"
_cell_formula_units_Z 64
_cell_length_a 18.574131
_cell_length_b 14.325622
_cell_length_c 15.193733
_cell_angle_alpha 90.000000
_cell_angle_beta 129.110631
_cell_angle_gamma 90.000000
_cell_volume 3136.957792
_symmetry_space_group_name_H-M "C 2/M"
_symmetry_group_IT_number 12
_symmetry_cell_setting 'monoclinic'
loop_
_space_group_symop_operation_xyz
x,y,z
-x,y,-z
-x,-y,-z
x,-y,z
1/2+x,1/2+y,z
1/2-x,1/2+y,-z
1/2-x,1/2-y,-z
1/2+x,1/2-y,z
loop_
_atom_site_type_symbol
_atom_site_label
_atom_site_fract_x
_atom_site_fract_y
_atom_site_fract_z
Si Si1 0.925767 0.796918 0.240413
Si Si2 0.243110 0.388148 0.431416
Si Si3 0.109216 0.206810 0.107604
Si Si4 0.604755 0.897558 0.832293
Si Si5 0.825336 0.103625 0.007125
Si Si6 0.902301 0.398071 0.972773
Si Si7 0.869854 0.204183 0.670355
Si Si8 0.894227 0.111714 0.395624
O O1 0.922125 0.686161 0.250675
O O2 0.868794 0.824385 0.109228
O O3 0.880581 0.847701 0.288112
O O4 0.032617 0.819158 0.301259
O O5 0.222286 0.500000 0.411878
O O6 0.158551 0.314244 0.358827
O O7 0.293977 0.358261 0.561291
O O8 0.316877 0.364947 0.409454
O O9 0.147143 0.309510 0.108793
O O10 0.123158 0.185760 0.220297
O O11 0.152278 0.132552 0.074758
O O12 0.000000 0.208762 0.000000
O O13 0.573923 0.000000 0.779966
O O14 0.715243 0.897370 0.929675
O O15 0.571067 0.879296 0.905576
O O16 0.862035 0.000000 0.055560
O O17 0.854147 0.500000 0.930496
O O18 0.000000 0.406480 0.000000
O O19 0.000000 0.142219 0.500000
O O20 0.894814 0.000000 0.391254
#
# Coordination Sequence:
#
# PCOD9211098 Si02
#       8
#     8   8   8   8   8   8   8   8
#     4  12  21  39  65  91 124 164 207 260 316 376
#     4  10  24  46  66  93 127 163 218 277 318 370
#     4  11  21  38  57  89 125 162 201 247 308 379
#     4  10  22  38  57  86 126 168 204 243 301 370
#     4  11  24  38  54  87 128 166 206 245 302 381
#     4   9  17  32  55  82 117 158 199 240 291 358
#     4  11  24  40  66  95 124 167 214 257 324 379
#     4  10  21  39  66  94 119 153 203 267 328 371
#
# _framework density 20.401931000000001
#
# number of rings (size 3 to 8) (size 9 to 14) (size 15 to 20)
#    0.000    1.500    3.750    1.500    1.750    2.250 
#    0.000    2.500    0.000    0.375    0.000    0.000 
#    0.000    0.000    0.000    0.000    0.000    0.000 
#
# Total GULP energy -178665.782610 kJ/mol
# GULP energy per Si atom -5583.305707 kJ/mol
# Density = 2.035550 g / cm^3
# Si number density = 20.401931 Si / 1000 Ang^3
#
#
#
# Elastic Constant Matrix: (Units=GPa)
#
#
# Indices 1 2 3 4 5 6 
#
# 1 35.1315 1.0640 17.0861 0.0000 -8.2159 0.0000
# 2 1.0640 42.1655 -12.8933 0.0000 -10.2568 0.0000
# 3 17.0861 -12.8933 63.8703 0.0000 -22.6444 0.0000
# 4 0.0000 0.0000 0.0000 23.5670 0.0000 -2.6488
# 5 -8.2159 -10.2568 -22.6444 0.0000 22.1348 0.0000
# 6 0.0000 0.0000 0.0000 -2.6488 0.0000 30.0400
#
#
#
# Elastic Compliance Matrix: (Units=1/GPa)
#
#
# Indices 1 2 3 4 5 6 
#
# 1 0.033311 -0.003118 -0.008896 0.000000 0.001819 0.000000
# 2 -0.003118 0.041999 0.024795 0.000000 0.043670 0.000000
# 3 -0.008896 0.024795 0.040710 0.000000 0.049835 0.000000
# 4 0.000000 0.000000 0.000000 0.042857 0.000000 0.003779
# 5 0.001819 0.043670 0.049835 0.000000 0.117071 0.000000
# 6 0.000000 0.000000 0.000000 0.003779 0.000000 0.033622
#
#
# Mechanical properties :
#
#
# Convention : Reuss Voigt Hill
#
# Bulk Modulus (GPa) = 7.06301 16.85344 11.95823
# Shear Modulus (GPa) = 15.09651 24.20904 19.65277
#
# Velocity S-wave (km/s) = 2.72316 3.44845 3.10704
# Velocity P-wave (km/s) = 3.65471 4.91268 4.32963
#
# Compressibility (1/GPa) = 0.14158264
#
# Stress axis : x y z
#
# Youngs Moduli (GPa) = 30.02046 23.80986 24.56384
#
# Poissons Ratio (x) = 0.07425 0.21851
# Poissons Ratio (y) = 0.09361 -0.60907
# Poissons Ratio (z) = 0.26705 -0.59037
#
# Static dielectric constant tensor:
#      x y z
#    x 1.765540 0.000000 0.029470 
#    y 0.000000 1.799340 0.000000 
#    z 0.029470 0.000000 1.717050 
# 
# From -- ./inp_files/225743.got.cif
#   From: 2010.05.17/outbox.cif.g08.bks.cpg/sg12_113_cif.got.tgz:225743.got - 2010.06.03 13:09:07.
