data_PCOD9211578
_publ_section_title
;
Structure prediction by ZEFSAII (Michael W. Deem and Ramdas Pophale) SiO2 
 PCOD9211578
Probable space group: C 2/M
;
_chemical_formula_sum "Si O2"
_cell_formula_units_Z 32
_cell_length_a 24.789691
_cell_length_b 8.442245
_cell_length_c 9.957749
_cell_angle_alpha 90.000000
_cell_angle_beta 127.475599
_cell_angle_gamma 90.000000
_cell_volume 1653.860040
_symmetry_space_group_name_H-M "C 2/M"
_symmetry_group_IT_number 12
_symmetry_cell_setting 'monoclinic'
loop_
_space_group_symop_operation_xyz
x,y,z
-x,y,-z
-x,-y,-z
x,-y,z
1/2+x,1/2+y,z
1/2-x,1/2+y,-z
1/2-x,1/2-y,-z
1/2+x,1/2-y,z
loop_
_atom_site_type_symbol
_atom_site_label
_atom_site_fract_x
_atom_site_fract_y
_atom_site_fract_z
Si Si1 0.808062 0.690618 0.687650
Si Si2 0.039614 0.811911 0.689199
Si Si3 0.953358 0.316762 0.798027
Si Si4 0.189274 0.809371 0.002949
O O1 0.807968 0.500000 0.693496
O O2 0.750000 0.750000 0.500000
O O3 0.879786 0.742441 0.731892
O O4 0.801480 0.753376 0.829454
O O5 0.115550 0.750636 0.836594
O O6 0.000000 0.744998 0.500000
O O7 0.991065 0.781142 0.741604
O O8 0.047678 0.000000 0.680591
O O9 0.947135 0.500000 0.742967
O O10 0.000000 0.315491 0.000000
O O11 0.189026 0.000000 0.001648
O O12 0.250000 0.750000 0.000000
#
# Coordination Sequence:
#
# PCOD9211578 Si02
#       4
#     8   8   8   8
#     4  11  24  42  64  92 125 162 206 255 308 368
#     4  10  23  41  62  91 123 160 204 251 304 361
#     4  10  21  40  64  90 120 157 202 253 306 360
#     4  11  24  42  63  90 126 167 207 252 307 365
#
# _framework density 19.348675
#
# number of rings (size 3 to 8) (size 9 to 14) (size 15 to 20)
#    0.000    1.500    2.500    1.500    3.500    4.000 
#    0.000    0.000    0.000    0.000    0.000    0.000 
#    0.000    0.000    0.000    0.000    0.000    0.000 
#
# Total GULP energy -89368.778525 kJ/mol
# GULP energy per Si atom -5585.548658 kJ/mol
# Density = 1.930464 g / cm^3
# Si number density = 19.348675 Si / 1000 Ang^3
#
#
#
# Elastic Constant Matrix: (Units=GPa)
#
#
# Indices 1 2 3 4 5 6 
#
# 1 186.2322 22.0358 101.9067 0.0000 19.3765 0.0000
# 2 22.0358 27.6410 27.6387 0.0000 4.4314 0.0000
# 3 101.9067 27.6387 170.9432 0.0000 11.5923 0.0000
# 4 0.0000 0.0000 0.0000 50.4901 0.0000 70.5069
# 5 19.3765 4.4314 11.5923 0.0000 33.4524 0.0000
# 6 0.0000 0.0000 0.0000 70.5069 0.0000 288.6479
#
#
#
# Elastic Compliance Matrix: (Units=1/GPa)
#
#
# Indices 1 2 3 4 5 6 
#
# 1 0.008347 -0.001665 -0.004499 0.000000 -0.003055 0.000000
# 2 -0.001665 0.043863 -0.005909 0.000000 -0.002798 0.000000
# 3 -0.004499 -0.005909 0.009481 0.000000 0.000104 0.000000
# 4 0.000000 0.000000 0.000000 0.030059 0.000000 -0.007342
# 5 -0.003055 -0.002798 0.000104 0.000000 0.031997 0.000000
# 6 0.000000 0.000000 0.000000 -0.007342 0.000000 0.005258
#
#
# Mechanical properties :
#
#
# Convention : Reuss Voigt Hill
#
# Bulk Modulus (GPa) = 26.63665 76.44211 51.53938
# Shear Modulus (GPa) = 30.18094 90.06708 60.12401
#
# Velocity S-wave (km/s) = 3.95377 6.83012 5.58045
# Velocity P-wave (km/s) = 5.88554 10.08931 8.25935
#
# Compressibility (1/GPa) = 0.03754226
#
# Stress axis : x y z
#
# Youngs Moduli (GPa) = 119.80959 22.79808 105.47856
#
# Poissons Ratio (x) = 0.03797 0.47459
# Poissons Ratio (y) = 0.19952 0.62332
# Poissons Ratio (z) = 0.53907 0.13473
#
# Static dielectric constant tensor:
#      x y z
#    x 1.631930 0.000000 0.026490 
#    y 0.000000 1.685560 0.000000 
#    z 0.026490 0.000000 1.673000 
# 
# From -- ./inp_files/81654.got.cif
#   From: 2010.05.17/outbox.cif.g08.bks.cpg/sg12_41_cif.got.tgz:81654.got - 2010.06.03 13:09:07.
