data_PCOD9211948
_publ_section_title
;
Structure prediction by ZEFSAII (Michael W. Deem and Ramdas Pophale) SiO2 
 PCOD9211948
Probable space group: C 2/M
;
_chemical_formula_sum "Si O2"
_cell_formula_units_Z 48
_cell_length_a 14.943903
_cell_length_b 13.248908
_cell_length_c 24.453369
_cell_angle_alpha 90.000000
_cell_angle_beta 30.129405
_cell_angle_gamma 90.000000
_cell_volume 2430.229747
_symmetry_space_group_name_H-M "C 2/M"
_symmetry_group_IT_number 12
_symmetry_cell_setting 'monoclinic'
loop_
_space_group_symop_operation_xyz
x,y,z
-x,y,-z
-x,-y,-z
x,-y,z
1/2+x,1/2+y,z
1/2-x,1/2+y,-z
1/2-x,1/2-y,-z
1/2+x,1/2-y,z
loop_
_atom_site_type_symbol
_atom_site_label
_atom_site_fract_x
_atom_site_fract_y
_atom_site_fract_z
Si Si1 0.790838 0.500000 0.118445
Si Si2 0.331479 0.670193 0.733641
Si Si3 0.921457 0.000000 0.885635
Si Si4 0.470209 0.833489 0.741889
Si Si5 0.179409 0.166390 0.495384
Si Si6 0.305534 0.500000 0.071726
Si Si7 0.000000 0.304448 0.500000
Si Si8 0.851302 0.804174 0.259650
O O1 0.745305 0.596114 0.180314
O O2 0.692787 0.500000 0.110948
O O3 0.000000 0.500000 0.000000
O O4 0.390044 0.770435 0.734470
O O5 0.508924 0.617400 0.614603
O O6 0.204495 0.714907 0.753193
O O7 0.036383 0.103319 0.823483
O O8 0.825841 0.000000 0.995206
O O9 0.648948 0.885749 0.622338
O O10 0.539216 0.753160 0.750596
O O11 0.317332 0.905364 0.845672
O O12 0.250000 0.250000 0.500000
O O13 0.091282 0.231515 0.494717
O O14 0.500000 0.500000 0.000000
O O15 0.168080 0.353732 0.380856
#
# Coordination Sequence:
#
# PCOD9211948 Si02
#       8
#     4   8   4   8   8   4   4   8
#     4  12  28  43  62  93 131 168 226 261 305 376
#     4  10  21  41  66  95 129 166 203 263 321 383
#     4  12  26  45  64  95 127 170 225 265 300 385
#     4  10  21  41  64  92 124 167 208 266 322 376
#     4   8  16  33  62  92 122 156 203 251 320 387
#     4  12  28  43  62  90 127 167 230 268 304 375
#     4   8  16  33  60  97 124 156 198 259 312 395
#     4  10  21  40  68  93 130 164 208 259 331 374
#
# _framework density 19.751218999999999
#
# number of rings (size 3 to 8) (size 9 to 14) (size 15 to 20)
#    0.000    2.000    1.667    1.000    2.333    3.667 
#    0.000    0.000    3.667    6.000    0.000    0.000 
#    0.000    0.000    0.000    0.000    0.000    0.000 
#
# Total GULP energy -133601.759937 kJ/mol
# GULP energy per Si atom -5566.739997 kJ/mol
# Density = 1.970626 g / cm^3
# Si number density = 19.751219 Si / 1000 Ang^3
#
#
#
# Elastic Constant Matrix: (Units=GPa)
#
#
# Indices 1 2 3 4 5 6 
#
# 1 106.2094 0.2075 23.2944 0.0004 2.1206 -0.0001
# 2 0.2075 63.7746 48.8610 -0.0006 -0.9052 0.0001
# 3 23.2944 48.8610 189.1059 -0.0012 4.5366 0.0001
# 4 0.0004 -0.0006 -0.0012 67.7873 -0.0006 4.6355
# 5 2.1206 -0.9052 4.5366 -0.0006 30.7875 0.0002
# 6 -0.0001 0.0001 0.0001 4.6355 0.0002 17.3548
#
#
#
# Elastic Compliance Matrix: (Units=1/GPa)
#
#
# Indices 1 2 3 4 5 6 
#
# 1 0.009744 0.001090 -0.001472 0.000000 -0.000422 0.000000
# 2 0.001090 0.019726 -0.005262 0.000000 0.001280 0.000000
# 3 -0.001472 -0.005262 0.006854 0.000000 -0.001063 0.000000
# 4 0.000000 0.000000 0.000000 0.015026 0.000000 -0.004014
# 5 -0.000422 0.001280 -0.001063 0.000000 0.032704 0.000000
# 6 0.000000 0.000000 0.000000 -0.004014 0.000000 0.058693
#
#
# Mechanical properties :
#
#
# Convention : Reuss Voigt Hill
#
# Bulk Modulus (GPa) = 39.93983 55.97953 47.95968
# Shear Modulus (GPa) = 30.79162 42.30107 36.54635
#
# Velocity S-wave (km/s) = 3.95267 4.63286 4.30622
# Velocity P-wave (km/s) = 6.41068 7.55128 7.00423
#
# Compressibility (1/GPa) = 0.02503766
#
# Stress axis : x y z
#
# Youngs Moduli (GPa) = 102.62231 50.69408 145.89186
#
# Poissons Ratio (x) = -0.05525 0.21473
# Poissons Ratio (y) = -0.11185 0.76765
# Poissons Ratio (z) = 0.15104 0.26674
#
# Static dielectric constant tensor:
#      x y z
#    x 1.665530 0.000000 -0.001560 
#    y 0.000000 1.679220 0.000000 
#    z -0.001560 0.000000 1.779280 
# 
# From -- ./inp_files/340114.got.cif
#   From: 2010.05.17/outbox.cif.g08.bks.cpg/sg12_171_cif.got.tgz:340114.got - 2010.06.03 13:09:07.
