data_PCOD9211035
_publ_section_title
;
Structure prediction by ZEFSAII (Michael W. Deem and Ramdas Pophale) SiO2 
 PCOD9211035
Probable space group: C 2/M
;
_chemical_formula_sum "Si O2"
_cell_formula_units_Z 60
_cell_length_a 27.602013
_cell_length_b 20.596070
_cell_length_c 4.970168
_cell_angle_alpha 90.000000
_cell_angle_beta 88.513543
_cell_angle_gamma 90.000000
_cell_volume 2824.554850
_symmetry_space_group_name_H-M "C 2/M"
_symmetry_group_IT_number 12
_symmetry_cell_setting 'monoclinic'
loop_
_space_group_symop_operation_xyz
x,y,z
-x,y,-z
-x,-y,-z
x,-y,z
1/2+x,1/2+y,z
1/2-x,1/2+y,-z
1/2-x,1/2-y,-z
1/2+x,1/2-y,z
loop_
_atom_site_type_symbol
_atom_site_label
_atom_site_fract_x
_atom_site_fract_y
_atom_site_fract_z
Si Si1 0.724020 0.403898 0.079396
Si Si2 0.641561 0.383501 0.702892
Si Si3 0.798205 0.776871 0.634041
Si Si4 0.832612 0.425397 0.146691
Si Si5 0.054263 0.735681 0.545466
Si Si6 0.141114 0.347472 0.336985
Si Si7 0.333954 0.500000 0.564963
Si Si8 0.444867 0.676985 0.958899
O O1 0.717950 0.327893 0.138316
O O2 0.706079 0.444100 0.336429
O O3 0.684250 0.420953 0.862587
O O4 0.779220 0.420456 0.020556
O O5 0.666047 0.319261 0.566348
O O6 0.627229 0.440444 0.501218
O O7 0.599017 0.365457 0.916689
O O8 0.750000 0.750000 0.500000
O O9 0.826912 0.715476 0.742332
O O10 0.844779 0.500000 0.191774
O O11 0.866365 0.391094 0.922962
O O12 0.832815 0.386759 0.426665
O O13 0.092366 0.681659 0.464384
O O14 0.058440 0.759228 0.850313
O O15 0.000000 0.713222 0.500000
O O16 0.061359 0.798524 0.346079
O O17 0.500000 0.651806 0.000000
#
# Coordination Sequence:
#
# PCOD9211035 Si02
#       8
#     8   8   8   8   8   8   4   8
#     4  11  23  38  61  84 125 172 219 253 308 378
#     4  11  23  38  61  86 128 164 220 263 312 381
#     4  11  22  35  57  93 124 157 199 265 323 364
#     4  12  27  42  63  87 131 173 214 250 304 383
#     4  10  21  40  67  98 126 158 203 258 332 390
#     4  12  24  41  65  94 129 161 207 266 318 371
#     4  10  24  40  57  85 120 180 223 251 304 368
#     4  10  21  39  65  95 127 162 205 267 327 379
#
# _framework density 21.242284999999999
#
# number of rings (size 3 to 8) (size 9 to 14) (size 15 to 20)
#    0.000    1.067    3.333    3.200    5.600    1.067 
#    0.000    0.333    0.000    3.200    0.000    0.000 
#    0.000    0.000    0.000    0.000    0.000    0.000 
#
# Total GULP energy -167179.224244 kJ/mol
# GULP energy per Si atom -5572.640808 kJ/mol
# Density = 2.119394 g / cm^3
# Si number density = 21.242285 Si / 1000 Ang^3
#
#
#
# Elastic Constant Matrix: (Units=GPa)
#
#
# Indices 1 2 3 4 5 6 
#
# 1 55.8983 13.8257 7.7993 0.0000 -10.3524 0.0000
# 2 13.8257 117.9833 8.1887 0.0000 -7.0684 0.0000
# 3 7.7993 8.1887 54.2077 0.0000 -9.7273 0.0000
# 4 0.0000 0.0000 0.0000 12.1682 0.0000 -14.3526
# 5 -10.3524 -7.0684 -9.7273 0.0000 26.8916 0.0000
# 6 0.0000 0.0000 0.0000 -14.3526 0.0000 14.5386
#
#
#
# Elastic Compliance Matrix: (Units=1/GPa)
#
#
# Indices 1 2 3 4 5 6 
#
# 1 0.019761 -0.001823 -0.001378 0.000000 0.006630 0.000000
# 2 -0.001823 0.008826 -0.000835 0.000000 0.001316 0.000000
# 3 -0.001378 -0.000835 0.019931 0.000000 0.006460 0.000000
# 4 0.000000 0.000000 0.000000 -0.499811 0.000000 -0.493417
# 5 0.006630 0.001316 0.006460 0.000000 0.042421 0.000000
# 6 0.000000 0.000000 0.000000 -0.493417 0.000000 -0.418323
#
#
# Mechanical properties :
#
#
# Convention : Reuss Voigt Hill
#
# Bulk Modulus (GPa) = 24.72413 31.96852 28.34633
# Shear Modulus (GPa) = -6.20623 23.93805 8.86591
#
# Velocity S-wave (km/s) = -1.71114 3.36058 2.04518
# Velocity P-wave (km/s) = 2.78575 5.49001 4.35319
#
# Compressibility (1/GPa) = 0.04044631
#
# Stress axis : x y z
#
# Youngs Moduli (GPa) = 50.60586 113.29933 50.17285
#
# Poissons Ratio (x) = 0.20652 0.06914
# Poissons Ratio (y) = 0.09224 0.04189
# Poissons Ratio (z) = 0.06974 0.09459
#
# Static dielectric constant tensor:
#      x y z
#    x 1.823820 0.000000 0.019120 
#    y 0.000000 1.749420 0.000000 
#    z 0.019120 0.000000 1.926740 
# 
# From -- ./inp_files/32028.got.cif
#   From: 2010.05.17/outbox.cif.g08.bks.cpg/sg12_17_cif.got.tgz:32028.got - 2010.06.03 13:09:07.
