data_PCOD9211618
_publ_section_title
;
Structure prediction by ZEFSAII (Michael W. Deem and Ramdas Pophale) SiO2 
 PCOD9211618
Probable space group: C 2/M
;
_chemical_formula_sum "Si O2"
_cell_formula_units_Z 64
_cell_length_a 12.843716
_cell_length_b 28.096099
_cell_length_c 14.915384
_cell_angle_alpha 90.000000
_cell_angle_beta 142.641958
_cell_angle_gamma 90.000000
_cell_volume 3265.971420
_symmetry_space_group_name_H-M "C 2/M"
_symmetry_group_IT_number 12
_symmetry_cell_setting 'monoclinic'
loop_
_space_group_symop_operation_xyz
x,y,z
-x,y,-z
-x,-y,-z
x,-y,z
1/2+x,1/2+y,z
1/2-x,1/2+y,-z
1/2-x,1/2-y,-z
1/2+x,1/2-y,z
loop_
_atom_site_type_symbol
_atom_site_label
_atom_site_fract_x
_atom_site_fract_y
_atom_site_fract_z
Si Si1 0.048949 0.052951 0.124559
Si Si2 0.951041 0.445691 0.370316
Si Si3 0.837075 0.254948 0.823347
Si Si4 0.977236 0.379364 0.213361
Si Si5 0.323739 0.133684 0.822654
Si Si6 0.624478 0.704104 0.328903
Si Si7 0.126665 0.114954 0.855601
Si Si8 0.012809 0.289670 0.360328
O O1 0.249401 0.049416 0.248104
O O2 0.989799 0.075928 0.175862
O O3 0.968918 0.000000 0.067186
O O4 0.000000 0.080919 0.000000
O O5 0.023675 0.500000 0.413047
O O6 0.983626 0.415668 0.302141
O O7 0.000000 0.423111 0.500000
O O8 0.780250 0.310135 0.786205
O O9 0.899224 0.240131 0.768708
O O10 0.678256 0.219846 0.734812
O O11 0.000000 0.249478 0.000000
O O12 0.127797 0.385909 0.242315
O O13 0.994129 0.326901 0.266777
O O14 0.796910 0.381934 0.035241
O O15 0.187692 0.108053 0.794646
O O16 0.500000 0.131962 0.000000
O O17 0.490889 0.661847 0.225217
O O18 0.825427 0.690084 0.472438
O O19 0.575272 0.736065 0.380506
#
# Coordination Sequence:
#
# PCOD9211618 Si02
#       8
#     8   8   8   8   8   8   8   8
#     4  10  21  40  64  92 123 155 194 252 316 368
#     4  10  23  42  66  93 125 160 197 253 320 376
#     4  11  21  37  57  79 115 160 206 257 305 354
#     4  11  22  39  63  88 120 162 207 251 306 367
#     4   9  20  37  57  85 120 158 201 249 298 361
#     4  11  24  38  55  83 120 160 207 252 308 358
#     4  11  22  38  63  91 120 159 208 251 306 373
#     4  11  24  38  55  83 120 162 204 256 301 364
#
# _framework density 19.596007
#
# number of rings (size 3 to 8) (size 9 to 14) (size 15 to 20)
#    0.000    1.500    3.750    1.125    3.500    1.500 
#    0.000    1.250    0.000    2.250    0.000    2.625 
#    0.000    0.000    0.000    0.000    0.000    0.000 
#
# Total GULP energy -178185.570981 kJ/mol
# GULP energy per Si atom -5568.299093 kJ/mol
# Density = 1.955141 g / cm^3
# Si number density = 19.596007 Si / 1000 Ang^3
#
#
#
# Elastic Constant Matrix: (Units=GPa)
#
#
# Indices 1 2 3 4 5 6 
#
# 1 158.8076 59.4923 28.2381 0.0000 -15.1534 0.0000
# 2 59.4923 65.2532 4.6841 0.0000 -9.7636 0.0000
# 3 28.2381 4.6841 65.4177 0.0000 -11.6999 0.0000
# 4 0.0000 0.0000 0.0000 26.5601 0.0000 18.2286
# 5 -15.1534 -9.7636 -11.6999 0.0000 18.9416 0.0000
# 6 0.0000 0.0000 0.0000 18.2286 0.0000 103.2212
#
#
#
# Elastic Compliance Matrix: (Units=1/GPa)
#
#
# Indices 1 2 3 4 5 6 
#
# 1 0.010479 -0.009074 -0.003609 0.000000 0.001477 0.000000
# 2 -0.009074 0.024471 0.003510 0.000000 0.007523 0.000000
# 3 -0.003609 0.003510 0.018437 0.000000 0.010310 0.000000
# 4 0.000000 0.000000 0.000000 0.042843 0.000000 -0.007566
# 5 0.001477 0.007523 0.010310 0.000000 0.064221 0.000000
# 6 0.000000 0.000000 0.000000 -0.007566 0.000000 0.011024
#
#
# Mechanical properties :
#
#
# Convention : Reuss Voigt Hill
#
# Bulk Modulus (GPa) = 28.53825 52.70082 40.61953
# Shear Modulus (GPa) = 24.81367 42.88218 33.84793
#
# Velocity S-wave (km/s) = 3.56232 4.68301 4.16057
# Velocity P-wave (km/s) = 5.61383 7.49619 6.62223
#
# Compressibility (1/GPa) = 0.03504069
#
# Stress axis : x y z
#
# Youngs Moduli (GPa) = 95.43097 40.86449 54.23863
#
# Poissons Ratio (x) = 0.37079 0.19577
# Poissons Ratio (y) = 0.86590 -0.19038
# Poissons Ratio (z) = 0.34446 -0.14343
#
# Static dielectric constant tensor:
#      x y z
#    x 1.728010 0.000000 0.020320 
#    y 0.000000 1.703560 0.000000 
#    z 0.020320 0.000000 2.326770 
# 
# From -- ./inp_files/209883.got.cif
#   From: 2010.05.17/outbox.cif.g08.bks.cpg/sg12_105_cif.got.tgz:209883.got - 2010.06.03 13:09:07.
