data_PCOD9211351
_publ_section_title
;
Structure prediction by ZEFSAII (Michael W. Deem and Ramdas Pophale) SiO2 
 PCOD9211351
Probable space group: C 2/M
;
_chemical_formula_sum "Si O2"
_cell_formula_units_Z 58
_cell_length_a 18.603442
_cell_length_b 18.842587
_cell_length_c 9.574771
_cell_angle_alpha 90.000000
_cell_angle_beta 55.114081
_cell_angle_gamma 90.000000
_cell_volume 2753.156823
_symmetry_space_group_name_H-M "C 2/M"
_symmetry_group_IT_number 12
_symmetry_cell_setting 'monoclinic'
loop_
_space_group_symop_operation_xyz
x,y,z
-x,y,-z
-x,-y,-z
x,-y,z
1/2+x,1/2+y,z
1/2-x,1/2+y,-z
1/2-x,1/2-y,-z
1/2+x,1/2-y,z
loop_
_atom_site_type_symbol
_atom_site_label
_atom_site_fract_x
_atom_site_fract_y
_atom_site_fract_z
Si Si1 0.887463 0.627380 0.977448
Si Si2 0.960480 0.081547 0.904663
Si Si3 0.767667 0.915719 0.064596
Si Si4 0.755121 0.822884 0.664584
Si Si5 0.289330 0.837818 0.600031
Si Si6 0.500000 0.000000 0.000000
Si Si7 0.975368 0.294012 0.364362
Si Si8 0.567259 0.631984 0.548420
O O1 0.806350 0.611324 0.960890
O O2 0.945682 0.562170 0.969630
O O3 0.949971 0.681144 0.823652
O O4 0.837492 0.658719 0.167255
O O5 0.037856 0.082713 0.706453
O O6 0.938362 0.000000 0.965406
O O7 0.868982 0.111768 0.944700
O O8 0.000000 0.116835 0.000000
O O9 0.738779 0.893779 0.253584
O O10 0.768067 0.000000 0.045759
O O11 0.759435 0.835642 0.493308
O O12 0.775544 0.741191 0.677726
O O13 0.835878 0.871472 0.622926
O O14 0.390664 0.843727 0.445517
O O15 0.947582 0.212160 0.376215
O O16 0.000000 0.299618 0.500000
O O17 0.500000 0.619962 0.500000
#
# Coordination Sequence:
#
# PCOD9211351 Si02
#       8
#     8   8   8   8   8   2   8   8
#     4  12  24  45  67  92 131 185 217 275 332 394
#     4  10  22  40  63  94 131 167 215 269 329 400
#     4  11  23  41  66  97 131 177 228 268 325 405
#     4  10  23  40  65  95 129 167 220 277 333 389
#     4  10  21  42  62  95 131 165 220 279 322 395
#     4  12  28  48  62 100 144 168 230 276 322 398
#     4  10  21  40  64  94 128 162 221 270 322 384
#     4  10  21  40  61  96 128 163 212 276 326 389
#
# _framework density 21.066727
#
# number of rings (size 3 to 8) (size 9 to 14) (size 15 to 20)
#    0.000    1.517    2.069    2.483    1.931    0.828 
#    7.448    1.034    0.000    0.000    0.000    0.000 
#    0.000    0.000    0.000    0.000    0.000    0.000 
#
# Total GULP energy -161460.801665 kJ/mol
# GULP energy per Si atom -5567.613851 kJ/mol
# Density = 2.101878 g / cm^3
# Si number density = 21.066727 Si / 1000 Ang^3
#
#
#
# Elastic Constant Matrix: (Units=GPa)
#
#
# Indices 1 2 3 4 5 6 
#
# 1 89.6924 5.4704 13.0355 0.0000 -8.2388 0.0000
# 2 5.4704 20.5904 8.2395 0.0000 -0.7982 0.0000
# 3 13.0355 8.2395 91.4158 0.0000 -10.2078 0.0000
# 4 0.0000 0.0000 0.0000 18.0386 0.0000 0.3271
# 5 -8.2388 -0.7982 -10.2078 0.0000 24.0514 0.0000
# 6 0.0000 0.0000 0.0000 0.3271 0.0000 17.3118
#
#
#
# Elastic Compliance Matrix: (Units=1/GPa)
#
#
# Indices 1 2 3 4 5 6 
#
# 1 0.011781 -0.002571 -0.001057 0.000000 0.003502 0.000000
# 2 -0.002571 0.050946 -0.004340 0.000000 -0.001032 0.000000
# 3 -0.001057 -0.004340 0.011993 0.000000 0.004584 0.000000
# 4 0.000000 0.000000 0.000000 0.055456 0.000000 -0.001048
# 5 0.003502 -0.001032 0.004584 0.000000 0.044688 0.000000
# 6 0.000000 0.000000 0.000000 -0.001048 0.000000 0.057784
#
#
# Mechanical properties :
#
#
# Convention : Reuss Voigt Hill
#
# Bulk Modulus (GPa) = 17.01182 28.35436 22.68309
# Shear Modulus (GPa) = 18.64416 23.54390 21.09403
#
# Velocity S-wave (km/s) = 2.97813 3.34666 3.16776
# Velocity P-wave (km/s) = 4.46301 5.33123 4.91632
#
# Compressibility (1/GPa) = 0.05878266
#
# Stress axis : x y z
#
# Youngs Moduli (GPa) = 84.87996 19.62847 83.38310
#
# Poissons Ratio (x) = 0.05047 0.08815
# Poissons Ratio (y) = 0.21825 0.36192
# Poissons Ratio (z) = 0.08974 0.08520
#
# Static dielectric constant tensor:
#      x y z
#    x 1.847700 0.000000 0.012340 
#    y 0.000000 1.751400 0.000000 
#    z 0.012340 0.000000 1.778450 
# 
# From -- ./inp_files/78005.got.cif
#   From: 2010.05.17/outbox.cif.g08.bks.cpg/sg12_40_cif.got.tgz:78005.got - 2010.06.03 13:09:07.
