data_PCOD9211613
_publ_section_title
;
Structure prediction by ZEFSAII (Michael W. Deem and Ramdas Pophale) SiO2 
 PCOD9211613
Probable space group: C 2/M
;
_chemical_formula_sum "Si O2"
_cell_formula_units_Z 64
_cell_length_a 18.300165
_cell_length_b 21.359159
_cell_length_c 16.453933
_cell_angle_alpha 90.000000
_cell_angle_beta 23.159981
_cell_angle_gamma 90.000000
_cell_volume 2529.488089
_symmetry_space_group_name_H-M "C 2/M"
_symmetry_group_IT_number 12
_symmetry_cell_setting 'monoclinic'
loop_
_space_group_symop_operation_xyz
x,y,z
-x,y,-z
-x,-y,-z
x,-y,z
1/2+x,1/2+y,z
1/2-x,1/2+y,-z
1/2-x,1/2-y,-z
1/2+x,1/2-y,z
loop_
_atom_site_type_symbol
_atom_site_label
_atom_site_fract_x
_atom_site_fract_y
_atom_site_fract_z
Si Si1 0.033405 0.756679 0.374452
Si Si2 0.455328 0.398226 0.449395
Si Si3 0.042596 0.707980 0.050258
Si Si4 0.337628 0.605778 0.925103
Si Si5 0.066567 0.627906 0.605383
Si Si6 0.383726 0.301963 0.329816
Si Si7 0.457414 0.067815 0.140251
Si Si8 0.906658 0.073696 0.177263
O O1 0.922996 0.822422 0.477854
O O2 0.000000 0.734490 0.500000
O O3 0.992528 0.697569 0.360570
O O4 0.245213 0.776404 0.152133
O O5 0.500000 0.410025 0.500000
O O6 0.599029 0.417041 0.229946
O O7 0.263731 0.431317 0.626869
O O8 0.930894 0.768672 0.196251
O O9 0.018497 0.636934 0.108707
O O10 0.000000 0.702600 0.000000
O O11 0.416075 0.677724 0.841794
O O12 0.455876 0.584420 0.884877
O O13 0.121332 0.597258 0.169163
O O14 0.244043 0.639205 0.482570
O O15 0.192460 0.596453 0.406579
O O16 0.250000 0.250000 0.500000
O O17 0.526191 0.000000 0.102616
O O18 0.500000 0.067730 0.000000
O O19 0.893862 0.000000 0.181656
O O20 0.000000 0.100895 0.000000
#
# Coordination Sequence:
#
# PCOD9211613 Si02
#       8
#     8   8   8   8   8   8   8   8
#     4  11  22  36  65 103 146 183 231 294 366 443
#     4  11  24  45  67 101 147 193 238 301 368 433
#     4  11  21  38  60  94 140 184 230 291 360 429
#     4  11  25  44  71 110 148 190 245 308 364 443
#     4  11  24  41  70 111 146 189 244 300 376 440
#     4  11  23  39  64  98 146 192 231 289 365 441
#     4  10  21  40  64  91 128 184 249 301 353 421
#     4  10  26  52  78 106 146 195 248 306 369 440
#
# _framework density 25.301562000000001
#
# number of rings (size 3 to 8) (size 9 to 14) (size 15 to 20)
#    0.000    1.250    1.250    6.000    3.500    4.250 
#    4.500    2.500    0.000    0.375    0.000    0.000 
#    0.000    0.000    0.000    0.000    0.000    0.125 
#
# Total GULP energy -178385.146941 kJ/mol
# GULP energy per Si atom -5574.535842 kJ/mol
# Density = 2.524397 g / cm^3
# Si number density = 25.301562 Si / 1000 Ang^3
#
#
#
# Elastic Constant Matrix: (Units=GPa)
#
#
# Indices 1 2 3 4 5 6 
#
# 1 98.2909 38.9184 61.5766 -0.1026 9.2124 -0.0990
# 2 38.9184 74.9451 55.0279 0.3632 -0.1199 0.3332
# 3 61.5766 55.0279 240.1053 0.2567 2.4894 0.2151
# 4 -0.1026 0.3632 0.2567 -201.8609 -0.1765 -173.9625
# 5 9.2124 -0.1199 2.4894 -0.1765 37.2778 -0.1598
# 6 -0.0990 0.3332 0.2151 -173.9625 -0.1598 -97.2090
#
#
#
# Elastic Compliance Matrix: (Units=1/GPa)
#
#
# Indices 1 2 3 4 5 6 
#
# 1 0.014179 -0.005680 -0.002300 -0.000021 -0.003369 0.000004
# 2 -0.005680 0.018321 -0.002759 0.000038 0.001647 -0.000008
# 3 -0.002300 -0.002759 0.005385 0.000002 0.000200 0.000001
# 4 -0.000021 0.000038 0.000002 0.009136 -0.000022 -0.016349
# 5 -0.003369 0.001647 0.000200 -0.000022 0.027650 0.000003
# 6 0.000004 -0.000008 0.000001 -0.016349 0.000003 0.018971
#
#
# Mechanical properties :
#
#
# Convention : Reuss Voigt Hill
#
# Bulk Modulus (GPa) = 60.94803 80.48743 70.71773
# Shear Modulus (GPa) = 41.46279 -35.17053 3.14613
#
# Velocity S-wave (km/s) = 4.05253 -3.73239 1.11631
# Velocity P-wave (km/s) = 6.78515 3.64774 5.44722
#
# Compressibility (1/GPa) = 0.01640742
#
# Stress axis : x y z
#
# Youngs Moduli (GPa) = 70.52533 54.58160 185.70373
#
# Poissons Ratio (x) = 0.31002 0.42706
# Poissons Ratio (y) = 0.40058 0.51242
# Poissons Ratio (z) = 0.16219 0.15061
#
# Static dielectric constant tensor:
#      x y z
#    x 2.170960 -0.000130 0.059400 
#    y -0.000130 2.354740 0.000030 
#    z 0.059400 0.000030 2.113010 
# 
# From -- ./inp_files/286401.got.cif
#   From: 2010.05.17/outbox.cif.g08.bks.cpg/sg12_144_cif.got.tgz:286401.got - 2010.06.03 13:09:07.
