data_PCOD9211058
_publ_section_title
;
Structure prediction by ZEFSAII (Michael W. Deem and Ramdas Pophale) SiO2 
 PCOD9211058
Probable space group: C 2/M
;
_chemical_formula_sum "Si O2"
_cell_formula_units_Z 56
_cell_length_a 18.379966
_cell_length_b 22.723578
_cell_length_c 9.029368
_cell_angle_alpha 90.000000
_cell_angle_beta 47.359117
_cell_angle_gamma 90.000000
_cell_volume 2774.142151
_symmetry_space_group_name_H-M "C 2/M"
_symmetry_group_IT_number 12
_symmetry_cell_setting 'monoclinic'
loop_
_space_group_symop_operation_xyz
x,y,z
-x,y,-z
-x,-y,-z
x,-y,z
1/2+x,1/2+y,z
1/2-x,1/2+y,-z
1/2-x,1/2-y,-z
1/2+x,1/2-y,z
loop_
_atom_site_type_symbol
_atom_site_label
_atom_site_fract_x
_atom_site_fract_y
_atom_site_fract_z
Si Si1 0.817372 0.431311 0.102990
Si Si2 0.332670 0.379524 0.924369
Si Si3 0.308109 0.155847 0.632951
Si Si4 0.971447 0.930927 0.211628
Si Si5 0.881814 0.226204 0.658661
Si Si6 0.478870 0.933988 0.353327
Si Si7 0.285165 0.649364 0.536121
O O1 0.814153 0.500000 0.150943
O O2 0.727228 0.416733 0.114922
O O3 0.800987 0.386210 0.259573
O O4 0.920386 0.421100 0.874441
O O5 0.440995 0.404325 0.808726
O O6 0.342700 0.312595 0.850060
O O7 0.268699 0.380645 0.161838
O O8 0.350231 0.206392 0.682095
O O9 0.395523 0.114751 0.452797
O O10 0.252212 0.178099 0.563917
O O11 0.869422 0.898164 0.382399
O O12 0.962235 0.000000 0.254087
O O13 0.000000 0.922823 0.000000
O O14 0.835762 0.194365 0.578968
O O15 0.000000 0.222753 0.500000
O O16 0.500000 0.935299 0.500000
O O17 0.445653 0.000000 0.355389
#
# Coordination Sequence:
#
# PCOD9211058 Si02
#       7
#     8   8   8   8   8   8   8
#     4  10  22  40  63  94 131 167 211 262 324 387
#     4  11  22  40  65  95 126 166 217 269 319 379
#     4  12  24  41  67  93 128 168 219 263 329 386
#     4  11  22  38  64  98 133 171 213 262 324 389
#     4  11  24  43  67  89 126 169 214 273 321 380
#     4  10  21  39  65  97 129 166 215 271 319 383
#     4  11  24  43  62  95 134 168 210 270 327 386
#
# _framework density 20.186420999999999
#
# number of rings (size 3 to 8) (size 9 to 14) (size 15 to 20)
#    0.000    1.143    4.286    2.143    0.000    2.286 
#    0.000    3.571    3.143    0.000    0.000    0.000 
#    0.000    0.000    0.000    0.000    0.000    0.000 
#
# Total GULP energy -156465.839130 kJ/mol
# GULP energy per Si atom -5588.065683 kJ/mol
# Density = 2.014048 g / cm^3
# Si number density = 20.186421 Si / 1000 Ang^3
#
#
#
# Elastic Constant Matrix: (Units=GPa)
#
#
# Indices 1 2 3 4 5 6 
#
# 1 69.8066 13.8637 6.1218 0.0000 -4.2268 0.0000
# 2 13.8637 65.5891 17.5010 0.0000 -17.1809 0.0000
# 3 6.1218 17.5010 63.3739 0.0000 -18.7234 0.0000
# 4 0.0000 0.0000 0.0000 21.1801 0.0000 -5.0199
# 5 -4.2268 -17.1809 -18.7234 0.0000 28.8545 0.0000
# 6 0.0000 0.0000 0.0000 -5.0199 0.0000 18.6446
#
#
#
# Elastic Compliance Matrix: (Units=1/GPa)
#
#
# Indices 1 2 3 4 5 6 
#
# 1 0.014975 -0.002999 -0.000616 0.000000 0.000008 0.000000
# 2 -0.002999 0.018925 -0.002149 0.000000 0.009435 0.000000
# 3 -0.000616 -0.002149 0.019829 0.000000 0.011497 0.000000
# 4 0.000000 0.000000 0.000000 0.050433 0.000000 0.013579
# 5 0.000008 0.009435 0.011497 0.000000 0.047736 0.000000
# 6 0.000000 0.000000 0.000000 0.013579 0.000000 0.057291
#
#
# Mechanical properties :
#
#
# Convention : Reuss Voigt Hill
#
# Bulk Modulus (GPa) = 23.69567 30.41585 27.05576
# Shear Modulus (GPa) = 21.29615 24.48803 22.89209
#
# Velocity S-wave (km/s) = 3.25156 3.48673 3.37120
# Velocity P-wave (km/s) = 5.08535 5.59552 5.34652
#
# Compressibility (1/GPa) = 0.04220180
#
# Stress axis : x y z
#
# Youngs Moduli (GPa) = 66.77622 52.83966 50.43098
#
# Poissons Ratio (x) = 0.15846 0.03106
# Poissons Ratio (y) = 0.20025 0.10838
# Poissons Ratio (z) = 0.04113 0.11356
#
# Static dielectric constant tensor:
#      x y z
#    x 1.697420 0.000000 0.016470 
#    y 0.000000 1.708670 0.000000 
#    z 0.016470 0.000000 1.694930 
# 
# From -- ./inp_files/79061.got.cif
#   From: 2010.05.17/outbox.cif.g08.bks.cpg/sg12_40_cif.got.tgz:79061.got - 2010.06.03 13:09:07.
