data_PCOD9211367
_publ_section_title
;
Structure prediction by ZEFSAII (Michael W. Deem and Ramdas Pophale) SiO2 
 PCOD9211367
Probable space group: C 2/M
;
_chemical_formula_sum "Si O2"
_cell_formula_units_Z 56
_cell_length_a 23.860134
_cell_length_b 17.410159
_cell_length_c 10.162520
_cell_angle_alpha 90.000000
_cell_angle_beta 136.603362
_cell_angle_gamma 90.000000
_cell_volume 2900.428299
_symmetry_space_group_name_H-M "C 2/M"
_symmetry_group_IT_number 12
_symmetry_cell_setting 'monoclinic'
loop_
_space_group_symop_operation_xyz
x,y,z
-x,y,-z
-x,-y,-z
x,-y,z
1/2+x,1/2+y,z
1/2-x,1/2+y,-z
1/2-x,1/2-y,-z
1/2+x,1/2-y,z
loop_
_atom_site_type_symbol
_atom_site_label
_atom_site_fract_x
_atom_site_fract_y
_atom_site_fract_z
Si Si1 0.500000 0.702825 0.000000
Si Si2 0.594002 0.385566 0.638546
Si Si3 0.789468 0.588405 0.599165
Si Si4 0.315669 0.500000 0.004500
Si Si5 0.897845 0.086065 0.654559
Si Si6 0.646242 0.783516 0.098645
Si Si7 0.843265 0.721926 0.179569
Si Si8 0.772038 0.359551 0.290755
O O1 0.456480 0.648195 0.818841
O O2 0.432496 0.752335 0.959828
O O3 0.500000 0.406945 0.500000
O O4 0.649529 0.433490 0.833030
O O5 0.614222 0.401394 0.521332
O O6 0.606569 0.295933 0.689736
O O7 0.814048 0.500000 0.659630
O O8 0.690807 0.590946 0.431164
O O9 0.819424 0.643573 0.765496
O O10 0.815269 0.620789 0.501614
O O11 0.281005 0.431929 0.847018
O O12 0.931694 0.000000 0.731710
O O13 0.713464 0.714620 0.212941
O O14 0.628383 0.803676 0.916129
O O15 0.835493 0.660533 0.282589
O O16 0.750000 0.750000 0.000000
#
# Coordination Sequence:
#
# PCOD9211367 Si02
#       8
#     4   8   8   4   8   8   8   8
#     4  12  25  38  59  92 130 174 202 250 317 385
#     4  12  24  38  58  92 132 169 206 255 312 376
#     4  11  24  42  63  95 123 162 209 268 314 365
#     4  12  23  38  60  94 133 164 205 258 318 369
#     4  11  24  37  58  90 131 169 208 248 311 379
#     4  11  23  41  63  92 125 166 211 254 313 373
#     4  10  21  40  62  85 120 164 218 258 294 360
#     4  11  22  40  66  89 125 164 213 261 305 368
#
# _framework density 19.307493000000001
#
# number of rings (size 3 to 8) (size 9 to 14) (size 15 to 20)
#    0.000    0.857    5.714    3.429    2.000    0.000 
#    0.000    0.357    0.000    0.000    0.000    1.500 
#    0.000    0.000    0.000    0.000    0.000    0.000 
#
# Total GULP energy -155975.240988 kJ/mol
# GULP energy per Si atom -5570.544321 kJ/mol
# Density = 1.926355 g / cm^3
# Si number density = 19.307493 Si / 1000 Ang^3
#
#
#
# Elastic Constant Matrix: (Units=GPa)
#
#
# Indices 1 2 3 4 5 6 
#
# 1 61.0970 43.6780 31.2139 0.0000 -21.8120 0.0000
# 2 43.6780 134.9558 49.3657 0.0000 -19.0793 0.0000
# 3 31.2139 49.3657 47.5853 0.0000 -22.9098 0.0000
# 4 0.0000 0.0000 0.0000 1.0910 0.0000 -17.1510
# 5 -21.8120 -19.0793 -22.9098 0.0000 29.1212 0.0000
# 6 0.0000 0.0000 0.0000 -17.1510 0.0000 -0.8256
#
#
#
# Elastic Compliance Matrix: (Units=1/GPa)
#
#
# Indices 1 2 3 4 5 6 
#
# 1 0.027768 -0.004392 -0.008097 0.000000 0.011551 0.000000
# 2 -0.004392 0.012812 -0.012801 0.000000 -0.004967 0.000000
# 3 -0.008097 -0.012801 0.052553 0.000000 0.026893 0.000000
# 4 0.000000 0.000000 0.000000 0.002798 0.000000 -0.058127
# 5 0.011551 -0.004967 0.026893 0.000000 0.060893 0.000000
# 6 0.000000 0.000000 0.000000 -0.058127 0.000000 -0.003698
#
#
# Mechanical properties :
#
#
# Convention : Reuss Voigt Hill
#
# Bulk Modulus (GPa) = 23.50034 54.68369 39.09201
# Shear Modulus (GPa) = 22.94722 13.83603 18.39163
#
# Velocity S-wave (km/s) = 3.45122 2.67987 3.08971
# Velocity P-wave (km/s) = 5.29899 6.16114 5.74626
#
# Compressibility (1/GPa) = 0.04255258
#
# Stress axis : x y z
#
# Youngs Moduli (GPa) = 36.01308 78.05334 19.02823
#
# Poissons Ratio (x) = 0.34283 0.15407
# Poissons Ratio (y) = 0.15818 0.24358
# Poissons Ratio (z) = 0.29159 0.99918
#
# Static dielectric constant tensor:
#      x y z
#    x 1.725980 0.000000 -0.008560 
#    y 0.000000 1.676650 0.000000 
#    z -0.008560 0.000000 1.651350 
# 
# From -- ./inp_files/98235.got.cif
#   From: 2010.05.17/outbox.cif.g08.bks.cpg/sg12_50_cif.got.tgz:98235.got - 2010.06.03 13:09:07.
