data_PCOD9211487
_publ_section_title
;
Structure prediction by ZEFSAII (Michael W. Deem and Ramdas Pophale) SiO2 
 PCOD9211487
Probable space group: C 2/M
;
_chemical_formula_sum "Si O2"
_cell_formula_units_Z 50
_cell_length_a 17.112590
_cell_length_b 9.474339
_cell_length_c 16.844652
_cell_angle_alpha 90.000000
_cell_angle_beta 60.293397
_cell_angle_gamma 90.000000
_cell_volume 2372.104069
_symmetry_space_group_name_H-M "C 2/M"
_symmetry_group_IT_number 12
_symmetry_cell_setting 'monoclinic'
loop_
_space_group_symop_operation_xyz
x,y,z
-x,y,-z
-x,-y,-z
x,-y,z
1/2+x,1/2+y,z
1/2-x,1/2+y,-z
1/2-x,1/2-y,-z
1/2+x,1/2-y,z
loop_
_atom_site_type_symbol
_atom_site_label
_atom_site_fract_x
_atom_site_fract_y
_atom_site_fract_z
Si Si1 0.154824 0.829404 0.033624
Si Si2 0.999407 0.337036 0.810135
Si Si3 0.693850 0.341969 0.468096
Si Si4 0.318265 0.332072 0.703817
Si Si5 0.359388 0.167543 0.117083
Si Si6 0.500000 0.000000 0.500000
Si Si7 0.518743 0.759773 0.625330
O O1 0.081926 0.770862 0.132862
O O2 0.163213 0.000000 0.031267
O O3 0.250000 0.750000 0.000000
O O4 0.119324 0.767879 0.967328
O O5 0.966629 0.500000 0.828838
O O6 0.042488 0.310016 0.702184
O O7 0.072021 0.320851 0.844022
O O8 0.730973 0.500000 0.446131
O O9 0.750000 0.250000 0.500000
O O10 0.694398 0.277319 0.379550
O O11 0.592979 0.344758 0.553072
O O12 0.309676 0.500000 0.702738
O O13 0.238811 0.286822 0.801804
O O14 0.417789 0.297813 0.681245
O O15 0.358192 0.000000 0.093975
O O16 0.515065 0.880139 0.561305
#
# Coordination Sequence:
#
# PCOD9211487 Si02
#       7
#     8   8   8   8   8   2   8
#     4  12  26  45  69  99 133 172 219 275 329 392
#     4  11  24  42  68  97 134 175 218 265 328 397
#     4  11  24  39  61  90 127 170 218 271 329 389
#     4  10  21  40  63  89 122 166 215 268 320 387
#     4  10  22  43  68  97 132 174 217 266 327 393
#     4  12  24  40  66  96 138 172 218 280 328 392
#     4  12  23  41  65  96 131 173 222 272 329 387
#
# _framework density 21.078332
#
# number of rings (size 3 to 8) (size 9 to 14) (size 15 to 20)
#    0.000    0.960    2.400    4.320    1.120    7.680 
#    1.440    1.600    0.000    0.000    0.000    0.000 
#    0.000    0.000    0.000    0.000    0.000    0.000 
#
# Total GULP energy -139464.596860 kJ/mol
# GULP energy per Si atom -5578.583874 kJ/mol
# Density = 2.103036 g / cm^3
# Si number density = 21.078332 Si / 1000 Ang^3
#
#
#
# Elastic Constant Matrix: (Units=GPa)
#
#
# Indices 1 2 3 4 5 6 
#
# 1 37.4922 -0.6399 15.7520 0.0000 10.5449 0.0000
# 2 -0.6399 74.7420 41.9109 0.0000 5.6846 0.0001
# 3 15.7520 41.9109 103.0613 0.0000 22.8717 0.0000
# 4 0.0000 0.0000 0.0000 57.4441 0.0000 -25.8081
# 5 10.5449 5.6846 22.8717 0.0000 46.8190 0.0000
# 6 0.0000 0.0001 0.0000 -25.8081 0.0000 164.9256
#
#
#
# Elastic Compliance Matrix: (Units=1/GPa)
#
#
# Indices 1 2 3 4 5 6 
#
# 1 0.030145 0.003380 -0.004917 0.000000 -0.004798 0.000000
# 2 0.003380 0.017805 -0.007973 0.000000 0.000972 0.000000
# 3 -0.004917 -0.007973 0.014846 0.000000 -0.005177 0.000000
# 4 0.000000 0.000000 0.000000 0.018725 0.000000 0.002930
# 5 -0.004798 0.000972 -0.005177 0.000000 0.024850 0.000000
# 6 0.000000 0.000000 0.000000 0.002930 0.000000 0.006522
#
#
# Mechanical properties :
#
#
# Convention : Reuss Voigt Hill
#
# Bulk Modulus (GPa) = 22.84345 36.59349 29.71847
# Shear Modulus (GPa) = 34.12857 64.38924 49.25891
#
# Velocity S-wave (km/s) = 4.02821 5.53298 4.83944
# Velocity P-wave (km/s) = 5.70054 7.63000 6.73473
#
# Compressibility (1/GPa) = 0.04377623
#
# Stress axis : x y z
#
# Youngs Moduli (GPa) = 33.17267 56.16360 67.35992
#
# Poissons Ratio (x) = -0.18985 0.33123
# Poissons Ratio (y) = -0.11214 0.53705
# Poissons Ratio (z) = 0.16312 0.44779
#
# Static dielectric constant tensor:
#      x y z
#    x 1.806470 0.000000 -0.030440 
#    y 0.000000 1.712840 0.000000 
#    z -0.030440 0.000000 1.812720 
# 
# From -- ./inp_files/274950.got.cif
#   From: 2010.05.17/outbox.cif.g08.bks.cpg/sg12_138_cif.got.tgz:274950.got - 2010.06.03 13:09:07.
