data_PCOD9211903
_publ_section_title
;
Structure prediction by ZEFSAII (Michael W. Deem and Ramdas Pophale) SiO2 
 PCOD9211903
Probable space group: C 2/M
;
_chemical_formula_sum "Si O2"
_cell_formula_units_Z 28
_cell_length_a 11.122437
_cell_length_b 21.035228
_cell_length_c 8.342813
_cell_angle_alpha 90.000000
_cell_angle_beta 38.184100
_cell_angle_gamma 90.000000
_cell_volume 1206.651527
_symmetry_space_group_name_H-M "C 2/M"
_symmetry_group_IT_number 12
_symmetry_cell_setting 'monoclinic'
loop_
_space_group_symop_operation_xyz
x,y,z
-x,y,-z
-x,-y,-z
x,-y,z
1/2+x,1/2+y,z
1/2-x,1/2+y,-z
1/2-x,1/2-y,-z
1/2+x,1/2-y,z
loop_
_atom_site_type_symbol
_atom_site_label
_atom_site_fract_x
_atom_site_fract_y
_atom_site_fract_z
Si Si1 0.891510 0.690762 0.328603
Si Si2 0.890298 0.070709 0.948914
Si Si3 0.693676 0.676402 0.226439
Si Si4 0.000000 0.603981 0.500000
O O1 0.750000 0.750000 0.500000
O O2 0.799905 0.651493 0.276399
O O3 0.895836 0.648353 0.479847
O O4 0.115860 0.710008 0.052407
O O5 0.664871 0.066776 0.234838
O O6 0.960250 0.000000 0.826416
O O7 0.885877 0.123877 0.814474
O O8 0.000000 0.088408 0.000000
O O9 0.500000 0.710706 0.500000
#
# Coordination Sequence:
#
# PCOD9211903 Si02
#       4
#     8   8   8   4
#     4  10  23  42  62  91 127 171 219 266 320 373
#     4  10  21  40  67  96 128 168 209 266 326 378
#     4  10  22  42  62  93 130 164 217 267 315 388
#     4  10  21  42  64  94 128 168 219 266 314 386
#
# _framework density 23.204711
#
# number of rings (size 3 to 8) (size 9 to 14) (size 15 to 20)
#    0.000    2.000    0.000    2.143    2.000    1.714 
#   20.571   12.857    0.000    0.000    0.000    0.000 
#    0.000    0.000    0.000    0.000    0.000    0.000 
#
# Total GULP energy -78065.476255 kJ/mol
# GULP energy per Si atom -5576.105447 kJ/mol
# Density = 2.315190 g / cm^3
# Si number density = 23.204711 Si / 1000 Ang^3
#
#
#
# Elastic Constant Matrix: (Units=GPa)
#
#
# Indices 1 2 3 4 5 6 
#
# 1 177.8511 72.7426 9.2844 0.0000 11.9660 0.0000
# 2 72.7426 91.0964 45.7338 0.0000 1.5589 0.0000
# 3 9.2844 45.7338 162.1812 0.0000 -33.0199 0.0000
# 4 0.0000 0.0000 0.0000 1.4084 0.0000 -12.7681
# 5 11.9660 1.5589 -33.0199 0.0000 47.8878 0.0000
# 6 0.0000 0.0000 0.0000 -12.7681 0.0000 9.9529
#
#
#
# Elastic Compliance Matrix: (Units=1/GPa)
#
#
# Indices 1 2 3 4 5 6 
#
# 1 0.008771 -0.007739 0.001495 0.000000 -0.000909 0.000000
# 2 -0.007739 0.020103 -0.005776 0.000000 -0.002704 0.000000
# 3 0.001495 -0.005776 0.008924 0.000000 0.005968 0.000000
# 4 0.000000 0.000000 0.000000 -0.066795 0.000000 -0.085688
# 5 -0.000909 -0.002704 0.005968 0.000000 0.025312 0.000000
# 6 0.000000 0.000000 0.000000 -0.085688 0.000000 -0.009452
#
#
# Mechanical properties :
#
#
# Convention : Reuss Voigt Hill
#
# Bulk Modulus (GPa) = 72.68315 76.29448 74.48882
# Shear Modulus (GPa) = 322.78526 32.07436 177.42981
#
# Velocity S-wave (km/s) = 11.80700 3.72188 8.75379
# Velocity P-wave (km/s) = 14.73989 7.17078 11.59061
#
# Compressibility (1/GPa) = 0.01375835
#
# Stress axis : x y z
#
# Youngs Moduli (GPa) = 114.01091 49.74282 112.05326
#
# Poissons Ratio (x) = 0.38496 -0.16754
# Poissons Ratio (y) = 0.88233 0.64727
# Poissons Ratio (z) = -0.17047 0.28734
#
# Static dielectric constant tensor:
#      x y z
#    x 1.900610 0.000000 -0.006210 
#    y 0.000000 1.942630 0.000000 
#    z -0.006210 0.000000 1.929220 
# 
# From -- ./inp_files/48236.got.cif
#   From: 2010.05.17/outbox.cif.g08.bks.cpg/sg12_25_cif.got.tgz:48236.got - 2010.06.03 13:09:07.
