data_PCOD9211356
_publ_section_title
;
Structure prediction by ZEFSAII (Michael W. Deem and Ramdas Pophale) SiO2 
 PCOD9211356
Probable space group: C 2/M
;
_chemical_formula_sum "Si O2"
_cell_formula_units_Z 58
_cell_length_a 11.046383
_cell_length_b 14.975183
_cell_length_c 24.781908
_cell_angle_alpha 90.000000
_cell_angle_beta 140.828912
_cell_angle_gamma 90.000000
_cell_volume 2589.377367
_symmetry_space_group_name_H-M "C 2/M"
_symmetry_group_IT_number 12
_symmetry_cell_setting 'monoclinic'
loop_
_space_group_symop_operation_xyz
x,y,z
-x,y,-z
-x,-y,-z
x,-y,z
1/2+x,1/2+y,z
1/2-x,1/2+y,-z
1/2-x,1/2-y,-z
1/2+x,1/2-y,z
loop_
_atom_site_type_symbol
_atom_site_label
_atom_site_fract_x
_atom_site_fract_y
_atom_site_fract_z
Si Si1 0.419984 0.340115 0.745064
Si Si2 0.724928 0.354239 0.127282
Si Si3 0.910053 0.602728 0.299484
Si Si4 0.500000 0.500000 0.000000
Si Si5 0.971015 0.103408 0.644328
Si Si6 0.402518 0.147727 0.798479
Si Si7 0.828389 0.109280 0.479751
Si Si8 0.657790 0.150540 0.095035
O O1 0.232108 0.391478 0.699242
O O2 0.430892 0.340015 0.684107
O O3 0.406444 0.243785 0.769549
O O4 0.623384 0.383719 0.833244
O O5 0.805889 0.345560 0.215412
O O6 0.550513 0.421237 0.061755
O O7 0.678701 0.256169 0.090356
O O8 0.900400 0.395690 0.153633
O O9 0.928043 0.500000 0.287839
O O10 0.120694 0.636498 0.386488
O O11 0.199716 0.105507 0.712310
O O12 0.866813 0.136726 0.554564
O O13 0.917063 0.000000 0.636260
O O14 0.405223 0.146430 0.864276
O O15 0.000000 0.139104 0.500000
O O16 0.831285 0.000000 0.481164
O O17 0.500000 0.112252 0.000000
#
# Coordination Sequence:
#
# PCOD9211356 Si02
#       8
#     8   8   8   2   8   8   8   8
#     4  10  22  38  61  89 124 160 202 251 315 370
#     4  11  22  36  58  85 123 152 199 253 310 359
#     4  11  21  37  62  89 124 162 197 254 317 363
#     4  12  24  36  52  96 120 146 198 266 302 350
#     4  10  21  40  65  90 121 162 214 254 300 375
#     4  10  22  39  64  85 124 165 202 253 315 371
#     4   9  19  36  62  94 121 159 210 252 302 372
#     4  10  21  40  62  84 112 164 211 244 300 375
#
# _framework density 22.399207000000001
#
# number of rings (size 3 to 8) (size 9 to 14) (size 15 to 20)
#    0.000    1.793    2.759    1.241    0.966    4.966 
#    0.000    2.759    6.069    2.069    0.000    0.000 
#    0.000    0.000    0.000    0.000    0.000    0.000 
#
# Total GULP energy -161733.044341 kJ/mol
# GULP energy per Si atom -5577.001529 kJ/mol
# Density = 2.234823 g / cm^3
# Si number density = 22.399207 Si / 1000 Ang^3
#
#
#
# Elastic Constant Matrix: (Units=GPa)
#
#
# Indices 1 2 3 4 5 6 
#
# 1 97.1106 3.1970 45.9278 0.0000 -1.5206 0.0000
# 2 3.1970 47.8555 7.9202 0.0000 -4.0597 0.0000
# 3 45.9278 7.9202 151.2172 0.0000 -21.4315 -0.0001
# 4 0.0000 0.0000 0.0000 16.0729 0.0000 -4.9329
# 5 -1.5206 -4.0597 -21.4315 0.0000 27.0254 0.0000
# 6 0.0000 0.0000 -0.0001 -4.9329 0.0000 -9.5806
#
#
#
# Elastic Compliance Matrix: (Units=1/GPa)
#
#
# Indices 1 2 3 4 5 6 
#
# 1 0.012183 -0.000363 -0.004047 0.000000 -0.002578 0.000000
# 2 -0.000363 0.021251 -0.000623 0.000000 0.002678 0.000000
# 3 -0.004047 -0.000623 0.008820 0.000000 0.006673 0.000000
# 4 0.000000 0.000000 0.000000 0.053726 0.000000 -0.027663
# 5 -0.002578 0.002678 0.006673 0.000000 0.042552 0.000000
# 6 0.000000 0.000000 0.000000 -0.027663 0.000000 -0.090134
#
#
# Mechanical properties :
#
#
# Convention : Reuss Voigt Hill
#
# Bulk Modulus (GPa) = 31.06689 45.58593 38.32641
# Shear Modulus (GPa) = 72.26147 22.64609 47.45378
#
# Velocity S-wave (km/s) = 5.68601 3.18311 4.60776
# Velocity P-wave (km/s) = 7.55033 5.82283 6.74213
#
# Compressibility (1/GPa) = 0.03218861
#
# Stress axis : x y z
#
# Youngs Moduli (GPa) = 82.08212 47.05712 113.37239
#
# Poissons Ratio (x) = 0.01707 0.45877
# Poissons Ratio (y) = 0.02978 0.07067
# Poissons Ratio (z) = 0.33215 0.02933
#
# Static dielectric constant tensor:
#      x y z
#    x 1.833500 0.000000 0.026390 
#    y 0.000000 1.873750 0.000000 
#    z 0.026390 0.000000 1.849280 
# 
# From -- ./inp_files/358815.got.cif
#   From: 2010.05.17/outbox.cif.g08.bks.cpg/sg12_180_cif.got.tgz:358815.got - 2010.06.03 13:09:07.
