data_PCOD9211839
_publ_section_title
;
Structure prediction by ZEFSAII (Michael W. Deem and Ramdas Pophale) SiO2 
 PCOD9211839
Probable space group: C 2/M
;
_chemical_formula_sum "Si O2"
_cell_formula_units_Z 44
_cell_length_a 17.721526
_cell_length_b 20.628132
_cell_length_c 8.650522
_cell_angle_alpha 90.000000
_cell_angle_beta 135.594025
_cell_angle_gamma 90.000000
_cell_volume 2212.782335
_symmetry_space_group_name_H-M "C 2/M"
_symmetry_group_IT_number 12
_symmetry_cell_setting 'monoclinic'
loop_
_space_group_symop_operation_xyz
x,y,z
-x,y,-z
-x,-y,-z
x,-y,z
1/2+x,1/2+y,z
1/2-x,1/2+y,-z
1/2-x,1/2-y,-z
1/2+x,1/2-y,z
loop_
_atom_site_type_symbol
_atom_site_label
_atom_site_fract_x
_atom_site_fract_y
_atom_site_fract_z
Si Si1 0.500000 0.385138 0.500000
Si Si2 0.756550 0.928466 0.104080
Si Si3 0.265574 0.191603 0.139361
Si Si4 0.853631 0.711121 0.584095
Si Si5 0.874308 0.427215 0.769375
Si Si6 0.977432 0.180270 0.130980
O O1 0.385520 0.421221 0.315191
O O2 0.491006 0.348560 0.653867
O O3 0.698150 0.921441 0.182999
O O4 0.732708 0.000000 0.007967
O O5 0.715147 0.873205 0.928781
O O6 0.350124 0.209044 0.393617
O O7 0.250000 0.250000 0.000000
O O8 0.150550 0.185528 0.053628
O O9 0.750000 0.750000 0.500000
O O10 0.851600 0.636765 0.636508
O O11 0.958548 0.751919 0.784481
O O12 0.853705 0.500000 0.672323
O O13 0.000000 0.425309 0.000000
O O14 0.000000 0.144444 0.000000
#
# Coordination Sequence:
#
# PCOD9211839 Si02
#       6
#     4   8   8   8   8   8
#     4  10  21  40  66  94 131 164 216 260 339 378
#     4  10  22  41  64  89 125 167 211 262 325 385
#     4  11  24  39  60  91 126 161 210 264 323 375
#     4  12  22  37  64  92 124 162 214 265 316 372
#     4  10  23  42  63  90 128 174 215 258 318 396
#     4  11  22  38  61  93 129 161 206 267 319 382
#
# _framework density 19.884467999999998
#
# number of rings (size 3 to 8) (size 9 to 14) (size 15 to 20)
#    0.000    1.273    1.818    5.182    2.545    0.727 
#    0.000    0.000    0.000    6.000    0.000    0.000 
#    0.000    0.000    0.000    0.000    0.000    0.000 
#
# Total GULP energy -122728.071242 kJ/mol
# GULP energy per Si atom -5578.548693 kJ/mol
# Density = 1.983921 g / cm^3
# Si number density = 19.884468 Si / 1000 Ang^3
#
#
#
# Elastic Constant Matrix: (Units=GPa)
#
#
# Indices 1 2 3 4 5 6 
#
# 1 80.3907 26.8901 2.2417 0.0000 -18.5379 0.0000
# 2 26.8901 139.5664 39.2477 0.0000 -28.4337 0.0000
# 3 2.2417 39.2477 81.2568 0.0000 -32.4968 0.0000
# 4 0.0000 0.0000 0.0000 27.4333 0.0000 -4.2679
# 5 -18.5379 -28.4337 -32.4968 0.0000 34.4522 0.0000
# 6 0.0000 0.0000 0.0000 -4.2679 0.0000 31.9983
#
#
#
# Elastic Compliance Matrix: (Units=1/GPa)
#
#
# Indices 1 2 3 4 5 6 
#
# 1 0.015688 -0.002128 0.005248 0.000000 0.011636 0.000000
# 2 -0.002128 0.009134 -0.002884 0.000000 0.003673 0.000000
# 3 0.005248 -0.002884 0.022051 0.000000 0.021243 0.000000
# 4 0.000000 0.000000 0.000000 0.037224 0.000000 0.004965
# 5 0.011636 0.003673 0.021243 0.000000 0.058355 0.000000
# 6 0.000000 0.000000 0.000000 0.004965 0.000000 0.031914
#
#
# Mechanical properties :
#
#
# Convention : Reuss Voigt Hill
#
# Bulk Modulus (GPa) = 21.12156 48.66366 34.89261
# Shear Modulus (GPa) = 26.36083 34.29908 30.32995
#
# Velocity S-wave (km/s) = 3.64497 4.15772 3.90976
# Velocity P-wave (km/s) = 5.32537 6.89748 6.16177
#
# Compressibility (1/GPa) = 0.04734499
#
# Stress axis : x y z
#
# Youngs Moduli (GPa) = 63.74374 109.47543 45.35039
#
# Poissons Ratio (x) = 0.23296 -0.23802
# Poissons Ratio (y) = 0.13564 0.13081
# Poissons Ratio (z) = -0.33455 0.31577
#
# Static dielectric constant tensor:
#      x y z
#    x 1.702750 0.000000 -0.030970 
#    y 0.000000 1.704320 0.000000 
#    z -0.030970 0.000000 1.721880 
# 
# From -- ./inp_files/76110.got.cif
#   From: 2010.05.17/outbox.cif.g08.bks.cpg/sg12_39_cif.got.tgz:76110.got - 2010.06.03 13:09:07.
