data_PCOD9211419
_publ_section_title
;
Structure prediction by ZEFSAII (Michael W. Deem and Ramdas Pophale) SiO2 
 PCOD9211419
Probable space group: C 2/M
;
_chemical_formula_sum "Si O2"
_cell_formula_units_Z 42
_cell_length_a 7.920467
_cell_length_b 32.697972
_cell_length_c 9.285510
_cell_angle_alpha 90.000000
_cell_angle_beta 132.528132
_cell_angle_gamma 90.000000
_cell_volume 1772.200117
_symmetry_space_group_name_H-M "C 2/M"
_symmetry_group_IT_number 12
_symmetry_cell_setting 'monoclinic'
loop_
_space_group_symop_operation_xyz
x,y,z
-x,y,-z
-x,-y,-z
x,-y,z
1/2+x,1/2+y,z
1/2-x,1/2+y,-z
1/2-x,1/2-y,-z
1/2+x,1/2-y,z
loop_
_atom_site_type_symbol
_atom_site_label
_atom_site_fract_x
_atom_site_fract_y
_atom_site_fract_z
Si Si1 0.542955 0.362253 0.354988
Si Si2 0.704439 0.202806 0.006521
Si Si3 0.500000 0.000000 0.500000
Si Si4 0.119606 0.044677 0.754997
Si Si5 0.732333 0.139645 0.793168
Si Si6 0.464320 0.058008 0.212918
O O1 0.500000 0.355340 0.500000
O O2 0.387109 0.327341 0.189013
O O3 0.497470 0.411204 0.310133
O O4 0.761476 0.358394 0.375802
O O5 0.500000 0.200993 0.000000
O O6 0.750000 0.250000 0.000000
O O7 0.666051 0.181809 0.830059
O O8 0.566624 0.964978 0.657226
O O9 0.291199 0.047340 0.717399
O O10 0.993782 0.000000 0.681481
O O11 0.278811 0.044823 0.987701
O O12 0.576118 0.105468 0.778937
O O13 0.000000 0.129881 0.000000
#
# Coordination Sequence:
#
# PCOD9211419 Si02
#       6
#     8   8   2   8   8   8
#     4  11  25  42  64  99 138 166 219 275 316 378
#     4  11  22  45  76  99 125 171 212 254 332 402
#     4  12  24  34  58  90 126 164 238 288 300 378
#     4  11  21  41  61  85 128 183 219 262 331 389
#     4  10  21  40  62  92 127 169 211 263 328 388
#     4  11  21  38  59  88 122 172 226 267 322 381
#
# _framework density 23.699356999999999
#
# number of rings (size 3 to 8) (size 9 to 14) (size 15 to 20)
#    0.000    1.143    5.714    3.429    2.667    0.381 
#    1.714    5.238    0.000    0.000    0.000    0.000 
#    0.000    0.000    0.000    0.000    0.000    0.000 
#
# Total GULP energy -117069.053327 kJ/mol
# GULP energy per Si atom -5574.716825 kJ/mol
# Density = 2.364542 g / cm^3
# Si number density = 23.699357 Si / 1000 Ang^3
#
#
#
# Elastic Constant Matrix: (Units=GPa)
#
#
# Indices 1 2 3 4 5 6 
#
# 1 104.3012 54.3574 35.0487 0.0000 -29.4366 0.0000
# 2 54.3574 245.3911 64.0477 0.0000 -21.1803 0.0000
# 3 35.0487 64.0477 128.5422 0.0000 -41.5941 0.0000
# 4 0.0000 0.0000 0.0000 38.5710 0.0000 -12.5736
# 5 -29.4366 -21.1803 -41.5941 0.0000 39.1294 0.0000
# 6 0.0000 0.0000 0.0000 -12.5736 0.0000 43.5037
#
#
#
# Elastic Compliance Matrix: (Units=1/GPa)
#
#
# Indices 1 2 3 4 5 6 
#
# 1 0.013206 -0.002263 0.000526 0.000000 0.009269 0.000000
# 2 -0.002263 0.005072 -0.002397 0.000000 -0.001505 0.000000
# 3 0.000526 -0.002397 0.013016 0.000000 0.012934 0.000000
# 4 0.000000 0.000000 0.000000 0.028623 0.000000 0.008273
# 5 0.009269 -0.001505 0.012934 0.000000 0.045463 0.000000
# 6 0.000000 0.000000 0.000000 0.008273 0.000000 0.025378
#
#
# Mechanical properties :
#
#
# Convention : Reuss Voigt Hill
#
# Bulk Modulus (GPa) = 43.42934 87.23800 65.33367
# Shear Modulus (GPa) = 34.08306 45.89287 39.98796
#
# Velocity S-wave (km/s) = 3.79640 4.40530 4.11213
# Velocity P-wave (km/s) = 6.13040 7.92248 7.08334
#
# Compressibility (1/GPa) = 0.02302591
#
# Stress axis : x y z
#
# Youngs Moduli (GPa) = 75.72304 197.15647 76.83024
#
# Poissons Ratio (x) = 0.44607 -0.04040
# Poissons Ratio (y) = 0.17132 0.18418
# Poissons Ratio (z) = -0.03982 0.47264
#
# Static dielectric constant tensor:
#      x y z
#    x 2.057500 0.000000 0.103360 
#    y 0.000000 1.795840 0.000000 
#    z 0.103360 0.000000 1.996360 
# 
# From -- ./inp_files/41826.got.cif
#   From: 2010.05.17/outbox.cif.g08.bks.cpg/sg12_21_cif.got.tgz:41826.got - 2010.06.03 13:09:07.
