data_PCOD9211563
_publ_section_title
;
Structure prediction by ZEFSAII (Michael W. Deem and Ramdas Pophale) SiO2 
 PCOD9211563
Probable space group: C 2/M
;
_chemical_formula_sum "Si O2"
_cell_formula_units_Z 64
_cell_length_a 28.340293
_cell_length_b 15.449737
_cell_length_c 9.584842
_cell_angle_alpha 90.000000
_cell_angle_beta 126.925165
_cell_angle_gamma 90.000000
_cell_volume 3354.948568
_symmetry_space_group_name_H-M "C 2/M"
_symmetry_group_IT_number 12
_symmetry_cell_setting 'monoclinic'
loop_
_space_group_symop_operation_xyz
x,y,z
-x,y,-z
-x,-y,-z
x,-y,z
1/2+x,1/2+y,z
1/2-x,1/2+y,-z
1/2-x,1/2-y,-z
1/2+x,1/2-y,z
loop_
_atom_site_type_symbol
_atom_site_label
_atom_site_fract_x
_atom_site_fract_y
_atom_site_fract_z
Si Si1 0.237255 0.102915 0.535401
Si Si2 0.101136 0.290440 0.925283
Si Si3 0.690240 0.399699 0.769077
Si Si4 0.690799 0.894996 0.889493
Si Si5 0.891330 0.328671 0.498104
Si Si6 0.502480 0.098180 0.164053
Si Si7 0.933453 0.816827 0.381039
Si Si8 0.660421 0.757711 0.317190
O O1 0.216921 0.108435 0.660910
O O2 0.296894 0.158378 0.623499
O O3 0.192495 0.164446 0.369799
O O4 0.240944 0.000000 0.506051
O O5 0.152148 0.345429 0.938129
O O6 0.085809 0.206346 0.809154
O O7 0.043104 0.348402 0.826516
O O8 0.117650 0.265898 0.110970
O O9 0.685400 0.500000 0.793803
O O10 0.624059 0.364504 0.660267
O O11 0.741241 0.365667 0.965009
O O12 0.661257 0.867771 0.689667
O O13 0.687159 0.000000 0.899175
O O14 0.933196 0.395523 0.653157
O O15 0.931979 0.272660 0.466097
O O16 0.867307 0.268478 0.579406
O O17 0.481806 0.000000 0.122987
O O18 0.500000 0.130579 0.000000
O O19 0.000000 0.853519 0.500000
#
# Coordination Sequence:
#
# PCOD9211563 Si02
#       8
#     8   8   8   8   8   8   8   8
#     4  10  22  39  62  93 128 163 203 256 316 377
#     4  11  22  37  59  86 122 164 203 247 309 376
#     4  10  21  40  64  89 119 158 203 258 316 368
#     4  10  22  38  58  88 126 161 199 254 313 371
#     4  11  22  38  59  89 124 162 208 249 306 368
#     4  11  22  35  56  88 123 163 207 252 301 369
#     4  11  23  40  62  87 118 159 207 254 299 366
#     4  11  22  39  63  93 123 166 206 253 314 375
#
# _framework density 19.076298000000001
#
# number of rings (size 3 to 8) (size 9 to 14) (size 15 to 20)
#    0.000    1.375    5.000    0.750    0.000    5.750 
#    0.000    3.750    0.000    0.000    0.000    2.625 
#    0.000    0.000    0.000    0.000    0.000    0.000 
#
# Total GULP energy -178341.364633 kJ/mol
# GULP energy per Si atom -5573.167645 kJ/mol
# Density = 1.903288 g / cm^3
# Si number density = 19.076298 Si / 1000 Ang^3
#
#
#
# Elastic Constant Matrix: (Units=GPa)
#
#
# Indices 1 2 3 4 5 6 
#
# 1 72.0468 16.5763 33.6744 0.0000 12.5292 0.0000
# 2 16.5763 63.3940 35.7398 0.0000 1.5672 0.0000
# 3 33.6744 35.7398 114.8765 0.0000 13.4191 0.0000
# 4 0.0000 0.0000 0.0000 23.5094 0.0000 3.8005
# 5 12.5292 1.5672 13.4191 0.0000 26.7027 0.0000
# 6 0.0000 0.0000 0.0000 3.8005 0.0000 18.9843
#
#
#
# Elastic Compliance Matrix: (Units=1/GPa)
#
#
# Indices 1 2 3 4 5 6 
#
# 1 0.017154 -0.002306 -0.003598 0.000000 -0.006105 0.000000
# 2 -0.002306 0.019539 -0.005732 0.000000 0.002816 0.000000
# 3 -0.003598 -0.005732 0.012012 0.000000 -0.004012 0.000000
# 4 0.000000 0.000000 0.000000 0.043959 0.000000 -0.008800
# 5 -0.006105 0.002816 -0.004012 0.000000 0.042165 0.000000
# 6 0.000000 0.000000 0.000000 -0.008800 0.000000 0.054437
#
#
# Mechanical properties :
#
#
# Convention : Reuss Voigt Hill
#
# Bulk Modulus (GPa) = 39.31887 46.92202 43.12045
# Shear Modulus (GPa) = 22.62297 24.79439 23.70868
#
# Velocity S-wave (km/s) = 3.44746 3.60911 3.52921
# Velocity P-wave (km/s) = 6.04175 6.48213 6.26581
#
# Compressibility (1/GPa) = 0.02543308
#
# Stress axis : x y z
#
# Youngs Moduli (GPa) = 58.29627 51.17913 83.25354
#
# Poissons Ratio (x) = 0.11803 0.29952
# Poissons Ratio (y) = 0.13444 0.47720
# Poissons Ratio (z) = 0.20973 0.29335
#
# Static dielectric constant tensor:
#      x y z
#    x 1.687830 0.000000 0.018870 
#    y 0.000000 1.672160 0.000000 
#    z 0.018870 0.000000 1.696420 
# 
# From -- ./inp_files/112003.got.cif
#   From: 2010.05.17/outbox.cif.g08.bks.cpg/sg12_57_cif.got.tgz:112003.got - 2010.06.03 13:09:07.
