data_PCOD9211564
_publ_section_title
;
Structure prediction by ZEFSAII (Michael W. Deem and Ramdas Pophale) SiO2 
 PCOD9211564
Probable space group: C 2/M
;
_chemical_formula_sum "Si O2"
_cell_formula_units_Z 48
_cell_length_a 19.197552
_cell_length_b 8.886458
_cell_length_c 30.546537
_cell_angle_alpha 90.000000
_cell_angle_beta 29.300221
_cell_angle_gamma 90.000000
_cell_volume 2550.280234
_symmetry_space_group_name_H-M "C 2/M"
_symmetry_group_IT_number 12
_symmetry_cell_setting 'monoclinic'
loop_
_space_group_symop_operation_xyz
x,y,z
-x,y,-z
-x,-y,-z
x,-y,z
1/2+x,1/2+y,z
1/2-x,1/2+y,-z
1/2-x,1/2-y,-z
1/2+x,1/2-y,z
loop_
_atom_site_type_symbol
_atom_site_label
_atom_site_fract_x
_atom_site_fract_y
_atom_site_fract_z
Si Si1 0.166829 0.681917 0.914638
Si Si2 0.656896 0.830521 0.434051
Si Si3 0.309931 0.820265 0.922554
Si Si4 0.644733 0.180447 0.746872
Si Si5 0.304583 0.682860 0.747488
Si Si6 0.380813 0.678710 0.453677
O O1 0.177042 0.500000 0.912529
O O2 0.233377 0.752569 0.921805
O O3 0.249870 0.731474 0.825100
O O4 0.000000 0.718964 0.000000
O O5 0.500000 0.838356 0.500000
O O6 0.762524 0.764625 0.340117
O O7 0.642806 0.724245 0.483385
O O8 0.700988 0.000000 0.422956
O O9 0.478981 0.789050 0.829912
O O10 0.290321 0.000000 0.933915
O O11 0.250000 0.750000 0.000000
O O12 0.699320 0.225970 0.765405
O O13 0.667547 0.000000 0.730586
O O14 0.305170 0.500000 0.747995
O O15 0.464572 0.733387 0.648049
O O16 0.379063 0.500000 0.449670
O O17 0.250000 0.750000 0.500000
#
# Coordination Sequence:
#
# PCOD9211564 Si02
#       6
#     8   8   8   8   8   8
#     4  10  21  40  65  90 122 161 198 244 300 364
#     4  11  23  39  60  90 124 161 206 253 303 356
#     4  11  24  41  64  94 124 157 198 250 304 361
#     4  10  21  40  64  89 119 160 208 250 299 363
#     4   9  19  37  61  86 115 158 202 242 299 358
#     4  11  23  39  60  86 122 164 206 252 300 358
#
# _framework density 18.821462
#
# number of rings (size 3 to 8) (size 9 to 14) (size 15 to 20)
#    0.000    1.667    1.667    2.500    2.333    5.000 
#    0.000    1.667    0.000    0.000    0.000    0.000 
#    0.000    0.000    0.000    0.000    0.000    0.000 
#
# Total GULP energy -134061.527520 kJ/mol
# GULP energy per Si atom -5585.896980 kJ/mol
# Density = 1.877862 g / cm^3
# Si number density = 18.821462 Si / 1000 Ang^3
#
#
#
# Elastic Constant Matrix: (Units=GPa)
#
#
# Indices 1 2 3 4 5 6 
#
# 1 172.9344 48.3980 99.4274 0.0000 -0.4075 -0.0001
# 2 48.3980 48.1950 61.8501 0.0000 -6.9385 -0.0002
# 3 99.4274 61.8501 161.4434 0.0000 10.7712 0.0001
# 4 0.0000 0.0000 0.0000 23.7540 0.0000 -0.3201
# 5 -0.4075 -6.9385 10.7712 0.0000 37.1884 0.0000
# 6 -0.0001 -0.0002 0.0001 -0.3201 0.0000 35.4251
#
#
#
# Elastic Compliance Matrix: (Units=1/GPa)
#
#
# Indices 1 2 3 4 5 6 
#
# 1 0.009330 -0.003605 -0.004412 0.000000 0.000707 0.000000
# 2 -0.003605 0.048691 -0.017373 0.000000 0.014077 0.000000
# 3 -0.004412 -0.017373 0.016097 0.000000 -0.007952 0.000000
# 4 0.000000 0.000000 0.000000 0.042103 0.000000 0.000380
# 5 0.000707 0.014077 -0.007952 0.000000 0.031827 0.000000
# 6 0.000000 0.000000 0.000000 0.000380 0.000000 0.028232
#
#
# Mechanical properties :
#
#
# Convention : Reuss Voigt Hill
#
# Bulk Modulus (GPa) = 42.84769 89.10263 65.97516
# Shear Modulus (GPa) = 21.29106 30.79999 26.04552
#
# Velocity S-wave (km/s) = 3.36700 4.04967 3.72401
# Velocity P-wave (km/s) = 6.15876 8.32527 7.32258
#
# Compressibility (1/GPa) = 0.02333848
#
# Stress axis : x y z
#
# Youngs Moduli (GPa) = 107.18379 20.53762 62.12199
#
# Poissons Ratio (x) = 0.07405 0.27407
# Poissons Ratio (y) = 0.38644 1.07923
# Poissons Ratio (z) = 0.47288 0.35679
#
# Static dielectric constant tensor:
#      x y z
#    x 1.789700 0.000000 0.005770 
#    y 0.000000 1.645020 0.000000 
#    z 0.005770 0.000000 1.632780 
# 
# From -- ./inp_files/295909.got.cif
#   From: 2010.05.17/outbox.cif.g08.bks.cpg/sg12_148_cif.got.tgz:295909.got - 2010.06.03 13:09:07.
