data_PCOD9211086
_publ_section_title
;
Structure prediction by ZEFSAII (Michael W. Deem and Ramdas Pophale) SiO2 
 PCOD9211086
Probable space group: C 2/M
;
_chemical_formula_sum "Si O2"
_cell_formula_units_Z 48
_cell_length_a 14.425136
_cell_length_b 14.655412
_cell_length_c 11.299397
_cell_angle_alpha 90.000000
_cell_angle_beta 98.448363
_cell_angle_gamma 90.000000
_cell_volume 2362.842581
_symmetry_space_group_name_H-M "C 2/M"
_symmetry_group_IT_number 12
_symmetry_cell_setting 'monoclinic'
loop_
_space_group_symop_operation_xyz
x,y,z
-x,y,-z
-x,-y,-z
x,-y,z
1/2+x,1/2+y,z
1/2-x,1/2+y,-z
1/2-x,1/2-y,-z
1/2+x,1/2-y,z
loop_
_atom_site_type_symbol
_atom_site_label
_atom_site_fract_x
_atom_site_fract_y
_atom_site_fract_z
Si Si1 0.869585 0.269180 0.380698
Si Si2 0.263014 0.895786 0.194265
Si Si3 0.752453 0.895962 0.271094
Si Si4 0.422231 0.785732 0.655525
Si Si5 0.359385 0.101416 0.971298
Si Si6 0.922007 0.202929 0.899755
O O1 0.793685 0.339800 0.315031
O O2 0.834910 0.173095 0.320611
O O3 0.876378 0.256818 0.522635
O O4 0.970288 0.308770 0.357571
O O5 0.175805 0.848649 0.113812
O O6 0.242424 0.000000 0.219879
O O7 0.342554 0.893672 0.107861
O O8 0.653116 0.858919 0.307301
O O9 0.734779 0.894484 0.126465
O O10 0.768720 0.000000 0.311575
O O11 0.438038 0.711555 0.762040
O O12 0.410554 0.192661 0.941181
O O13 0.398615 0.000000 0.950121
O O14 0.000000 0.161016 0.000000
#
# Coordination Sequence:
#
# PCOD9211086 Si02
#       6
#     8   8   8   8   8   8
#     4  11  22  42  65  88 131 166 208 263 321 373
#     4  11  23  38  60  90 123 164 208 255 315 378
#     4  10  21  39  66  92 123 166 213 261 313 373
#     4  10  23  40  63  95 125 163 212 259 311 383
#     4   9  19  36  59  88 116 152 203 252 307 372
#     4  11  22  37  61  88 125 162 202 255 315 367
#
# _framework density 20.314515
#
# number of rings (size 3 to 8) (size 9 to 14) (size 15 to 20)
#    0.000    1.667    3.333    2.000    2.333    2.000 
#    0.000    7.500    0.000    0.000    0.000    0.000 
#    0.000    0.000    0.000    0.000    0.000    0.000 
#
# Total GULP energy -133662.075195 kJ/mol
# GULP energy per Si atom -5569.253133 kJ/mol
# Density = 2.026828 g / cm^3
# Si number density = 20.314515 Si / 1000 Ang^3
#
#
#
# Elastic Constant Matrix: (Units=GPa)
#
#
# Indices 1 2 3 4 5 6 
#
# 1 66.1601 25.6339 31.1629 0.0000 22.4274 0.0000
# 2 25.6339 87.7341 34.7842 0.0000 20.9007 0.0000
# 3 31.1629 34.7842 126.6757 0.0000 23.7861 0.0000
# 4 0.0000 0.0000 0.0000 2.3162 0.0000 -22.1913
# 5 22.4274 20.9007 23.7861 0.0000 41.3962 0.0000
# 6 0.0000 0.0000 0.0000 -22.1913 0.0000 -32.0519
#
#
#
# Elastic Compliance Matrix: (Units=1/GPa)
#
#
# Indices 1 2 3 4 5 6 
#
# 1 0.020203 -0.002958 -0.002671 0.000000 -0.007917 0.000000
# 2 -0.002958 0.014209 -0.002385 0.000000 -0.004201 0.000000
# 3 -0.002671 -0.002385 0.009762 0.000000 -0.002957 0.000000
# 4 0.000000 0.000000 0.000000 0.056560 0.000000 -0.039159
# 5 -0.007917 -0.004201 -0.002957 0.000000 0.032267 0.000000
# 6 0.000000 0.000000 0.000000 -0.039159 0.000000 -0.004087
#
#
# Mechanical properties :
#
#
# Convention : Reuss Voigt Hill
#
# Bulk Modulus (GPa) = 35.53024 51.52576 43.52800
# Shear Modulus (GPa) = 32.39978 14.93137 23.66558
#
# Velocity S-wave (km/s) = 3.99796 2.71405 3.41685
# Velocity P-wave (km/s) = 6.23215 5.93637 6.08606
#
# Compressibility (1/GPa) = 0.02814504
#
# Stress axis : x y z
#
# Youngs Moduli (GPa) = 49.49800 70.37958 102.44229
#
# Poissons Ratio (x) = 0.20816 0.27365
# Poissons Ratio (y) = 0.14640 0.24434
# Poissons Ratio (z) = 0.13222 0.16787
#
# Static dielectric constant tensor:
#      x y z
#    x 1.792280 0.000000 -0.027570 
#    y 0.000000 1.703650 0.000000 
#    z -0.027570 0.000000 1.750710 
# 
# From -- ./inp_files/143085.got.cif
#   From: 2010.05.17/outbox.cif.g08.bks.cpg/sg12_72_cif.got.tgz:143085.got - 2010.06.03 13:09:07.
