data_PCOD9211083
_publ_section_title
;
Structure prediction by ZEFSAII (Michael W. Deem and Ramdas Pophale) SiO2 
 PCOD9211083
Probable space group: C 2/M
;
_chemical_formula_sum "Si O2"
_cell_formula_units_Z 46
_cell_length_a 14.363832
_cell_length_b 7.396650
_cell_length_c 24.209649
_cell_angle_alpha 90.000000
_cell_angle_beta 42.165100
_cell_angle_gamma 90.000000
_cell_volume 1726.595547
_symmetry_space_group_name_H-M "C 2/M"
_symmetry_group_IT_number 12
_symmetry_cell_setting 'monoclinic'
loop_
_space_group_symop_operation_xyz
x,y,z
-x,y,-z
-x,-y,-z
x,-y,z
1/2+x,1/2+y,z
1/2-x,1/2+y,-z
1/2-x,1/2-y,-z
1/2+x,1/2-y,z
loop_
_atom_site_type_symbol
_atom_site_label
_atom_site_fract_x
_atom_site_fract_y
_atom_site_fract_z
Si Si1 0.500000 0.500000 0.000000
Si Si2 0.492297 0.282015 0.167774
Si Si3 0.250000 0.750000 0.500000
Si Si4 0.205966 0.281836 0.941508
Si Si5 0.448442 0.205386 0.608810
Si Si6 0.768921 0.796734 0.789068
Si Si7 0.811492 0.779860 0.349750
O O1 0.572716 0.658216 0.007355
O O2 0.481814 0.500000 0.170025
O O3 0.652413 0.232615 0.088839
O O4 0.378902 0.202816 0.176676
O O5 0.437217 0.231941 0.253572
O O6 0.405326 0.699556 0.454232
O O7 0.183869 0.711742 0.590508
O O8 0.183130 0.500000 0.953557
O O9 0.245025 0.226157 0.860721
O O10 0.371716 0.202197 0.701592
O O11 0.330279 0.273173 0.619265
O O12 0.487099 0.000000 0.575991
O O13 0.823057 0.000000 0.771664
O O14 0.807270 0.000000 0.356494
#
# Coordination Sequence:
#
# PCOD9211083 Si02
#       7
#     2   8   4   8   8   8   8
#     4  12  26  40  72  98 136 170 206 260 308 394
#     4   9  19  39  67  90 119 163 215 260 311 376
#     4  12  20  30  54  84 118 158 210 260 320 366
#     4  10  23  43  66  95 135 171 207 257 321 377
#     4  10  22  38  57  83 117 163 212 259 314 382
#     4  10  21  39  66  92 121 159 213 266 312 371
#     4   9  19  37  56  80 115 161 206 254 313 372
#
# _framework density 26.642023999999999
#
# number of rings (size 3 to 8) (size 9 to 14) (size 15 to 20)
#    0.000    2.087    0.000    3.913    3.652    4.174 
#    0.000    7.826    0.000    8.348    0.000    0.000 
#    0.000    0.000    0.000    0.000    0.000    0.000 
#
# Total GULP energy -128060.566891 kJ/mol
# GULP energy per Si atom -5567.850734 kJ/mol
# Density = 2.658139 g / cm^3
# Si number density = 26.642024 Si / 1000 Ang^3
#
#
#
# Elastic Constant Matrix: (Units=GPa)
#
#
# Indices 1 2 3 4 5 6 
#
# 1 95.7479 9.9403 47.4559 0.0000 -29.0210 0.0002
# 2 9.9403 104.6828 13.8916 0.0000 -18.6337 0.0005
# 3 47.4559 13.8916 138.5346 0.0000 -15.0705 0.0000
# 4 0.0000 0.0000 0.0000 12.9877 0.0000 -14.1389
# 5 -29.0210 -18.6337 -15.0705 0.0000 65.8262 0.0000
# 6 0.0002 0.0005 0.0000 -14.1389 0.0000 4.8714
#
#
#
# Elastic Compliance Matrix: (Units=1/GPa)
#
#
# Indices 1 2 3 4 5 6 
#
# 1 0.014162 0.000170 -0.004291 0.000000 0.005310 0.000000
# 2 0.000170 0.010131 -0.000773 0.000001 0.002766 0.000000
# 3 -0.004291 -0.000773 0.008754 0.000000 -0.000106 0.000000
# 4 0.000000 0.000001 0.000000 -0.035651 0.000000 -0.103475
# 5 0.005310 0.002766 -0.000106 0.000000 0.018291 0.000000
# 6 0.000000 0.000000 0.000000 -0.103475 0.000000 -0.095051
#
#
# Mechanical properties :
#
#
# Convention : Reuss Voigt Hill
#
# Bulk Modulus (GPa) = 42.99328 53.50455 48.24892
# Shear Modulus (GPa) = -80.87902 34.58222 -23.14840
#
# Velocity S-wave (km/s) = -5.51576 3.60673 -2.95085
# Velocity P-wave (km/s) = 4.93886 6.12136 2.55721
#
# Compressibility (1/GPa) = 0.02325945
#
# Stress axis : x y z
#
# Youngs Moduli (GPa) = 70.60912 98.70240 114.23037
#
# Poissons Ratio (x) = -0.01675 0.49015
# Poissons Ratio (y) = -0.01198 0.08832
# Poissons Ratio (z) = 0.30297 0.07632
#
# Static dielectric constant tensor:
#      x y z
#    x 2.068030 0.000000 0.019280 
#    y 0.000000 2.134320 0.000000 
#    z 0.019280 0.000000 2.155210 
# 
# From -- ./inp_files/360264.got.cif
#   From: 2010.05.17/outbox.cif.g08.bks.cpg/sg12_181_cif.got.tgz:360264.got - 2010.06.03 13:09:07.
