data_PCOD9211005
_publ_section_title
;
Structure prediction by ZEFSAII (Michael W. Deem and Ramdas Pophale) SiO2 
 PCOD9211005
Probable space group: C 2/M
;
_chemical_formula_sum "Si O2"
_cell_formula_units_Z 40
_cell_length_a 13.028537
_cell_length_b 22.268240
_cell_length_c 8.605116
_cell_angle_alpha 90.000000
_cell_angle_beta 135.982547
_cell_angle_gamma 90.000000
_cell_volume 1734.788348
_symmetry_space_group_name_H-M "C 2/M"
_symmetry_group_IT_number 12
_symmetry_cell_setting 'monoclinic'
loop_
_space_group_symop_operation_xyz
x,y,z
-x,y,-z
-x,-y,-z
x,-y,z
1/2+x,1/2+y,z
1/2-x,1/2+y,-z
1/2-x,1/2-y,-z
1/2+x,1/2-y,z
loop_
_atom_site_type_symbol
_atom_site_label
_atom_site_fract_x
_atom_site_fract_y
_atom_site_fract_z
Si Si1 0.300490 0.931264 0.440044
Si Si2 0.995833 0.666932 0.811961
Si Si3 0.846461 0.756299 0.430175
Si Si4 0.935351 0.884309 0.590824
Si Si5 0.718739 0.339313 0.083284
O O1 0.428120 0.893662 0.663946
O O2 0.160039 0.926673 0.403173
O O3 0.263114 0.894743 0.242898
O O4 0.338145 0.000000 0.451181
O O5 0.892047 0.721268 0.636698
O O6 0.157521 0.672062 0.911900
O O7 0.000000 0.664064 0.000000
O O8 0.834624 0.827382 0.433501
O O9 0.725070 0.718460 0.203412
O O10 0.000000 0.748307 0.500000
O O11 0.000000 0.910151 0.500000
O O12 0.066275 0.855019 0.834993
#
# Coordination Sequence:
#
# PCOD9211005 Si02
#       5
#     8   8   8   8   8
#     4  11  25  43  61  85 120 164 209 251 301 357
#     4  10  21  39  65  94 122 153 198 252 302 357
#     4   8  19  37  60  91 126 158 191 235 301 371
#     4  11  23  39  64  94 124 157 199 252 301 351
#     4  10  22  41  63  90 123 162 201 240 300 371
#
# _framework density 23.057566999999999
#
# number of rings (size 3 to 8) (size 9 to 14) (size 15 to 20)
#    0.000    2.000    0.000    3.600    0.000   17.600 
#    0.000    4.000    0.000    0.000    0.000    0.000 
#    0.000    0.000    0.000    0.000    0.000    0.000 
#
# Total GULP energy -112047.724231 kJ/mol
# GULP energy per Si atom -5602.386212 kJ/mol
# Density = 2.300509 g / cm^3
# Si number density = 23.057567 Si / 1000 Ang^3
#
#
#
# Elastic Constant Matrix: (Units=GPa)
#
#
# Indices 1 2 3 4 5 6 
#
# 1 89.3275 6.0948 23.3354 0.0000 -23.2641 0.0000
# 2 6.0948 128.8259 33.7208 0.0000 -16.6295 0.0000
# 3 23.3354 33.7208 135.2119 0.0000 -20.9791 0.0000
# 4 0.0000 0.0000 0.0000 13.8787 0.0000 1.2261
# 5 -23.2641 -16.6295 -20.9791 0.0000 47.0192 0.0000
# 6 0.0000 0.0000 0.0000 1.2261 0.0000 17.5880
#
#
#
# Elastic Compliance Matrix: (Units=1/GPa)
#
#
# Indices 1 2 3 4 5 6 
#
# 1 0.013109 0.000540 -0.001462 0.000000 0.006025 0.000000
# 2 0.000540 0.008537 -0.001840 0.000000 0.002466 0.000000
# 3 -0.001462 -0.001840 0.008481 0.000000 0.002410 0.000000
# 4 0.000000 0.000000 0.000000 0.072499 0.000000 -0.005054
# 5 0.006025 0.002466 0.002410 0.000000 0.026196 0.000000
# 6 0.000000 0.000000 0.000000 -0.005054 0.000000 0.057209
#
#
# Mechanical properties :
#
#
# Convention : Reuss Voigt Hill
#
# Bulk Modulus (GPa) = 40.64543 53.29636 46.97089
# Shear Modulus (GPa) = 25.03059 35.04482 30.03771
#
# Velocity S-wave (km/s) = 3.29837 3.90280 3.61325
# Velocity P-wave (km/s) = 5.67202 6.59346 6.15002
#
# Compressibility (1/GPa) = 0.02460301
#
# Stress axis : x y z
#
# Youngs Moduli (GPa) = 76.28380 117.14167 117.91235
#
# Poissons Ratio (x) = -0.06329 0.17243
# Poissons Ratio (y) = -0.04121 0.21692
# Poissons Ratio (z) = 0.11156 0.21550
#
# Static dielectric constant tensor:
#      x y z
#    x 1.988960 0.000000 0.033070 
#    y 0.000000 1.809600 0.000000 
#    z 0.033070 0.000000 1.853140 
# 
# From -- ./inp_files/65603.got.cif
#   From: 2010.05.17/outbox.cif.g08.bks.cpg/sg12_33_cif.got.tgz:65603.got - 2010.06.03 13:09:07.
