data_PCOD9211506
_publ_section_title
;
Structure prediction by ZEFSAII (Michael W. Deem and Ramdas Pophale) SiO2 
 PCOD9211506
Probable space group: C 2/M
;
_chemical_formula_sum "Si O2"
_cell_formula_units_Z 40
_cell_length_a 12.858645
_cell_length_b 11.641248
_cell_length_c 30.240685
_cell_angle_alpha 90.000000
_cell_angle_beta 25.022090
_cell_angle_gamma 90.000000
_cell_volume 1914.668207
_symmetry_space_group_name_H-M "C 2/M"
_symmetry_group_IT_number 12
_symmetry_cell_setting 'monoclinic'
loop_
_space_group_symop_operation_xyz
x,y,z
-x,y,-z
-x,-y,-z
x,-y,z
1/2+x,1/2+y,z
1/2-x,1/2+y,-z
1/2-x,1/2-y,-z
1/2+x,1/2-y,z
loop_
_atom_site_type_symbol
_atom_site_label
_atom_site_fract_x
_atom_site_fract_y
_atom_site_fract_z
Si Si1 0.064386 0.199909 0.424608
Si Si2 0.029662 0.630682 0.614406
Si Si3 0.913607 0.688713 0.755124
Si Si4 0.271041 0.367510 0.881237
Si Si5 0.388543 0.629509 0.934201
O O1 0.329666 0.138361 0.325076
O O2 0.000000 0.231145 0.500000
O O3 0.074620 0.310152 0.388967
O O4 0.827980 0.131797 0.497757
O O5 0.946809 0.500000 0.652417
O O6 0.961613 0.702799 0.684375
O O7 0.872220 0.800288 0.800689
O O8 0.650387 0.627330 0.857852
O O9 0.244697 0.500000 0.879438
O O10 0.424884 0.360022 0.867202
O O11 0.000000 0.324171 0.000000
O O12 0.272860 0.500000 0.985512
O O13 0.250000 0.750000 0.000000
#
# Coordination Sequence:
#
# PCOD9211506 Si02
#       5
#     8   8   8   8   8
#     4   9  21  39  62  93 123 158 204 254 312 379
#     4  10  21  40  63  90 126 163 203 255 319 385
#     4  11  21  36  62  93 123 161 210 261 314 377
#     4  10  21  40  64  87 120 170 216 261 319 380
#     4  11  23  40  62  90 125 167 216 268 320 378
#
# _framework density 20.891347
#
# number of rings (size 3 to 8) (size 9 to 14) (size 15 to 20)
#    0.000    1.800    2.000    1.800    0.000    7.200 
#    0.000   11.000    0.000   14.400    0.000    0.000 
#    0.000    0.000    0.000    0.000    0.000    0.000 
#
# Total GULP energy -111371.317686 kJ/mol
# GULP energy per Si atom -5568.565884 kJ/mol
# Density = 2.084380 g / cm^3
# Si number density = 20.891347 Si / 1000 Ang^3
#
#
#
# Elastic Constant Matrix: (Units=GPa)
#
#
# Indices 1 2 3 4 5 6 
#
# 1 119.2706 56.1943 36.3290 0.0070 -18.0871 -0.0032
# 2 56.1943 114.7266 60.8590 0.0034 16.6806 -0.0006
# 3 36.3290 60.8590 88.9203 -0.0133 -15.1168 0.0057
# 4 0.0070 0.0034 -0.0133 17.1671 0.0101 4.8111
# 5 -18.0871 16.6806 -15.1168 0.0101 46.9970 -0.0003
# 6 -0.0032 -0.0006 0.0057 4.8111 -0.0003 10.7522
#
#
#
# Elastic Compliance Matrix: (Units=1/GPa)
#
#
# Indices 1 2 3 4 5 6 
#
# 1 0.013341 -0.009087 0.002317 -0.000009 0.009105 0.000006
# 2 -0.009087 0.023848 -0.015490 -0.000006 -0.016944 0.000009
# 3 0.002317 -0.015490 0.023259 0.000018 0.013871 -0.000020
# 4 -0.000009 -0.000006 0.000018 0.066603 -0.000010 -0.029801
# 5 0.009105 -0.016944 0.013871 -0.000010 0.035258 0.000000
# 6 0.000006 0.000009 -0.000020 -0.029801 0.000000 0.106339
#
#
# Mechanical properties :
#
#
# Convention : Reuss Voigt Hill
#
# Bulk Modulus (GPa) = 62.78517 69.96468 66.37493
# Shear Modulus (GPa) = 15.69976 26.28562 20.99269
#
# Velocity S-wave (km/s) = 2.74432 3.55097 3.17338
# Velocity P-wave (km/s) = 6.33720 7.09753 6.72812
#
# Compressibility (1/GPa) = 0.01592733
#
# Stress axis : x y z
#
# Youngs Moduli (GPa) = 74.95801 41.93242 42.99393
#
# Poissons Ratio (x) = 0.38105 -0.09962
# Poissons Ratio (y) = 0.68117 0.66597
# Poissons Ratio (z) = -0.17367 0.64953
#
# Static dielectric constant tensor:
#      x y z
#    x 1.763360 0.000000 -0.084570 
#    y 0.000000 1.763130 0.000000 
#    z -0.084570 0.000000 1.832040 
# 
# From -- ./inp_files/357903.got.cif
#   From: 2010.05.17/outbox.cif.g08.bks.cpg/sg12_179_cif.got.tgz:357903.got - 2010.06.03 13:09:07.
