data_PCOD9211619
_publ_section_title
;
Structure prediction by ZEFSAII (Michael W. Deem and Ramdas Pophale) SiO2 
 PCOD9211619
Probable space group: C 2/M
;
_chemical_formula_sum "Si O2"
_cell_formula_units_Z 40
_cell_length_a 14.721536
_cell_length_b 10.698066
_cell_length_c 13.509579
_cell_angle_alpha 90.000000
_cell_angle_beta 122.166766
_cell_angle_gamma 90.000000
_cell_volume 1801.060331
_symmetry_space_group_name_H-M "C 2/M"
_symmetry_group_IT_number 12
_symmetry_cell_setting 'monoclinic'
loop_
_space_group_symop_operation_xyz
x,y,z
-x,y,-z
-x,-y,-z
x,-y,z
1/2+x,1/2+y,z
1/2-x,1/2+y,-z
1/2-x,1/2-y,-z
1/2+x,1/2-y,z
loop_
_atom_site_type_symbol
_atom_site_label
_atom_site_fract_x
_atom_site_fract_y
_atom_site_fract_z
Si Si1 0.887295 0.639368 0.018564
Si Si2 0.598353 0.136759 0.250838
Si Si3 0.055050 0.143882 0.379894
Si Si4 0.752677 0.362214 0.142173
Si Si5 0.336960 0.701879 0.349589
O O1 0.858913 0.500000 0.964489
O O2 0.837717 0.643748 0.101849
O O3 0.014028 0.647288 0.112261
O O4 0.832418 0.754622 0.932059
O O5 0.579580 0.257059 0.308743
O O6 0.721779 0.137505 0.290445
O O7 0.576153 0.000000 0.285497
O O8 0.114236 0.195776 0.512469
O O9 0.928447 0.142734 0.332929
O O10 0.088517 0.000000 0.379988
O O11 0.703995 0.500000 0.115013
O O12 0.809985 0.331927 0.279376
#
# Coordination Sequence:
#
# PCOD9211619 Si02
#       5
#     8   8   8   8   8
#     4   9  20  39  62  90 123 162 206 255 312 370
#     4  11  23  42  65  93 127 165 209 256 310 370
#     4  11  24  42  63  93 128 166 210 255 309 368
#     4  10  21  40  64  92 123 163 210 256 309 370
#     4  11  23  40  64  93 127 165 207 255 309 373
#
# _framework density 22.209139
#
# number of rings (size 3 to 8) (size 9 to 14) (size 15 to 20)
#    0.000    1.600    2.000    3.000    0.000    5.600 
#    0.000    5.000    0.000    0.000    0.000    0.000 
#    0.000    0.000    0.000    0.000    0.000    0.000 
#
# Total GULP energy -111713.054951 kJ/mol
# GULP energy per Si atom -5585.652748 kJ/mol
# Density = 2.215859 g / cm^3
# Si number density = 22.209139 Si / 1000 Ang^3
#
#
#
# Elastic Constant Matrix: (Units=GPa)
#
#
# Indices 1 2 3 4 5 6 
#
# 1 93.5797 54.4839 43.6325 0.0000 23.8583 0.0000
# 2 54.4839 202.0674 91.3796 0.0000 -10.0602 0.0000
# 3 43.6325 91.3796 106.1329 0.0000 9.2946 0.0000
# 4 0.0000 0.0000 0.0000 28.5747 0.0000 -2.7187
# 5 23.8583 -10.0602 9.2946 0.0000 41.7950 0.0000
# 6 0.0000 0.0000 0.0000 -2.7187 0.0000 25.0007
#
#
#
# Elastic Compliance Matrix: (Units=1/GPa)
#
#
# Indices 1 2 3 4 5 6 
#
# 1 0.016639 -0.003711 -0.002789 0.000000 -0.009771 0.000000
# 2 -0.003711 0.009491 -0.007171 0.000000 0.005998 0.000000
# 3 -0.002789 -0.007171 0.017088 0.000000 -0.003934 0.000000
# 4 0.000000 0.000000 0.000000 0.035362 0.000000 0.003845
# 5 -0.009771 0.005998 -0.003934 0.000000 0.031823 0.000000
# 6 0.000000 0.000000 0.000000 0.003845 0.000000 0.040417
#
#
# Mechanical properties :
#
#
# Convention : Reuss Voigt Hill
#
# Bulk Modulus (GPa) = 62.99680 86.75244 74.87462
# Shear Modulus (GPa) = 27.25476 33.22634 30.24055
#
# Velocity S-wave (km/s) = 3.50692 3.87210 3.69403
# Velocity P-wave (km/s) = 6.69514 7.69007 7.20979
#
# Compressibility (1/GPa) = 0.01587382
#
# Stress axis : x y z
#
# Youngs Moduli (GPa) = 60.10133 105.36023 58.52142
#
# Poissons Ratio (x) = 0.39104 0.16322
# Poissons Ratio (y) = 0.22307 0.41968
# Poissons Ratio (z) = 0.16763 0.75557
#
# Static dielectric constant tensor:
#      x y z
#    x 1.882560 0.000000 -0.020010 
#    y 0.000000 1.786790 0.000000 
#    z -0.020010 0.000000 1.820430 
# 
# From -- ./inp_files/274675.got.cif
#   From: 2010.05.17/outbox.cif.g08.bks.cpg/sg12_138_cif.got.tgz:274675.got - 2010.06.03 13:09:07.
