data_PCOD9211874
_publ_section_title
;
Structure prediction by ZEFSAII (Michael W. Deem and Ramdas Pophale) SiO2 
 PCOD9211874
Probable space group: C 2/M
;
_chemical_formula_sum "Si O2"
_cell_formula_units_Z 36
_cell_length_a 4.869379
_cell_length_b 29.157861
_cell_length_c 11.055910
_cell_angle_alpha 90.000000
_cell_angle_beta 74.669874
_cell_angle_gamma 90.000000
_cell_volume 1513.872450
_symmetry_space_group_name_H-M "C 2/M"
_symmetry_group_IT_number 12
_symmetry_cell_setting 'monoclinic'
loop_
_space_group_symop_operation_xyz
x,y,z
-x,y,-z
-x,-y,-z
x,-y,z
1/2+x,1/2+y,z
1/2-x,1/2+y,-z
1/2-x,1/2-y,-z
1/2+x,1/2-y,z
loop_
_atom_site_type_symbol
_atom_site_label
_atom_site_fract_x
_atom_site_fract_y
_atom_site_fract_z
Si Si1 0.592807 0.500000 0.624978
Si Si2 0.500000 0.923685 0.500000
Si Si3 0.280953 0.500000 0.884540
Si Si4 0.581219 0.221235 0.348802
Si Si5 0.837299 0.373014 0.287068
Si Si6 0.416386 0.402125 0.137248
O O1 0.500000 0.500000 0.500000
O O2 0.794784 0.455550 0.605788
O O3 0.303110 0.500000 0.735761
O O4 0.323129 0.894037 0.423751
O O5 0.458931 0.453513 0.884135
O O6 0.000000 0.500000 0.000000
O O7 0.500000 0.214955 0.500000
O O8 0.409315 0.264857 0.316242
O O9 0.472678 0.177099 0.290175
O O10 0.077682 0.401341 0.186563
O O11 0.557182 0.377521 0.237841
O O12 0.500000 0.379166 0.000000
#
# Coordination Sequence:
#
# PCOD9211874 Si02
#       6
#     4   4   4   8   8   8
#     4  11  23  43  64  97 149 184 239 296 359 425
#     4  11  24  40  68 104 138 188 232 286 372 411
#     4  12  24  45  68  98 141 195 247 294 349 409
#     4  10  21  40  67 103 139 172 214 281 363 432
#     4  12  24  44  72 102 141 178 234 291 352 430
#     4  12  27  45  68  98 136 192 242 289 340 405
#
# _framework density 23.780073000000002
#
# number of rings (size 3 to 8) (size 9 to 14) (size 15 to 20)
#    0.000    0.667    3.333    5.000    0.000    1.778 
#    0.000    0.000    0.000   13.333    0.000    0.000 
#    0.000    0.000    0.000    0.000    0.000    0.000 
#
# Total GULP energy -100642.441817 kJ/mol
# GULP energy per Si atom -5591.246768 kJ/mol
# Density = 2.372595 g / cm^3
# Si number density = 23.780073 Si / 1000 Ang^3
#
#
#
# Elastic Constant Matrix: (Units=GPa)
#
#
# Indices 1 2 3 4 5 6 
#
# 1 98.2136 14.8819 18.1650 0.0000 -1.8918 0.0000
# 2 14.8819 102.0956 12.6755 0.0000 1.7725 0.0000
# 3 18.1650 12.6755 116.5129 0.0000 -0.4137 0.0000
# 4 0.0000 0.0000 0.0000 6.5917 0.0000 -2.6145
# 5 -1.8918 1.7725 -0.4137 0.0000 61.8733 0.0000
# 6 0.0000 0.0000 0.0000 -2.6145 0.0000 23.5390
#
#
#
# Elastic Compliance Matrix: (Units=1/GPa)
#
#
# Indices 1 2 3 4 5 6 
#
# 1 0.010677 -0.001375 -0.001514 0.000000 0.000356 0.000000
# 2 -0.001375 0.010111 -0.000887 0.000000 -0.000338 0.000000
# 3 -0.001514 -0.000887 0.008915 0.000000 0.000039 0.000000
# 4 0.000000 0.000000 0.000000 0.158699 0.000000 0.017627
# 5 0.000356 -0.000338 0.000039 0.000000 0.016183 0.000000
# 6 0.000000 0.000000 0.000000 0.017627 0.000000 0.044440
#
#
# Mechanical properties :
#
#
# Convention : Reuss Voigt Hill
#
# Bulk Modulus (GPa) = 45.14073 45.36302 45.25187
# Shear Modulus (GPa) = 18.94225 36.47411 27.70818
#
# Velocity S-wave (km/s) = 2.82540 3.92064 3.41718
# Velocity P-wave (km/s) = 5.44680 6.29386 5.88559
#
# Compressibility (1/GPa) = 0.02215294
#
# Stress axis : x y z
#
# Youngs Moduli (GPa) = 93.65924 98.90144 112.16583
#
# Poissons Ratio (x) = 0.13595 0.16980
# Poissons Ratio (y) = 0.12874 0.09948
# Poissons Ratio (z) = 0.14178 0.08771
#
# Static dielectric constant tensor:
#      x y z
#    x 1.915310 0.000000 0.017620 
#    y 0.000000 1.992470 0.000000 
#    z 0.017620 0.000000 1.959510 
# 
# From -- ./inp_files/115396.got.cif
#   From: 2010.05.17/outbox.cif.g08.bks.cpg/sg12_58_cif.got.tgz:115396.got - 2010.06.03 13:09:07.
