data_PCOD9211912
_publ_section_title
;
Structure prediction by ZEFSAII (Michael W. Deem and Ramdas Pophale) SiO2 
 PCOD9211912
Probable space group: C 2/M
;
_chemical_formula_sum "Si O2"
_cell_formula_units_Z 52
_cell_length_a 14.858941
_cell_length_b 30.767625
_cell_length_c 8.827527
_cell_angle_alpha 90.000000
_cell_angle_beta 39.108517
_cell_angle_gamma 90.000000
_cell_volume 2545.695674
_symmetry_space_group_name_H-M "C 2/M"
_symmetry_group_IT_number 12
_symmetry_cell_setting 'monoclinic'
loop_
_space_group_symop_operation_xyz
x,y,z
-x,y,-z
-x,-y,-z
x,-y,z
1/2+x,1/2+y,z
1/2-x,1/2+y,-z
1/2-x,1/2-y,-z
1/2+x,1/2-y,z
loop_
_atom_site_type_symbol
_atom_site_label
_atom_site_fract_x
_atom_site_fract_y
_atom_site_fract_z
Si Si1 0.846935 0.316018 0.928910
Si Si2 0.500000 0.246155 0.500000
Si Si3 0.684286 0.628678 0.624788
Si Si4 0.737527 0.284983 0.381068
Si Si5 0.635490 0.374332 0.033663
Si Si6 0.138796 0.449615 0.215742
Si Si7 0.021028 0.601212 0.796715
O O1 0.836715 0.289910 0.101303
O O2 0.700215 0.340375 0.070713
O O3 0.893103 0.284169 0.734642
O O4 0.961792 0.355115 0.792164
O O5 0.585158 0.274897 0.507069
O O6 0.743150 0.668802 0.453054
O O7 0.533413 0.616464 0.746275
O O8 0.812348 0.594164 0.455446
O O9 0.662455 0.642680 0.827410
O O10 0.750000 0.250000 0.500000
O O11 0.728902 0.418031 0.926354
O O12 0.173217 0.500000 0.190767
O O13 0.000000 0.438582 0.500000
O O14 0.078399 0.437787 0.129509
O O15 0.000000 0.608050 0.000000
#
# Coordination Sequence:
#
# PCOD9211912 Si02
#       7
#     8   4   8   8   8   8   8
#     4  11  23  41  61  88 121 169 217 261 320 385
#     4  12  26  38  62  86 125 166 217 276 328 378
#     4  11  22  40  60  93 122 167 213 258 317 376
#     4  12  25  39  59  90 129 163 217 276 330 371
#     4  10  22  40  65  89 128 165 209 257 312 391
#     4  10  21  40  67  97 128 159 204 257 314 380
#     4  11  21  39  66  90 121 164 209 253 303 385
#
# _framework density 20.426635999999998
#
# number of rings (size 3 to 8) (size 9 to 14) (size 15 to 20)
#    0.000    1.077    3.077    4.154    2.154    2.769 
#    0.000    2.308    0.000    0.923    0.000    0.000 
#    0.000    0.000    0.000    0.000    0.000    0.000 
#
# Total GULP energy -145142.610756 kJ/mol
# GULP energy per Si atom -5582.408106 kJ/mol
# Density = 2.038014 g / cm^3
# Si number density = 20.426636 Si / 1000 Ang^3
#
#
#
# Elastic Constant Matrix: (Units=GPa)
#
#
# Indices 1 2 3 4 5 6 
#
# 1 123.1292 18.5021 28.7182 0.0000 -9.1774 0.0000
# 2 18.5021 44.6413 19.0889 0.0000 6.6043 0.0000
# 3 28.7182 19.0889 73.6742 0.0000 -9.3578 0.0000
# 4 0.0000 0.0000 0.0000 16.3496 0.0000 0.7162
# 5 -9.1774 6.6043 -9.3578 0.0000 30.6199 0.0000
# 6 0.0000 0.0000 0.0000 0.7162 0.0000 12.9485
#
#
#
# Elastic Compliance Matrix: (Units=1/GPa)
#
#
# Indices 1 2 3 4 5 6 
#
# 1 0.009391 -0.003244 -0.002469 0.000000 0.002760 0.000000
# 2 -0.003244 0.028203 -0.007219 0.000000 -0.009261 0.000000
# 3 -0.002469 -0.007219 0.017177 0.000000 0.006066 0.000000
# 4 0.000000 0.000000 0.000000 0.061312 0.000000 -0.003391
# 5 0.002760 -0.009261 0.006066 0.000000 0.037337 0.000000
# 6 0.000000 0.000000 0.000000 -0.003391 0.000000 0.077417
#
#
# Mechanical properties :
#
#
# Convention : Reuss Voigt Hill
#
# Bulk Modulus (GPa) = 34.59664 41.56259 38.07961
# Shear Modulus (GPa) = 18.77327 23.65930 21.21629
#
# Velocity S-wave (km/s) = 3.03489 3.40701 3.22632
# Velocity P-wave (km/s) = 5.40874 5.98902 5.70626
#
# Compressibility (1/GPa) = 0.02890454
#
# Stress axis : x y z
#
# Youngs Moduli (GPa) = 106.48811 35.45785 58.21820
#
# Poissons Ratio (x) = 0.11504 0.14376
# Poissons Ratio (y) = 0.34550 0.42027
# Poissons Ratio (z) = 0.26296 0.25597
#
# Static dielectric constant tensor:
#      x y z
#    x 1.748420 0.000000 -0.010570 
#    y 0.000000 1.696350 0.000000 
#    z -0.010570 0.000000 1.798550 
# 
# From -- ./inp_files/68531.got.cif
#   From: 2010.05.17/outbox.cif.g08.bks.cpg/sg12_35_cif.got.tgz:68531.got - 2010.06.03 13:09:07.
