data_PCOD9211950
_publ_section_title
;
Structure prediction by ZEFSAII (Michael W. Deem and Ramdas Pophale) SiO2 
 PCOD9211950
Probable space group: C 2/M
;
_chemical_formula_sum "Si O2"
_cell_formula_units_Z 60
_cell_length_a 9.207167
_cell_length_b 31.097737
_cell_length_c 11.280632
_cell_angle_alpha 90.000000
_cell_angle_beta 71.722933
_cell_angle_gamma 90.000000
_cell_volume 3066.949113
_symmetry_space_group_name_H-M "C 2/M"
_symmetry_group_IT_number 12
_symmetry_cell_setting 'monoclinic'
loop_
_space_group_symop_operation_xyz
x,y,z
-x,y,-z
-x,-y,-z
x,-y,z
1/2+x,1/2+y,z
1/2-x,1/2+y,-z
1/2-x,1/2-y,-z
1/2+x,1/2-y,z
loop_
_atom_site_type_symbol
_atom_site_label
_atom_site_fract_x
_atom_site_fract_y
_atom_site_fract_z
Si Si1 0.951786 0.081248 0.341968
Si Si2 0.178924 0.577969 0.948665
Si Si3 0.858047 0.000000 0.768131
Si Si4 0.157127 0.617606 0.512950
Si Si5 0.046944 0.774199 0.349791
Si Si6 0.742926 0.191617 0.306575
Si Si7 0.229309 0.142901 0.274034
Si Si8 0.148303 0.117280 0.883556
O O1 0.796863 0.085115 0.455774
O O2 0.904393 0.090088 0.217312
O O3 0.066752 0.119892 0.344704
O O4 0.042472 0.037541 0.325214
O O5 0.266003 0.538277 0.865614
O O6 0.212448 0.620343 0.859965
O O7 0.243006 0.588888 0.061898
O O8 0.000000 0.569331 0.000000
O O9 0.195524 0.659945 0.425942
O O10 0.154973 0.631190 0.650022
O O11 0.000000 0.600050 0.500000
O O12 0.112399 0.726472 0.317971
O O13 0.182776 0.807492 0.282733
O O14 0.000000 0.779956 0.500000
O O15 0.898965 0.785094 0.308696
O O16 0.775927 0.160279 0.187800
O O17 0.000000 0.127911 0.000000
#
# Coordination Sequence:
#
# PCOD9211950 Si02
#       8
#     8   8   4   8   8   8   8   8
#     4  10  21  40  68  94 121 170 211 263 317 385
#     4  11  25  40  66  97 130 166 210 267 314 376
#     4  10  21  43  70  98 123 165 222 256 317 383
#     4  11  23  39  62  95 129 165 212 265 323 374
#     4  12  21  39  59  95 126 163 219 268 315 373
#     4  11  25  36  62  94 126 162 214 278 310 371
#     4  11  21  41  65  87 128 178 211 249 324 388
#     4  11  20  43  64  88 126 169 218 254 316 384
#
# _framework density 19.563416
#
# number of rings (size 3 to 8) (size 9 to 14) (size 15 to 20)
#    0.000    1.067    6.667    1.400    5.600    1.067 
#    0.000    9.000    0.000    0.000    0.000    0.000 
#    0.000    0.000    0.000    0.000    0.000    0.000 
#
# Total GULP energy -167115.723195 kJ/mol
# GULP energy per Si atom -5570.524106 kJ/mol
# Density = 1.951889 g / cm^3
# Si number density = 19.563416 Si / 1000 Ang^3
#
#
#
# Elastic Constant Matrix: (Units=GPa)
#
#
# Indices 1 2 3 4 5 6 
#
# 1 82.6242 6.3275 7.1236 0.0000 0.3987 0.0000
# 2 6.3275 87.3169 4.6686 0.0000 -12.7029 0.0000
# 3 7.1236 4.6686 43.1122 0.0000 9.5675 0.0000
# 4 0.0000 0.0000 0.0000 15.0287 0.0000 -13.8959
# 5 0.3987 -12.7029 9.5675 0.0000 22.2751 0.0000
# 6 0.0000 0.0000 0.0000 -13.8959 0.0000 10.7205
#
#
#
# Elastic Compliance Matrix: (Units=1/GPa)
#
#
# Indices 1 2 3 4 5 6 
#
# 1 0.012333 -0.000756 -0.002002 0.000000 0.000208 0.000000
# 2 -0.000756 0.012959 -0.003229 0.000000 0.008791 0.000000
# 3 -0.002002 -0.003229 0.026834 0.000000 -0.013331 0.000000
# 4 0.000000 0.000000 0.000000 -0.335214 0.000000 -0.434504
# 5 0.000208 0.008791 -0.013331 0.000000 0.055629 0.000000
# 6 0.000000 0.000000 0.000000 -0.434504 0.000000 -0.469925
#
#
# Mechanical properties :
#
#
# Convention : Reuss Voigt Hill
#
# Bulk Modulus (GPa) = 24.90622 27.69921 26.30271
# Shear Modulus (GPa) = -7.44018 22.60041 7.58012
#
# Velocity S-wave (km/s) = -1.95227 3.40257 1.97055
# Velocity P-wave (km/s) = 2.77071 5.44298 4.31873
#
# Compressibility (1/GPa) = 0.04015062
#
# Stress axis : x y z
#
# Youngs Moduli (GPa) = 81.08637 77.16722 37.26577
#
# Poissons Ratio (x) = 0.05837 0.07460
# Poissons Ratio (y) = 0.06134 0.12034
# Poissons Ratio (z) = 0.16233 0.24918
#
# Static dielectric constant tensor:
#      x y z
#    x 1.729380 0.000000 0.002250 
#    y 0.000000 1.638040 0.000000 
#    z 0.002250 0.000000 1.688110 
# 
# From -- ./inp_files/125700.got.cif
#   From: 2010.05.17/outbox.cif.g08.bks.cpg/sg12_63_cif.got.tgz:125700.got - 2010.06.03 13:09:07.
