data_PCOD9211066
_publ_section_title
;
Structure prediction by ZEFSAII (Michael W. Deem and Ramdas Pophale) SiO2 
 PCOD9211066
Probable space group: C 2/M
;
_chemical_formula_sum "Si O2"
_cell_formula_units_Z 58
_cell_length_a 12.119729
_cell_length_b 16.742925
_cell_length_c 15.313141
_cell_angle_alpha 90.000000
_cell_angle_beta 63.593667
_cell_angle_gamma 90.000000
_cell_volume 2783.126626
_symmetry_space_group_name_H-M "C 2/M"
_symmetry_group_IT_number 12
_symmetry_cell_setting 'monoclinic'
loop_
_space_group_symop_operation_xyz
x,y,z
-x,y,-z
-x,-y,-z
x,-y,z
1/2+x,1/2+y,z
1/2-x,1/2+y,-z
1/2-x,1/2-y,-z
1/2+x,1/2-y,z
loop_
_atom_site_type_symbol
_atom_site_label
_atom_site_fract_x
_atom_site_fract_y
_atom_site_fract_z
Si Si1 0.270035 0.908711 0.751219
Si Si2 0.580267 0.352536 0.236074
Si Si3 0.142570 0.618405 0.819849
Si Si4 0.552135 0.254925 0.578200
Si Si5 0.943572 0.588963 0.340685
Si Si6 0.835721 0.910949 0.395833
Si Si7 0.947217 0.796358 0.115490
Si Si8 0.500000 0.000000 0.000000
O O1 0.410818 0.900864 0.730054
O O2 0.259403 0.896742 0.649925
O O3 0.173002 0.851763 0.831646
O O4 0.231937 0.000000 0.780965
O O5 0.715702 0.385633 0.200395
O O6 0.553629 0.280617 0.314249
O O7 0.470141 0.412144 0.301344
O O8 0.549291 0.324437 0.149538
O O9 0.097389 0.709195 0.841196
O O10 0.128517 0.591687 0.724822
O O11 0.058121 0.568163 0.914089
O O12 0.500000 0.255425 0.500000
O O13 0.592726 0.165734 0.589561
O O14 0.647791 0.329311 0.554656
O O15 0.931051 0.500000 0.385142
O O16 0.817242 0.000000 0.441551
O O17 0.000000 0.797692 0.000000
#
# Coordination Sequence:
#
# PCOD9211066 Si02
#       8
#     8   8   8   8   8   8   8   2
#     4   9  19  38  61  86 120 165 214 256 311 374
#     4   9  22  39  62  90 127 168 203 262 321 368
#     4  12  23  42  60  89 130 169 213 255 312 377
#     4  10  21  39  65  98 123 159 216 268 319 381
#     4  11  22  39  63  84 126 178 204 254 320 379
#     4   8  17  37  63  88 118 162 204 262 322 369
#     4  11  22  38  63  90 121 164 214 261 322 378
#     4  12  28  40  60  96 128 168 216 252 294 392
#
# _framework density 20.839870000000001
#
# number of rings (size 3 to 8) (size 9 to 14) (size 15 to 20)
#    0.828    1.103    2.759    0.828    0.966    2.483 
#    0.000    2.759    0.000    1.655    0.000    0.000 
#    0.000    0.000    0.000    0.000    0.000    0.000 
#
# Total GULP energy -161546.600002 kJ/mol
# GULP energy per Si atom -5570.572414 kJ/mol
# Density = 2.079244 g / cm^3
# Si number density = 20.839870 Si / 1000 Ang^3
#
#
#
# Elastic Constant Matrix: (Units=GPa)
#
#
# Indices 1 2 3 4 5 6 
#
# 1 82.6524 -3.0650 11.0047 0.0000 14.6664 0.0000
# 2 -3.0650 127.4451 16.0592 0.0000 -3.9055 0.0000
# 3 11.0047 16.0592 62.6088 0.0000 12.6144 0.0000
# 4 0.0000 0.0000 0.0000 -375.9112 0.0000 159.8636
# 5 14.6664 -3.9055 12.6144 0.0000 21.0215 0.0000
# 6 0.0000 0.0000 0.0000 159.8636 0.0000 -49.5359
#
#
#
# Elastic Compliance Matrix: (Units=1/GPa)
#
#
# Indices 1 2 3 4 5 6 
#
# 1 0.013827 0.000124 -0.000595 0.000000 -0.009267 0.000000
# 2 0.000124 0.008295 -0.002779 0.000000 0.003122 0.000000
# 3 -0.000595 -0.002779 0.019122 0.000000 -0.011575 0.000000
# 4 0.000000 0.000000 0.000000 0.007143 0.000000 0.023051
# 5 -0.009267 0.003122 -0.011575 0.000000 0.061562 0.000000
# 6 0.000000 0.000000 0.000000 0.023051 0.000000 0.054203
#
#
# Mechanical properties :
#
#
# Convention : Reuss Voigt Hill
#
# Bulk Modulus (GPa) = 28.78184 35.63379 32.20782
# Shear Modulus (GPa) = 27.43744 -64.30462 -18.43359
#
# Velocity S-wave (km/s) = 3.63241 -5.56089 -2.97734
# Velocity P-wave (km/s) = 5.60656 4.90871 1.91548
#
# Compressibility (1/GPa) = 0.03474412
#
# Stress axis : x y z
#
# Youngs Moduli (GPa) = 72.32197 120.55038 52.29660
#
# Poissons Ratio (x) = -0.01489 0.03111
# Poissons Ratio (y) = -0.00893 0.14531
# Poissons Ratio (z) = 0.04303 0.33495
#
# Static dielectric constant tensor:
#      x y z
#    x 1.731560 0.000000 -0.005540 
#    y 0.000000 1.789460 0.000000 
#    z -0.005540 0.000000 1.717310 
# 
# From -- ./inp_files/206163.got.cif
#   From: 2010.05.17/outbox.cif.g08.bks.cpg/sg12_104_cif.got.tgz:206163.got - 2010.06.03 13:09:07.
