data_PCOD9211019
_publ_section_title
;
Structure prediction by ZEFSAII (Michael W. Deem and Ramdas Pophale) SiO2 
 PCOD9211019
Probable space group: C 2/M
;
_chemical_formula_sum "Si O2"
_cell_formula_units_Z 50
_cell_length_a 24.634044
_cell_length_b 12.041489
_cell_length_c 10.284641
_cell_angle_alpha 90.000000
_cell_angle_beta 135.080641
_cell_angle_gamma 90.000000
_cell_volume 2154.159892
_symmetry_space_group_name_H-M "C 2/M"
_symmetry_group_IT_number 12
_symmetry_cell_setting 'monoclinic'
loop_
_space_group_symop_operation_xyz
x,y,z
-x,y,-z
-x,-y,-z
x,-y,z
1/2+x,1/2+y,z
1/2-x,1/2+y,-z
1/2-x,1/2-y,-z
1/2+x,1/2-y,z
loop_
_atom_site_type_symbol
_atom_site_label
_atom_site_fract_x
_atom_site_fract_y
_atom_site_fract_z
Si Si1 0.192244 0.623124 0.909909
Si Si2 0.507110 0.621949 0.356771
Si Si3 0.333580 0.332172 0.993722
Si Si4 0.595038 0.166654 0.493855
Si Si5 0.829678 0.875444 0.699908
Si Si6 0.159848 0.623290 0.326442
Si Si7 0.000000 0.500000 0.500000
O O1 0.159160 0.500000 0.867154
O O2 0.281715 0.621731 0.023957
O O3 0.152725 0.672730 0.714014
O O4 0.175655 0.699968 0.003603
O O5 0.500000 0.635086 0.500000
O O6 0.536190 0.500000 0.377225
O O7 0.564545 0.713376 0.404438
O O8 0.421941 0.636609 0.157082
O O9 0.304237 0.376382 0.807914
O O10 0.633260 0.117457 0.431387
O O11 0.525571 0.096037 0.436666
O O12 0.867016 0.749739 0.759201
O O13 0.753075 0.871903 0.481573
O O14 0.866355 0.000000 0.740464
O O15 0.137476 0.500000 0.230586
#
# Coordination Sequence:
#
# PCOD9211019 Si02
#       7
#     8   8   8   8   8   8   2
#     4  11  21  36  61  93 127 163 209 269 327 387
#     4  11  23  38  56  86 126 166 207 254 314 384
#     4  11  22  39  61  92 127 167 212 265 324 383
#     4  12  21  39  63  94 126 169 209 253 321 394
#     4  10  21  39  66  93 124 169 217 268 325 375
#     4  10  21  39  65  94 127 164 215 270 319 381
#     4  12  20  32  62  92 130 160 202 252 318 398
#
# _framework density 23.210906000000001
#
# number of rings (size 3 to 8) (size 9 to 14) (size 15 to 20)
#    0.000    1.120    5.600    1.440    0.000    1.280 
#    0.000    0.800    0.000    2.880    0.000    0.000 
#    0.000    0.000    0.000    0.000    0.000    0.000 
#
# Total GULP energy -139169.326214 kJ/mol
# GULP energy per Si atom -5566.773049 kJ/mol
# Density = 2.315808 g / cm^3
# Si number density = 23.210906 Si / 1000 Ang^3
#
#
#
# Elastic Constant Matrix: (Units=GPa)
#
#
# Indices 1 2 3 4 5 6 
#
# 1 43.5914 26.0994 -11.9373 0.0000 -6.5020 0.0000
# 2 26.0994 204.5168 20.0957 0.0000 3.0382 0.0000
# 3 -11.9373 20.0957 25.9859 0.0000 2.8893 0.0000
# 4 0.0000 0.0000 0.0000 9.3130 0.0000 -8.1152
# 5 -6.5020 3.0382 2.8893 0.0000 19.0555 0.0000
# 6 0.0000 0.0000 0.0000 -8.1152 0.0000 7.0210
#
#
#
# Elastic Compliance Matrix: (Units=1/GPa)
#
#
# Indices 1 2 3 4 5 6 
#
# 1 0.033346 -0.006275 0.019117 0.000000 0.009480 0.000000
# 2 -0.006275 0.006473 -0.007665 0.000000 -0.002011 0.000000
# 3 0.019117 -0.007665 0.053228 0.000000 -0.000326 0.000000
# 4 0.000000 0.000000 0.000000-14.942340 0.000000-17.270988
# 5 0.009480 -0.002011 -0.000326 0.000000 0.056083 0.000000
# 6 0.000000 0.000000 0.000000-17.270988 0.000000-19.820109
#
#
# Mechanical properties :
#
#
# Convention : Reuss Voigt Hill
#
# Bulk Modulus (GPa) = 9.67102 38.06774 23.86938
# Shear Modulus (GPa) = -0.14455 23.06699 11.46122
#
# Velocity S-wave (km/s) = -0.24983 3.15588 2.22454
# Velocity P-wave (km/s) = 2.02297 5.45122 4.11146
#
# Compressibility (1/GPa) = 0.10340166
#
# Stress axis : x y z
#
# Youngs Moduli (GPa) = 29.98841 154.47981 18.78719
#
# Poissons Ratio (x) = 0.96932 -0.35915
# Poissons Ratio (y) = 0.18817 0.14400
# Poissons Ratio (z) = -0.57328 1.18407
#
# Static dielectric constant tensor:
#      x y z
#    x 1.866260 0.000000 0.044630 
#    y 0.000000 1.980500 0.000000 
#    z 0.044630 0.000000 1.918250 
# 
# From -- ./inp_files/188806.got.cif
#   From: 2010.05.17/outbox.cif.g08.bks.cpg/sg12_95_cif.got.tgz:188806.got - 2010.06.03 13:09:07.
