data_PCOD9211769
_publ_section_title
;
Structure prediction by ZEFSAII (Michael W. Deem and Ramdas Pophale) SiO2 
 PCOD9211769
Probable space group: C 2/M
;
_chemical_formula_sum "Si O2"
_cell_formula_units_Z 44
_cell_length_a 18.734624
_cell_length_b 9.889292
_cell_length_c 31.897624
_cell_angle_alpha 90.000000
_cell_angle_beta 20.296866
_cell_angle_gamma 90.000000
_cell_volume 2049.996986
_symmetry_space_group_name_H-M "C 2/M"
_symmetry_group_IT_number 12
_symmetry_cell_setting 'monoclinic'
loop_
_space_group_symop_operation_xyz
x,y,z
-x,y,-z
-x,-y,-z
x,-y,z
1/2+x,1/2+y,z
1/2-x,1/2+y,-z
1/2-x,1/2-y,-z
1/2+x,1/2-y,z
loop_
_atom_site_type_symbol
_atom_site_label
_atom_site_fract_x
_atom_site_fract_y
_atom_site_fract_z
Si Si1 0.526182 0.500000 0.114624
Si Si2 0.419068 0.000000 0.958836
Si Si3 0.662942 0.000000 0.446800
Si Si4 0.345932 0.268535 0.493308
Si Si5 0.116763 0.000000 0.200404
Si Si6 0.281540 0.249327 0.225448
Si Si7 0.585115 0.201379 0.247566
Si Si8 0.681044 0.500000 0.934076
O O1 0.390249 0.364199 0.193531
O O2 0.724450 0.500000 0.034889
O O3 0.610156 0.500000 0.020490
O O4 0.557130 0.866802 0.875574
O O5 0.314196 0.000000 0.062233
O O6 0.500000 0.000000 0.500000
O O7 0.636815 0.871115 0.491038
O O8 0.893992 0.000000 0.300455
O O9 0.250000 0.250000 0.500000
O O10 0.578995 0.316291 0.358501
O O11 0.153774 0.342003 0.620996
O O12 0.108088 0.863165 0.231719
O O13 0.196747 0.326981 0.230365
O O14 0.690736 0.131982 0.149850
O O15 0.500000 0.500000 0.000000
#
# Coordination Sequence:
#
# PCOD9211769 Si02
#       8
#     4   4   4   8   4   8   8   4
#     4  12  25  41  58  85 120 170 208 241 300 379
#     4  12  27  39  56  91 127 172 195 252 310 376
#     4  10  21  40  65  97 123 167 217 268 322 375
#     4   9  21  39  64  95 123 160 207 266 318 379
#     4  10  23  39  62  92 129 151 209 263 308 364
#     4  11  22  40  65  88 125 160 207 250 310 371
#     4  10  21  40  65  96 115 157 205 265 309 358
#     4  12  22  39  63  85 121 158 205 248 307 371
#
# _framework density 21.463446999999999
#
# number of rings (size 3 to 8) (size 9 to 14) (size 15 to 20)
#    0.000    1.455    1.818    2.727    2.545    5.818 
#    3.273    0.000    0.000    1.091    0.000    0.000 
#    0.000    0.000    0.000    0.000    0.000    0.000 
#
# Total GULP energy -122838.711682 kJ/mol
# GULP energy per Si atom -5583.577804 kJ/mol
# Density = 2.141459 g / cm^3
# Si number density = 21.463447 Si / 1000 Ang^3
#
#
#
# Elastic Constant Matrix: (Units=GPa)
#
#
# Indices 1 2 3 4 5 6 
#
# 1 83.3689 15.0215 26.0358 0.0134 -23.2635 0.0037
# 2 15.0215 87.8149 29.4861 -0.0083 -10.7926 0.0068
# 3 26.0358 29.4861 162.3505 -0.0052 -19.0037 0.0181
# 4 0.0134 -0.0083 -0.0052 12.6857 0.0273 0.6798
# 5 -23.2635 -10.7926 -19.0037 0.0273 34.4686 0.0055
# 6 0.0037 0.0068 0.0181 0.6798 0.0055 22.0963
#
#
#
# Elastic Compliance Matrix: (Units=1/GPa)
#
#
# Indices 1 2 3 4 5 6 
#
# 1 0.015124 -0.001065 -0.001150 -0.000037 0.009240 -0.000002
# 2 -0.001065 0.012453 -0.001837 0.000004 0.002167 -0.000003
# 3 -0.001150 -0.001837 0.006969 -0.000002 0.002491 -0.000006
# 4 -0.000037 0.000004 -0.000002 0.078959 -0.000087 -0.002429
# 5 0.009240 0.002167 0.002491 -0.000087 0.037300 -0.000011
# 6 -0.000002 -0.000003 -0.000006 -0.002429 -0.000011 0.045331
#
#
# Mechanical properties :
#
#
# Convention : Reuss Voigt Hill
#
# Bulk Modulus (GPa) = 37.82012 52.73569 45.27790
# Shear Modulus (GPa) = 23.46791 31.38283 27.42537
#
# Velocity S-wave (km/s) = 3.31023 3.82796 3.57847
# Velocity P-wave (km/s) = 5.68059 6.64538 6.18184
#
# Compressibility (1/GPa) = 0.02644095
#
# Stress axis : x y z
#
# Youngs Moduli (GPa) = 66.11806 80.30144 143.48810
#
# Poissons Ratio (x) = 0.08554 0.16507
# Poissons Ratio (y) = 0.07043 0.26362
# Poissons Ratio (z) = 0.07606 0.14753
#
# Static dielectric constant tensor:
#      x y z
#    x 1.729480 0.000000 -0.012890 
#    y 0.000000 1.774220 0.000010 
#    z -0.012890 0.000010 1.845980 
# 
# From -- ./inp_files/379063.got.cif
#   From: 2010.05.17/outbox.cif.g08.bks.cpg/sg12_190_cif.got.tgz:379063.got - 2010.06.03 13:09:07.
