data_PCOD9211416
_publ_section_title
;
Structure prediction by ZEFSAII (Michael W. Deem and Ramdas Pophale) SiO2 
 PCOD9211416
Probable space group: C 2/M
;
_chemical_formula_sum "Si O2"
_cell_formula_units_Z 64
_cell_length_a 25.863517
_cell_length_b 17.288845
_cell_length_c 15.378522
_cell_angle_alpha 90.000000
_cell_angle_beta 150.300992
_cell_angle_gamma 90.000000
_cell_volume 3406.923709
_symmetry_space_group_name_H-M "C 2/M"
_symmetry_group_IT_number 12
_symmetry_cell_setting 'monoclinic'
loop_
_space_group_symop_operation_xyz
x,y,z
-x,y,-z
-x,-y,-z
x,-y,z
1/2+x,1/2+y,z
1/2-x,1/2+y,-z
1/2-x,1/2-y,-z
1/2+x,1/2-y,z
loop_
_atom_site_type_symbol
_atom_site_label
_atom_site_fract_x
_atom_site_fract_y
_atom_site_fract_z
Si Si1 0.734318 0.160476 0.499979
Si Si2 0.436544 0.319085 0.152357
Si Si3 0.037626 0.908089 0.147657
Si Si4 0.623420 0.091770 0.169960
Si Si5 0.765310 0.842127 0.035410
Si Si6 0.454610 0.912727 0.336287
Si Si7 0.110032 0.288690 0.481869
Si Si8 0.723017 0.804599 0.162236
O O1 0.750000 0.250000 0.500000
O O2 0.845427 0.120484 0.669048
O O3 0.672929 0.119198 0.332946
O O4 0.674465 0.164265 0.503822
O O5 0.465121 0.378110 0.118681
O O6 0.369894 0.357205 0.133092
O O7 0.543123 0.280834 0.342327
O O8 0.367664 0.250762 0.008354
O O9 0.035277 0.000000 0.142298
O O10 0.000000 0.876475 0.000000
O O11 0.675068 0.140645 0.166933
O O12 0.639485 0.000000 0.179810
O O13 0.500000 0.106381 0.000000
O O14 0.766277 0.851514 0.141354
O O15 0.750000 0.750000 0.000000
O O16 0.665685 0.886092 0.849241
O O17 0.500000 0.914881 0.500000
O O18 0.524928 0.848082 0.393822
O O19 0.464788 0.000000 0.314942
O O20 0.188104 0.250529 0.666078
#
# Coordination Sequence:
#
# PCOD9211416 Si02
#       8
#     8   8   8   8   8   8   8   8
#     4  12  23  41  64  95 124 164 215 261 317 384
#     4  11  22  40  64  95 124 166 224 258 314 386
#     4  11  25  42  64  93 130 166 205 267 325 379
#     4  11  25  41  63  94 132 171 211 270 332 383
#     4  10  21  40  62  91 128 165 214 262 307 381
#     4  11  24  41  63  96 133 165 205 265 327 378
#     4  12  23  38  67  94 122 170 210 265 316 377
#     4  11  22  39  63  95 128 168 219 265 314 388
#
# _framework density 18.785274999999999
#
# number of rings (size 3 to 8) (size 9 to 14) (size 15 to 20)
#    0.000    0.875    5.000    3.375    0.000    2.000 
#    0.000    3.125    0.000    0.000    0.000    4.375 
#    0.000    0.000    0.000    0.000    0.000    0.000 
#
# Total GULP energy -178716.349989 kJ/mol
# GULP energy per Si atom -5584.885937 kJ/mol
# Density = 1.874252 g / cm^3
# Si number density = 18.785275 Si / 1000 Ang^3
#
#
#
# Elastic Constant Matrix: (Units=GPa)
#
#
# Indices 1 2 3 4 5 6 
#
# 1 145.6561 29.2240 42.5579 0.0000 5.1061 0.0000
# 2 29.2240 62.9401 17.4335 0.0000 1.1172 0.0000
# 3 42.5579 17.4335 110.7575 0.0000 -11.7177 0.0000
# 4 0.0000 0.0000 0.0000 25.5925 0.0000 2.2597
# 5 5.1061 1.1172 -11.7177 0.0000 29.7035 0.0000
# 6 0.0000 0.0000 0.0000 2.2597 0.0000 16.8056
#
#
#
# Elastic Compliance Matrix: (Units=1/GPa)
#
#
# Indices 1 2 3 4 5 6 
#
# 1 0.008451 -0.003038 -0.003038 0.000000 -0.002537 0.000000
# 2 -0.003038 0.017790 -0.001720 0.000000 -0.000826 0.000000
# 3 -0.003038 -0.001720 0.010987 0.000000 0.004921 0.000000
# 4 0.000000 0.000000 0.000000 0.039543 0.000000 -0.005317
# 5 -0.002537 -0.000826 0.004921 0.000000 0.036075 0.000000
# 6 0.000000 0.000000 0.000000 -0.005317 0.000000 0.060219
#
#
# Mechanical properties :
#
#
# Convention : Reuss Voigt Hill
#
# Bulk Modulus (GPa) = 46.21660 55.30940 50.76300
# Shear Modulus (GPa) = 25.52725 29.76288 27.64506
#
# Velocity S-wave (km/s) = 3.69032 3.98474 3.84035
# Velocity P-wave (km/s) = 6.54324 7.11883 6.83709
#
# Compressibility (1/GPa) = 0.02163725
#
# Stress axis : x y z
#
# Youngs Moduli (GPa) = 118.32295 56.21232 91.01361
#
# Poissons Ratio (x) = 0.17076 0.27647
# Poissons Ratio (y) = 0.35943 0.15657
# Poissons Ratio (z) = 0.35943 0.09670
#
# Static dielectric constant tensor:
#      x y z
#    x 1.690030 0.000000 0.011620 
#    y 0.000000 1.629680 0.000000 
#    z 0.011620 0.000000 1.604110 
# 
# From -- ./inp_files/241529.got.cif
#   From: 2010.05.17/outbox.cif.g08.bks.cpg/sg12_121_cif.got.tgz:241529.got - 2010.06.03 13:09:07.
