data_PCOD9211384
_publ_section_title
;
Structure prediction by ZEFSAII (Michael W. Deem and Ramdas Pophale) SiO2 
 PCOD9211384
Probable space group: C 2/M
;
_chemical_formula_sum "Si O2"
_cell_formula_units_Z 48
_cell_length_a 10.665651
_cell_length_b 23.933322
_cell_length_c 9.564958
_cell_angle_alpha 90.000000
_cell_angle_beta 63.356848
_cell_angle_gamma 90.000000
_cell_volume 2182.337482
_symmetry_space_group_name_H-M "C 2/M"
_symmetry_group_IT_number 12
_symmetry_cell_setting 'monoclinic'
loop_
_space_group_symop_operation_xyz
x,y,z
-x,y,-z
-x,-y,-z
x,-y,z
1/2+x,1/2+y,z
1/2-x,1/2+y,-z
1/2-x,1/2-y,-z
1/2+x,1/2-y,z
loop_
_atom_site_type_symbol
_atom_site_label
_atom_site_fract_x
_atom_site_fract_y
_atom_site_fract_z
Si Si1 0.653441 0.882350 0.801399
Si Si2 0.104979 0.062889 0.838527
Si Si3 0.578971 0.751442 0.818938
Si Si4 0.390354 0.208389 0.681207
Si Si5 0.143652 0.064480 0.512389
Si Si6 0.647688 0.097531 0.113676
O O1 0.610397 0.817589 0.825779
O O2 0.756963 0.896339 0.626197
O O3 0.512924 0.917628 0.837463
O O4 0.711018 0.896388 0.926438
O O5 0.120750 0.088333 0.678540
O O6 0.253753 0.060367 0.840605
O O7 0.049069 0.000000 0.840228
O O8 0.000000 0.091428 0.000000
O O9 0.471496 0.747776 0.742456
O O10 0.733804 0.726565 0.715286
O O11 0.500000 0.731635 0.000000
O O12 0.500000 0.196776 0.500000
O O13 0.363106 0.154814 0.793151
O O14 0.000000 0.061534 0.500000
O O15 0.198204 0.000000 0.496148
#
# Coordination Sequence:
#
# PCOD9211384 Si02
#       6
#     8   8   8   8   8   8
#     4  10  21  40  62  87 123 164 203 251 309 367
#     4  10  22  40  62  91 125 160 203 254 306 368
#     4  11  22  43  65  90 128 169 211 260 313 378
#     4  11  24  41  64  93 128 167 213 263 315 373
#     4  10  22  40  63  90 123 161 203 254 308 368
#     4  10  22  39  61  88 123 162 202 253 309 365
#
# _framework density 21.994765999999998
#
# number of rings (size 3 to 8) (size 9 to 14) (size 15 to 20)
#    0.000    1.667    3.333    2.000    4.667    4.000 
#    3.000    3.333    0.000    0.000    0.000    0.000 
#    0.000    0.000    0.000    0.000    0.000    0.000 
#
# Total GULP energy -133922.731131 kJ/mol
# GULP energy per Si atom -5580.113797 kJ/mol
# Density = 2.194470 g / cm^3
# Si number density = 21.994766 Si / 1000 Ang^3
#
#
#
# Elastic Constant Matrix: (Units=GPa)
#
#
# Indices 1 2 3 4 5 6 
#
# 1 99.9564 15.9185 45.0275 0.0000 4.7296 0.0000
# 2 15.9185 32.5284 26.5351 0.0000 -5.0915 0.0000
# 3 45.0275 26.5351 203.1501 0.0000 -1.2952 0.0000
# 4 0.0000 0.0000 0.0000 11.9334 0.0000 2.0526
# 5 4.7296 -5.0915 -1.2952 0.0000 40.2874 0.0000
# 6 0.0000 0.0000 0.0000 2.0526 0.0000 33.4647
#
#
#
# Elastic Compliance Matrix: (Units=1/GPa)
#
#
# Indices 1 2 3 4 5 6 
#
# 1 0.011714 -0.004383 -0.002037 0.000000 -0.001995 0.000000
# 2 -0.004383 0.036776 -0.003800 0.000000 0.005040 0.000000
# 3 -0.002037 -0.003800 0.005870 0.000000 -0.000052 0.000000
# 4 0.000000 0.000000 0.000000 0.084692 0.000000 -0.005195
# 5 -0.001995 0.005040 -0.000052 0.000000 0.025691 0.000000
# 6 0.000000 0.000000 0.000000 -0.005195 0.000000 0.030201
#
#
# Mechanical properties :
#
#
# Convention : Reuss Voigt Hill
#
# Bulk Modulus (GPa) = 29.48079 56.73300 43.10689
# Shear Modulus (GPa) = 22.05644 33.68067 27.86856
#
# Velocity S-wave (km/s) = 3.17014 3.91743 3.56343
# Velocity P-wave (km/s) = 5.18000 6.80526 6.04748
#
# Compressibility (1/GPa) = 0.03392039
#
# Stress axis : x y z
#
# Youngs Moduli (GPa) = 85.36613 27.19146 170.36145
#
# Poissons Ratio (x) = 0.11919 0.34695
# Poissons Ratio (y) = 0.37420 0.64736
# Poissons Ratio (z) = 0.17385 0.10333
#
# Static dielectric constant tensor:
#      x y z
#    x 1.814380 0.000000 -0.000680 
#    y 0.000000 1.830620 0.000000 
#    z -0.000680 0.000000 1.816130 
# 
# From -- ./inp_files/52405.got.cif
#   From: 2010.05.17/outbox.cif.g08.bks.cpg/sg12_27_cif.got.tgz:52405.got - 2010.06.03 13:09:07.
