data_PCOD9211467
_publ_section_title
;
Structure prediction by ZEFSAII (Michael W. Deem and Ramdas Pophale) SiO2 
 PCOD9211467
Probable space group: C 2/M
;
_chemical_formula_sum "Si O2"
_cell_formula_units_Z 56
_cell_length_a 27.177055
_cell_length_b 9.017505
_cell_length_c 12.067420
_cell_angle_alpha 90.000000
_cell_angle_beta 76.854482
_cell_angle_gamma 90.000000
_cell_volume 2879.857648
_symmetry_space_group_name_H-M "C 2/M"
_symmetry_group_IT_number 12
_symmetry_cell_setting 'monoclinic'
loop_
_space_group_symop_operation_xyz
x,y,z
-x,y,-z
-x,-y,-z
x,-y,z
1/2+x,1/2+y,z
1/2-x,1/2+y,-z
1/2-x,1/2-y,-z
1/2+x,1/2-y,z
loop_
_atom_site_type_symbol
_atom_site_label
_atom_site_fract_x
_atom_site_fract_y
_atom_site_fract_z
Si Si1 0.743439 0.677736 0.883327
Si Si2 0.069213 0.176198 0.208636
Si Si3 0.356663 0.677127 0.198997
Si Si4 0.130219 0.822307 0.560660
Si Si5 0.020887 0.327696 0.614676
Si Si6 0.331194 0.677162 0.695913
Si Si7 0.440976 0.822897 0.018198
O O1 0.745459 0.500000 0.891642
O O2 0.689673 0.718792 0.856463
O O3 0.787402 0.735853 0.780608
O O4 0.750000 0.750000 0.000000
O O5 0.115816 0.204078 0.267857
O O6 0.078664 0.252337 0.085983
O O7 0.018356 0.242385 0.287147
O O8 0.064376 0.000000 0.196533
O O9 0.364638 0.500000 0.185168
O O10 0.344854 0.709675 0.333433
O O11 0.407164 0.759090 0.134311
O O12 0.075910 0.744430 0.587964
O O13 0.161505 0.778476 0.435903
O O14 0.122315 0.000000 0.556566
O O15 0.023234 0.500000 0.647127
O O16 0.000000 0.319685 0.500000
O O17 0.321239 0.500000 0.706820
O O18 0.436983 0.000000 0.016509
O O19 0.500000 0.783110 0.000000
#
# Coordination Sequence:
#
# PCOD9211467 Si02
#       7
#     8   8   8   8   8   8   8
#     4  11  24  42  64  90 119 153 198 249 301 355
#     4  11  22  37  60  87 118 157 203 248 293 354
#     4  10  23  42  63  88 119 158 202 246 295 355
#     4  10  21  40  63  87 121 161 201 244 293 356
#     4  11  22  35  55  87 126 161 197 243 294 349
#     4  10  22  39  61  90 119 152 197 245 295 354
#     4  11  24  40  59  87 122 156 197 247 300 355
#
# _framework density 19.445405999999998
#
# number of rings (size 3 to 8) (size 9 to 14) (size 15 to 20)
#    0.000    1.429    1.429    3.429    0.000   11.429 
#    0.000    0.000    0.000    0.000    0.000    0.000 
#    0.000    0.000    0.000    0.000    0.000    0.000 
#
# Total GULP energy -156585.810060 kJ/mol
# GULP energy per Si atom -5592.350359 kJ/mol
# Density = 1.940115 g / cm^3
# Si number density = 19.445406 Si / 1000 Ang^3
#
#
#
# Elastic Constant Matrix: (Units=GPa)
#
#
# Indices 1 2 3 4 5 6 
#
# 1 96.0775 47.5078 59.9513 0.0000 -1.6554 0.0000
# 2 47.5078 41.9798 51.0669 0.0000 1.5451 0.0000
# 3 59.9513 51.0669 149.4095 0.0000 0.5307 0.0000
# 4 0.0000 0.0000 0.0000 34.3123 0.0000 -7.2551
# 5 -1.6554 1.5451 0.5307 0.0000 36.5154 0.0000
# 6 0.0000 0.0000 0.0000 -7.2551 0.0000 26.1498
#
#
#
# Elastic Compliance Matrix: (Units=1/GPa)
#
#
# Indices 1 2 3 4 5 6 
#
# 1 0.023839 -0.026383 -0.000556 0.000000 0.002205 0.000000
# 2 -0.026383 0.070058 -0.013345 0.000000 -0.003966 0.000000
# 3 -0.000556 -0.013345 0.011476 0.000000 0.000373 0.000000
# 4 0.000000 0.000000 0.000000 0.030960 0.000000 0.008590
# 5 0.002205 -0.003966 0.000373 0.000000 0.027648 0.000000
# 6 0.000000 0.000000 0.000000 0.008590 0.000000 0.040624
#
#
# Mechanical properties :
#
#
# Convention : Reuss Voigt Hill
#
# Bulk Modulus (GPa) = 40.31416 67.16876 53.74146
# Shear Modulus (GPa) = 17.03925 27.99156 22.51540
#
# Velocity S-wave (km/s) = 2.96338 3.79818 3.40645
# Velocity P-wave (km/s) = 5.69963 7.33840 6.57031
#
# Compressibility (1/GPa) = 0.02480518
#
# Stress axis : x y z
#
# Youngs Moduli (GPa) = 41.94845 14.27398 87.14001
#
# Poissons Ratio (x) = 0.37659 0.04843
# Poissons Ratio (y) = 1.10673 1.16285
# Poissons Ratio (z) = 0.02331 0.19048
#
# Static dielectric constant tensor:
#      x y z
#    x 1.655580 0.000000 0.021950 
#    y 0.000000 1.649030 0.000000 
#    z 0.021950 0.000000 1.678940 
# 
# From -- ./inp_files/180742.got.cif
#   From: 2010.05.17/outbox.cif.g08.bks.cpg/sg12_91_cif.got.tgz:180742.got - 2010.06.03 13:09:07.
