data_PCOD9211208
_publ_section_title
;
Structure prediction by ZEFSAII (Michael W. Deem and Ramdas Pophale) SiO2 
 PCOD9211208
Probable space group: C 2/M
;
_chemical_formula_sum "Si O2"
_cell_formula_units_Z 50
_cell_length_a 20.392758
_cell_length_b 7.880399
_cell_length_c 13.984295
_cell_angle_alpha 90.000000
_cell_angle_beta 74.035892
_cell_angle_gamma 90.000000
_cell_volume 2160.649420
_symmetry_space_group_name_H-M "C 2/M"
_symmetry_group_IT_number 12
_symmetry_cell_setting 'monoclinic'
loop_
_space_group_symop_operation_xyz
x,y,z
-x,y,-z
-x,-y,-z
x,-y,z
1/2+x,1/2+y,z
1/2-x,1/2+y,-z
1/2-x,1/2-y,-z
1/2+x,1/2-y,z
loop_
_atom_site_type_symbol
_atom_site_label
_atom_site_fract_x
_atom_site_fract_y
_atom_site_fract_z
Si Si1 0.622859 0.294733 0.751275
Si Si2 0.763740 0.701798 0.603049
Si Si3 0.974056 0.313119 0.378148
Si Si4 0.621040 0.311206 0.306463
Si Si5 0.079112 0.204701 0.979450
Si Si6 0.000000 0.000000 0.500000
Si Si7 0.685512 0.193589 0.090238
O O1 0.617086 0.500000 0.746730
O O2 0.697352 0.241219 0.687797
O O3 0.566865 0.217227 0.703304
O O4 0.612961 0.249903 0.865324
O O5 0.769110 0.500000 0.608864
O O6 0.750000 0.750000 0.500000
O O7 0.830696 0.776866 0.623888
O O8 0.955164 0.500000 0.424167
O O9 0.055253 0.306645 0.324917
O O10 0.961565 0.154394 0.452852
O O11 0.589990 0.500000 0.331578
O O12 0.667416 0.296947 0.193144
O O13 0.083734 0.000000 0.992069
O O14 0.119367 0.289910 0.049348
O O15 0.000000 0.248596 0.000000
O O16 0.697691 0.000000 0.115560
O O17 0.750000 0.250000 0.000000
#
# Coordination Sequence:
#
# PCOD9211208 Si02
#       7
#     8   8   8   8   8   2   8
#     4  10  22  43  65  96 139 177 219 281 341 404
#     4  11  25  42  65  94 133 178 226 276 338 403
#     4  12  26  44  73 102 137 182 231 285 343 409
#     4  12  25  46  69  98 139 179 227 287 342 404
#     4  10  21  39  68  99 132 173 215 270 343 408
#     4  12  26  48  68 102 138 180 238 282 350 398
#     4  12  25  42  67  99 135 177 228 280 339 410
#
# _framework density 23.141193000000001
#
# number of rings (size 3 to 8) (size 9 to 14) (size 15 to 20)
#    0.000    0.800    1.600    5.520    2.240    4.800 
#    0.000    0.000    0.000    0.000    0.000    0.000 
#    0.000    0.000    0.000    0.000    0.000    0.000 
#
# Total GULP energy -139840.188242 kJ/mol
# GULP energy per Si atom -5593.607530 kJ/mol
# Density = 2.308852 g / cm^3
# Si number density = 23.141193 Si / 1000 Ang^3
#
#
#
# Elastic Constant Matrix: (Units=GPa)
#
#
# Indices 1 2 3 4 5 6 
#
# 1 121.2126 14.8017 34.7189 0.0000 0.5615 0.0000
# 2 14.8017 113.7713 12.4803 0.0000 7.2521 0.0000
# 3 34.7189 12.4803 92.0295 0.0000 3.2171 0.0000
# 4 0.0000 0.0000 0.0000 17.1211 0.0000 7.3484
# 5 0.5615 7.2521 3.2171 0.0000 45.6648 0.0000
# 6 0.0000 0.0000 0.0000 7.3484 0.0000 32.8962
#
#
#
# Elastic Compliance Matrix: (Units=1/GPa)
#
#
# Indices 1 2 3 4 5 6 
#
# 1 0.009331 -0.000856 -0.003413 0.000000 0.000262 0.000000
# 2 -0.000856 0.009083 -0.000861 0.000000 -0.001371 0.000000
# 3 -0.003413 -0.000861 0.012295 0.000000 -0.000687 0.000000
# 4 0.000000 0.000000 0.000000 0.064601 0.000000 -0.014431
# 5 0.000262 -0.001371 -0.000687 0.000000 0.022162 0.000000
# 6 0.000000 0.000000 0.000000 -0.014431 0.000000 0.033622
#
#
# Mechanical properties :
#
#
# Convention : Reuss Voigt Hill
#
# Bulk Modulus (GPa) = 48.90498 50.11280 49.50889
# Shear Modulus (GPa) = 29.73186 36.80391 33.26789
#
# Velocity S-wave (km/s) = 3.58830 3.99232 3.79569
# Velocity P-wave (km/s) = 6.19250 6.55391 6.37577
#
# Compressibility (1/GPa) = 0.02044782
#
# Stress axis : x y z
#
# Youngs Moduli (GPa) = 107.17011 110.09830 81.33711
#
# Poissons Ratio (x) = 0.09427 0.27762
# Poissons Ratio (y) = 0.09176 0.07001
# Poissons Ratio (z) = 0.36579 0.09477
#
# Static dielectric constant tensor:
#      x y z
#    x 1.764510 0.000000 0.082440 
#    y 0.000000 1.876820 0.000000 
#    z 0.082440 0.000000 1.721230 
# 
# From -- ./inp_files/230060.got.cif
#   From: 2010.05.17/outbox.cif.g08.bks.cpg/sg12_116_cif.got.tgz:230060.got - 2010.06.03 13:09:07.
