data_PCOD9211843
_publ_section_title
;
Structure prediction by ZEFSAII (Michael W. Deem and Ramdas Pophale) SiO2 
 PCOD9211843
Probable space group: C 2/M
;
_chemical_formula_sum "Si O2"
_cell_formula_units_Z 64
_cell_length_a 15.228410
_cell_length_b 18.673826
_cell_length_c 22.121724
_cell_angle_alpha 90.000000
_cell_angle_beta 151.889113
_cell_angle_gamma 90.000000
_cell_volume 2964.102484
_symmetry_space_group_name_H-M "C 2/M"
_symmetry_group_IT_number 12
_symmetry_cell_setting 'monoclinic'
loop_
_space_group_symop_operation_xyz
x,y,z
-x,y,-z
-x,-y,-z
x,-y,z
1/2+x,1/2+y,z
1/2-x,1/2+y,-z
1/2-x,1/2-y,-z
1/2+x,1/2-y,z
loop_
_atom_site_type_symbol
_atom_site_label
_atom_site_fract_x
_atom_site_fract_y
_atom_site_fract_z
Si Si1 0.678213 0.682254 0.273498
Si Si2 0.141952 0.793006 0.531501
Si Si3 0.826568 0.581276 0.066612
Si Si4 0.103548 0.417870 0.340025
Si Si5 0.311073 0.857031 0.923945
Si Si6 0.906121 0.799706 0.005520
Si Si7 0.922094 0.085169 0.686916
Si Si8 0.529718 0.844050 0.408528
O O1 0.708574 0.742249 0.343333
O O2 0.569839 0.717801 0.152574
O O3 0.572814 0.617323 0.241896
O O4 0.871047 0.650829 0.363455
O O5 0.218849 0.866627 0.553854
O O6 0.065851 0.741414 0.432262
O O7 0.000000 0.805954 0.500000
O O8 0.753823 0.500000 0.025764
O O9 0.017777 0.582368 0.221102
O O10 0.845475 0.604401 0.008947
O O11 0.704613 0.637803 0.029372
O O12 0.136345 0.500000 0.377706
O O13 0.972348 0.378747 0.310163
O O14 0.118531 0.887143 0.778925
O O15 0.500000 0.865476 0.000000
O O16 0.289359 0.772138 0.923134
O O17 0.000000 0.822226 0.000000
O O18 0.723781 0.115881 0.542639
O O19 0.917887 0.000000 0.682631
#
# Coordination Sequence:
#
# PCOD9211843 Si02
#       8
#     8   8   8   8   8   8   8   8
#     4  10  21  40  66  95 127 166 211 270 324 385
#     4   9  20  39  62  89 118 165 218 261 311 371
#     4  11  24  41  64  94 130 172 213 264 329 389
#     4  11  23  39  60  90 132 172 206 258 322 389
#     4  11  25  44  68  96 126 173 227 279 319 374
#     4  11  23  40  65  96 131 170 217 265 325 392
#     4  11  23  40  66  97 130 170 214 268 333 384
#     4  10  22  41  65  97 129 163 216 267 324 389
#
# _framework density 21.591695999999999
#
# number of rings (size 3 to 8) (size 9 to 14) (size 15 to 20)
#    0.000    1.500    1.250    4.125    3.500    3.000 
#   11.250    0.000    0.000    0.000    0.000    0.000 
#    0.000    0.000    0.000    0.000    0.000    0.000 
#
# Total GULP energy -178670.589930 kJ/mol
# GULP energy per Si atom -5583.455935 kJ/mol
# Density = 2.154255 g / cm^3
# Si number density = 21.591696 Si / 1000 Ang^3
#
#
#
# Elastic Constant Matrix: (Units=GPa)
#
#
# Indices 1 2 3 4 5 6 
#
# 1 57.0698 32.7821 8.2616 0.0023 0.0807 0.0048
# 2 32.7821 120.6567 18.7844 -0.0066 16.0845 -0.0044
# 3 8.2616 18.7844 52.8804 -0.0160 7.3044 -0.0127
# 4 0.0023 -0.0066 -0.0160 9.7259 0.0016 -26.1910
# 5 0.0807 16.0845 7.3044 0.0016 36.2789 -0.0051
# 6 0.0048 -0.0044 -0.0127 -26.1910 -0.0051 -34.6237
#
#
#
# Elastic Compliance Matrix: (Units=1/GPa)
#
#
# Indices 1 2 3 4 5 6 
#
# 1 0.021125 -0.005873 -0.001612 -0.000001 0.002881 0.000004
# 2 -0.005873 0.010822 -0.002331 0.000001 -0.004316 -0.000002
# 3 -0.001612 -0.002331 0.020415 0.000005 -0.003074 -0.000010
# 4 -0.000001 0.000001 0.000005 0.033855 -0.000006 -0.025609
# 5 0.002881 -0.004316 -0.003074 -0.000006 0.030090 0.000003
# 6 0.000004 -0.000002 -0.000010 -0.025609 0.000003 -0.009510
#
#
# Mechanical properties :
#
#
# Convention : Reuss Voigt Hill
#
# Bulk Modulus (GPa) = 30.55238 38.91814 34.73526
# Shear Modulus (GPa) = 36.40660 13.66148 25.03404
#
# Velocity S-wave (km/s) = 4.11072 2.51812 3.40873
# Velocity P-wave (km/s) = 6.05900 5.14959 5.62271
#
# Compressibility (1/GPa) = 0.03273068
#
# Stress axis : x y z
#
# Youngs Moduli (GPa) = 47.33694 92.40689 48.98385
#
# Poissons Ratio (x) = 0.54268 0.07898
# Poissons Ratio (y) = 0.27800 0.11416
# Poissons Ratio (z) = 0.07632 0.21536
#
# Static dielectric constant tensor:
#      x y z
#    x 1.791310 0.000000 -0.027620 
#    y 0.000000 1.754650 0.000000 
#    z -0.027620 0.000000 1.903880 
# 
# From -- ./inp_files/340870.got.cif
#   From: 2010.05.17/outbox.cif.g08.bks.cpg/sg12_171_cif.got.tgz:340870.got - 2010.06.03 13:09:07.
