data_PCOD9211087
_publ_section_title
;
Structure prediction by ZEFSAII (Michael W. Deem and Ramdas Pophale) SiO2 
 PCOD9211087
Probable space group: C 2/M
;
_chemical_formula_sum "Si O2"
_cell_formula_units_Z 46
_cell_length_a 21.764232
_cell_length_b 16.490583
_cell_length_c 15.289949
_cell_angle_alpha 90.000000
_cell_angle_beta 25.247880
_cell_angle_gamma 90.000000
_cell_volume 2340.670846
_symmetry_space_group_name_H-M "C 2/M"
_symmetry_group_IT_number 12
_symmetry_cell_setting 'monoclinic'
loop_
_space_group_symop_operation_xyz
x,y,z
-x,y,-z
-x,-y,-z
x,-y,z
1/2+x,1/2+y,z
1/2-x,1/2+y,-z
1/2-x,1/2-y,-z
1/2+x,1/2-y,z
loop_
_atom_site_type_symbol
_atom_site_label
_atom_site_fract_x
_atom_site_fract_y
_atom_site_fract_z
Si Si1 0.000000 0.207031 0.000000
Si Si2 0.546918 0.596387 0.101746
Si Si3 0.878262 0.596948 0.720750
Si Si4 0.289526 0.831018 0.002367
Si Si5 0.521404 0.404695 0.612803
Si Si6 0.313273 0.844424 0.170706
Si Si7 0.500000 0.000000 0.000000
O O1 0.132317 0.268510 0.842841
O O2 0.013586 0.149835 0.898306
O O3 0.538890 0.500000 0.092956
O O4 0.468983 0.610011 0.294926
O O5 0.716208 0.617509 0.898403
O O6 0.885980 0.500000 0.708711
O O7 0.000000 0.631168 0.500000
O O8 0.894723 0.623815 0.799632
O O9 0.140941 0.880827 0.201868
O O10 0.346979 0.823344 0.026138
O O11 0.250000 0.750000 0.000000
O O12 0.540447 0.500000 0.572608
O O13 0.643844 0.356857 0.404470
O O14 0.393747 0.927134 0.096240
#
# Coordination Sequence:
#
# PCOD9211087 Si02
#       7
#     4   8   8   8   8   8   2
#     4  11  23  39  55  82 124 174 199 251 299 359
#     4   9  19  38  63  87 120 156 208 249 300 377
#     4   9  19  37  62  88 115 147 190 253 306 353
#     4  11  23  37  61  95 121 155 197 258 317 361
#     4  10  21  39  66  93 115 155 206 261 310 366
#     4  11  23  39  62  87 127 164 204 258 308 375
#     4  10  24  40  56  88 128 166 212 244 304 378
#
# _framework density 19.652486
#
# number of rings (size 3 to 8) (size 9 to 14) (size 15 to 20)
#    0.000    1.913    0.870    4.435    2.435    4.174 
#    0.000    3.478    3.826    0.000    0.000    0.000 
#    0.000    0.000    0.000    0.000    0.000    0.000 
#
# Total GULP energy -128120.984806 kJ/mol
# GULP energy per Si atom -5570.477600 kJ/mol
# Density = 1.960776 g / cm^3
# Si number density = 19.652486 Si / 1000 Ang^3
#
#
#
# Elastic Constant Matrix: (Units=GPa)
#
#
# Indices 1 2 3 4 5 6 
#
# 1 73.8913 42.2564 25.2671 0.0000 20.3446 0.0000
# 2 42.2564 70.6332 12.4003 0.0000 13.4892 0.0000
# 3 25.2671 12.4003 94.8629 -0.0001 22.9926 0.0001
# 4 0.0000 0.0000 -0.0001 6.9847 0.0000 4.9824
# 5 20.3446 13.4892 22.9926 0.0000 14.3974 0.0000
# 6 0.0000 0.0000 0.0001 4.9824 0.0000 30.9690
#
#
#
# Elastic Compliance Matrix: (Units=1/GPa)
#
#
# Indices 1 2 3 4 5 6 
#
# 1 0.028057 -0.010943 0.001765 0.000000 -0.032212 0.000000
# 2 -0.010943 0.021949 0.002092 0.000000 -0.008442 0.000000
# 3 0.001765 0.002092 0.017747 0.000001 -0.032796 0.000000
# 4 0.000000 0.000000 0.000001 0.161730 -0.000002 -0.026020
# 5 -0.032212 -0.008442 -0.032796 -0.000002 0.175260 0.000001
# 6 0.000000 0.000000 0.000000 -0.026020 0.000001 0.036476
#
#
# Mechanical properties :
#
#
# Convention : Reuss Voigt Hill
#
# Bulk Modulus (GPa) = 18.66364 44.35945 31.51154
# Shear Modulus (GPa) = 10.56518 21.10114 15.83316
#
# Velocity S-wave (km/s) = 2.32114 3.28031 2.84149
# Velocity P-wave (km/s) = 4.08669 6.08015 5.18021
#
# Compressibility (1/GPa) = 0.05358012
#
# Stress axis : x y z
#
# Youngs Moduli (GPa) = 35.64163 45.55926 56.34773
#
# Poissons Ratio (x) = 0.49857 -0.09945
# Poissons Ratio (y) = 0.39004 -0.11786
# Poissons Ratio (z) = -0.06290 -0.09530
#
# Static dielectric constant tensor:
#      x y z
#    x 1.735140 0.000000 0.003230 
#    y 0.000000 1.709040 0.000000 
#    z 0.003230 0.000000 1.692510 
# 
# From -- ./inp_files/234256.got.cif
#   From: 2010.05.17/outbox.cif.g08.bks.cpg/sg12_118_cif.got.tgz:234256.got - 2010.06.03 13:09:07.
