data_PCOD9211743
_publ_section_title
;
Structure prediction by ZEFSAII (Michael W. Deem and Ramdas Pophale) SiO2 
 PCOD9211743
Probable space group: C 2/M
;
_chemical_formula_sum "Si O2"
_cell_formula_units_Z 40
_cell_length_a 22.685528
_cell_length_b 9.029488
_cell_length_c 15.182908
_cell_angle_alpha 90.000000
_cell_angle_beta 40.453620
_cell_angle_gamma 90.000000
_cell_volume 2017.899063
_symmetry_space_group_name_H-M "C 2/M"
_symmetry_group_IT_number 12
_symmetry_cell_setting 'monoclinic'
loop_
_space_group_symop_operation_xyz
x,y,z
-x,y,-z
-x,-y,-z
x,-y,z
1/2+x,1/2+y,z
1/2-x,1/2+y,-z
1/2-x,1/2-y,-z
1/2+x,1/2-y,z
loop_
_atom_site_type_symbol
_atom_site_label
_atom_site_fract_x
_atom_site_fract_y
_atom_site_fract_z
Si Si1 0.041803 0.322861 0.047629
Si Si2 0.984603 0.828557 0.285416
Si Si3 0.923147 0.322594 0.659553
Si Si4 0.772097 0.822853 0.202991
Si Si5 0.724293 0.672437 0.438232
O O1 0.046023 0.500000 0.047899
O O2 0.984625 0.258900 0.193668
O O3 0.141808 0.252660 0.940249
O O4 0.000000 0.282221 0.000000
O O5 0.054224 0.757729 0.275209
O O6 0.885003 0.820920 0.442021
O O7 0.006132 0.000000 0.243840
O O8 0.929444 0.500000 0.665155
O O9 0.823186 0.288141 0.736583
O O10 0.000000 0.281698 0.500000
O O11 0.765703 0.758039 0.308667
O O12 0.782704 0.000000 0.193335
O O13 0.752528 0.500000 0.405285
O O14 0.750000 0.750000 0.500000
#
# Coordination Sequence:
#
# PCOD9211743 Si02
#       5
#     8   8   8   8   8
#     4  11  25  44  65  90 125 168 210 257 312 372
#     4  11  24  40  63  93 125 164 208 258 310 366
#     4  10  21  40  65  93 126 164 206 255 310 369
#     4  11  23  40  65  93 124 163 206 256 312 368
#     4  11  23  38  60  91 124 161 208 258 309 367
#
# _framework density 19.822596999999998
#
# number of rings (size 3 to 8) (size 9 to 14) (size 15 to 20)
#    0.000    1.200    2.000    3.600    0.000   10.000 
#    0.000    0.000    0.000    0.000    0.000    0.000 
#    0.000    0.000    0.000    0.000    0.000    0.000 
#
# Total GULP energy -111880.698019 kJ/mol
# GULP energy per Si atom -5594.034901 kJ/mol
# Density = 1.977748 g / cm^3
# Si number density = 19.822597 Si / 1000 Ang^3
#
#
#
# Elastic Constant Matrix: (Units=GPa)
#
#
# Indices 1 2 3 4 5 6 
#
# 1 70.9689 32.5711 -13.4029 0.0005 4.6861 -0.0002
# 2 32.5711 58.9953 12.2924 0.0016 1.4734 -0.0010
# 3 -13.4029 12.2924 49.7405 0.0006 0.0995 -0.0004
# 4 0.0005 0.0016 0.0006 38.1023 -0.0003 4.5729
# 5 4.6861 1.4734 0.0995 -0.0003 35.9132 0.0001
# 6 -0.0002 -0.0010 -0.0004 4.5729 0.0001 28.2572
#
#
#
# Elastic Compliance Matrix: (Units=1/GPa)
#
#
# Indices 1 2 3 4 5 6 
#
# 1 0.022754 -0.014529 0.009727 0.000000 -0.002400 0.000000
# 2 -0.014529 0.027167 -0.010630 -0.000001 0.000811 0.000001
# 3 0.009727 -0.010630 0.025354 0.000000 -0.000903 0.000000
# 4 0.000000 -0.000001 0.000000 0.026765 0.000000 -0.004331
# 5 -0.002400 0.000811 -0.000903 0.000000 0.028127 0.000000
# 6 0.000000 0.000001 0.000000 -0.004331 0.000000 0.036090
#
#
# Mechanical properties :
#
#
# Convention : Reuss Voigt Hill
#
# Bulk Modulus (GPa) = 22.51777 26.95842 24.73809
# Shear Modulus (GPa) = 23.59305 30.33749 26.96527
#
# Velocity S-wave (km/s) = 3.45368 3.91634 3.69227
# Velocity P-wave (km/s) = 5.22381 5.83778 5.53931
#
# Compressibility (1/GPa) = 0.04440938
#
# Stress axis : x y z
#
# Youngs Moduli (GPa) = 43.94772 36.80961 39.44121
#
# Poissons Ratio (x) = 0.53482 -0.38364
# Poissons Ratio (y) = 0.63853 0.41928
# Poissons Ratio (z) = -0.42747 0.39130
#
# Static dielectric constant tensor:
#      x y z
#    x 1.680530 0.000000 -0.018750 
#    y 0.000000 1.662010 0.000000 
#    z -0.018750 0.000000 1.686370 
# 
# From -- ./inp_files/220592.got.cif
#   From: 2010.05.17/outbox.cif.g08.bks.cpg/sg12_111_cif.got.tgz:220592.got - 2010.06.03 13:09:07.
