data_PCOD9211849
_publ_section_title
;
Structure prediction by ZEFSAII (Michael W. Deem and Ramdas Pophale) SiO2 
 PCOD9211849
Probable space group: C 2/M
;
_chemical_formula_sum "Si O2"
_cell_formula_units_Z 56
_cell_length_a 31.451653
_cell_length_b 8.957482
_cell_length_c 19.673364
_cell_angle_alpha 90.000000
_cell_angle_beta 149.587680
_cell_angle_gamma 90.000000
_cell_volume 2805.735145
_symmetry_space_group_name_H-M "C 2/M"
_symmetry_group_IT_number 12
_symmetry_cell_setting 'monoclinic'
loop_
_space_group_symop_operation_xyz
x,y,z
-x,y,-z
-x,-y,-z
x,-y,z
1/2+x,1/2+y,z
1/2-x,1/2+y,-z
1/2-x,1/2-y,-z
1/2+x,1/2-y,z
loop_
_atom_site_type_symbol
_atom_site_label
_atom_site_fract_x
_atom_site_fract_y
_atom_site_fract_z
Si Si1 0.979525 0.324307 0.663819
Si Si2 0.562869 0.324745 0.650407
Si Si3 0.408925 0.675575 0.070903
Si Si4 0.737043 0.678461 0.818943
Si Si5 0.303364 0.177954 0.634159
Si Si6 0.284887 0.178008 0.359781
Si Si7 0.502318 0.175084 0.083693
O O1 0.989896 0.500000 0.691720
O O2 0.881092 0.295288 0.515831
O O3 0.029480 0.275375 0.665362
O O4 0.018239 0.231596 0.778765
O O5 0.500000 0.309696 0.500000
O O6 0.561895 0.500000 0.669750
O O7 0.655610 0.285736 0.752019
O O8 0.397206 0.500000 0.059532
O O9 0.437554 0.724338 0.035209
O O10 0.322458 0.759205 0.968430
O O11 0.740953 0.500000 0.816932
O O12 0.727054 0.751462 0.730859
O O13 0.250000 0.250000 0.500000
O O14 0.274519 0.248010 0.665795
O O15 0.402578 0.203467 0.760889
O O16 0.289912 0.000000 0.617157
O O17 0.271068 0.000000 0.337735
O O18 0.482329 0.000000 0.068629
O O19 0.500000 0.199738 0.000000
#
# Coordination Sequence:
#
# PCOD9211849 Si02
#       7
#     8   8   8   8   8   8   8
#     4  11  24  41  64  92 128 169 207 254 312 369
#     4  10  21  40  66  96 125 159 207 256 306 368
#     4  12  26  42  63  92 127 165 210 259 308 368
#     4  11  23  41  66  92 125 163 202 253 310 369
#     4  11  23  38  60  89 122 161 204 255 311 367
#     4  11  23  39  62  93 125 160 207 257 306 368
#     4  10  22  42  65  88 119 161 208 255 309 369
#
# _framework density 19.959118
#
# number of rings (size 3 to 8) (size 9 to 14) (size 15 to 20)
#    0.000    1.143    1.429    4.714    0.000    9.714 
#    0.000    0.000    0.000    0.000    0.000    0.000 
#    0.000    0.000    0.000    0.000    0.000    0.000 
#
# Total GULP energy -156709.769884 kJ/mol
# GULP energy per Si atom -5596.777496 kJ/mol
# Density = 1.991369 g / cm^3
# Si number density = 19.959118 Si / 1000 Ang^3
#
#
#
# Elastic Constant Matrix: (Units=GPa)
#
#
# Indices 1 2 3 4 5 6 
#
# 1 48.9328 20.0585 -4.7258 0.0000 19.5312 0.0000
# 2 20.0585 61.9920 32.5849 0.0000 20.4357 0.0000
# 3 -4.7258 32.5849 57.3886 0.0000 8.2553 0.0000
# 4 0.0000 0.0000 0.0000 31.9964 0.0000 -2.7462
# 5 19.5312 20.4357 8.2553 0.0000 29.9215 0.0000
# 6 0.0000 0.0000 0.0000 -2.7462 0.0000 34.3338
#
#
#
# Elastic Compliance Matrix: (Units=1/GPa)
#
#
# Indices 1 2 3 4 5 6 
#
# 1 0.032868 -0.010999 0.011410 0.000000 -0.017091 0.000000
# 2 -0.010999 0.032367 -0.017845 0.000000 -0.010004 0.000000
# 3 0.011410 -0.017845 0.028964 0.000000 -0.003252 0.000000
# 4 0.000000 0.000000 0.000000 0.031470 0.000000 0.002517
# 5 -0.017091 -0.010004 -0.003252 0.000000 0.052306 0.000000
# 6 0.000000 0.000000 0.000000 0.002517 0.000000 0.029327
#
#
# Mechanical properties :
#
#
# Convention : Reuss Voigt Hill
#
# Bulk Modulus (GPa) = 16.85376 29.34985 23.10181
# Shear Modulus (GPa) = 19.08782 27.27673 23.18228
#
# Velocity S-wave (km/s) = 3.09584 3.70081 3.41176
# Velocity P-wave (km/s) = 4.60884 5.74441 5.20767
#
# Compressibility (1/GPa) = 0.05933392
#
# Stress axis : x y z
#
# Youngs Moduli (GPa) = 30.42434 30.89547 34.52505
#
# Poissons Ratio (x) = 0.33980 -0.39393
# Poissons Ratio (y) = 0.33462 0.61609
# Poissons Ratio (z) = -0.34714 0.55132
#
# Static dielectric constant tensor:
#      x y z
#    x 1.676730 0.000000 -0.005790 
#    y 0.000000 1.665040 0.000000 
#    z -0.005790 0.000000 1.703320 
# 
# From -- ./inp_files/329660.got.cif
#   From: 2010.05.17/outbox.cif.g08.bks.cpg/sg12_165_cif.got.tgz:329660.got - 2010.06.03 13:09:07.
