data_PCOD9211380
_publ_section_title
;
Structure prediction by ZEFSAII (Michael W. Deem and Ramdas Pophale) SiO2 
 PCOD9211380
Probable space group: C 2/M
;
_chemical_formula_sum "Si O2"
_cell_formula_units_Z 48
_cell_length_a 25.529103
_cell_length_b 8.072614
_cell_length_c 14.404162
_cell_angle_alpha 90.000000
_cell_angle_beta 139.125792
_cell_angle_gamma 90.000000
_cell_volume 1942.590941
_symmetry_space_group_name_H-M "C 2/M"
_symmetry_group_IT_number 12
_symmetry_cell_setting 'monoclinic'
loop_
_space_group_symop_operation_xyz
x,y,z
-x,y,-z
-x,-y,-z
x,-y,z
1/2+x,1/2+y,z
1/2-x,1/2+y,-z
1/2-x,1/2-y,-z
1/2+x,1/2-y,z
loop_
_atom_site_type_symbol
_atom_site_label
_atom_site_fract_x
_atom_site_fract_y
_atom_site_fract_z
Si Si1 0.091176 0.814479 0.709902
Si Si2 0.921915 0.688918 0.507529
Si Si3 0.652562 0.804206 0.975630
Si Si4 0.167328 0.802323 0.341754
Si Si5 0.003865 0.303053 0.899722
Si Si6 0.750180 0.799669 0.728254
O O1 0.091900 0.693241 0.623076
O O2 0.151063 0.779822 0.873655
O O3 0.001619 0.791373 0.631495
O O4 0.100253 0.000000 0.685846
O O5 0.934966 0.500000 0.555844
O O6 0.836341 0.754618 0.426157
O O7 0.576344 0.739160 0.933568
O O8 0.643639 0.000000 0.948481
O O9 0.727968 0.770236 0.142320
O O10 0.250000 0.750000 0.500000
O O11 0.083493 0.727022 0.261565
O O12 0.182386 0.748787 0.254757
O O13 0.160843 0.000000 0.336897
O O14 0.016807 0.500000 0.924321
O O15 0.000000 0.233510 0.000000
O O16 0.747764 0.000000 0.729608
#
# Coordination Sequence:
#
# PCOD9211380 Si02
#       6
#     8   8   8   8   8   8
#     4  11  23  40  62  91 122 153 197 247 297 356
#     4  10  21  41  65  88 119 158 198 243 299 355
#     4  11  23  39  63  89 119 159 201 243 296 356
#     4  11  24  40  60  89 123 160 200 245 296 350
#     4  10  21  40  62  87 119 158 200 245 293 349
#     4  10  23  41  61  88 121 155 197 248 296 350
#
# _framework density 24.709268000000002
#
# number of rings (size 3 to 8) (size 9 to 14) (size 15 to 20)
#    0.000    1.500    1.667    4.000    2.333    4.333 
#    0.000    0.000    0.000    0.000    0.000    0.000 
#    0.000    0.000    0.000    0.000    0.000    0.000 
#
# Total GULP energy -134330.178295 kJ/mol
# GULP energy per Si atom -5597.090762 kJ/mol
# Density = 2.465303 g / cm^3
# Si number density = 24.709268 Si / 1000 Ang^3
#
#
#
# Elastic Constant Matrix: (Units=GPa)
#
#
# Indices 1 2 3 4 5 6 
#
# 1 61.4139 -1.4003 0.4364 0.0000 11.8462 0.0000
# 2 -1.4003 45.4790 -13.0939 0.0000 -3.0248 0.0000
# 3 0.4364 -13.0939 100.5965 0.0000 -3.6243 0.0000
# 4 0.0000 0.0000 0.0000 28.9747 0.0000 7.6459
# 5 11.8462 -3.0248 -3.6243 0.0000 45.1532 0.0000
# 6 0.0000 0.0000 0.0000 7.6459 0.0000 15.1720
#
#
#
# Elastic Compliance Matrix: (Units=1/GPa)
#
#
# Indices 1 2 3 4 5 6 
#
# 1 0.017158 0.000167 -0.000215 0.000000 -0.004508 0.000000
# 2 0.000167 0.022988 0.003054 0.000000 0.001741 0.000000
# 3 -0.000215 0.003054 0.010379 0.000000 0.001094 0.000000
# 4 0.000000 0.000000 0.000000 0.039806 0.000000 -0.020060
# 5 -0.004508 0.001741 0.001094 0.000000 0.023534 0.000000
# 6 0.000000 0.000000 0.000000 -0.020060 0.000000 0.076020
#
#
# Mechanical properties :
#
#
# Convention : Reuss Voigt Hill
#
# Bulk Modulus (GPa) = 17.68781 19.93044 18.80912
# Shear Modulus (GPa) = 24.66463 32.62980 28.64722
#
# Velocity S-wave (km/s) = 3.16285 3.63788 3.40865
# Velocity P-wave (km/s) = 4.52902 5.07238 4.80838
#
# Compressibility (1/GPa) = 0.05653611
#
# Stress axis : x y z
#
# Youngs Moduli (GPa) = 58.28275 43.50002 96.35204
#
# Poissons Ratio (x) = -0.00724 0.02073
# Poissons Ratio (y) = -0.00971 -0.29428
# Poissons Ratio (z) = 0.01254 -0.13286
#
# Static dielectric constant tensor:
#      x y z
#    x 2.036440 0.000000 -0.005370 
#    y 0.000000 1.846690 0.000000 
#    z -0.005370 0.000000 1.955070 
# 
# From -- ./inp_files/244899.got.cif
#   From: 2010.05.17/outbox.cif.g08.bks.cpg/sg12_123_cif.got.tgz:244899.got - 2010.06.03 13:09:07.
