data_PCOD9211752
_publ_section_title
;
Structure prediction by ZEFSAII (Michael W. Deem and Ramdas Pophale) SiO2 
 PCOD9211752
Probable space group: C 2/M
;
_chemical_formula_sum "Si O2"
_cell_formula_units_Z 52
_cell_length_a 23.046694
_cell_length_b 21.915908
_cell_length_c 6.714765
_cell_angle_alpha 90.000000
_cell_angle_beta 54.498916
_cell_angle_gamma 90.000000
_cell_volume 2761.080663
_symmetry_space_group_name_H-M "C 2/M"
_symmetry_group_IT_number 12
_symmetry_cell_setting 'monoclinic'
loop_
_space_group_symop_operation_xyz
x,y,z
-x,y,-z
-x,-y,-z
x,-y,z
1/2+x,1/2+y,z
1/2-x,1/2+y,-z
1/2-x,1/2-y,-z
1/2+x,1/2-y,z
loop_
_atom_site_type_symbol
_atom_site_label
_atom_site_fract_x
_atom_site_fract_y
_atom_site_fract_z
Si Si1 0.643435 0.165040 0.347949
Si Si2 0.294391 0.932146 0.492191
Si Si3 0.351880 0.569011 0.976074
Si Si4 0.556756 0.317962 0.056468
Si Si5 0.000000 0.722697 0.500000
Si Si6 0.182081 0.222825 0.526060
Si Si7 0.244831 0.108590 0.184085
O O1 0.655179 0.118484 0.508964
O O2 0.564600 0.177930 0.428549
O O3 0.665521 0.231190 0.382156
O O4 0.697074 0.140834 0.072989
O O5 0.286667 0.928074 0.270481
O O6 0.317070 0.000000 0.508829
O O7 0.214377 0.922825 0.738810
O O8 0.380617 0.500000 0.942327
O O9 0.408190 0.623300 0.903019
O O10 0.311761 0.574563 0.843603
O O11 0.522585 0.268989 0.276566
O O12 0.500000 0.337199 0.000000
O O13 0.619424 0.284395 0.809715
O O14 0.250000 0.250000 0.500000
O O15 0.200903 0.158818 0.392115
#
# Coordination Sequence:
#
# PCOD9211752 Si02
#       7
#     8   8   8   8   4   8   8
#     4  11  23  38  61  94 126 164 207 257 314 382
#     4  10  21  40  65  94 124 156 210 267 313 363
#     4  10  22  40  63  92 124 169 214 254 304 368
#     4  12  25  42  61  90 134 168 207 258 313 372
#     4  12  26  42  62  90 132 170 204 254 320 382
#     4  12  20  39  64  94 121 160 210 264 315 366
#     4  11  20  38  65  95 124 158 211 264 317 356
#
# _framework density 18.833207000000002
#
# number of rings (size 3 to 8) (size 9 to 14) (size 15 to 20)
#    0.000    0.923    4.615    3.692    0.000    0.923 
#    0.000    0.769    0.000    0.923    0.000    0.000 
#    0.000    0.000    0.000    0.000    0.000    0.000 
#
# Total GULP energy -145151.065291 kJ/mol
# GULP energy per Si atom -5582.733280 kJ/mol
# Density = 1.879034 g / cm^3
# Si number density = 18.833207 Si / 1000 Ang^3
#
#
#
# Elastic Constant Matrix: (Units=GPa)
#
#
# Indices 1 2 3 4 5 6 
#
# 1 83.8825 20.8188 24.1501 0.0000 5.7716 0.0000
# 2 20.8188 93.0676 18.8420 0.0000 1.7377 0.0000
# 3 24.1501 18.8420 86.2459 0.0000 7.7588 0.0000
# 4 0.0000 0.0000 0.0000 12.2282 0.0000 2.6187
# 5 5.7716 1.7377 7.7588 0.0000 27.6085 0.0000
# 6 0.0000 0.0000 0.0000 2.6187 0.0000 24.8850
#
#
#
# Elastic Compliance Matrix: (Units=1/GPa)
#
#
# Indices 1 2 3 4 5 6 
#
# 1 0.013527 -0.002363 -0.003109 0.000000 -0.001805 0.000000
# 2 -0.002363 0.011655 -0.001911 0.000000 0.000298 0.000000
# 3 -0.003109 -0.001911 0.013146 0.000000 -0.002924 0.000000
# 4 0.000000 0.000000 0.000000 0.083664 0.000000 -0.008804
# 5 -0.001805 0.000298 -0.002924 0.000000 0.037401 0.000000
# 6 0.000000 0.000000 0.000000 -0.008804 0.000000 0.041111
#
#
# Mechanical properties :
#
#
# Convention : Reuss Voigt Hill
#
# Bulk Modulus (GPa) = 42.44240 43.42420 42.93330
# Shear Modulus (GPa) = 22.40898 26.23667 24.32282
#
# Velocity S-wave (km/s) = 3.45318 3.73648 3.59762
# Velocity P-wave (km/s) = 6.20356 6.45929 6.33272
#
# Compressibility (1/GPa) = 0.02356134
#
# Stress axis : x y z
#
# Youngs Moduli (GPa) = 73.92498 85.80128 76.06869
#
# Poissons Ratio (x) = 0.20273 0.23651
# Poissons Ratio (y) = 0.17467 0.14540
# Poissons Ratio (z) = 0.22985 0.16400
#
# Static dielectric constant tensor:
#      x y z
#    x 2.518710 0.000000 0.630670 
#    y 0.000000 1.635140 0.000000 
#    z 0.630670 0.000000 2.065670 
# 
# From -- ./inp_files/21807.got.cif
#   From: 2010.05.17/outbox.cif.g08.bks.cpg/sg12_11_cif.got.tgz:21807.got - 2010.06.03 13:09:07.
