data_PCOD9211225
_publ_section_title
;
Structure prediction by ZEFSAII (Michael W. Deem and Ramdas Pophale) SiO2 
 PCOD9211225
Probable space group: C 2/M
;
_chemical_formula_sum "Si O2"
_cell_formula_units_Z 64
_cell_length_a 15.233751
_cell_length_b 26.582049
_cell_length_c 11.789448
_cell_angle_alpha 90.000000
_cell_angle_beta 140.383329
_cell_angle_gamma 90.000000
_cell_volume 3044.176892
_symmetry_space_group_name_H-M "C 2/M"
_symmetry_group_IT_number 12
_symmetry_cell_setting 'monoclinic'
loop_
_space_group_symop_operation_xyz
x,y,z
-x,y,-z
-x,-y,-z
x,-y,z
1/2+x,1/2+y,z
1/2-x,1/2+y,-z
1/2-x,1/2-y,-z
1/2+x,1/2-y,z
loop_
_atom_site_type_symbol
_atom_site_label
_atom_site_fract_x
_atom_site_fract_y
_atom_site_fract_z
Si Si1 0.975822 0.850595 0.204019
Si Si2 0.761758 0.326477 0.189316
Si Si3 0.126774 0.775950 0.707327
Si Si4 0.980784 0.943098 0.611812
Si Si5 0.844005 0.557147 0.705681
Si Si6 0.143971 0.650517 0.110890
Si Si7 0.269019 0.194872 0.463335
Si Si8 0.469775 0.871938 0.239970
O O1 0.925541 0.809063 0.241993
O O2 0.949603 0.904663 0.233854
O O3 0.138323 0.840107 0.361012
O O4 0.887352 0.843916 0.001990
O O5 0.801906 0.273453 0.172908
O O6 0.770246 0.310280 0.328308
O O7 0.877969 0.365674 0.261257
O O8 0.231860 0.811880 0.743634
O O9 0.000000 0.762284 0.500000
O O10 0.818952 0.944305 0.481082
O O11 0.000000 0.925873 0.500000
O O12 0.035705 0.000000 0.671952
O O13 0.883342 0.500000 0.776699
O O14 0.853352 0.599254 0.813843
O O15 0.942513 0.578075 0.703543
O O16 0.133001 0.637166 0.967667
O O17 0.000000 0.676586 0.000000
O O18 0.250000 0.250000 0.500000
O O19 0.412803 0.171044 0.645947
#
# Coordination Sequence:
#
# PCOD9211225 Si02
#       8
#     8   8   8   8   8   8   8   8
#     4  12  23  42  67  97 135 177 221 279 347 410
#     4  12  27  43  62  94 136 177 234 283 336 417
#     4  12  24  41  64  95 137 185 221 271 336 413
#     4  10  21  39  70 107 139 175 223 284 352 420
#     4  10  21  41  69 104 141 181 228 283 347 418
#     4  10  23  36  63  99 136 178 220 279 333 412
#     4  12  27  43  68  93 128 181 231 286 351 420
#     4  11  23  44  62  94 136 182 222 285 338 415
#
# _framework density 21.023745000000002
#
# number of rings (size 3 to 8) (size 9 to 14) (size 15 to 20)
#    0.000    0.875    2.500    5.250    7.000    2.250 
#    0.000    0.625    0.000    4.500    0.000    0.000 
#    0.000    0.000    0.000    0.000    0.000    0.000 
#
# Total GULP energy -178792.921091 kJ/mol
# GULP energy per Si atom -5587.278784 kJ/mol
# Density = 2.097589 g / cm^3
# Si number density = 21.023745 Si / 1000 Ang^3
#
#
#
# Elastic Constant Matrix: (Units=GPa)
#
#
# Indices 1 2 3 4 5 6 
#
# 1 86.8877 25.7752 14.7792 0.0000 -5.3516 0.0000
# 2 25.7752 92.6777 42.8507 0.0000 -5.3118 0.0000
# 3 14.7792 42.8507 90.5872 0.0000 -11.0571 0.0000
# 4 0.0000 0.0000 0.0000 18.3149 0.0000 -1.4784
# 5 -5.3516 -5.3118 -11.0571 0.0000 30.4992 0.0000
# 6 0.0000 0.0000 0.0000 -1.4784 0.0000 25.4956
#
#
#
# Elastic Compliance Matrix: (Units=1/GPa)
#
#
# Indices 1 2 3 4 5 6 
#
# 1 0.012630 -0.003275 -0.000325 0.000000 0.001528 0.000000
# 2 -0.003275 0.014660 -0.006444 0.000000 -0.000358 0.000000
# 3 -0.000325 -0.006444 0.014644 0.000000 0.004130 0.000000
# 4 0.000000 0.000000 0.000000 0.054857 0.000000 0.003181
# 5 0.001528 -0.000358 0.004130 0.000000 0.034491 0.000000
# 6 0.000000 0.000000 0.000000 0.003181 0.000000 0.039407
#
#
# Mechanical properties :
#
#
# Convention : Reuss Voigt Hill
#
# Bulk Modulus (GPa) = 45.77336 48.55140 47.16238
# Shear Modulus (GPa) = 25.24507 27.31178 26.27842
#
# Velocity S-wave (km/s) = 3.46900 3.60820 3.53928
# Velocity P-wave (km/s) = 6.15343 6.36416 6.25969
#
# Compressibility (1/GPa) = 0.02184677
#
# Stress axis : x y z
#
# Youngs Moduli (GPa) = 79.17685 68.21379 68.28554
#
# Poissons Ratio (x) = 0.22338 0.02219
# Poissons Ratio (y) = 0.25929 0.44003
# Poissons Ratio (z) = 0.02573 0.43957
#
# Static dielectric constant tensor:
#      x y z
#    x 1.862910 0.000000 -0.005860 
#    y 0.000000 1.756670 0.000000 
#    z -0.005860 0.000000 1.783590 
# 
# From -- ./inp_files/149806.got.cif
#   From: 2010.05.17/outbox.cif.g08.bks.cpg/sg12_75_cif.got.tgz:149806.got - 2010.06.03 13:09:07.
