data_PCOD9211252
_publ_section_title
;
Structure prediction by ZEFSAII (Michael W. Deem and Ramdas Pophale) SiO2 
 PCOD9211252
Probable space group: C 2/M
;
_chemical_formula_sum "Si O2"
_cell_formula_units_Z 48
_cell_length_a 9.259697
_cell_length_b 25.739825
_cell_length_c 8.713252
_cell_angle_alpha 90.000000
_cell_angle_beta 89.464314
_cell_angle_gamma 90.000000
_cell_volume 2076.651684
_symmetry_space_group_name_H-M "C 2/M"
_symmetry_group_IT_number 12
_symmetry_cell_setting 'monoclinic'
loop_
_space_group_symop_operation_xyz
x,y,z
-x,y,-z
-x,-y,-z
x,-y,z
1/2+x,1/2+y,z
1/2-x,1/2+y,-z
1/2-x,1/2-y,-z
1/2+x,1/2-y,z
loop_
_atom_site_type_symbol
_atom_site_label
_atom_site_fract_x
_atom_site_fract_y
_atom_site_fract_z
Si Si1 0.629670 0.280755 0.101454
Si Si2 0.934254 0.057641 0.167897
Si Si3 0.208048 0.630533 0.709852
Si Si4 0.158223 0.581556 0.010536
Si Si5 0.630788 0.356497 0.587682
Si Si6 0.099842 0.325021 0.229892
O O1 0.705709 0.321258 0.213541
O O2 0.555885 0.233322 0.192828
O O3 0.500000 0.304551 0.000000
O O4 0.750000 0.250000 0.000000
O O5 0.764390 0.055549 0.127809
O O6 0.941313 0.102160 0.295506
O O7 0.984756 0.000000 0.213275
O O8 0.000000 0.070852 0.000000
O O9 0.275605 0.616519 0.547029
O O10 0.039417 0.646512 0.697411
O O11 0.218437 0.586077 0.838459
O O12 0.138458 0.640275 0.079210
O O13 0.000000 0.558837 0.000000
O O14 0.500000 0.328360 0.500000
O O15 0.751563 0.323880 0.675813
#
# Coordination Sequence:
#
# PCOD9211252 Si02
#       6
#     8   8   8   8   8   8
#     4  12  22  37  62  93 126 171 217 260 297 351
#     4  10  22  42  66  91 121 153 193 252 318 383
#     4  11  22  38  61  89 129 166 204 256 313 354
#     4   9  18  36  63  89 120 160 208 248 299 366
#     4  11  25  39  61  91 121 159 206 252 310 376
#     4  10  21  40  58  87 125 172 208 254 305 354
#
# _framework density 23.114132999999999
#
# number of rings (size 3 to 8) (size 9 to 14) (size 15 to 20)
#    0.000    1.500    3.333    2.000    2.333    2.000 
#    0.000    0.833    0.000   13.000    0.000    0.000 
#    0.000    0.000    0.000    0.000    0.000    0.000 
#
# Total GULP energy -134071.823485 kJ/mol
# GULP energy per Si atom -5586.325979 kJ/mol
# Density = 2.306152 g / cm^3
# Si number density = 23.114133 Si / 1000 Ang^3
#
#
#
# Elastic Constant Matrix: (Units=GPa)
#
#
# Indices 1 2 3 4 5 6 
#
# 1 102.7632 1.8601 25.4632 0.0000 24.7835 0.0000
# 2 1.8601 73.3282 12.9614 0.0000 4.1896 0.0000
# 3 25.4632 12.9614 90.8501 0.0000 -11.2977 0.0000
# 4 0.0000 0.0000 0.0000 1.9177 0.0000 -5.8508
# 5 24.7835 4.1896 -11.2977 0.0000 58.5054 0.0000
# 6 0.0000 0.0000 0.0000 -5.8508 0.0000 8.4869
#
#
#
# Elastic Compliance Matrix: (Units=1/GPa)
#
#
# Indices 1 2 3 4 5 6 
#
# 1 0.012248 0.000797 -0.004302 0.000000 -0.006076 0.000000
# 2 0.000797 0.014158 -0.002471 0.000000 -0.001829 0.000000
# 3 -0.004302 -0.002471 0.013129 0.000000 0.004535 0.000000
# 4 0.000000 0.000000 0.000000 -0.472649 0.000000 -0.325838
# 5 -0.006076 -0.001829 0.004535 0.000000 0.020673 0.000000
# 6 0.000000 0.000000 0.000000 -0.325838 0.000000 -0.106800
#
#
# Mechanical properties :
#
#
# Convention : Reuss Voigt Hill
#
# Bulk Modulus (GPa) = 36.25307 38.61233 37.43270
# Shear Modulus (GPa) = -10.03827 28.89247 9.42710
#
# Velocity S-wave (km/s) = -2.08623 3.53936 2.02172
# Velocity P-wave (km/s) = 3.14886 5.78309 4.65615
#
# Compressibility (1/GPa) = 0.02758387
#
# Stress axis : x y z
#
# Youngs Moduli (GPa) = 81.64513 70.63000 76.16518
#
# Poissons Ratio (x) = -0.05629 0.32768
# Poissons Ratio (y) = -0.06507 0.18818
# Poissons Ratio (z) = 0.35125 0.17451
#
# Static dielectric constant tensor:
#      x y z
#    x 1.948150 0.000000 -0.018400 
#    y 0.000000 1.892080 0.000000 
#    z -0.018400 0.000000 1.890150 
# 
# From -- ./inp_files/42159.got.cif
#   From: 2010.05.17/outbox.cif.g08.bks.cpg/sg12_22_cif.got.tgz:42159.got - 2010.06.03 13:09:07.
