data_PCOD9211468
_publ_section_title
;
Structure prediction by ZEFSAII (Michael W. Deem and Ramdas Pophale) SiO2 
 PCOD9211468
Probable space group: C 2/M
;
_chemical_formula_sum "Si O2"
_cell_formula_units_Z 48
_cell_length_a 29.453610
_cell_length_b 10.325970
_cell_length_c 16.617679
_cell_angle_alpha 90.000000
_cell_angle_beta 153.216460
_cell_angle_gamma 90.000000
_cell_volume 2277.462731
_symmetry_space_group_name_H-M "C 2/M"
_symmetry_group_IT_number 12
_symmetry_cell_setting 'monoclinic'
loop_
_space_group_symop_operation_xyz
x,y,z
-x,y,-z
-x,-y,-z
x,-y,z
1/2+x,1/2+y,z
1/2-x,1/2+y,-z
1/2-x,1/2-y,-z
1/2+x,1/2-y,z
loop_
_atom_site_type_symbol
_atom_site_label
_atom_site_fract_x
_atom_site_fract_y
_atom_site_fract_z
Si Si1 0.628076 0.753238 0.972980
Si Si2 0.332869 0.347127 0.595205
Si Si3 0.142383 0.351066 0.655904
Si Si4 0.830087 0.361495 0.124839
Si Si5 0.002408 0.355898 0.099514
Si Si6 0.931036 0.143478 0.585194
O O1 0.624987 0.852283 0.892683
O O2 0.597507 0.825041 0.007034
O O3 0.537839 0.658276 0.800904
O O4 0.737944 0.687969 0.154547
O O5 0.323751 0.500000 0.603599
O O6 0.250000 0.250000 0.500000
O O7 0.431949 0.271842 0.780880
O O8 0.344681 0.344088 0.517099
O O9 0.130725 0.500000 0.610879
O O10 0.108101 0.344154 0.695294
O O11 0.086294 0.252472 0.508602
O O12 0.778799 0.500000 0.053190
O O13 0.750000 0.250000 0.000000
O O14 0.040165 0.500000 0.186955
O O15 0.000000 0.364771 0.000000
O O16 0.925488 0.000000 0.540502
#
# Coordination Sequence:
#
# PCOD9211468 Si02
#       6
#     8   8   8   8   8   8
#     4  10  21  40  63  87 121 164 201 250 301 356
#     4  10  22  40  60  84 117 156 196 247 300 357
#     4  10  22  39  62  91 122 157 204 250 300 359
#     4   9  19  36  59  88 120 159 202 247 297 356
#     4  10  22  38  59  89 119 154 199 246 298 359
#     4  10  23  41  61  88 122 158 201 246 301 362
#
# _framework density 21.076086
#
# number of rings (size 3 to 8) (size 9 to 14) (size 15 to 20)
#    0.000    2.167    0.000    1.500    2.333    9.667 
#    0.000    2.500    0.000    0.000    0.000    0.000 
#    0.000    0.000    0.000    0.000    0.000    0.000 
#
# Total GULP energy -133607.857216 kJ/mol
# GULP energy per Si atom -5566.994051 kJ/mol
# Density = 2.102812 g / cm^3
# Si number density = 21.076086 Si / 1000 Ang^3
#
#
#
# Elastic Constant Matrix: (Units=GPa)
#
#
# Indices 1 2 3 4 5 6 
#
# 1 108.3253 44.3913 10.6854 0.0000 -8.5331 0.0000
# 2 44.3913 183.8394 34.5256 0.0000 -16.0132 0.0000
# 3 10.6854 34.5256 57.9053 0.0000 -5.1998 0.0000
# 4 0.0000 0.0000 0.0000 26.3677 0.0000 -4.9347
# 5 -8.5331 -16.0132 -5.1998 0.0000 25.7736 0.0000
# 6 0.0000 0.0000 0.0000 -4.9347 0.0000 27.0014
#
#
#
# Elastic Compliance Matrix: (Units=1/GPa)
#
#
# Indices 1 2 3 4 5 6 
#
# 1 0.010348 -0.002256 -0.000390 0.000000 0.001946 0.000000
# 2 -0.002256 0.006875 -0.003428 0.000000 0.002833 0.000000
# 3 -0.000390 -0.003428 0.019537 0.000000 0.001682 0.000000
# 4 0.000000 0.000000 0.000000 0.039268 0.000000 0.007177
# 5 0.001946 0.002833 0.001682 0.000000 0.041543 0.000000
# 6 0.000000 0.000000 0.000000 0.007177 0.000000 0.038347
#
#
# Mechanical properties :
#
#
# Convention : Reuss Voigt Hill
#
# Bulk Modulus (GPa) = 40.63195 58.80828 49.72012
# Shear Modulus (GPa) = 28.36572 33.19306 30.77939
#
# Velocity S-wave (km/s) = 3.67259 3.97283 3.82566
# Velocity P-wave (km/s) = 6.10774 7.00056 6.56934
#
# Compressibility (1/GPa) = 0.02461118
#
# Stress axis : x y z
#
# Youngs Moduli (GPa) = 96.64038 145.45682 51.18561
#
# Poissons Ratio (x) = 0.32815 0.01994
# Poissons Ratio (y) = 0.21802 0.17549
# Poissons Ratio (z) = 0.03766 0.49869
#
# Static dielectric constant tensor:
#      x y z
#    x 1.841320 0.000000 0.050270 
#    y 0.000000 1.760570 0.000000 
#    z 0.050270 0.000000 1.807010 
# 
# From -- ./inp_files/295884.got.cif
#   From: 2010.05.17/outbox.cif.g08.bks.cpg/sg12_148_cif.got.tgz:295884.got - 2010.06.03 13:09:07.
