data_PCOD9211486
_publ_section_title
;
Structure prediction by ZEFSAII (Michael W. Deem and Ramdas Pophale) SiO2 
 PCOD9211486
Probable space group: C 2/M
;
_chemical_formula_sum "Si O2"
_cell_formula_units_Z 64
_cell_length_a 25.862207
_cell_length_b 8.584398
_cell_length_c 15.283156
_cell_angle_alpha 90.000000
_cell_angle_beta 62.624000
_cell_angle_gamma 90.000000
_cell_volume 3013.043415
_symmetry_space_group_name_H-M "C 2/M"
_symmetry_group_IT_number 12
_symmetry_cell_setting 'monoclinic'
loop_
_space_group_symop_operation_xyz
x,y,z
-x,y,-z
-x,-y,-z
x,-y,z
1/2+x,1/2+y,z
1/2-x,1/2+y,-z
1/2-x,1/2-y,-z
1/2+x,1/2-y,z
loop_
_atom_site_type_symbol
_atom_site_label
_atom_site_fract_x
_atom_site_fract_y
_atom_site_fract_z
Si Si1 0.385340 0.686700 0.064280
Si Si2 0.262436 0.813310 0.587297
Si Si3 0.236870 0.688333 0.912839
Si Si4 0.391012 0.814182 0.551074
Si Si5 0.144706 0.684560 0.732838
Si Si6 0.555115 0.310567 0.154254
Si Si7 0.060689 0.186499 0.656190
Si Si8 0.138105 0.187226 0.244972
O O1 0.388104 0.500000 0.069802
O O2 0.322019 0.736661 0.077367
O O3 0.391378 0.759332 0.155142
O O4 0.431513 0.739874 0.954857
O O5 0.250000 0.750000 0.500000
O O6 0.326013 0.763979 0.570762
O O7 0.210018 0.750549 0.687468
O O8 0.260819 0.000000 0.587051
O O9 0.231701 0.500000 0.917342
O O10 0.293987 0.731418 0.811610
O O11 0.250000 0.750000 0.000000
O O12 0.435379 0.744311 0.446185
O O13 0.395591 0.757637 0.646705
O O14 0.394404 0.000000 0.544655
O O15 0.147087 0.500000 0.727276
O O16 0.115410 0.749488 0.667888
O O17 0.553649 0.500000 0.153231
O O18 0.496085 0.258246 0.246637
O O19 0.607875 0.265670 0.177501
O O20 0.061797 0.000000 0.655998
O O21 0.134922 0.000000 0.253320
#
# Coordination Sequence:
#
# PCOD9211486 Si02
#       8
#     8   8   8   8   8   8   8   8
#     4  11  22  41  65  91 125 161 205 255 305 364
#     4  11  22  38  63  91 124 162 201 245 302 364
#     4  11  21  36  62  94 128 163 201 247 306 365
#     4  11  24  40  60  92 127 157 195 251 308 362
#     4  12  25  41  61  92 129 160 201 251 307 371
#     4   9  21  42  65  89 117 158 211 258 299 358
#     4  11  23  42  67  88 114 160 212 256 305 361
#     4  10  21  40  63  89 122 162 204 247 294 359
#
# _framework density 21.240981000000001
#
# number of rings (size 3 to 8) (size 9 to 14) (size 15 to 20)
#    0.000    1.250    2.500    3.750    0.000    5.500 
#    0.000    8.750    0.000    0.000    0.000    0.000 
#    0.000    0.000    0.000    0.000    0.000    0.000 
#
# Total GULP energy -178998.592786 kJ/mol
# GULP energy per Si atom -5593.706025 kJ/mol
# Density = 2.119264 g / cm^3
# Si number density = 21.240981 Si / 1000 Ang^3
#
#
#
# Elastic Constant Matrix: (Units=GPa)
#
#
# Indices 1 2 3 4 5 6 
#
# 1 9.7444 -3.9931 0.4056 0.0000 -12.8032 0.0000
# 2 -3.9931 40.4215 19.0895 0.0000 -5.8618 0.0000
# 3 0.4056 19.0895 155.1331 0.0000 -7.6806 0.0000
# 4 0.0000 0.0000 0.0000 29.9947 0.0000 5.9586
# 5 -12.8032 -5.8618 -7.6806 0.0000 38.3632 0.0000
# 6 0.0000 0.0000 0.0000 5.9586 0.0000 18.4748
#
#
#
# Elastic Compliance Matrix: (Units=1/GPa)
#
#
# Indices 1 2 3 4 5 6 
#
# 1 0.218626 0.033275 -0.000810 0.000000 0.077885 0.000000
# 2 0.033275 0.031777 -0.003239 0.000000 0.015312 0.000000
# 3 -0.000810 -0.003239 0.006877 0.000000 0.000612 0.000000
# 4 0.000000 0.000000 0.000000 0.035622 0.000000 -0.011489
# 5 0.077885 0.015312 0.000612 0.000000 0.054522 0.000000
# 6 0.000000 0.000000 0.000000 -0.011489 0.000000 0.057833
#
#
# Mechanical properties :
#
#
# Convention : Reuss Voigt Hill
#
# Bulk Modulus (GPa) = 3.16726 26.25587 14.71157
# Shear Modulus (GPa) = 11.06076 30.01968 20.54022
#
# Velocity S-wave (km/s) = 2.28442 3.76345 3.11305
# Velocity P-wave (km/s) = 2.90731 5.59219 4.45674
#
# Compressibility (1/GPa) = 0.31573037
#
# Stress axis : x y z
#
# Youngs Moduli (GPa) = 4.57402 31.46973 145.41117
#
# Poissons Ratio (x) = -1.04714 0.11779
# Poissons Ratio (y) = -0.15220 0.47100
# Poissons Ratio (z) = 0.00371 0.10193
#
# Static dielectric constant tensor:
#      x y z
#    x 1.769330 0.000000 -0.017210 
#    y 0.000000 1.714700 0.000000 
#    z -0.017210 0.000000 1.782810 
# 
# From -- ./inp_files/249114.got.cif
#   From: 2010.05.17/outbox.cif.g08.bks.cpg/sg12_125_cif.got.tgz:249114.got - 2010.06.03 13:09:07.
