data_PCOD9211426
_publ_section_title
;
Structure prediction by ZEFSAII (Michael W. Deem and Ramdas Pophale) SiO2 
 PCOD9211426
Probable space group: C 2/M
;
_chemical_formula_sum "Si O2"
_cell_formula_units_Z 56
_cell_length_a 10.090005
_cell_length_b 16.797395
_cell_length_c 16.754818
_cell_angle_alpha 90.000000
_cell_angle_beta 130.601901
_cell_angle_gamma 90.000000
_cell_volume 2156.044244
_symmetry_space_group_name_H-M "C 2/M"
_symmetry_group_IT_number 12
_symmetry_cell_setting 'monoclinic'
loop_
_space_group_symop_operation_xyz
x,y,z
-x,y,-z
-x,-y,-z
x,-y,z
1/2+x,1/2+y,z
1/2-x,1/2+y,-z
1/2-x,1/2-y,-z
1/2+x,1/2-y,z
loop_
_atom_site_type_symbol
_atom_site_label
_atom_site_fract_x
_atom_site_fract_y
_atom_site_fract_z
Si Si1 0.426522 0.586444 0.803965
Si Si2 0.223632 0.755069 0.893549
Si Si3 0.522043 0.585991 0.656446
Si Si4 0.268622 0.407317 0.952453
Si Si5 0.619012 0.254819 0.348231
Si Si6 0.419227 0.834398 0.392473
Si Si7 0.629135 0.907519 0.143708
O O1 0.374323 0.500000 0.811854
O O2 0.507626 0.578534 0.747124
O O3 0.588212 0.608891 0.922957
O O4 0.245125 0.628245 0.715451
O O5 0.290112 0.665135 0.898196
O O6 0.325477 0.828538 0.891414
O O7 0.025203 0.757957 0.780507
O O8 0.250000 0.750000 0.000000
O O9 0.465707 0.500000 0.600132
O O10 0.415906 0.667459 0.608142
O O11 0.730403 0.596622 0.728907
O O12 0.291450 0.500000 0.939506
O O13 0.069373 0.401408 0.905161
O O14 0.561862 0.184105 0.382623
O O15 0.814565 0.260173 0.392764
O O16 0.500000 0.879631 0.500000
O O17 0.645709 0.000000 0.117327
#
# Coordination Sequence:
#
# PCOD9211426 Si02
#       7
#     8   8   8   8   8   8   8
#     4   9  19  38  61  91 124 162 219 277 325 394
#     4  11  23  37  58  98 140 177 226 279 340 407
#     4   8  15  31  56  87 120 162 215 268 314 378
#     4  10  21  40  62  93 138 185 228 278 339 411
#     4  10  23  40  65  97 134 168 219 281 342 409
#     4  11  23  44  69  94 124 169 223 287 351 406
#     4   9  19  36  61  89 127 181 241 281 315 397
#
# _framework density 25.973490999999999
#
# number of rings (size 3 to 8) (size 9 to 14) (size 15 to 20)
#    0.000    2.286    0.000    3.000    4.000    4.286 
#   10.286    7.857    0.000    3.857    0.000    0.000 
#    0.000    0.000    0.000    0.000    0.000    0.000 
#
# Total GULP energy -156130.061709 kJ/mol
# GULP energy per Si atom -5576.073632 kJ/mol
# Density = 2.591437 g / cm^3
# Si number density = 25.973491 Si / 1000 Ang^3
#
#
#
# Elastic Constant Matrix: (Units=GPa)
#
#
# Indices 1 2 3 4 5 6 
#
# 1 115.8489 19.3364 47.0636 0.0000 19.3694 0.0000
# 2 19.3364 157.2671 26.5851 0.0000 1.9871 0.0000
# 3 47.0636 26.5851 125.7378 0.0000 13.5875 0.0000
# 4 0.0000 0.0000 0.0000 -4.2997 0.0000 -0.7472
# 5 19.3694 1.9871 13.5875 0.0000 32.7805 0.0000
# 6 0.0000 0.0000 0.0000 -0.7472 0.0000 -5.3415
#
#
#
# Elastic Compliance Matrix: (Units=1/GPa)
#
#
# Indices 1 2 3 4 5 6 
#
# 1 0.010979 -0.000709 -0.003416 0.000000 -0.005028 0.000000
# 2 -0.000709 0.006641 -0.001194 0.000000 0.000511 0.000000
# 3 -0.003416 -0.001194 0.009692 0.000000 -0.001927 0.000000
# 4 0.000000 0.000000 0.000000 -0.238371 0.000000 0.033343
# 5 -0.005028 0.000511 -0.001927 0.000000 0.034245 0.000000
# 6 0.000000 0.000000 0.000000 0.033343 0.000000 -0.191877
#
#
# Mechanical properties :
#
#
# Convention : Reuss Voigt Hill
#
# Bulk Modulus (GPa) = 59.97299 64.98045 62.47672
# Shear Modulus (GPa) = -14.18460 25.01910 5.41725
#
# Velocity S-wave (km/s) = -2.33945 3.10700 1.44576
# Velocity P-wave (km/s) = 3.98030 6.15984 5.18587
#
# Compressibility (1/GPa) = 0.01667417
#
# Stress axis : x y z
#
# Youngs Moduli (GPa) = 91.08516 150.57612 103.17406
#
# Poissons Ratio (x) = 0.10674 0.35245
# Poissons Ratio (y) = 0.06457 0.12320
# Poissons Ratio (z) = 0.31116 0.17980
#
# Static dielectric constant tensor:
#      x y z
#    x 2.163070 0.000000 -0.007650 
#    y 0.000000 2.265980 0.000000 
#    z -0.007650 0.000000 2.120030 
# 
# From -- ./inp_files/264295.got.cif
#   From: 2010.05.17/outbox.cif.g08.bks.cpg/sg12_133_cif.got.tgz:264295.got - 2010.06.03 13:09:07.
