data_PCOD9211977
_publ_section_title
;
Structure prediction by ZEFSAII (Michael W. Deem and Ramdas Pophale) SiO2 
 PCOD9211977
Probable space group: C 2/M
;
_chemical_formula_sum "Si O2"
_cell_formula_units_Z 34
_cell_length_a 27.391978
_cell_length_b 10.516038
_cell_length_c 6.047582
_cell_angle_alpha 90.000000
_cell_angle_beta 120.980205
_cell_angle_gamma 90.000000
_cell_volume 1493.526806
_symmetry_space_group_name_H-M "C 2/M"
_symmetry_group_IT_number 12
_symmetry_cell_setting 'monoclinic'
loop_
_space_group_symop_operation_xyz
x,y,z
-x,y,-z
-x,-y,-z
x,-y,z
1/2+x,1/2+y,z
1/2-x,1/2+y,-z
1/2-x,1/2-y,-z
1/2+x,1/2-y,z
loop_
_atom_site_type_symbol
_atom_site_label
_atom_site_fract_x
_atom_site_fract_y
_atom_site_fract_z
Si Si1 0.039782 0.226196 0.900653
Si Si2 0.000000 0.000000 0.500000
Si Si3 0.240514 0.642444 0.159277
Si Si4 0.861431 0.855369 0.556467
Si Si5 0.382489 0.142260 0.233578
O O1 0.062163 0.328238 0.779010
O O2 0.007841 0.111707 0.706444
O O3 0.096814 0.168262 0.144284
O O4 0.000000 0.279702 0.000000
O O5 0.248032 0.500000 0.079256
O O6 0.293559 0.654604 0.450510
O O7 0.250000 0.750000 0.000000
O O8 0.173733 0.648677 0.056462
O O9 0.875178 0.751221 0.400931
O O10 0.871665 0.000000 0.495427
O O11 0.383621 0.000000 0.332106
#
# Coordination Sequence:
#
# PCOD9211977 Si02
#       5
#     8   2   8   8   8
#     4  12  26  41  66  96 130 173 226 282 330 388
#     4  12  26  48  66  94 128 164 228 300 334 370
#     4   8  16  35  62  95 135 167 213 262 325 390
#     4  10  21  40  69 102 128 173 226 275 327 388
#     4  10  23  42  66  98 140 180 208 266 336 401
#
# _framework density 22.764907000000001
#
# number of rings (size 3 to 8) (size 9 to 14) (size 15 to 20)
#    0.000    1.882    1.176    1.765    4.941    2.353 
#    0.000    4.118    0.000    0.000    0.000    0.000 
#    0.000    0.000    0.000    0.000    0.000    0.000 
#
# Total GULP energy -94636.066332 kJ/mol
# GULP energy per Si atom -5566.827431 kJ/mol
# Density = 2.271309 g / cm^3
# Si number density = 22.764907 Si / 1000 Ang^3
#
#
#
# Elastic Constant Matrix: (Units=GPa)
#
#
# Indices 1 2 3 4 5 6 
#
# 1 80.8806 30.0089 0.6343 0.0000 5.2354 0.0000
# 2 30.0089 141.4730 11.7002 0.0000 -5.7029 0.0000
# 3 0.6343 11.7002 55.3253 0.0000 11.7634 0.0000
# 4 0.0000 0.0000 0.0000 10.9069 0.0000 -1.6393
# 5 5.2354 -5.7029 11.7634 0.0000 24.7964 0.0000
# 6 0.0000 0.0000 0.0000 -1.6393 0.0000 16.1091
#
#
#
# Elastic Compliance Matrix: (Units=1/GPa)
#
#
# Indices 1 2 3 4 5 6 
#
# 1 0.013832 -0.003229 0.001449 0.000000 -0.004351 0.000000
# 2 -0.003229 0.008107 -0.002468 0.000000 0.003717 0.000000
# 3 0.001449 -0.002468 0.020871 0.000000 -0.010775 0.000000
# 4 0.000000 0.000000 0.000000 0.093109 0.000000 0.009475
# 5 -0.004351 0.003717 -0.010775 0.000000 0.047214 0.000000
# 6 0.000000 0.000000 0.000000 0.009475 0.000000 0.063041
#
#
# Mechanical properties :
#
#
# Convention : Reuss Voigt Hill
#
# Bulk Modulus (GPa) = 29.14148 40.26288 34.70218
# Shear Modulus (GPa) = 18.78932 26.05151 22.42041
#
# Velocity S-wave (km/s) = 2.87603 3.38653 3.14166
# Velocity P-wave (km/s) = 4.88442 5.74597 5.33262
#
# Compressibility (1/GPa) = 0.03431534
#
# Stress axis : x y z
#
# Youngs Moduli (GPa) = 72.29435 123.34354 47.91292
#
# Poissons Ratio (x) = 0.39832 -0.06945
# Poissons Ratio (y) = 0.23346 0.11824
# Poissons Ratio (z) = -0.10479 0.30440
#
# Static dielectric constant tensor:
#      x y z
#    x 1.915450 0.000000 0.068620 
#    y 0.000000 1.813480 0.000000 
#    z 0.068620 0.000000 1.868410 
# 
# From -- ./inp_files/30710.got.cif
#   From: 2010.05.17/outbox.cif.g08.bks.cpg/sg12_16_cif.got.tgz:30710.got - 2010.06.03 13:09:07.
