data_PCOD9211880
_publ_section_title
;
Structure prediction by ZEFSAII (Michael W. Deem and Ramdas Pophale) SiO2 
 PCOD9211880
Probable space group: C 2/M
;
_chemical_formula_sum "Si O2"
_cell_formula_units_Z 56
_cell_length_a 9.010557
_cell_length_b 18.690782
_cell_length_c 18.227762
_cell_angle_alpha 90.000000
_cell_angle_beta 61.393029
_cell_angle_gamma 90.000000
_cell_volume 2695.068087
_symmetry_space_group_name_H-M "C 2/M"
_symmetry_group_IT_number 12
_symmetry_cell_setting 'monoclinic'
loop_
_space_group_symop_operation_xyz
x,y,z
-x,y,-z
-x,-y,-z
x,-y,z
1/2+x,1/2+y,z
1/2-x,1/2+y,-z
1/2-x,1/2-y,-z
1/2+x,1/2-y,z
loop_
_atom_site_type_symbol
_atom_site_label
_atom_site_fract_x
_atom_site_fract_y
_atom_site_fract_z
Si Si1 0.698361 0.585554 0.936375
Si Si2 0.163105 0.804749 0.171700
Si Si3 0.087620 0.293313 0.672214
Si Si4 0.041615 0.915462 0.706124
Si Si5 0.475195 0.688950 0.590845
Si Si6 0.660217 0.915980 0.258527
Si Si7 0.047655 0.292411 0.072883
O O1 0.725823 0.500000 0.944219
O O2 0.739060 0.599709 0.840808
O O3 0.833168 0.637610 0.944999
O O4 0.500000 0.600314 0.000000
O O5 0.039671 0.755140 0.249617
O O6 0.095465 0.883803 0.204177
O O7 0.133548 0.772320 0.097528
O O8 0.357833 0.802114 0.149411
O O9 0.076872 0.258337 0.594331
O O10 0.009691 0.371511 0.696201
O O11 0.279186 0.293344 0.651089
O O12 0.024026 0.876102 0.632843
O O13 0.220045 0.897157 0.701710
O O14 0.025962 0.000000 0.703412
O O15 0.500000 0.672904 0.500000
O O16 0.627499 0.000000 0.267027
O O17 0.000000 0.277601 0.000000
#
# Coordination Sequence:
#
# PCOD9211880 Si02
#       7
#     8   8   8   8   8   8   8
#     4  10  24  45  66  94 134 179 223 271 329 381
#     4  11  23  42  61  94 131 171 221 272 320 382
#     4  11  21  41  66  95 130 170 215 260 317 388
#     4  10  23  42  67  95 127 168 214 264 324 388
#     4  11  24  42  69  99 132 168 203 260 326 393
#     4  10  21  40  67  92 126 176 224 268 313 379
#     4  12  26  40  63  93 131 177 220 278 328 378
#
# _framework density 20.778696
#
# number of rings (size 3 to 8) (size 9 to 14) (size 15 to 20)
#    0.000    1.286    1.429    5.143    2.000    2.286 
#    0.000    0.000    0.000    2.571    0.000    0.000 
#    0.000    0.000    0.000    0.000    0.000    0.000 
#
# Total GULP energy -156486.644705 kJ/mol
# GULP energy per Si atom -5588.808739 kJ/mol
# Density = 2.073140 g / cm^3
# Si number density = 20.778696 Si / 1000 Ang^3
#
#
#
# Elastic Constant Matrix: (Units=GPa)
#
#
# Indices 1 2 3 4 5 6 
#
# 1 101.5489 21.7594 44.3035 0.0000 8.7362 0.0000
# 2 21.7594 41.1133 43.0380 0.0000 11.3676 0.0000
# 3 44.3035 43.0380 98.4304 0.0000 22.8546 0.0000
# 4 0.0000 0.0000 0.0000 24.9035 0.0000 4.2897
# 5 8.7362 11.3676 22.8546 0.0000 38.3684 0.0000
# 6 0.0000 0.0000 0.0000 4.2897 0.0000 37.0602
#
#
#
# Elastic Compliance Matrix: (Units=1/GPa)
#
#
# Indices 1 2 3 4 5 6 
#
# 1 0.012305 -0.001357 -0.005092 0.000000 0.000634 0.000000
# 2 -0.001357 0.045118 -0.018666 0.000000 -0.001940 0.000000
# 3 -0.005092 -0.018666 0.022119 0.000000 -0.006486 0.000000
# 4 0.000000 0.000000 0.000000 0.040972 0.000000 -0.004743
# 5 0.000634 -0.001940 -0.006486 0.000000 0.030357 0.000000
# 6 0.000000 0.000000 0.000000 -0.004743 0.000000 0.027532
#
#
# Mechanical properties :
#
#
# Convention : Reuss Voigt Hill
#
# Bulk Modulus (GPa) = 34.11711 51.03270 42.57491
# Shear Modulus (GPa) = 20.97276 28.86585 24.91931
#
# Velocity S-wave (km/s) = 3.18046 3.73125 3.46681
# Velocity P-wave (km/s) = 5.47193 6.57087 6.04642
#
# Compressibility (1/GPa) = 0.02931080
#
# Stress axis : x y z
#
# Youngs Moduli (GPa) = 81.26470 22.16433 45.20977
#
# Poissons Ratio (x) = 0.03008 0.23023
# Poissons Ratio (y) = 0.11028 0.84389
# Poissons Ratio (z) = 0.41383 0.41372
#
# Static dielectric constant tensor:
#      x y z
#    x 1.731810 0.000000 0.005800 
#    y 0.000000 1.749640 0.000000 
#    z 0.005800 0.000000 1.818290 
# 
# From -- ./inp_files/257055.got.cif
#   From: 2010.05.17/outbox.cif.g08.bks.cpg/sg12_129_cif.got.tgz:257055.got - 2010.06.03 13:09:07.
