data_PCOD9211684
_publ_section_title
;
Structure prediction by ZEFSAII (Michael W. Deem and Ramdas Pophale) SiO2 
 PCOD9211684
Probable space group: C 2/M
;
_chemical_formula_sum "Si O2"
_cell_formula_units_Z 48
_cell_length_a 25.590573
_cell_length_b 9.101178
_cell_length_c 14.544142
_cell_angle_alpha 90.000000
_cell_angle_beta 41.019298
_cell_angle_gamma 90.000000
_cell_volume 2223.191411
_symmetry_space_group_name_H-M "C 2/M"
_symmetry_group_IT_number 12
_symmetry_cell_setting 'monoclinic'
loop_
_space_group_symop_operation_xyz
x,y,z
-x,y,-z
-x,-y,-z
x,-y,z
1/2+x,1/2+y,z
1/2-x,1/2+y,-z
1/2-x,1/2-y,-z
1/2+x,1/2-y,z
loop_
_atom_site_type_symbol
_atom_site_label
_atom_site_fract_x
_atom_site_fract_y
_atom_site_fract_z
Si Si1 0.252961 0.175602 0.596862
Si Si2 0.100435 0.174393 0.492966
Si Si3 0.499886 0.172637 0.770144
Si Si4 0.681275 0.669359 0.206160
Si Si5 0.925013 0.828997 0.166079
Si Si6 0.341484 0.331165 0.982135
O O1 0.250000 0.250000 0.500000
O O2 0.320360 0.256405 0.566202
O O3 0.163375 0.193141 0.756481
O O4 0.269229 0.000000 0.569068
O O5 0.110313 0.199242 0.371087
O O6 0.026633 0.250412 0.640459
O O7 0.096988 0.000000 0.514697
O O8 0.562600 0.224621 0.763372
O O9 0.414720 0.232476 0.915564
O O10 0.498969 0.000000 0.760789
O O11 0.706570 0.500000 0.188452
O O12 0.660017 0.680817 0.127370
O O13 0.755733 0.774263 0.126917
O O14 0.928344 0.000000 0.192470
O O15 0.000000 0.805467 0.000000
O O16 0.354515 0.500000 0.991212
#
# Coordination Sequence:
#
# PCOD9211684 Si02
#       6
#     8   8   8   8   8   8
#     4  11  22  38  61  88 121 158 197 243 294 351
#     4  11  23  40  62  88 122 159 201 247 298 354
#     4  12  25  40  60  89 123 157 202 249 297 354
#     4   9  21  41  64  92 120 155 200 244 295 358
#     4  10  23  42  62  87 119 157 201 244 295 354
#     4  10  21  40  65  89 122 159 195 244 301 355
#
# _framework density 21.590585000000001
#
# number of rings (size 3 to 8) (size 9 to 14) (size 15 to 20)
#    0.000    1.500    1.667    3.000    2.333    3.667 
#    0.000    3.333    0.000    0.000    0.000    0.000 
#    0.000    0.000    0.000    0.000    0.000    0.000 
#
# Total GULP energy -134230.149166 kJ/mol
# GULP energy per Si atom -5592.922882 kJ/mol
# Density = 2.154144 g / cm^3
# Si number density = 21.590585 Si / 1000 Ang^3
#
#
#
# Elastic Constant Matrix: (Units=GPa)
#
#
# Indices 1 2 3 4 5 6 
#
# 1 19.6270 18.6301 -1.1972 0.0000 -7.1088 0.0000
# 2 18.6301 114.6155 40.7659 0.0008 -4.9782 -0.0005
# 3 -1.1972 40.7659 83.5792 0.0003 -8.7335 -0.0002
# 4 0.0000 0.0008 0.0003 32.2766 -0.0001 -5.9215
# 5 -7.1088 -4.9782 -8.7335 -0.0001 35.0351 0.0001
# 6 0.0000 -0.0005 -0.0002 -5.9215 0.0001 23.1984
#
#
#
# Elastic Compliance Matrix: (Units=1/GPa)
#
#
# Indices 1 2 3 4 5 6 
#
# 1 0.070224 -0.014133 0.009424 0.000000 0.014590 0.000000
# 2 -0.014133 0.013402 -0.007023 0.000000 -0.002714 0.000000
# 3 0.009424 -0.007023 0.016038 0.000000 0.004912 0.000000
# 4 0.000000 0.000000 0.000000 0.032504 0.000000 0.008297
# 5 0.014590 -0.002714 0.004912 0.000000 0.032342 0.000000
# 6 0.000000 0.000000 0.000000 0.008297 0.000000 0.045224
#
#
# Mechanical properties :
#
#
# Convention : Reuss Voigt Hill
#
# Bulk Modulus (GPa) = 13.12318 37.13548 25.12933
# Shear Modulus (GPa) = 19.33493 28.74356 24.03924
#
# Velocity S-wave (km/s) = 2.99578 3.65266 3.34040
# Velocity P-wave (km/s) = 4.24943 5.91831 5.15190
#
# Compressibility (1/GPa) = 0.07620106
#
# Stress axis : x y z
#
# Youngs Moduli (GPa) = 14.24007 74.61584 62.35037
#
# Poissons Ratio (x) = 1.05452 -0.58757
# Poissons Ratio (y) = 0.20125 0.43788
# Poissons Ratio (z) = -0.13419 0.52402
#
# Static dielectric constant tensor:
#      x y z
#    x 1.793710 0.000000 0.020620 
#    y 0.000000 1.718370 0.000000 
#    z 0.020620 0.000000 1.808160 
# 
# From -- ./inp_files/244682.got.cif
#   From: 2010.05.17/outbox.cif.g08.bks.cpg/sg12_123_cif.got.tgz:244682.got - 2010.06.03 13:09:07.
