data_PCOD9211626
_publ_section_title
;
Structure prediction by ZEFSAII (Michael W. Deem and Ramdas Pophale) SiO2 
 PCOD9211626
Probable space group: C 2/M
;
_chemical_formula_sum "Si O2"
_cell_formula_units_Z 48
_cell_length_a 18.546826
_cell_length_b 17.138627
_cell_length_c 7.891588
_cell_angle_alpha 90.000000
_cell_angle_beta 55.030671
_cell_angle_gamma 90.000000
_cell_volume 2055.593524
_symmetry_space_group_name_H-M "C 2/M"
_symmetry_group_IT_number 12
_symmetry_cell_setting 'monoclinic'
loop_
_space_group_symop_operation_xyz
x,y,z
-x,y,-z
-x,-y,-z
x,-y,z
1/2+x,1/2+y,z
1/2-x,1/2+y,-z
1/2-x,1/2-y,-z
1/2+x,1/2-y,z
loop_
_atom_site_type_symbol
_atom_site_label
_atom_site_fract_x
_atom_site_fract_y
_atom_site_fract_z
Si Si1 0.860510 0.246405 0.111531
Si Si2 0.706964 0.910419 0.914966
Si Si3 0.033942 0.763814 0.678733
Si Si4 0.770977 0.085842 0.324377
Si Si5 0.597825 0.114493 0.405199
Si Si6 0.121047 0.084186 0.468903
O O1 0.815154 0.330859 0.157123
O O2 0.912643 0.244792 0.217966
O O3 0.802153 0.167125 0.193630
O O4 0.932717 0.245424 0.865365
O O5 0.812814 0.908804 0.777735
O O6 0.685256 0.000000 0.883116
O O7 0.655371 0.899735 0.160128
O O8 0.075651 0.701553 0.496002
O O9 0.052805 0.848358 0.583114
O O10 0.664740 0.085344 0.460556
O O11 0.813869 0.088071 0.453491
O O12 0.798546 0.000000 0.215118
O O13 0.500000 0.081839 0.500000
O O14 0.078467 0.000000 0.528903
#
# Coordination Sequence:
#
# PCOD9211626 Si02
#       6
#     8   8   8   8   8   8
#     4  10  21  41  65  92 124 159 204 251 304 361
#     4  11  23  40  60  86 121 162 207 252 303 358
#     4  10  21  40  64  92 125 159 201 253 303 363
#     4  10  22  40  65  94 124 160 202 249 303 365
#     4  12  24  41  59  87 121 166 204 250 303 359
#     4   9  20  40  66  93 120 157 203 253 307 360
#
# _framework density 23.350919000000001
#
# number of rings (size 3 to 8) (size 9 to 14) (size 15 to 20)
#    0.000    1.667    1.667    2.500    0.000    7.333 
#    0.000    5.833    0.000    0.500    0.000    0.000 
#    0.000    0.000    0.000    0.000    0.000    0.000 
#
# Total GULP energy -133883.356484 kJ/mol
# GULP energy per Si atom -5578.473187 kJ/mol
# Density = 2.329777 g / cm^3
# Si number density = 23.350919 Si / 1000 Ang^3
#
#
#
# Elastic Constant Matrix: (Units=GPa)
#
#
# Indices 1 2 3 4 5 6 
#
# 1 86.5385 24.1847 -12.5976 0.0000 10.1568 0.0000
# 2 24.1847 252.6540 68.6606 0.0000 -15.3904 0.0000
# 3 -12.5976 68.6606 69.7929 0.0000 9.7239 0.0000
# 4 0.0000 0.0000 0.0000 8.9927 0.0000 15.8214
# 5 10.1568 -15.3904 9.7239 0.0000 21.1811 0.0000
# 6 0.0000 0.0000 0.0000 15.8214 0.0000 -2.2669
#
#
#
# Elastic Compliance Matrix: (Units=1/GPa)
#
#
# Indices 1 2 3 4 5 6 
#
# 1 0.016722 -0.005611 0.010922 0.000000 -0.017110 0.000000
# 2 -0.005611 0.008389 -0.011207 0.000000 0.013931 0.000000
# 3 0.010922 -0.011207 0.031184 0.000000 -0.027696 0.000000
# 4 0.000000 0.000000 0.000000 0.008374 0.000000 0.058446
# 5 -0.017110 0.013931 -0.027696 0.000000 0.078254 0.000000
# 6 0.000000 0.000000 0.000000 0.058446 0.000000 -0.033220
#
#
# Mechanical properties :
#
#
# Convention : Reuss Voigt Hill
#
# Bulk Modulus (GPa) = 22.47054 63.27564 42.87309
# Shear Modulus (GPa) = 36.67599 27.49722 32.08661
#
# Velocity S-wave (km/s) = 3.96744 3.43529 3.71091
# Velocity P-wave (km/s) = 5.53455 6.54916 6.06312
#
# Compressibility (1/GPa) = 0.04450272
#
# Stress axis : x y z
#
# Youngs Moduli (GPa) = 59.80238 119.19964 32.06824
#
# Poissons Ratio (x) = 0.66883 -0.35025
# Poissons Ratio (y) = 0.33555 0.35939
# Poissons Ratio (z) = -0.65317 1.33587
#
# Static dielectric constant tensor:
#      x y z
#    x 1.931790 0.000000 0.050260 
#    y 0.000000 1.887160 0.000000 
#    z 0.050260 0.000000 1.867040 
# 
# From -- ./inp_files/87744.got.cif
#   From: 2010.05.17/outbox.cif.g08.bks.cpg/sg12_44_cif.got.tgz:87744.got - 2010.06.03 13:09:07.
