data_PCOD9211660
_publ_section_title
;
Structure prediction by ZEFSAII (Michael W. Deem and Ramdas Pophale) SiO2 
 PCOD9211660
Probable space group: C 2/M
;
_chemical_formula_sum "Si O2"
_cell_formula_units_Z 44
_cell_length_a 5.468040
_cell_length_b 25.087209
_cell_length_c 17.073445
_cell_angle_alpha 90.000000
_cell_angle_beta 64.020315
_cell_angle_gamma 90.000000
_cell_volume 2105.428257
_symmetry_space_group_name_H-M "C 2/M"
_symmetry_group_IT_number 12
_symmetry_cell_setting 'monoclinic'
loop_
_space_group_symop_operation_xyz
x,y,z
-x,y,-z
-x,-y,-z
x,-y,z
1/2+x,1/2+y,z
1/2-x,1/2+y,-z
1/2-x,1/2-y,-z
1/2+x,1/2-y,z
loop_
_atom_site_type_symbol
_atom_site_label
_atom_site_fract_x
_atom_site_fract_y
_atom_site_fract_z
Si Si1 0.000000 0.911024 0.500000
Si Si2 0.639864 0.166238 0.762650
Si Si3 0.094753 0.777561 0.625293
Si Si4 0.477907 0.440555 0.682024
Si Si5 0.700859 0.811370 0.036047
Si Si6 0.933677 0.632528 0.630237
O O1 0.987726 0.940851 0.417823
O O2 0.276215 0.878758 0.446445
O O3 0.773372 0.106580 0.739707
O O4 0.447900 0.181344 0.860593
O O5 0.477327 0.167096 0.702790
O O6 0.888480 0.208776 0.726236
O O7 0.366135 0.741889 0.596502
O O8 0.236363 0.835000 0.600252
O O9 0.403160 0.500000 0.717700
O O10 0.773676 0.421643 0.671411
O O11 0.500000 0.835947 0.000000
O O12 0.750000 0.750000 0.000000
O O13 0.000000 0.835779 0.000000
#
# Coordination Sequence:
#
# PCOD9211660 Si02
#       6
#     4   8   8   8   8   8
#     4  10  21  40  64  96 138 166 224 286 335 388
#     4  10  23  40  64  94 137 171 222 273 334 398
#     4  11  22  36  62  87 124 175 218 260 317 392
#     4  10  22  40  67  96 131 175 222 279 341 399
#     4  10  24  38  62 100 133 168 210 268 325 388
#     4  10  22  39  62  95 132 176 221 280 328 399
#
# _framework density 20.898361000000001
#
# number of rings (size 3 to 8) (size 9 to 14) (size 15 to 20)
#    0.000    1.818    1.818    0.818   10.182    4.364 
#    0.000    0.909    0.000    1.091    0.000    0.000 
#    0.000    0.000    0.000    0.000    0.000    0.000 
#
# Total GULP energy -122506.479410 kJ/mol
# GULP energy per Si atom -5568.476337 kJ/mol
# Density = 2.085079 g / cm^3
# Si number density = 20.898361 Si / 1000 Ang^3
#
#
#
# Elastic Constant Matrix: (Units=GPa)
#
#
# Indices 1 2 3 4 5 6 
#
# 1 151.8037 32.2412 59.0156 0.0000 -21.1369 0.0000
# 2 32.2412 109.1080 40.9405 0.0000 -7.4673 0.0000
# 3 59.0156 40.9405 163.6277 0.0000 -17.9093 0.0000
# 4 0.0000 0.0000 0.0000 20.5900 0.0000 5.8033
# 5 -21.1369 -7.4673 -17.9093 0.0000 32.2927 0.0000
# 6 0.0000 0.0000 0.0000 5.8033 0.0000 -98.0962
#
#
#
# Elastic Compliance Matrix: (Units=1/GPa)
#
#
# Indices 1 2 3 4 5 6 
#
# 1 0.008278 -0.001346 -0.002225 0.000000 0.003873 0.000000
# 2 -0.001346 0.010364 -0.002067 0.000000 0.000369 0.000000
# 3 -0.002225 -0.002067 0.007686 0.000000 0.002328 0.000000
# 4 0.000000 0.000000 0.000000 0.047771 0.000000 0.002826
# 5 0.003873 0.000369 0.002328 0.000000 0.034878 0.000000
# 6 0.000000 0.000000 0.000000 0.002826 0.000000 -0.010027
#
#
# Mechanical properties :
#
#
# Convention : Reuss Voigt Hill
#
# Bulk Modulus (GPa) = 66.44012 76.54822 71.49417
# Shear Modulus (GPa) = 43.38665 10.44677 26.91671
#
# Velocity S-wave (km/s) = 4.56134 2.23824 3.59274
# Velocity P-wave (km/s) = 7.72025 6.58695 7.17601
#
# Compressibility (1/GPa) = 0.01505115
#
# Stress axis : x y z
#
# Youngs Moduli (GPa) = 120.80922 96.48834 130.10830
#
# Poissons Ratio (x) = 0.12989 0.28946
# Poissons Ratio (y) = 0.16263 0.26896
# Poissons Ratio (z) = 0.26877 0.19946
#
# Static dielectric constant tensor:
#      x y z
#    x 1.857600 0.000000 0.045290 
#    y 0.000000 1.824010 0.000000 
#    z 0.045290 0.000000 1.743300 
# 
# From -- ./inp_files/253554.got.cif
#   From: 2010.05.17/outbox.cif.g08.bks.cpg/sg12_127_cif.got.tgz:253554.got - 2010.06.03 13:09:07.
