data_PCOD9211104
_publ_section_title
;
Structure prediction by ZEFSAII (Michael W. Deem and Ramdas Pophale) SiO2 
 PCOD9211104
Probable space group: C 2/M
;
_chemical_formula_sum "Si O2"
_cell_formula_units_Z 64
_cell_length_a 17.313082
_cell_length_b 14.541599
_cell_length_c 16.740100
_cell_angle_alpha 90.000000
_cell_angle_beta 139.542686
_cell_angle_gamma 90.000000
_cell_volume 2734.701287
_symmetry_space_group_name_H-M "C 2/M"
_symmetry_group_IT_number 12
_symmetry_cell_setting 'monoclinic'
loop_
_space_group_symop_operation_xyz
x,y,z
-x,y,-z
-x,-y,-z
x,-y,z
1/2+x,1/2+y,z
1/2-x,1/2+y,-z
1/2-x,1/2-y,-z
1/2+x,1/2-y,z
loop_
_atom_site_type_symbol
_atom_site_label
_atom_site_fract_x
_atom_site_fract_y
_atom_site_fract_z
Si Si1 0.576205 0.102741 0.290540
Si Si2 0.395428 0.891749 0.280104
Si Si3 0.346846 0.391580 0.009869
Si Si4 0.214176 0.299890 0.660246
Si Si5 0.291615 0.351458 0.553087
Si Si6 0.571399 0.609329 0.753231
Si Si7 0.636874 0.395622 0.630631
Si Si8 0.464875 0.237899 0.890485
O O1 0.504094 0.140398 0.310638
O O2 0.711297 0.093338 0.427656
O O3 0.552686 0.169679 0.197942
O O4 0.530411 0.000000 0.236034
O O5 0.378580 0.842431 0.351061
O O6 0.411069 0.000000 0.307783
O O7 0.278588 0.880204 0.132742
O O8 0.382470 0.500000 0.027905
O O9 0.348333 0.372292 0.106204
O O10 0.440642 0.317945 0.051617
O O11 0.244959 0.362016 0.607501
O O12 0.180044 0.193548 0.615759
O O13 0.339841 0.288820 0.803297
O O14 0.250000 0.250000 0.500000
O O15 0.433957 0.360575 0.658478
O O16 0.560765 0.500000 0.735716
O O17 0.634973 0.638377 0.721456
O O18 0.500000 0.406494 0.500000
O O19 0.691153 0.500000 0.666459
O O20 0.500000 0.187834 0.000000
#
# Coordination Sequence:
#
# PCOD9211104 Si02
#       8
#     8   8   8   8   8   8   8   8
#     4  11  27  48  68  95 143 189 223 273 340 418
#     4  10  25  45  68  98 134 181 223 273 345 406
#     4  10  21  41  69  98 132 170 226 288 336 390
#     4  12  25  39  69 101 138 171 219 287 336 400
#     4  12  23  41  65  99 133 175 224 271 338 405
#     4  10  21  39  66  94 124 169 227 279 329 393
#     4  10  24  42  63  95 131 173 222 273 333 392
#     4  12  25  44  66 105 133 179 231 278 345 397
#
# _framework density 23.402920999999999
#
# number of rings (size 3 to 8) (size 9 to 14) (size 15 to 20)
#    0.000    1.125    3.750    1.125    5.250    4.000 
#    0.000    2.500    0.000    0.000    0.000    0.000 
#    0.000    0.000    0.000    0.000    0.000    0.000 
#
# Total GULP energy -178825.865928 kJ/mol
# GULP energy per Si atom -5588.308310 kJ/mol
# Density = 2.334966 g / cm^3
# Si number density = 23.402921 Si / 1000 Ang^3
#
#
#
# Elastic Constant Matrix: (Units=GPa)
#
#
# Indices 1 2 3 4 5 6 
#
# 1 108.4114 32.7554 23.4331 0.0000 -25.3963 0.0000
# 2 32.7554 81.9606 19.8161 0.0000 -6.3776 0.0000
# 3 23.4331 19.8161 80.2804 0.0000 -15.3025 0.0000
# 4 0.0000 0.0000 0.0000 6.3775 0.0000 17.2770
# 5 -25.3963 -6.3776 -15.3025 0.0000 34.5724 0.0000
# 6 0.0000 0.0000 0.0000 17.2770 0.0000 -6.4283
#
#
#
# Elastic Compliance Matrix: (Units=1/GPa)
#
#
# Indices 1 2 3 4 5 6 
#
# 1 0.012589 -0.004136 -0.001132 0.000000 0.007983 0.000000
# 2 -0.004136 0.014370 -0.002636 0.000000 -0.001554 0.000000
# 3 -0.001132 -0.002636 0.014401 0.000000 0.005057 0.000000
# 4 0.000000 0.000000 0.000000 0.018935 0.000000 0.050891
# 5 0.007983 -0.001554 0.005057 0.000000 0.036741 0.000000
# 6 0.000000 0.000000 0.000000 0.050891 0.000000 -0.018785
#
#
# Mechanical properties :
#
#
# Convention : Reuss Voigt Hill
#
# Bulk Modulus (GPa) = 39.13558 46.96241 43.04900
# Shear Modulus (GPa) = 48.74425 19.88084 34.31255
#
# Velocity S-wave (km/s) = 4.56875 2.91778 3.83321
# Velocity P-wave (km/s) = 6.67759 5.60908 6.16652
#
# Compressibility (1/GPa) = 0.02555219
#
# Stress axis : x y z
#
# Youngs Moduli (GPa) = 79.43655 69.58752 69.43843
#
# Poissons Ratio (x) = 0.28783 0.07859
# Poissons Ratio (y) = 0.32856 0.18304
# Poissons Ratio (z) = 0.08991 0.18344
#
# Static dielectric constant tensor:
#      x y z
#    x 1.952200 0.000000 -0.034440 
#    y 0.000000 1.916020 0.000000 
#    z -0.034440 0.000000 1.873940 
# 
# From -- ./inp_files/278166.got.cif
#   From: 2010.05.17/outbox.cif.g08.bks.cpg/sg12_140_cif.got.tgz:278166.got - 2010.06.03 13:09:07.
