data_PCOD9211734
_publ_section_title
;
Structure prediction by ZEFSAII (Michael W. Deem and Ramdas Pophale) SiO2 
 PCOD9211734
Probable space group: C 2/M
;
_chemical_formula_sum "Si O2"
_cell_formula_units_Z 52
_cell_length_a 13.891662
_cell_length_b 19.141837
_cell_length_c 16.311157
_cell_angle_alpha 90.000000
_cell_angle_beta 36.669228
_cell_angle_gamma 90.000000
_cell_volume 2590.230136
_symmetry_space_group_name_H-M "C 2/M"
_symmetry_group_IT_number 12
_symmetry_cell_setting 'monoclinic'
loop_
_space_group_symop_operation_xyz
x,y,z
-x,y,-z
-x,-y,-z
x,-y,z
1/2+x,1/2+y,z
1/2-x,1/2+y,-z
1/2-x,1/2-y,-z
1/2+x,1/2-y,z
loop_
_atom_site_type_symbol
_atom_site_label
_atom_site_fract_x
_atom_site_fract_y
_atom_site_fract_z
Si Si1 0.175323 0.787545 0.863688
Si Si2 0.243212 0.852371 0.108302
Si Si3 0.378198 0.347037 0.411701
Si Si4 0.725017 0.000000 0.827529
Si Si5 0.596280 0.856745 0.169339
Si Si6 0.891571 0.000000 0.442091
Si Si7 0.920520 0.500000 0.245780
Si Si8 0.285838 0.238107 0.348150
O O1 0.164189 0.714463 0.920762
O O2 0.315382 0.834963 0.807669
O O3 0.218401 0.765765 0.741311
O O4 0.000000 0.821500 0.000000
O O5 0.293008 0.927384 0.110876
O O6 0.062423 0.837936 0.260773
O O7 0.269293 0.853833 0.993626
O O8 0.349535 0.429004 0.424370
O O9 0.274325 0.302907 0.418552
O O10 0.341476 0.318076 0.528234
O O11 0.599430 0.000000 0.838655
O O12 0.916818 0.000000 0.671218
O O13 0.457036 0.800644 0.244153
O O14 0.510208 0.931779 0.219448
O O15 0.766961 0.000000 0.601221
#
# Coordination Sequence:
#
# PCOD9211734 Si02
#       8
#     8   8   8   4   8   4   4   8
#     4  12  24  40  67  96 129 177 221 268 325 388
#     4  11  22  40  62  95 135 165 211 262 329 396
#     4  10  22  41  63  94 133 171 207 270 330 384
#     4  10  24  38  63 103 130 172 210 265 347 395
#     4  12  24  43  67  97 130 174 218 274 327 384
#     4  10  21  40  65  92 136 172 206 264 344 399
#     4  12  24  42  65  95 136 168 220 277 325 389
#     4  11  22  41  65  96 131 167 224 272 319 387
#
# _framework density 20.075436
#
# number of rings (size 3 to 8) (size 9 to 14) (size 15 to 20)
#    0.000    0.923    4.615    3.000    0.000    1.231 
#    0.000    1.154    0.000    0.923    0.000    0.000 
#    0.000    0.000    0.000    0.000    0.000    0.000 
#
# Total GULP energy -145168.100354 kJ/mol
# GULP energy per Si atom -5583.388475 kJ/mol
# Density = 2.002974 g / cm^3
# Si number density = 20.075436 Si / 1000 Ang^3
#
#
#
# Elastic Constant Matrix: (Units=GPa)
#
#
# Indices 1 2 3 4 5 6 
#
# 1 86.8129 56.6424 34.3824 -0.0016 17.5415 0.0005
# 2 56.6424 134.6027 12.3368 0.0017 11.7147 0.0012
# 3 34.3824 12.3368 119.8558 0.0018 -0.0098 0.0002
# 4 -0.0016 0.0017 0.0018 18.5115 -0.0018 -7.3363
# 5 17.5415 11.7147 -0.0098 -0.0018 29.9824 -0.0007
# 6 0.0005 0.0012 0.0002 -7.3363 -0.0007 -0.6013
#
#
#
# Elastic Compliance Matrix: (Units=1/GPa)
#
#
# Indices 1 2 3 4 5 6 
#
# 1 0.019971 -0.007174 -0.004991 0.000001 -0.008883 -0.000002
# 2 -0.007174 0.010343 0.000993 0.000001 0.000156 0.000006
# 3 -0.004991 0.000993 0.009673 0.000000 0.002535 0.000002
# 4 0.000001 0.000001 0.000000 0.009257 -0.000003 -0.112951
# 5 -0.008883 0.000156 0.002535 -0.000003 0.038490 -0.000015
# 6 -0.000002 0.000006 0.000002 -0.112951 -0.000015 -0.285006
#
#
# Mechanical properties :
#
#
# Convention : Reuss Voigt Hill
#
# Bulk Modulus (GPa) = 56.67535 60.88831 58.78183
# Shear Modulus (GPa) = -29.57778 25.43917 -2.06930
#
# Velocity S-wave (km/s) = -3.84256 3.56361 -1.01637
# Velocity P-wave (km/s) = 2.93350 6.87953 5.28836
#
# Compressibility (1/GPa) = 0.01764436
#
# Stress axis : x y z
#
# Youngs Moduli (GPa) = 50.07167 96.68004 103.37845
#
# Poissons Ratio (x) = 0.69354 0.51601
# Poissons Ratio (y) = 0.35919 -0.10268
# Poissons Ratio (z) = 0.24993 -0.09602
#
# Static dielectric constant tensor:
#      x y z
#    x 1.717940 0.000000 -0.036560 
#    y 0.000000 1.712780 0.000000 
#    z -0.036560 0.000000 1.781580 
# 
# From -- ./inp_files/216737.got.cif
#   From: 2010.05.17/outbox.cif.g08.bks.cpg/sg12_109_cif.got.tgz:216737.got - 2010.06.03 13:09:07.
