data_PCOD9211254
_publ_section_title
;
Structure prediction by ZEFSAII (Michael W. Deem and Ramdas Pophale) SiO2 
 PCOD9211254
Probable space group: C 2/M
;
_chemical_formula_sum "Si O2"
_cell_formula_units_Z 48
_cell_length_a 11.725805
_cell_length_b 25.314402
_cell_length_c 8.967544
_cell_angle_alpha 90.000000
_cell_angle_beta 117.476699
_cell_angle_gamma 90.000000
_cell_volume 2361.590953
_symmetry_space_group_name_H-M "C 2/M"
_symmetry_group_IT_number 12
_symmetry_cell_setting 'monoclinic'
loop_
_space_group_symop_operation_xyz
x,y,z
-x,y,-z
-x,-y,-z
x,-y,z
1/2+x,1/2+y,z
1/2-x,1/2+y,-z
1/2-x,1/2-y,-z
1/2+x,1/2-y,z
loop_
_atom_site_type_symbol
_atom_site_label
_atom_site_fract_x
_atom_site_fract_y
_atom_site_fract_z
Si Si1 0.706895 0.653614 0.447347
Si Si2 0.776171 0.368125 0.941284
Si Si3 0.403150 0.197494 0.761972
Si Si4 0.346769 0.439052 0.378926
Si Si5 0.973312 0.812046 0.142364
Si Si6 0.406091 0.129253 0.319662
O O1 0.765463 0.696715 0.595106
O O2 0.719998 0.597158 0.535788
O O3 0.558446 0.662239 0.322809
O O4 0.789435 0.653093 0.345991
O O5 0.874335 0.339429 0.887230
O O6 0.697196 0.411932 0.801811
O O7 0.676360 0.320927 0.920863
O O8 0.840434 0.392837 0.128522
O O9 0.464282 0.253979 0.830421
O O10 0.498734 0.171422 0.699293
O O11 0.500000 0.437026 0.500000
O O12 0.307128 0.500000 0.360677
O O13 0.000000 0.839275 0.000000
O O14 0.500000 0.101302 0.500000
#
# Coordination Sequence:
#
# PCOD9211254 Si02
#       6
#     8   8   8   8   8   8
#     4  10  21  40  58  88 124 159 195 257 298 361
#     4  11  22  39  64  87 125 161 207 254 297 359
#     4  10  24  37  58  86 126 173 207 238 291 357
#     4  10  21  41  66  93 120 152 198 256 319 369
#     4  12  22  34  58  90 126 164 206 241 302 356
#     4  10  21  40  60  84 125 165 202 247 299 346
#
# _framework density 20.325281
#
# number of rings (size 3 to 8) (size 9 to 14) (size 15 to 20)
#    0.000    1.500    3.333    2.000    2.333    1.333 
#    9.000    0.833    0.000   34.000    0.000    0.000 
#    0.000    0.000    0.000    0.000    0.000    0.000 
#
# Total GULP energy -133671.237700 kJ/mol
# GULP energy per Si atom -5569.634904 kJ/mol
# Density = 2.027902 g / cm^3
# Si number density = 20.325281 Si / 1000 Ang^3
#
#
#
# Elastic Constant Matrix: (Units=GPa)
#
#
# Indices 1 2 3 4 5 6 
#
# 1 60.5087 9.6181 25.2197 0.0000 -1.0110 0.0000
# 2 9.6181 90.9607 43.5502 0.0000 3.3832 0.0000
# 3 25.2197 43.5502 172.0087 0.0000 6.8895 0.0000
# 4 0.0000 0.0000 0.0000 5.6586 0.0000 3.5556
# 5 -1.0110 3.3832 6.8895 0.0000 37.2068 0.0000
# 6 0.0000 0.0000 0.0000 3.5556 0.0000 14.3090
#
#
#
# Elastic Compliance Matrix: (Units=1/GPa)
#
#
# Indices 1 2 3 4 5 6 
#
# 1 0.017680 -0.000736 -0.002446 0.000000 0.001000 0.000000
# 2 -0.000736 0.012552 -0.003046 0.000000 -0.000597 0.000000
# 3 -0.002446 -0.003046 0.006987 0.000000 -0.001083 0.000000
# 4 0.000000 0.000000 0.000000 0.209422 0.000000 -0.052039
# 5 0.001000 -0.000597 -0.001083 0.000000 0.027159 0.000000
# 6 0.000000 0.000000 0.000000 -0.052039 0.000000 0.082817
#
#
# Mechanical properties :
#
#
# Convention : Reuss Voigt Hill
#
# Bulk Modulus (GPa) = 40.38251 53.36157 46.87204
# Shear Modulus (GPa) = 13.25109 27.77421 20.51265
#
# Velocity S-wave (km/s) = 2.55610 3.70061 3.18027
# Velocity P-wave (km/s) = 5.35003 6.67609 6.04950
#
# Compressibility (1/GPa) = 0.02476320
#
# Stress axis : x y z
#
# Youngs Moduli (GPa) = 56.56221 79.66701 143.12392
#
# Poissons Ratio (x) = 0.05860 0.35008
# Poissons Ratio (y) = 0.04160 0.43600
# Poissons Ratio (z) = 0.13835 0.24269
#
# Static dielectric constant tensor:
#      x y z
#    x 1.720120 0.000000 0.038550 
#    y 0.000000 1.688780 0.000000 
#    z 0.038550 0.000000 1.841260 
# 
# From -- ./inp_files/52776.got.cif
#   From: 2010.05.17/outbox.cif.g08.bks.cpg/sg12_27_cif.got.tgz:52776.got - 2010.06.03 13:09:07.
