data_PCOD9211577
_publ_section_title
;
Structure prediction by ZEFSAII (Michael W. Deem and Ramdas Pophale) SiO2 
 PCOD9211577
Probable space group: C 2/M
;
_chemical_formula_sum "Si O2"
_cell_formula_units_Z 44
_cell_length_a 20.941843
_cell_length_b 10.474253
_cell_length_c 11.472114
_cell_angle_alpha 90.000000
_cell_angle_beta 112.153561
_cell_angle_gamma 90.000000
_cell_volume 2330.639929
_symmetry_space_group_name_H-M "C 2/M"
_symmetry_group_IT_number 12
_symmetry_cell_setting 'monoclinic'
loop_
_space_group_symop_operation_xyz
x,y,z
-x,y,-z
-x,-y,-z
x,-y,z
1/2+x,1/2+y,z
1/2-x,1/2+y,-z
1/2-x,1/2-y,-z
1/2+x,1/2-y,z
loop_
_atom_site_type_symbol
_atom_site_label
_atom_site_fract_x
_atom_site_fract_y
_atom_site_fract_z
Si Si1 0.379430 0.500000 0.662509
Si Si2 0.785889 0.145180 0.760843
Si Si3 0.352433 0.753885 0.282878
Si Si4 0.048677 0.500000 0.647623
Si Si5 0.473914 0.500000 0.114192
Si Si6 0.454340 0.000000 0.086577
Si Si7 0.917782 0.000000 0.426580
Si Si8 0.371444 0.262448 0.040138
O O1 0.338296 0.619905 0.690257
O O2 0.458106 0.500000 0.760366
O O3 0.381350 0.500000 0.526754
O O4 0.716581 0.222896 0.690364
O O5 0.764123 0.000000 0.779800
O O6 0.827879 0.202866 0.896962
O O7 0.403530 0.874269 0.327074
O O8 0.392746 0.626741 0.344507
O O9 0.329866 0.744568 0.132143
O O10 0.016120 0.500000 0.757933
O O11 0.000000 0.500000 0.500000
O O12 0.427825 0.374189 0.097553
O O13 0.500000 0.500000 0.000000
O O14 0.408926 0.127761 0.049387
O O15 0.500000 0.000000 0.000000
O O16 0.000000 0.000000 0.500000
#
# Coordination Sequence:
#
# PCOD9211577 Si02
#       8
#     4   8   8   4   4   4   4   8
#     4  10  23  39  65  93 125 161 217 256 307 379
#     4  10  21  40  64  90 118 168 206 244 312 385
#     4  11  23  41  64  91 127 159 212 253 310 372
#     4  10  21  42  64  87 121 176 205 247 318 385
#     4  12  18  36  66  88 118 168 209 251 311 367
#     4  10  24  36  56  95 134 149 203 269 314 360
#     4  12  26  43  63  98 124 156 214 274 301 360
#     4  11  21  38  64  93 125 163 203 261 312 370
#
# _framework density 18.878935999999999
#
# number of rings (size 3 to 8) (size 9 to 14) (size 15 to 20)
#    0.545    0.727    3.636    3.273    0.000    2.909 
#    0.000    0.000    0.000    0.000    0.000    0.000 
#    0.000    0.000    0.000    0.000    0.000    0.000 
#
# Total GULP energy -122716.677415 kJ/mol
# GULP energy per Si atom -5578.030792 kJ/mol
# Density = 1.883597 g / cm^3
# Si number density = 18.878936 Si / 1000 Ang^3
#
#
#
# Elastic Constant Matrix: (Units=GPa)
#
#
# Indices 1 2 3 4 5 6 
#
# 1 97.6986 39.7357 40.1573 0.0000 -1.6614 0.0000
# 2 39.7357 143.1810 29.8100 0.0000 8.9558 0.0000
# 3 40.1573 29.8100 102.6596 0.0000 -15.7997 0.0000
# 4 0.0000 0.0000 0.0000 26.0537 0.0000 -5.1412
# 5 -1.6614 8.9558 -15.7997 0.0000 28.9580 0.0000
# 6 0.0000 0.0000 0.0000 -5.1412 0.0000 23.6035
#
#
#
# Elastic Compliance Matrix: (Units=1/GPa)
#
#
# Indices 1 2 3 4 5 6 
#
# 1 0.013155 -0.002656 -0.004511 0.000000 -0.000885 0.000000
# 2 -0.002656 0.008373 -0.001980 0.000000 -0.003822 0.000000
# 3 -0.004511 -0.001980 0.013247 0.000000 0.007581 0.000000
# 4 0.000000 0.000000 0.000000 0.040106 0.000000 0.008736
# 5 -0.000885 -0.003822 0.007581 0.000000 0.039801 0.000000
# 6 0.000000 0.000000 0.000000 0.008736 0.000000 0.044269
#
#
# Mechanical properties :
#
#
# Convention : Reuss Voigt Hill
#
# Bulk Modulus (GPa) = 60.67929 62.54947 61.61438
# Shear Modulus (GPa) = 27.36139 31.31212 29.33676
#
# Velocity S-wave (km/s) = 3.81111 4.07698 3.94628
# Velocity P-wave (km/s) = 7.18172 7.44084 7.31243
#
# Compressibility (1/GPa) = 0.01648009
#
# Stress axis : x y z
#
# Youngs Moduli (GPa) = 76.01728 119.43476 75.48738
#
# Poissons Ratio (x) = 0.31726 0.34050
# Poissons Ratio (y) = 0.20193 0.14950
# Poissons Ratio (z) = 0.34289 0.23654
#
# Static dielectric constant tensor:
#      x y z
#    x 1.690090 0.000000 -0.014380 
#    y 0.000000 1.631330 0.000000 
#    z -0.014380 0.000000 1.641860 
# 
# From -- ./inp_files/173229.got.cif
#   From: 2010.05.17/outbox.cif.g08.bks.cpg/sg12_87_cif.got.tgz:173229.got - 2010.06.03 13:09:07.
