data_PCOD9211791
_publ_section_title
;
Structure prediction by ZEFSAII (Michael W. Deem and Ramdas Pophale) SiO2 
 PCOD9211791
Probable space group: C 2/M
;
_chemical_formula_sum "Si O2"
_cell_formula_units_Z 56
_cell_length_a 17.615522
_cell_length_b 23.464259
_cell_length_c 8.680298
_cell_angle_alpha 90.000000
_cell_angle_beta 49.691706
_cell_angle_gamma 90.000000
_cell_volume 2736.020739
_symmetry_space_group_name_H-M "C 2/M"
_symmetry_group_IT_number 12
_symmetry_cell_setting 'monoclinic'
loop_
_space_group_symop_operation_xyz
x,y,z
-x,y,-z
-x,-y,-z
x,-y,z
1/2+x,1/2+y,z
1/2-x,1/2+y,-z
1/2-x,1/2-y,-z
1/2+x,1/2-y,z
loop_
_atom_site_type_symbol
_atom_site_label
_atom_site_fract_x
_atom_site_fract_y
_atom_site_fract_z
Si Si1 0.108053 0.620108 0.920080
Si Si2 0.096714 0.756982 0.466218
Si Si3 0.554298 0.754385 0.080897
Si Si4 0.233587 0.564573 0.001318
Si Si5 0.410605 0.565166 0.517911
Si Si6 0.704169 0.645954 0.515939
Si Si7 0.766804 0.825597 0.165291
O O1 0.192719 0.618566 0.677866
O O2 0.106132 0.686347 0.972000
O O3 0.137709 0.582356 0.027422
O O4 0.000000 0.605035 0.000000
O O5 0.169804 0.803648 0.444875
O O6 0.165815 0.712022 0.286158
O O7 0.000000 0.779036 0.500000
O O8 0.036990 0.730031 0.687700
O O9 0.500000 0.730439 0.000000
O O10 0.638257 0.709657 0.023265
O O11 0.227897 0.500000 0.070179
O O12 0.254671 0.614099 0.096715
O O13 0.319592 0.565854 0.758039
O O14 0.500000 0.590180 0.500000
O O15 0.435048 0.500000 0.446283
O O16 0.381204 0.599550 0.405132
O O17 0.714423 0.666321 0.676573
#
# Coordination Sequence:
#
# PCOD9211791 Si02
#       7
#     8   8   8   8   8   8   8
#     4  10  21  40  66  89 123 164 209 255 308 368
#     4  12  25  38  60  91 127 161 208 251 314 377
#     4  11  22  38  62  92 131 166 199 252 319 379
#     4  10  24  42  63  91 124 166 216 260 307 366
#     4   9  20  40  62  87 121 163 214 261 302 363
#     4  11  22  38  61  90 126 160 207 251 311 377
#     4  12  24  40  61  94 133 165 202 260 316 373
#
# _framework density 20.467682
#
# number of rings (size 3 to 8) (size 9 to 14) (size 15 to 20)
#    0.000    1.286    2.857    3.429    6.000    2.000 
#    0.000    0.000    0.000   12.857    0.000    0.000 
#    0.000    0.000    0.000    0.000    0.000    0.000 
#
# Total GULP energy -156307.163926 kJ/mol
# GULP energy per Si atom -5582.398712 kJ/mol
# Density = 2.042110 g / cm^3
# Si number density = 20.467682 Si / 1000 Ang^3
#
#
#
# Elastic Constant Matrix: (Units=GPa)
#
#
# Indices 1 2 3 4 5 6 
#
# 1 118.4813 44.1899 19.3622 0.0000 -12.4926 0.0000
# 2 44.1899 103.2463 8.7215 0.0000 -5.5414 0.0000
# 3 19.3622 8.7215 45.5534 0.0000 -11.1889 0.0000
# 4 0.0000 0.0000 0.0000 10.2498 0.0000 -0.4064
# 5 -12.4926 -5.5414 -11.1889 0.0000 30.1838 0.0000
# 6 0.0000 0.0000 0.0000 -0.4064 0.0000 30.8706
#
#
#
# Elastic Compliance Matrix: (Units=1/GPa)
#
#
# Indices 1 2 3 4 5 6 
#
# 1 0.010796 -0.004218 -0.003162 0.000000 0.002522 0.000000
# 2 -0.004218 0.011534 -0.000356 0.000000 0.000239 0.000000
# 3 -0.003162 -0.000356 0.025334 0.000000 0.008017 0.000000
# 4 0.000000 0.000000 0.000000 0.097614 0.000000 0.001285
# 5 0.002522 0.000239 0.008017 0.000000 0.037190 0.000000
# 6 0.000000 0.000000 0.000000 0.001285 0.000000 0.032410
#
#
# Mechanical properties :
#
#
# Convention : Reuss Voigt Hill
#
# Bulk Modulus (GPa) = 31.06505 45.75868 38.41187
# Shear Modulus (GPa) = 20.73994 27.26133 24.00064
#
# Velocity S-wave (km/s) = 3.18669 3.65351 3.42806
# Velocity P-wave (km/s) = 5.36196 6.34055 5.87168
#
# Compressibility (1/GPa) = 0.03219051
#
# Stress axis : x y z
#
# Youngs Moduli (GPa) = 92.62644 86.70011 39.47338
#
# Poissons Ratio (x) = 0.36573 0.12480
# Poissons Ratio (y) = 0.39073 0.01407
# Poissons Ratio (z) = 0.29286 0.03091
#
# Static dielectric constant tensor:
#      x y z
#    x 1.772970 0.000000 0.018600 
#    y 0.000000 1.738440 0.000000 
#    z 0.018600 0.000000 1.744250 
# 
# From -- ./inp_files/79059.got.cif
#   From: 2010.05.17/outbox.cif.g08.bks.cpg/sg12_40_cif.got.tgz:79059.got - 2010.06.03 13:09:07.
