data_PCOD9211968
_publ_section_title
;
Structure prediction by ZEFSAII (Michael W. Deem and Ramdas Pophale) SiO2 
 PCOD9211968
Probable space group: C 2/M
;
_chemical_formula_sum "Si O2"
_cell_formula_units_Z 48
_cell_length_a 21.679120
_cell_length_b 14.668396
_cell_length_c 12.837334
_cell_angle_alpha 90.000000
_cell_angle_beta 34.863833
_cell_angle_gamma 90.000000
_cell_volume 2333.526029
_symmetry_space_group_name_H-M "C 2/M"
_symmetry_group_IT_number 12
_symmetry_cell_setting 'monoclinic'
loop_
_space_group_symop_operation_xyz
x,y,z
-x,y,-z
-x,-y,-z
x,-y,z
1/2+x,1/2+y,z
1/2-x,1/2+y,-z
1/2-x,1/2-y,-z
1/2+x,1/2-y,z
loop_
_atom_site_type_symbol
_atom_site_label
_atom_site_fract_x
_atom_site_fract_y
_atom_site_fract_z
Si Si1 0.861115 0.326533 0.552695
Si Si2 0.015305 0.167428 0.737602
Si Si3 0.729152 0.000000 0.062454
Si Si4 0.233320 0.142335 0.536588
Si Si5 0.774358 0.198942 0.075364
Si Si6 0.097496 0.500000 0.776233
Si Si7 0.951763 0.000000 0.678973
Si Si8 0.485547 0.000000 0.347763
O O1 0.929887 0.253938 0.392765
O O2 0.769332 0.371987 0.605927
O O3 0.807080 0.272162 0.721685
O O4 0.938868 0.410740 0.468491
O O5 0.107600 0.126508 0.685487
O O6 0.986708 0.088851 0.694909
O O7 0.899068 0.203350 0.937730
O O8 0.748073 0.091891 0.099853
O O9 0.612585 0.000000 0.176803
O O10 0.822988 0.000000 0.847285
O O11 0.250000 0.250000 0.500000
O O12 0.317928 0.086077 0.346338
O O13 0.750000 0.250000 0.000000
O O14 0.045317 0.500000 0.732467
O O15 0.000000 0.500000 0.000000
O O16 0.000000 0.000000 0.500000
#
# Coordination Sequence:
#
# PCOD9211968 Si02
#       8
#     8   8   4   8   8   4   4   4
#     4  10  22  40  63  88 124 164 206 265 321 381
#     4  10  22  40  61  88 126 162 210 263 314 387
#     4  10  23  39  55  85 116 149 210 247 302 385
#     4   9  20  42  60  95 128 166 211 266 334 388
#     4  11  24  39  60  90 120 164 215 254 318 388
#     4  10  21  40  68  98 128 168 222 275 326 396
#     4  10  23  38  58  86 124 166 203 256 318 377
#     4  10  21  41  63  87 126 162 206 265 325 376
#
# _framework density 20.569728999999999
#
# number of rings (size 3 to 8) (size 9 to 14) (size 15 to 20)
#    0.000    2.000    0.000    2.000    4.667    4.667 
#   21.000    0.000    0.000    6.000    0.000    0.000 
#    0.000    0.000    0.000    0.000    0.000    0.000 
#
# Total GULP energy -133791.753549 kJ/mol
# GULP energy per Si atom -5574.656398 kJ/mol
# Density = 2.052291 g / cm^3
# Si number density = 20.569729 Si / 1000 Ang^3
#
#
#
# Elastic Constant Matrix: (Units=GPa)
#
#
# Indices 1 2 3 4 5 6 
#
# 1 80.0411 6.6108 61.3661 0.0000 -30.8501 0.0000
# 2 6.6108 88.7794 24.3492 0.0000 -10.4039 0.0000
# 3 61.3661 24.3492 131.4506 0.0000 -27.1761 0.0000
# 4 0.0000 0.0000 0.0000 33.6605 0.0000 -2.5006
# 5 -30.8501 -10.4039 -27.1761 0.0000 43.5595 0.0000
# 6 0.0000 0.0000 0.0000 -2.5006 0.0000 32.0221
#
#
#
# Elastic Compliance Matrix: (Units=1/GPa)
#
#
# Indices 1 2 3 4 5 6 
#
# 1 0.023778 0.002086 -0.009073 0.000000 0.011679 0.000000
# 2 0.002086 0.012158 -0.002664 0.000000 0.002720 0.000000
# 3 -0.009073 -0.002664 0.012487 0.000000 0.000729 0.000000
# 4 0.000000 0.000000 0.000000 0.029882 0.000000 0.002333
# 5 0.011679 0.002720 0.000729 0.000000 0.032332 0.000000
# 6 0.000000 0.000000 0.000000 0.002333 0.000000 0.031411
#
#
# Mechanical properties :
#
#
# Convention : Reuss Voigt Hill
#
# Bulk Modulus (GPa) = 34.33733 53.88038 44.10886
# Shear Modulus (GPa) = 29.23021 35.71140 32.47081
#
# Velocity S-wave (km/s) = 3.77375 4.17119 3.97744
# Velocity P-wave (km/s) = 5.97642 7.03202 6.52560
#
# Compressibility (1/GPa) = 0.02912282
#
# Stress axis : x y z
#
# Youngs Moduli (GPa) = 42.05503 82.25168 80.08356
#
# Poissons Ratio (x) = -0.17160 0.72657
# Poissons Ratio (y) = -0.08774 0.21333
# Poissons Ratio (z) = 0.38155 0.21910
#
# Static dielectric constant tensor:
#      x y z
#    x 1.809020 0.000000 -0.014340 
#    y 0.000000 1.736760 0.000000 
#    z -0.014340 0.000000 1.793670 
# 
# From -- ./inp_files/240636.got.cif
#   From: 2010.05.17/outbox.cif.g08.bks.cpg/sg12_121_cif.got.tgz:240636.got - 2010.06.03 13:09:07.
