data_PCOD9211558
_publ_section_title
;
Structure prediction by ZEFSAII (Michael W. Deem and Ramdas Pophale) SiO2 
 PCOD9211558
Probable space group: C 2/M
;
_chemical_formula_sum "Si O2"
_cell_formula_units_Z 32
_cell_length_a 9.829746
_cell_length_b 20.777142
_cell_length_c 10.631708
_cell_angle_alpha 90.000000
_cell_angle_beta 44.695105
_cell_angle_gamma 90.000000
_cell_volume 1527.188834
_symmetry_space_group_name_H-M "C 2/M"
_symmetry_group_IT_number 12
_symmetry_cell_setting 'monoclinic'
loop_
_space_group_symop_operation_xyz
x,y,z
-x,y,-z
-x,-y,-z
x,-y,z
1/2+x,1/2+y,z
1/2-x,1/2+y,-z
1/2-x,1/2-y,-z
1/2+x,1/2-y,z
loop_
_atom_site_type_symbol
_atom_site_label
_atom_site_fract_x
_atom_site_fract_y
_atom_site_fract_z
Si Si1 0.682870 0.000000 0.712972
Si Si2 0.494324 0.117768 0.298932
Si Si3 0.513266 0.500000 0.273850
Si Si4 0.175504 0.118004 0.727155
Si Si5 0.023900 0.743239 0.127466
O O1 0.555644 0.937166 0.768351
O O2 0.850472 0.000000 0.493337
O O3 0.787903 0.000000 0.778545
O O4 0.342121 0.111850 0.512500
O O5 0.708551 0.110777 0.217685
O O6 0.457862 0.187512 0.263990
O O7 0.474576 0.562436 0.212863
O O8 0.081630 0.188569 0.785319
O O9 0.250000 0.750000 0.000000
O O10 0.000000 0.721865 0.000000
#
# Coordination Sequence:
#
# PCOD9211558 Si02
#       5
#     4   8   4   8   8
#     4   9  19  35  61  93 119 148 195 252 296 345
#     4  10  21  40  64  89 118 157 201 243 295 355
#     4   9  19  35  61  93 119 147 197 251 296 345
#     4  10  21  40  64  89 118 158 199 244 296 354
#     4  12  25  42  59  86 124 161 199 245 297 351
#
# _framework density 20.953534000000001
#
# number of rings (size 3 to 8) (size 9 to 14) (size 15 to 20)
#    0.000    1.750    2.500    1.500    3.500    3.000 
#    0.000    2.500    0.000    0.000    0.000    0.000 
#    0.000    0.000    0.000    0.000    0.000    0.000 
#
# Total GULP energy -89405.736647 kJ/mol
# GULP energy per Si atom -5587.858540 kJ/mol
# Density = 2.090584 g / cm^3
# Si number density = 20.953534 Si / 1000 Ang^3
#
#
#
# Elastic Constant Matrix: (Units=GPa)
#
#
# Indices 1 2 3 4 5 6 
#
# 1 225.8608 106.6823 23.6415 0.0000 -9.4381 0.0000
# 2 106.6823 173.2192 15.4490 0.0000 -7.0355 0.0000
# 3 23.6415 15.4490 27.8410 0.0000 2.5056 0.0000
# 4 0.0000 0.0000 0.0000 -55.9299 0.0000 -29.5197
# 5 -9.4381 -7.0355 2.5056 0.0000 25.5208 0.0000
# 6 0.0000 0.0000 0.0000 -29.5197 0.0000 27.7051
#
#
#
# Elastic Compliance Matrix: (Units=1/GPa)
#
#
# Indices 1 2 3 4 5 6 
#
# 1 0.006633 -0.003677 -0.003755 0.000000 0.001808 0.000000
# 2 -0.003677 0.008217 -0.001533 0.000000 0.001056 0.000000
# 3 -0.003755 -0.001533 0.040478 0.000000 -0.005785 0.000000
# 4 0.000000 0.000000 0.000000 -0.011444 0.000000 -0.012193
# 5 0.001808 0.001056 -0.005785 0.000000 0.040712 0.000000
# 6 0.000000 0.000000 0.000000 -0.012193 0.000000 0.023102
#
#
# Mechanical properties :
#
#
# Convention : Reuss Voigt Hill
#
# Bulk Modulus (GPa) = 26.73840 79.82963 53.28401
# Shear Modulus (GPa) = 36.20778 18.20241 27.20510
#
# Velocity S-wave (km/s) = 4.16144 2.95058 3.60718
# Velocity P-wave (km/s) = 5.98987 7.05613 6.54475
#
# Compressibility (1/GPa) = 0.03739940
#
# Stress axis : x y z
#
# Youngs Moduli (GPa) = 150.76854 121.69934 24.70494
#
# Poissons Ratio (x) = 0.44744 0.09276
# Poissons Ratio (y) = 0.55432 0.03786
# Poissons Ratio (z) = 0.56610 0.18652
#
# Static dielectric constant tensor:
#      x y z
#    x 1.723880 0.000000 -0.000880 
#    y 0.000000 1.727830 0.000000 
#    z -0.000880 0.000000 1.776440 
# 
# From -- ./inp_files/37671.got.cif
#   From: 2010.05.17/outbox.cif.g08.bks.cpg/sg12_19_cif.got.tgz:37671.got - 2010.06.03 13:09:07.
