data_PCOD9211876
_publ_section_title
;
Structure prediction by ZEFSAII (Michael W. Deem and Ramdas Pophale) SiO2 
 PCOD9211876
Probable space group: C 2/M
;
_chemical_formula_sum "Si O2"
_cell_formula_units_Z 30
_cell_length_a 13.289477
_cell_length_b 14.599881
_cell_length_c 7.574073
_cell_angle_alpha 90.000000
_cell_angle_beta 121.857872
_cell_angle_gamma 90.000000
_cell_volume 1248.183677
_symmetry_space_group_name_H-M "C 2/M"
_symmetry_group_IT_number 12
_symmetry_cell_setting 'monoclinic'
loop_
_space_group_symop_operation_xyz
x,y,z
-x,y,-z
-x,-y,-z
x,-y,z
1/2+x,1/2+y,z
1/2-x,1/2+y,-z
1/2-x,1/2-y,-z
1/2+x,1/2-y,z
loop_
_atom_site_type_symbol
_atom_site_label
_atom_site_fract_x
_atom_site_fract_y
_atom_site_fract_z
Si Si1 0.419231 0.600646 0.633999
Si Si2 0.245829 0.157702 0.205244
Si Si3 0.000000 0.735805 0.500000
Si Si4 0.220584 0.629158 0.155708
Si Si5 0.500000 0.000000 0.000000
O O1 0.477642 0.500000 0.689169
O O2 0.340606 0.611145 0.735861
O O3 0.494649 0.692764 0.661389
O O4 0.324845 0.603870 0.386246
O O5 0.382914 0.173178 0.392798
O O6 0.202544 0.262023 0.147882
O O7 0.248941 0.109501 0.019518
O O8 0.103291 0.578185 0.101325
#
# Coordination Sequence:
#
# PCOD9211876 Si02
#       5
#     8   8   4   8   2
#     4  11  23  42  62  93 126 161 206 260 299 368
#     4  10  24  42  65  89 126 164 209 248 308 376
#     4  10  21  40  67  88 120 170 204 249 320 357
#     4  10  23  42  60  94 126 158 201 260 306 363
#     4  12  24  36  74  90 124 160 206 260 316 346
#
# _framework density 24.034922999999999
#
# number of rings (size 3 to 8) (size 9 to 14) (size 15 to 20)
#    0.000    1.600    1.333    3.600    9.333    0.000 
#    0.000    2.000    0.000   16.000    0.000    0.000 
#    0.000    0.000    0.000    0.000    0.000    0.000 
#
# Total GULP energy -83686.118057 kJ/mol
# GULP energy per Si atom -5579.074537 kJ/mol
# Density = 2.398022 g / cm^3
# Si number density = 24.034923 Si / 1000 Ang^3
#
#
#
# Elastic Constant Matrix: (Units=GPa)
#
#
# Indices 1 2 3 4 5 6 
#
# 1 66.1003 -9.1743 5.9504 0.0000 11.4111 0.0000
# 2 -9.1743 78.8865 0.2443 0.0000 6.6048 0.0000
# 3 5.9504 0.2443 50.1600 0.0000 -9.8543 0.0000
# 4 0.0000 0.0000 0.0000 -38.7938 0.0000 18.3624
# 5 11.4111 6.6048 -9.8543 0.0000 33.9725 0.0000
# 6 0.0000 0.0000 0.0000 18.3624 0.0000 50.3929
#
#
#
# Elastic Compliance Matrix: (Units=1/GPa)
#
#
# Indices 1 2 3 4 5 6 
#
# 1 0.017049 0.002599 -0.003457 0.000000 -0.007235 0.000000
# 2 0.002599 0.013299 -0.001116 0.000000 -0.003782 0.000000
# 3 -0.003457 -0.001116 0.021869 0.000000 0.007721 0.000000
# 4 0.000000 0.000000 0.000000 -0.021985 0.000000 0.008011
# 5 -0.007235 -0.003782 0.007721 0.000000 0.034841 0.000000
# 6 0.000000 0.000000 0.000000 0.008011 0.000000 0.016925
#
#
# Mechanical properties :
#
#
# Convention : Reuss Voigt Hill
#
# Bulk Modulus (GPa) = 20.71682 21.02083 20.86883
# Shear Modulus (GPa) = 49.00325 22.32274 35.66300
#
# Velocity S-wave (km/s) = 4.52025 3.05087 3.85619
# Velocity P-wave (km/s) = 5.99013 4.60167 5.34121
#
# Compressibility (1/GPa) = 0.04826995
#
# Stress axis : x y z
#
# Youngs Moduli (GPa) = 58.65315 75.19440 45.72762
#
# Poissons Ratio (x) = -0.19545 0.15806
# Poissons Ratio (y) = -0.15245 0.05104
# Poissons Ratio (z) = 0.20274 0.08393
#
# Static dielectric constant tensor:
#      x y z
#    x 1.928610 0.000000 -0.024360 
#    y 0.000000 1.862600 0.000000 
#    z -0.024360 0.000000 1.938700 
# 
# From -- ./inp_files/45249.got.cif
#   From: 2010.05.17/outbox.cif.g08.bks.cpg/sg12_23_cif.got.tgz:45249.got - 2010.06.03 13:09:07.
