data_PCOD9211327
_publ_section_title
;
Structure prediction by ZEFSAII (Michael W. Deem and Ramdas Pophale) SiO2 
 PCOD9211327
Probable space group: C 2/M
;
_chemical_formula_sum "Si O2"
_cell_formula_units_Z 42
_cell_length_a 13.710527
_cell_length_b 14.860315
_cell_length_c 18.274697
_cell_angle_alpha 90.000000
_cell_angle_beta 33.026208
_cell_angle_gamma 90.000000
_cell_volume 2029.302822
_symmetry_space_group_name_H-M "C 2/M"
_symmetry_group_IT_number 12
_symmetry_cell_setting 'monoclinic'
loop_
_space_group_symop_operation_xyz
x,y,z
-x,y,-z
-x,-y,-z
x,-y,z
1/2+x,1/2+y,z
1/2-x,1/2+y,-z
1/2-x,1/2-y,-z
1/2+x,1/2-y,z
loop_
_atom_site_type_symbol
_atom_site_label
_atom_site_fract_x
_atom_site_fract_y
_atom_site_fract_z
Si Si1 0.571314 0.601671 0.072176
Si Si2 0.243824 0.145263 0.109759
Si Si3 0.751351 0.834836 0.176438
Si Si4 0.618537 0.396117 0.585694
Si Si5 0.500000 0.000000 0.000000
Si Si6 0.593841 0.788165 0.519204
O O1 0.540947 0.500000 0.117734
O O2 0.657170 0.655629 0.084665
O O3 0.386956 0.640935 0.156228
O O4 0.705205 0.600316 0.918474
O O5 0.294258 0.238620 0.114409
O O6 0.088075 0.104101 0.259563
O O7 0.408372 0.078147 0.006200
O O8 0.550852 0.826834 0.331803
O O9 0.668803 0.500000 0.536440
O O10 0.637278 0.316152 0.513196
O O11 0.735934 0.353147 0.577817
O O12 0.500000 0.791006 0.500000
#
# Coordination Sequence:
#
# PCOD9211327 Si02
#       6
#     8   8   8   8   2   8
#     4  11  21  39  60  87 124 157 193 253 308 349
#     4  11  22  38  61  89 121 159 198 246 302 361
#     4  10  22  37  61  88 123 157 203 246 298 363
#     4  10  21  40  61  88 123 154 200 258 293 354
#     4  12  20  36  60  90 118 156 194 238 288 372
#     4  10  22  39  63  87 119 164 206 245 304 358
#
# _framework density 20.696763000000001
#
# number of rings (size 3 to 8) (size 9 to 14) (size 15 to 20)
#    0.000    1.524    1.905    4.000    0.000    2.286 
#    0.000    3.810    8.381    0.000    0.000    0.000 
#    0.000    0.000    0.000    0.000    0.000    0.000 
#
# Total GULP energy -116917.237920 kJ/mol
# GULP energy per Si atom -5567.487520 kJ/mol
# Density = 2.064966 g / cm^3
# Si number density = 20.696763 Si / 1000 Ang^3
#
#
#
# Elastic Constant Matrix: (Units=GPa)
#
#
# Indices 1 2 3 4 5 6 
#
# 1 64.6975 3.3364 0.7451 0.0000 -12.4580 -0.0002
# 2 3.3364 127.0154 13.1608 -0.0004 -11.0062 0.0002
# 3 0.7451 13.1608 27.3709 0.0004 -1.9443 0.0003
# 4 0.0000 -0.0004 0.0004 25.3627 0.0008 -1.2482
# 5 -12.4580 -11.0062 -1.9443 0.0008 14.5104 -0.0002
# 6 -0.0002 0.0002 0.0003 -1.2482 -0.0002 16.3366
#
#
#
# Elastic Compliance Matrix: (Units=1/GPa)
#
#
# Indices 1 2 3 4 5 6 
#
# 1 0.018628 0.000937 0.000231 0.000000 0.016735 0.000000
# 2 0.000937 0.008848 -0.003782 0.000000 0.007009 0.000000
# 3 0.000231 -0.003782 0.038524 -0.000001 0.002492 -0.000001
# 4 0.000000 0.000000 -0.000001 0.039577 -0.000003 0.003024
# 5 0.016735 0.007009 0.002492 -0.000003 0.088934 0.000001
# 6 0.000000 0.000000 -0.000001 0.003024 0.000001 0.061443
#
#
# Mechanical properties :
#
#
# Convention : Reuss Voigt Hill
#
# Bulk Modulus (GPa) = 16.45488 28.17428 22.31458
# Shear Modulus (GPa) = 17.76587 24.69805 21.23196
#
# Velocity S-wave (km/s) = 2.93301 3.45821 3.20638
# Velocity P-wave (km/s) = 4.40883 5.43949 4.95105
#
# Compressibility (1/GPa) = 0.06077226
#
# Stress axis : x y z
#
# Youngs Moduli (GPa) = 53.68270 113.02472 25.95765
#
# Poissons Ratio (x) = -0.10589 -0.00600
# Poissons Ratio (y) = -0.05029 0.09817
# Poissons Ratio (z) = -0.01241 0.42744
#
# Static dielectric constant tensor:
#      x y z
#    x 1.727580 0.000000 -0.006090 
#    y 0.000000 1.765630 0.000000 
#    z -0.006090 0.000000 1.786200 
# 
# From -- ./inp_files/310728.got.cif
#   From: 2010.05.17/outbox.cif.g08.bks.cpg/sg12_156_cif.got.tgz:310728.got - 2010.06.03 13:09:07.
