data_PCOD9211586
_publ_section_title
;
Structure prediction by ZEFSAII (Michael W. Deem and Ramdas Pophale) SiO2 
 PCOD9211586
Probable space group: C 2/M
;
_chemical_formula_sum "Si O2"
_cell_formula_units_Z 38
_cell_length_a 5.128933
_cell_length_b 30.464797
_cell_length_c 12.273538
_cell_angle_alpha 90.000000
_cell_angle_beta 100.425501
_cell_angle_gamma 90.000000
_cell_volume 1886.103359
_symmetry_space_group_name_H-M "C 2/M"
_symmetry_group_IT_number 12
_symmetry_cell_setting 'monoclinic'
loop_
_space_group_symop_operation_xyz
x,y,z
-x,y,-z
-x,-y,-z
x,-y,z
1/2+x,1/2+y,z
1/2-x,1/2+y,-z
1/2-x,1/2-y,-z
1/2+x,1/2-y,z
loop_
_atom_site_type_symbol
_atom_site_label
_atom_site_fract_x
_atom_site_fract_y
_atom_site_fract_z
Si Si1 0.985078 0.578489 0.179108
Si Si2 0.931845 0.781010 0.259466
Si Si3 0.000000 0.500000 0.000000
Si Si4 0.219567 0.553080 0.430941
Si Si5 0.036283 0.132711 0.874257
Si Si6 0.000000 0.781489 0.500000
O O1 0.131750 0.565585 0.302649
O O2 0.182819 0.612214 0.136020
O O3 0.953202 0.538307 0.091817
O O4 0.703690 0.601282 0.183942
O O5 0.652578 0.755915 0.249855
O O6 0.970529 0.804142 0.381352
O O7 0.964845 0.818859 0.174761
O O8 0.500000 0.568862 0.500000
O O9 0.226837 0.500000 0.432931
O O10 0.000000 0.568303 0.500000
O O11 0.000000 0.134239 0.000000
O O12 0.750000 0.750000 0.500000
#
# Coordination Sequence:
#
# PCOD9211586 Si02
#       6
#     8   8   2   8   8   4
#     4  12  25  44  66  95 132 170 225 271 318 392
#     4  10  21  40  66  90 125 173 214 258 330 391
#     4  12  24  46  72  94 124 198 220 252 336 382
#     4  10  21  40  64  90 122 165 212 268 326 390
#     4  12  25  42  62  98 137 163 215 285 314 374
#     4   8  16  34  60  88 114 155 212 257 296 384
#
# _framework density 20.147358000000001
#
# number of rings (size 3 to 8) (size 9 to 14) (size 15 to 20)
#    0.000    1.263    3.158    2.526    0.000    2.526 
#    5.684    0.000    0.000    0.000    0.000    0.000 
#    0.000    0.000    0.000    0.000    0.000    0.000 
#
# Total GULP energy -105768.468721 kJ/mol
# GULP energy per Si atom -5566.761512 kJ/mol
# Density = 2.010150 g / cm^3
# Si number density = 20.147358 Si / 1000 Ang^3
#
#
#
# Elastic Constant Matrix: (Units=GPa)
#
#
# Indices 1 2 3 4 5 6 
#
# 1 93.3836 1.4118 5.2941 0.0000 0.2014 0.0000
# 2 1.4118 56.9221 12.0225 0.0000 4.1694 0.0000
# 3 5.2941 12.0225 100.6543 0.0000 -1.9439 0.0000
# 4 0.0000 0.0000 0.0000 0.8446 0.0000 4.9328
# 5 0.2014 4.1694 -1.9439 0.0000 23.9048 0.0000
# 6 0.0000 0.0000 0.0000 4.9328 0.0000 0.8382
#
#
#
# Elastic Compliance Matrix: (Units=1/GPa)
#
#
# Indices 1 2 3 4 5 6 
#
# 1 0.010742 -0.000142 -0.000550 0.000000 -0.000110 0.000000
# 2 -0.000142 0.018292 -0.002243 0.000000 -0.003372 0.000000
# 3 -0.000550 -0.002243 0.010256 0.000000 0.001230 0.000000
# 4 0.000000 0.000000 0.000000 -0.035478 0.000000 0.208798
# 5 -0.000110 -0.003372 0.001230 0.000000 0.042522 0.000000
# 6 0.000000 0.000000 0.000000 0.208798 0.000000 -0.035750
#
#
# Mechanical properties :
#
#
# Convention : Reuss Voigt Hill
#
# Bulk Modulus (GPa) = 29.92216 32.04630 30.98423
# Shear Modulus (GPa) = 181.20337 20.59961 100.90149
#
# Velocity S-wave (km/s) = 9.49391 3.20104 7.08452
# Velocity P-wave (km/s) = 11.62166 5.44084 9.07374
#
# Compressibility (1/GPa) = 0.03342004
#
# Stress axis : x y z
#
# Youngs Moduli (GPa) = 93.09172 54.66871 97.50828
#
# Poissons Ratio (x) = 0.00777 0.05364
# Poissons Ratio (y) = 0.01323 0.21866
# Poissons Ratio (z) = 0.05122 0.12259
#
# Static dielectric constant tensor:
#      x y z
#    x 1.801130 0.000000 0.035430 
#    y 0.000000 1.684320 0.000000 
#    z 0.035430 0.000000 1.754240 
# 
# From -- ./inp_files/115555.got.cif
#   From: 2010.05.17/outbox.cif.g08.bks.cpg/sg12_58_cif.got.tgz:115555.got - 2010.06.03 13:09:07.
