data_PCOD9211084
_publ_section_title
;
Structure prediction by ZEFSAII (Michael W. Deem and Ramdas Pophale) SiO2 
 PCOD9211084
Probable space group: C 2/M
;
_chemical_formula_sum "Si O2"
_cell_formula_units_Z 56
_cell_length_a 19.212463
_cell_length_b 16.185006
_cell_length_c 9.535210
_cell_angle_alpha 90.000000
_cell_angle_beta 69.751341
_cell_angle_gamma 90.000000
_cell_volume 2781.770767
_symmetry_space_group_name_H-M "C 2/M"
_symmetry_group_IT_number 12
_symmetry_cell_setting 'monoclinic'
loop_
_space_group_symop_operation_xyz
x,y,z
-x,y,-z
-x,-y,-z
x,-y,z
1/2+x,1/2+y,z
1/2-x,1/2+y,-z
1/2-x,1/2-y,-z
1/2+x,1/2-y,z
loop_
_atom_site_type_symbol
_atom_site_label
_atom_site_fract_x
_atom_site_fract_y
_atom_site_fract_z
Si Si1 0.552019 0.906556 0.097356
Si Si2 0.007107 0.902750 0.336446
Si Si3 0.791471 0.600193 0.124691
Si Si4 0.945885 0.597673 0.405416
Si Si5 0.071432 0.806075 0.860819
Si Si6 0.649901 0.597060 0.056215
Si Si7 0.313224 0.806610 0.385603
O O1 0.499688 0.865153 0.247899
O O2 0.568545 0.000000 0.140581
O O3 0.500000 0.915280 0.000000
O O4 0.629876 0.870661 0.994399
O O5 0.960132 0.859757 0.246812
O O6 0.000000 0.869460 0.500000
O O7 0.091124 0.895531 0.223703
O O8 0.987054 0.000000 0.354021
O O9 0.793148 0.500000 0.128500
O O10 0.727475 0.627780 0.063407
O O11 0.780297 0.631645 0.290853
O O12 0.930590 0.500000 0.386544
O O13 0.867292 0.644550 0.456456
O O14 0.000000 0.602142 0.500000
O O15 0.129688 0.746495 0.746868
O O16 0.116878 0.858474 0.944089
O O17 0.000000 0.773085 0.000000
O O18 0.657271 0.500000 0.017726
O O19 0.250000 0.750000 0.500000
#
# Coordination Sequence:
#
# PCOD9211084 Si02
#       7
#     8   8   8   8   8   8   8
#     4   9  16  32  64  92 111 148 205 262 306 358
#     4   9  18  35  63  90 116 158 213 259 300 360
#     4  10  21  39  66  92 121 161 215 265 310 375
#     4  10  22  43  69  95 125 166 221 274 317 372
#     4  10  23  41  61  88 125 168 204 251 313 379
#     4   9  19  38  63  91 120 158 209 260 303 364
#     4  12  27  41  58  94 136 170 202 257 331 397
#
# _framework density 20.131062
#
# number of rings (size 3 to 8) (size 9 to 14) (size 15 to 20)
#    0.000    2.143    1.429    0.857    4.000    4.000 
#    2.571    3.571    0.000    0.000    0.000    0.000 
#    0.000    0.000    0.000    0.000    0.000    0.000 
#
# Total GULP energy -156159.400027 kJ/mol
# GULP energy per Si atom -5577.121430 kJ/mol
# Density = 2.008524 g / cm^3
# Si number density = 20.131062 Si / 1000 Ang^3
#
#
#
# Elastic Constant Matrix: (Units=GPa)
#
#
# Indices 1 2 3 4 5 6 
#
# 1 143.9415 49.2019 47.3750 0.0000 3.2950 0.0000
# 2 49.2019 49.6338 40.6313 0.0000 -8.5200 0.0000
# 3 47.3750 40.6313 105.1845 0.0000 5.1430 0.0000
# 4 0.0000 0.0000 0.0000 27.3332 0.0000 -8.1666
# 5 3.2950 -8.5200 5.1430 0.0000 23.4392 0.0000
# 6 0.0000 0.0000 0.0000 -8.1666 0.0000 21.4354
#
#
#
# Elastic Compliance Matrix: (Units=1/GPa)
#
#
# Indices 1 2 3 4 5 6 
#
# 1 0.011250 -0.012086 -0.000108 0.000000 -0.005951 0.000000
# 2 -0.012086 0.047256 -0.013883 0.000000 0.021922 0.000000
# 3 -0.000108 -0.013883 0.015329 0.000000 -0.008395 0.000000
# 4 0.000000 0.000000 0.000000 0.041285 0.000000 0.015729
# 5 -0.005951 0.021922 -0.008395 0.000000 0.053311 0.000000
# 6 0.000000 0.000000 0.000000 0.015729 0.000000 0.052645
#
#
# Mechanical properties :
#
#
# Convention : Reuss Voigt Hill
#
# Bulk Modulus (GPa) = 46.11970 63.68624 54.90297
# Shear Modulus (GPa) = 17.82822 25.21165 21.51994
#
# Velocity S-wave (km/s) = 2.97914 3.54273 3.27309
# Velocity P-wave (km/s) = 5.89858 6.95982 6.45106
#
# Compressibility (1/GPa) = 0.02168271
#
# Stress axis : x y z
#
# Youngs Moduli (GPa) = 88.88944 21.16143 65.23692
#
# Poissons Ratio (x) = 0.25575 0.00701
# Poissons Ratio (y) = 1.07427 0.90567
# Poissons Ratio (z) = 0.00956 0.29378
#
# Static dielectric constant tensor:
#      x y z
#    x 1.698600 0.000000 -0.028490 
#    y 0.000000 1.770340 0.000000 
#    z -0.028490 0.000000 1.643450 
# 
# From -- ./inp_files/75872.got.cif
#   From: 2010.05.17/outbox.cif.g08.bks.cpg/sg12_38_cif.got.tgz:75872.got - 2010.06.03 13:09:07.
