data_PCOD9211445
_publ_section_title
;
Structure prediction by ZEFSAII (Michael W. Deem and Ramdas Pophale) SiO2 
 PCOD9211445
Probable space group: C 2/M
;
_chemical_formula_sum "Si O2"
_cell_formula_units_Z 64
_cell_length_a 24.314239
_cell_length_b 9.710843
_cell_length_c 14.910169
_cell_angle_alpha 90.000000
_cell_angle_beta 108.904746
_cell_angle_gamma 90.000000
_cell_volume 3330.567067
_symmetry_space_group_name_H-M "C 2/M"
_symmetry_group_IT_number 12
_symmetry_cell_setting 'monoclinic'
loop_
_space_group_symop_operation_xyz
x,y,z
-x,y,-z
-x,-y,-z
x,-y,z
1/2+x,1/2+y,z
1/2-x,1/2+y,-z
1/2-x,1/2-y,-z
1/2+x,1/2-y,z
loop_
_atom_site_type_symbol
_atom_site_label
_atom_site_fract_x
_atom_site_fract_y
_atom_site_fract_z
Si Si1 0.341915 0.662301 0.793574
Si Si2 0.421562 0.341861 0.526676
Si Si3 0.717077 0.358635 0.537410
Si Si4 0.596063 0.335268 0.687287
Si Si5 0.233706 0.154880 0.754661
Si Si6 0.453712 0.840439 0.177223
Si Si7 0.934545 0.844873 0.002681
Si Si8 0.582570 0.161696 0.302546
O O1 0.333706 0.500000 0.766378
O O2 0.283161 0.733201 0.800631
O O3 0.389804 0.670248 0.897602
O O4 0.368588 0.748342 0.723408
O O5 0.443171 0.500000 0.554070
O O6 0.351671 0.347341 0.496019
O O7 0.430140 0.304430 0.426182
O O8 0.435409 0.233977 0.612532
O O9 0.732667 0.500000 0.499412
O O10 0.750000 0.250000 0.500000
O O11 0.737551 0.357452 0.649598
O O12 0.588968 0.500000 0.695417
O O13 0.665742 0.308391 0.732601
O O14 0.565849 0.246136 0.746967
O O15 0.244464 0.000000 0.798054
O O16 0.523970 0.835066 0.212163
O O17 0.436691 0.000000 0.175718
O O18 0.427825 0.767920 0.075988
O O19 0.927399 0.000000 0.037041
O O20 0.000000 0.835408 0.000000
O O21 0.599364 0.000000 0.323301
#
# Coordination Sequence:
#
# PCOD9211445 Si02
#       8
#     8   8   8   8   8   8   8   8
#     4  11  22  36  59  89 116 145 186 235 284 341
#     4   9  19  35  54  78 108 148 196 237 273 326
#     4   9  17  29  46  71 104 141 184 227 271 323
#     4   9  20  40  62  82 112 155 198 235 276 330
#     4   9  19  36  56  80 112 149 185 229 284 334
#     4  11  24  39  59  86 115 149 189 236 287 340
#     4  10  21  40  63  86 113 146 185 231 285 342
#     4  11  23  36  53  83 120 153 186 233 291 341
#
# _framework density 19.215947
#
# number of rings (size 3 to 8) (size 9 to 14) (size 15 to 20)
#    0.000    2.125    1.250    3.375    0.000    7.250 
#    0.000    5.625    0.000    0.000    0.000    0.000 
#    0.000    0.000    0.000    0.000    0.000    0.000 
#
# Total GULP energy -178403.864873 kJ/mol
# GULP energy per Si atom -5575.120777 kJ/mol
# Density = 1.917221 g / cm^3
# Si number density = 19.215947 Si / 1000 Ang^3
#
#
#
# Elastic Constant Matrix: (Units=GPa)
#
#
# Indices 1 2 3 4 5 6 
#
# 1 62.1593 39.2547 12.6488 0.0000 6.1680 0.0000
# 2 39.2547 109.8945 46.6375 0.0000 -6.7709 0.0000
# 3 12.6488 46.6375 64.5298 0.0000 2.3550 0.0000
# 4 0.0000 0.0000 0.0000 23.7062 0.0000 -1.3966
# 5 6.1680 -6.7709 2.3550 0.0000 28.4995 0.0000
# 6 0.0000 0.0000 0.0000 -1.3966 0.0000 27.4507
#
#
#
# Elastic Compliance Matrix: (Units=1/GPa)
#
#
# Indices 1 2 3 4 5 6 
#
# 1 0.022325 -0.009642 0.002861 0.000000 -0.007359 0.000000
# 2 -0.009642 0.017740 -0.011195 0.000000 0.007227 0.000000
# 3 0.002861 -0.011195 0.023217 0.000000 -0.005197 0.000000
# 4 0.000000 0.000000 0.000000 0.042310 0.000000 0.002153
# 5 -0.007359 0.007227 -0.005197 0.000000 0.038827 0.000000
# 6 0.000000 0.000000 0.000000 0.002153 0.000000 0.036538
#
#
# Mechanical properties :
#
#
# Convention : Reuss Voigt Hill
#
# Bulk Modulus (GPa) = 36.59034 48.18505 42.38770
# Shear Modulus (GPa) = 22.12203 25.13412 23.62807
#
# Velocity S-wave (km/s) = 3.39666 3.62053 3.51038
# Velocity P-wave (km/s) = 5.87078 6.52745 6.20781
#
# Compressibility (1/GPa) = 0.02732962
#
# Stress axis : x y z
#
# Youngs Moduli (GPa) = 44.79300 56.36943 43.07278
#
# Poissons Ratio (x) = 0.54353 -0.12324
# Poissons Ratio (y) = 0.43190 0.48220
# Poissons Ratio (z) = -0.12816 0.63106
#
# Static dielectric constant tensor:
#      x y z
#    x 1.672290 0.000000 0.024360 
#    y 0.000000 1.685690 0.000000 
#    z 0.024360 0.000000 1.671250 
# 
# From -- ./inp_files/244209.got.cif
#   From: 2010.05.17/outbox.cif.g08.bks.cpg/sg12_123_cif.got.tgz:244209.got - 2010.06.03 13:09:07.
