data_PCOD9211758
_publ_section_title
;
Structure prediction by ZEFSAII (Michael W. Deem and Ramdas Pophale) SiO2 
 PCOD9211758
Probable space group: C 2/M
;
_chemical_formula_sum "Si O2"
_cell_formula_units_Z 48
_cell_length_a 29.159543
_cell_length_b 19.320625
_cell_length_c 12.730426
_cell_angle_alpha 90.000000
_cell_angle_beta 160.027413
_cell_angle_gamma 90.000000
_cell_volume 2449.769316
_symmetry_space_group_name_H-M "C 2/M"
_symmetry_group_IT_number 12
_symmetry_cell_setting 'monoclinic'
loop_
_space_group_symop_operation_xyz
x,y,z
-x,y,-z
-x,-y,-z
x,-y,z
1/2+x,1/2+y,z
1/2-x,1/2+y,-z
1/2-x,1/2-y,-z
1/2+x,1/2-y,z
loop_
_atom_site_type_symbol
_atom_site_label
_atom_site_fract_x
_atom_site_fract_y
_atom_site_fract_z
Si Si1 0.553084 0.919105 0.994996
Si Si2 0.653683 0.922336 0.640666
Si Si3 0.528780 0.420383 0.684540
Si Si4 0.267376 0.215155 0.649938
Si Si5 0.880152 0.288926 0.319377
Si Si6 0.475407 0.706093 0.717243
O O1 0.435895 0.908694 0.655828
O O2 0.597592 0.000000 0.082182
O O3 0.500000 0.909536 0.000000
O O4 0.663553 0.860400 0.210720
O O5 0.632868 0.870284 0.691759
O O6 0.621702 0.000000 0.605625
O O7 0.811194 0.918606 0.953772
O O8 0.500000 0.401775 0.500000
O O9 0.482005 0.500000 0.598237
O O10 0.471036 0.365930 0.643509
O O11 0.250000 0.250000 0.500000
O O12 0.123382 0.206730 0.395903
O O13 0.374174 0.266207 0.937589
O O14 0.911825 0.261337 0.502107
O O15 0.000000 0.272008 0.500000
O O16 0.750000 0.250000 0.000000
#
# Coordination Sequence:
#
# PCOD9211758 Si02
#       6
#     8   8   8   8   8   8
#     4  10  22  42  68  95 126 167 213 266 326 387
#     4  10  21  40  65  94 129 169 213 264 323 381
#     4  10  22  41  65  95 132 174 216 264 325 388
#     4  12  26  43  65  98 130 167 214 271 323 384
#     4  12  24  39  62  92 127 166 214 261 313 377
#     4  12  24  41  65  92 130 172 211 264 324 379
#
# _framework density 19.593681
#
# number of rings (size 3 to 8) (size 9 to 14) (size 15 to 20)
#    0.000    1.000    1.667    6.000    2.333    1.000 
#    0.000    0.000    0.000    2.000    0.000    0.000 
#    0.000    0.000    0.000    0.000    0.000    0.000 
#
# Total GULP energy -134041.299230 kJ/mol
# GULP energy per Si atom -5585.054135 kJ/mol
# Density = 1.954909 g / cm^3
# Si number density = 19.593681 Si / 1000 Ang^3
#
#
#
# Elastic Constant Matrix: (Units=GPa)
#
#
# Indices 1 2 3 4 5 6 
#
# 1 76.6962 50.7400 18.5935 0.0000 9.5576 0.0000
# 2 50.7400 130.9490 32.3520 0.0000 1.9762 0.0000
# 3 18.5935 32.3520 78.3844 0.0000 -7.8362 0.0000
# 4 0.0000 0.0000 0.0000 181.9102 0.0000 -6.5077
# 5 9.5576 1.9762 -7.8362 0.0000 36.4217 0.0000
# 6 0.0000 0.0000 0.0000 -6.5077 0.0000 41.5564
#
#
#
# Elastic Compliance Matrix: (Units=1/GPa)
#
#
# Indices 1 2 3 4 5 6 
#
# 1 0.018532 -0.006566 -0.002183 0.000000 -0.004977 0.000000
# 2 -0.006566 0.010886 -0.002884 0.000000 0.000512 0.000000
# 3 -0.002183 -0.002884 0.014858 0.000000 0.003926 0.000000
# 4 0.000000 0.000000 0.000000 0.005528 0.000000 0.000866
# 5 -0.004977 0.000512 0.003926 0.000000 0.029579 0.000000
# 6 0.000000 0.000000 0.000000 0.000866 0.000000 0.024199
#
#
# Mechanical properties :
#
#
# Convention : Reuss Voigt Hill
#
# Bulk Modulus (GPa) = 47.59955 54.37787 50.98871
# Shear Modulus (GPa) = 37.35445 64.26728 50.81087
#
# Velocity S-wave (km/s) = 4.37103 5.73334 5.09790
# Velocity P-wave (km/s) = 7.05837 8.46412 7.79301
#
# Compressibility (1/GPa) = 0.02100860
#
# Stress axis : x y z
#
# Youngs Moduli (GPa) = 53.96086 91.86393 67.30173
#
# Poissons Ratio (x) = 0.60320 0.14694
# Poissons Ratio (y) = 0.35432 0.19411
# Poissons Ratio (z) = 0.11782 0.26495
#
# Static dielectric constant tensor:
#      x y z
#    x 1.665500 0.000000 0.003310 
#    y 0.000000 1.717970 0.000000 
#    z 0.003310 0.000000 1.682560 
# 
# From -- ./inp_files/184819.got.cif
#   From: 2010.05.17/outbox.cif.g08.bks.cpg/sg12_93_cif.got.tgz:184819.got - 2010.06.03 13:09:07.
