data_PCOD9211201
_publ_section_title
;
Structure prediction by ZEFSAII (Michael W. Deem and Ramdas Pophale) SiO2 
 PCOD9211201
Probable space group: C 2/M
;
_chemical_formula_sum "Si O2"
_cell_formula_units_Z 34
_cell_length_a 14.212991
_cell_length_b 12.764245
_cell_length_c 12.528173
_cell_angle_alpha 90.000000
_cell_angle_beta 48.596269
_cell_angle_gamma 90.000000
_cell_volume 1704.782563
_symmetry_space_group_name_H-M "C 2/M"
_symmetry_group_IT_number 12
_symmetry_cell_setting 'monoclinic'
loop_
_space_group_symop_operation_xyz
x,y,z
-x,y,-z
-x,-y,-z
x,-y,z
1/2+x,1/2+y,z
1/2-x,1/2+y,-z
1/2-x,1/2-y,-z
1/2+x,1/2-y,z
loop_
_atom_site_type_symbol
_atom_site_label
_atom_site_fract_x
_atom_site_fract_y
_atom_site_fract_z
Si Si1 0.443953 0.779948 0.795580
Si Si2 0.652951 0.117740 0.768537
Si Si3 0.915799 0.117429 0.456315
Si Si4 0.500000 0.500000 0.000000
Si Si5 0.182993 0.187756 0.903884
O O1 0.527505 0.863759 0.795169
O O2 0.534974 0.706155 0.658810
O O3 0.331614 0.826725 0.809206
O O4 0.377222 0.707227 0.934432
O O5 0.772939 0.130034 0.601055
O O6 0.662355 0.206995 0.850733
O O7 0.657699 0.000000 0.810099
O O8 0.000000 0.121528 0.500000
O O9 0.931553 0.000000 0.397705
O O10 0.608844 0.592017 0.909096
#
# Coordination Sequence:
#
# PCOD9211201 Si02
#       5
#     8   8   8   2   8
#     4  11  23  41  64  97 125 170 218 265 320 380
#     4  11  23  44  67  99 131 168 216 272 324 383
#     4  10  21  39  68  96 131 173 215 265 323 388
#     4  12  24  48  58  94 136 176 210 264 338 376
#     4  11  25  41  65  94 130 172 214 268 320 389
#
# _framework density 19.943892000000002
#
# number of rings (size 3 to 8) (size 9 to 14) (size 15 to 20)
#    0.000    1.176    4.706    0.706    3.294    1.882 
#    4.235    0.000    0.000    2.118    0.000    0.000 
#    0.000    0.000    0.000    0.000    0.000    0.000 
#
# Total GULP energy -94734.179457 kJ/mol
# GULP energy per Si atom -5572.598792 kJ/mol
# Density = 1.989850 g / cm^3
# Si number density = 19.943892 Si / 1000 Ang^3
#
#
#
# Elastic Constant Matrix: (Units=GPa)
#
#
# Indices 1 2 3 4 5 6 
#
# 1 99.5650 33.2693 15.6809 0.0000 -32.7197 0.0000
# 2 33.2693 97.9551 34.0104 0.0000 -4.3320 0.0000
# 3 15.6809 34.0104 52.2604 0.0000 -10.7418 0.0000
# 4 0.0000 0.0000 0.0000 30.9281 0.0000 -7.2368
# 5 -32.7197 -4.3320 -10.7418 0.0000 35.2233 0.0000
# 6 0.0000 0.0000 0.0000 -7.2368 0.0000 -0.3214
#
#
#
# Elastic Compliance Matrix: (Units=1/GPa)
#
#
# Indices 1 2 3 4 5 6 
#
# 1 0.016681 -0.005613 0.001804 0.000000 0.015355 0.000000
# 2 -0.005613 0.015115 -0.009433 0.000000 -0.006232 0.000000
# 3 0.001804 -0.009433 0.026500 0.000000 0.008597 0.000000
# 4 0.000000 0.000000 0.000000 0.005158 0.000000 -0.116139
# 5 0.015355 -0.006232 0.008597 0.000000 0.044510 0.000000
# 6 0.000000 0.000000 0.000000 -0.116139 0.000000 -0.496349
#
#
# Mechanical properties :
#
#
# Convention : Reuss Voigt Hill
#
# Bulk Modulus (GPa) = 31.43553 46.18907 38.81230
# Shear Modulus (GPa) = -14.23298 24.28732 5.02717
#
# Velocity S-wave (km/s) = -2.67432 3.49346 1.58938
# Velocity P-wave (km/s) = 2.50204 6.28348 4.78238
#
# Compressibility (1/GPa) = 0.03181114
#
# Stress axis : x y z
#
# Youngs Moduli (GPa) = 59.94734 66.16065 37.73613
#
# Poissons Ratio (x) = 0.37134 -0.06806
# Poissons Ratio (y) = 0.33647 0.35597
# Poissons Ratio (z) = -0.10812 0.62411
#
# Static dielectric constant tensor:
#      x y z
#    x 1.730040 0.000000 -0.011010 
#    y 0.000000 1.680100 0.000000 
#    z -0.011010 0.000000 1.699350 
# 
# From -- ./inp_files/140031.got.cif
#   From: 2010.05.17/outbox.cif.g08.bks.cpg/sg12_71_cif.got.tgz:140031.got - 2010.06.03 13:09:07.
