data_PCOD9211352
_publ_section_title
;
Structure prediction by ZEFSAII (Michael W. Deem and Ramdas Pophale) SiO2 
 PCOD9211352
Probable space group: C 2/M
;
_chemical_formula_sum "Si O2"
_cell_formula_units_Z 52
_cell_length_a 13.283689
_cell_length_b 24.655460
_cell_length_c 20.242411
_cell_angle_alpha 90.000000
_cell_angle_beta 156.139144
_cell_angle_gamma 90.000000
_cell_volume 2681.826624
_symmetry_space_group_name_H-M "C 2/M"
_symmetry_group_IT_number 12
_symmetry_cell_setting 'monoclinic'
loop_
_space_group_symop_operation_xyz
x,y,z
-x,y,-z
-x,-y,-z
x,-y,z
1/2+x,1/2+y,z
1/2-x,1/2+y,-z
1/2-x,1/2-y,-z
1/2+x,1/2-y,z
loop_
_atom_site_type_symbol
_atom_site_label
_atom_site_fract_x
_atom_site_fract_y
_atom_site_fract_z
Si Si1 0.778520 0.878178 0.411574
Si Si2 0.436720 0.679675 0.156692
Si Si3 0.085430 0.197018 0.391465
Si Si4 0.441911 0.249142 0.892130
Si Si5 0.870536 0.589085 0.082109
Si Si6 0.738243 0.000000 0.876473
Si Si7 0.698478 0.500000 0.526175
Si Si8 0.638814 0.000000 0.153448
O O1 0.799423 0.850233 0.494513
O O2 0.534168 0.867859 0.221662
O O3 0.000000 0.856507 0.500000
O O4 0.809689 0.943286 0.438708
O O5 0.582459 0.682126 0.312705
O O6 0.572637 0.707383 0.175808
O O7 0.347193 0.619227 0.086428
O O8 0.180008 0.712277 0.017141
O O9 0.250000 0.250000 0.500000
O O10 0.805696 0.212787 0.247348
O O11 0.500000 0.273569 0.000000
O O12 0.774368 0.550478 0.081762
O O13 0.043878 0.552796 0.137713
O O14 0.491921 0.000000 0.681538
O O15 0.000000 0.000000 0.000000
O O16 0.440521 0.500000 0.330059
O O17 0.500000 0.000000 0.000000
#
# Coordination Sequence:
#
# PCOD9211352 Si02
#       8
#     8   8   8   8   8   4   4   4
#     4  11  21  36  65  91 129 160 206 268 331 386
#     4  10  22  41  59  87 123 157 215 256 306 384
#     4  11  26  39  60  91 127 168 216 259 326 370
#     4   9  21  39  62  82 117 164 205 255 307 369
#     4  10  22  37  64  93 121 164 208 258 329 380
#     4   9  21  42  64  91 124 167 216 255 302 397
#     4  10  21  40  62 101 127 159 215 268 331 402
#     4  11  23  36  66  99 137 157 206 273 343 403
#
# _framework density 19.389769999999999
#
# number of rings (size 3 to 8) (size 9 to 14) (size 15 to 20)
#    0.000    1.846    1.538    1.615   10.769    1.231 
#    2.769    0.000    0.000    1.846    0.000    0.000 
#    0.000    0.000    0.000    0.000    0.000    0.000 
#
# Total GULP energy -144973.530135 kJ/mol
# GULP energy per Si atom -5575.905005 kJ/mol
# Density = 1.934564 g / cm^3
# Si number density = 19.389770 Si / 1000 Ang^3
#
#
#
# Elastic Constant Matrix: (Units=GPa)
#
#
# Indices 1 2 3 4 5 6 
#
# 1 110.7981 25.2968 57.2802 -0.0075 -17.3878 -0.0052
# 2 25.2968 61.4536 27.6319 0.0046 -23.4280 -0.0034
# 3 57.2802 27.6319 119.0121 0.1071 -29.0038 -0.0242
# 4 -0.0075 0.0046 0.1071 36.3974 -0.0077 -10.1545
# 5 -17.3878 -23.4280 -29.0038 -0.0077 40.1720 -0.0029
# 6 -0.0052 -0.0034 -0.0242 -10.1545 -0.0029 9.8111
#
#
#
# Elastic Compliance Matrix: (Units=1/GPa)
#
#
# Indices 1 2 3 4 5 6 
#
# 1 0.012405 -0.002732 -0.005359 0.000023 -0.000093 0.000016
# 2 -0.002732 0.022052 -0.001164 0.000006 0.010838 0.000013
# 3 -0.005359 -0.001164 0.012768 -0.000040 0.006220 -0.000012
# 4 0.000023 0.000006 -0.000040 0.038629 -0.000005 0.039981
# 5 -0.000093 0.010838 0.006220 -0.000005 0.035664 0.000024
# 6 0.000016 0.000013 -0.000012 0.039981 0.000024 0.143306
#
#
# Mechanical properties :
#
#
# Convention : Reuss Voigt Hill
#
# Bulk Modulus (GPa) = 34.82498 56.85353 45.83926
# Shear Modulus (GPa) = 17.07039 29.34644 23.20841
#
# Velocity S-wave (km/s) = 2.97034 3.89459 3.46344
# Velocity P-wave (km/s) = 5.45558 7.04336 6.29969
#
# Compressibility (1/GPa) = 0.02871502
#
# Stress axis : x y z
#
# Youngs Moduli (GPa) = 80.61218 45.34712 78.32219
#
# Poissons Ratio (x) = 0.12391 0.41972
# Poissons Ratio (y) = 0.22027 0.09114
# Poissons Ratio (z) = 0.43199 0.05277
#
# Static dielectric constant tensor:
#      x y z
#    x 1.664130 -0.000060 0.005940 
#    y -0.000060 1.685270 0.000110 
#    z 0.005940 0.000110 1.734180 
# 
# From -- ./inp_files/265989.got.cif
#   From: 2010.05.17/outbox.cif.g08.bks.cpg/sg12_133_cif.got.tgz:265989.got - 2010.06.03 13:09:07.
