data_PCOD9211916
_publ_section_title
;
Structure prediction by ZEFSAII (Michael W. Deem and Ramdas Pophale) SiO2 
 PCOD9211916
Probable space group: C 2/M
;
_chemical_formula_sum "Si O2"
_cell_formula_units_Z 32
_cell_length_a 19.176892
_cell_length_b 18.702964
_cell_length_c 7.959260
_cell_angle_alpha 90.000000
_cell_angle_beta 29.234597
_cell_angle_gamma 90.000000
_cell_volume 1394.200237
_symmetry_space_group_name_H-M "C 2/M"
_symmetry_group_IT_number 12
_symmetry_cell_setting 'monoclinic'
loop_
_space_group_symop_operation_xyz
x,y,z
-x,y,-z
-x,-y,-z
x,-y,z
1/2+x,1/2+y,z
1/2-x,1/2+y,-z
1/2-x,1/2-y,-z
1/2+x,1/2-y,z
loop_
_atom_site_type_symbol
_atom_site_label
_atom_site_fract_x
_atom_site_fract_y
_atom_site_fract_z
Si Si1 0.566189 0.077800 0.679148
Si Si2 0.930268 0.806279 0.330434
Si Si3 0.226552 0.822611 0.870241
Si Si4 0.221419 0.587004 0.899005
O O1 0.705911 0.124065 0.406982
O O2 0.604790 0.000000 0.530143
O O3 0.500000 0.071612 0.000000
O O4 0.437545 0.105809 0.833198
O O5 0.820600 0.747710 0.636914
O O6 0.841761 0.880282 0.522515
O O7 0.000000 0.789981 0.000000
O O8 0.063247 0.808926 0.177162
O O9 0.254233 0.868516 0.980497
O O10 0.230993 0.500000 0.890770
#
# Coordination Sequence:
#
# PCOD9211916 Si02
#       4
#     8   8   8   8
#     4  10  21  40  67  97 131 172 217 266 321 384
#     4  12  26  44  68  96 130 172 219 271 322 383
#     4  12  24  42  66  96 132 170 216 268 326 385
#     4  11  25  44  67  98 133 170 215 267 325 386
#
# _framework density 22.952227000000001
#
# number of rings (size 3 to 8) (size 9 to 14) (size 15 to 20)
#    0.000    0.750    0.000    7.500    0.000    7.500 
#    0.000    0.000    0.000    0.000    0.000    0.000 
#    0.000    0.000    0.000    0.000    0.000    0.000 
#
# Total GULP energy -89375.154797 kJ/mol
# GULP energy per Si atom -5585.947175 kJ/mol
# Density = 2.289999 g / cm^3
# Si number density = 22.952227 Si / 1000 Ang^3
#
#
#
# Elastic Constant Matrix: (Units=GPa)
#
#
# Indices 1 2 3 4 5 6 
#
# 1 111.0803 29.6938 23.3421 0.0000 -6.3986 0.0000
# 2 29.6938 98.6848 51.4212 0.0001 -9.1073 0.0000
# 3 23.3421 51.4212 103.4410 0.0001 -17.5993 0.0000
# 4 0.0000 0.0001 0.0001 60.3716 0.0000 -7.5843
# 5 -6.3986 -9.1073 -17.5993 0.0000 41.3406 0.0000
# 6 0.0000 0.0000 0.0000 -7.5843 0.0000 28.0318
#
#
#
# Elastic Compliance Matrix: (Units=1/GPa)
#
#
# Indices 1 2 3 4 5 6 
#
# 1 0.009882 -0.002442 -0.000914 0.000000 0.000603 0.000000
# 2 -0.002442 0.014280 -0.006551 0.000000 -0.000021 0.000000
# 3 -0.000914 -0.006551 0.013865 0.000000 0.004318 0.000000
# 4 0.000000 0.000000 0.000000 0.017147 0.000000 0.004639
# 5 0.000603 -0.000021 0.004318 0.000000 0.026116 0.000000
# 6 0.000000 0.000000 0.000000 0.004639 0.000000 0.036929
#
#
# Mechanical properties :
#
#
# Convention : Reuss Voigt Hill
#
# Bulk Modulus (GPa) = 54.90459 58.01337 56.45898
# Shear Modulus (GPa) = 34.69764 39.86540 37.28152
#
# Velocity S-wave (km/s) = 3.89232 4.17212 4.03464
# Velocity P-wave (km/s) = 6.64631 6.96702 6.80855
#
# Compressibility (1/GPa) = 0.01821341
#
# Stress axis : x y z
#
# Youngs Moduli (GPa) = 101.19494 70.03003 72.12563
#
# Poissons Ratio (x) = 0.17100 0.06589
# Poissons Ratio (y) = 0.24710 0.47250
# Poissons Ratio (z) = 0.09245 0.45877
#
# Static dielectric constant tensor:
#      x y z
#    x 1.867430 0.000000 0.093050 
#    y 0.000000 1.909290 0.000000 
#    z 0.093050 0.000000 1.881020 
# 
# From -- ./inp_files/37731.got.cif
#   From: 2010.05.17/outbox.cif.g08.bks.cpg/sg12_19_cif.got.tgz:37731.got - 2010.06.03 13:09:07.
