data_PCOD9211887
_publ_section_title
;
Structure prediction by ZEFSAII (Michael W. Deem and Ramdas Pophale) SiO2 
 PCOD9211887
Probable space group: C 2/M
;
_chemical_formula_sum "Si O2"
_cell_formula_units_Z 40
_cell_length_a 17.034181
_cell_length_b 15.705546
_cell_length_c 11.076167
_cell_angle_alpha 90.000000
_cell_angle_beta 43.805414
_cell_angle_gamma 90.000000
_cell_volume 2051.174087
_symmetry_space_group_name_H-M "C 2/M"
_symmetry_group_IT_number 12
_symmetry_cell_setting 'monoclinic'
loop_
_space_group_symop_operation_xyz
x,y,z
-x,y,-z
-x,-y,-z
x,-y,z
1/2+x,1/2+y,z
1/2-x,1/2+y,-z
1/2-x,1/2-y,-z
1/2+x,1/2-y,z
loop_
_atom_site_type_symbol
_atom_site_label
_atom_site_fract_x
_atom_site_fract_y
_atom_site_fract_z
Si Si1 0.397537 0.333995 0.530643
Si Si2 0.830575 0.097296 0.223869
Si Si3 0.303573 0.092322 0.387703
Si Si4 0.461934 0.747245 0.209848
Si Si5 0.718074 0.736134 0.897357
O O1 0.500000 0.367433 0.500000
O O2 0.314664 0.399419 0.554097
O O3 0.450888 0.276797 0.363873
O O4 0.311336 0.280795 0.710208
O O5 0.729180 0.097047 0.434518
O O6 0.918666 0.162966 0.187952
O O7 0.792478 0.139600 0.140638
O O8 0.869229 0.000000 0.168582
O O9 0.379033 0.174163 0.276619
O O10 0.355650 0.000000 0.304350
O O11 0.589180 0.769971 0.031920
O O12 0.750000 0.750000 0.000000
#
# Coordination Sequence:
#
# PCOD9211887 Si02
#       5
#     8   8   8   8   8
#     4  11  21  40  61  89 127 163 208 256 314 369
#     4  10  21  40  67  95 121 158 214 265 305 362
#     4  10  21  40  67  94 122 167 214 255 311 369
#     4  11  21  39  67  90 124 165 209 259 312 364
#     4  12  23  37  63  92 127 169 201 249 322 373
#
# _framework density 19.501027000000001
#
# number of rings (size 3 to 8) (size 9 to 14) (size 15 to 20)
#    0.000    1.200    6.000    1.800    0.000    2.000 
#    0.000    4.000    0.000    3.600    0.000    0.000 
#    0.000    0.000    0.000    0.000    0.000    0.000 
#
# Total GULP energy -111557.543812 kJ/mol
# GULP energy per Si atom -5577.877191 kJ/mol
# Density = 1.945664 g / cm^3
# Si number density = 19.501027 Si / 1000 Ang^3
#
#
#
# Elastic Constant Matrix: (Units=GPa)
#
#
# Indices 1 2 3 4 5 6 
#
# 1 116.4086 58.7270 31.2633 0.0000 11.4953 0.0000
# 2 58.7270 114.8207 36.5389 0.0000 -0.0998 0.0000
# 3 31.2633 36.5389 108.6934 0.0000 11.3513 0.0000
# 4 0.0000 0.0000 0.0000 7.0014 0.0000 13.2428
# 5 11.4953 -0.0998 11.3513 0.0000 42.4970 0.0000
# 6 0.0000 0.0000 0.0000 13.2428 0.0000 7.2361
#
#
#
# Elastic Compliance Matrix: (Units=1/GPa)
#
#
# Indices 1 2 3 4 5 6 
#
# 1 0.012154 -0.005829 -0.001226 0.000000 -0.002974 0.000000
# 2 -0.005829 0.012583 -0.002799 0.000000 0.002354 0.000000
# 3 -0.001226 -0.002799 0.010760 0.000000 -0.002549 0.000000
# 4 0.000000 0.000000 0.000000 -0.058025 0.000000 0.106190
# 5 -0.002974 0.002354 -0.002549 0.000000 0.025022 0.000000
# 6 0.000000 0.000000 0.000000 0.106190 0.000000 -0.056143
#
#
# Mechanical properties :
#
#
# Convention : Reuss Voigt Hill
#
# Bulk Modulus (GPa) = 63.33406 65.88680 64.61043
# Shear Modulus (GPa) = -174.35519 25.57315 -74.39102
#
# Velocity S-wave (km/s) = -9.46585 3.62522 -6.18305
# Velocity P-wave (km/s) = 9.32319 7.16817 4.21541
#
# Compressibility (1/GPa) = 0.01578929
#
# Stress axis : x y z
#
# Youngs Moduli (GPa) = 82.27824 79.46999 92.93654
#
# Poissons Ratio (x) = 0.46322 0.11392
# Poissons Ratio (y) = 0.47959 0.26017
# Poissons Ratio (z) = 0.10086 0.22247
#
# Static dielectric constant tensor:
#      x y z
#    x 1.713470 0.000000 0.019890 
#    y 0.000000 1.667760 0.000000 
#    z 0.019890 0.000000 1.705910 
# 
# From -- ./inp_files/141823.got.cif
#   From: 2010.05.17/outbox.cif.g08.bks.cpg/sg12_71_cif.got.tgz:141823.got - 2010.06.03 13:09:07.
