data_PCOD9211736
_publ_section_title
;
Structure prediction by ZEFSAII (Michael W. Deem and Ramdas Pophale) SiO2 
 PCOD9211736
Probable space group: C 2/M
;
_chemical_formula_sum "Si O2"
_cell_formula_units_Z 56
_cell_length_a 18.169799
_cell_length_b 17.916725
_cell_length_c 9.132655
_cell_angle_alpha 90.000000
_cell_angle_beta 111.743724
_cell_angle_gamma 90.000000
_cell_volume 2761.540725
_symmetry_space_group_name_H-M "C 2/M"
_symmetry_group_IT_number 12
_symmetry_cell_setting 'monoclinic'
loop_
_space_group_symop_operation_xyz
x,y,z
-x,y,-z
-x,-y,-z
x,-y,z
1/2+x,1/2+y,z
1/2-x,1/2+y,-z
1/2-x,1/2-y,-z
1/2+x,1/2-y,z
loop_
_atom_site_type_symbol
_atom_site_label
_atom_site_fract_x
_atom_site_fract_y
_atom_site_fract_z
Si Si1 0.271751 0.173169 0.172371
Si Si2 0.898828 0.588958 0.064620
Si Si3 0.372327 0.415421 0.447295
Si Si4 0.855193 0.823474 0.153212
Si Si5 0.577937 0.135898 0.245651
Si Si6 0.474568 0.721752 0.640673
Si Si7 0.719207 0.917916 0.535240
O O1 0.335155 0.125591 0.124928
O O2 0.301326 0.258330 0.185489
O O3 0.271514 0.144307 0.335784
O O4 0.187265 0.162435 0.031456
O O5 0.888023 0.500000 0.042780
O O6 0.987977 0.605811 0.185050
O O7 0.893718 0.626389 0.900369
O O8 0.402697 0.500000 0.481138
O O9 0.358871 0.391665 0.269253
O O10 0.429529 0.354194 0.563791
O O11 0.288826 0.411678 0.468491
O O12 0.944890 0.794199 0.211752
O O13 0.576562 0.220239 0.304813
O O14 0.636307 0.090604 0.392243
O O15 0.500000 0.755186 0.500000
O O16 0.724694 0.000000 0.609342
#
# Coordination Sequence:
#
# PCOD9211736 Si02
#       7
#     8   8   8   8   8   8   8
#     4  11  23  40  61  91 125 162 203 248 300 363
#     4  11  23  40  61  93 127 164 204 244 296 367
#     4  10  23  42  64  89 119 159 209 260 308 360
#     4  10  22  40  63  88 121 159 206 251 302 363
#     4  11  22  38  64  89 125 161 203 243 299 366
#     4  10  21  40  65  93 120 155 208 258 302 359
#     4  11  23  39  59  89 125 160 199 248 305 360
#
# _framework density 20.278534000000001
#
# number of rings (size 3 to 8) (size 9 to 14) (size 15 to 20)
#    0.000    1.429    1.429    4.714    0.000    9.429 
#    0.000    1.429    0.000    1.714    0.000    0.000 
#    0.000    0.000    0.000    0.000    0.000    0.000 
#
# Total GULP energy -156567.726655 kJ/mol
# GULP energy per Si atom -5591.704523 kJ/mol
# Density = 2.023238 g / cm^3
# Si number density = 20.278534 Si / 1000 Ang^3
#
#
#
# Elastic Constant Matrix: (Units=GPa)
#
#
# Indices 1 2 3 4 5 6 
#
# 1 36.5346 7.2436 13.6673 0.0000 10.1217 0.0000
# 2 7.2436 88.6417 16.6636 0.0000 -7.7476 0.0000
# 3 13.6673 16.6636 76.6324 0.0000 22.5151 0.0000
# 4 0.0000 0.0000 0.0000 16.2444 0.0000 -1.9922
# 5 10.1217 -7.7476 22.5151 0.0000 31.7066 0.0000
# 6 0.0000 0.0000 0.0000 -1.9922 0.0000 17.9209
#
#
#
# Elastic Compliance Matrix: (Units=1/GPa)
#
#
# Indices 1 2 3 4 5 6 
#
# 1 0.031324 -0.002927 -0.002277 0.000000 -0.009098 0.000000
# 2 -0.002927 0.012988 -0.004434 0.000000 0.007257 0.000000
# 3 -0.002277 -0.004434 0.018354 0.000000 -0.013390 0.000000
# 4 0.000000 0.000000 0.000000 0.062410 0.000000 0.006938
# 5 -0.009098 0.007257 -0.013390 0.000000 0.045725 0.000000
# 6 0.000000 0.000000 0.000000 0.006938 0.000000 0.056572
#
#
# Mechanical properties :
#
#
# Convention : Reuss Voigt Hill
#
# Bulk Modulus (GPa) = 23.04725 30.77307 26.91016
# Shear Modulus (GPa) = 19.14876 24.12334 21.63605
#
# Velocity S-wave (km/s) = 3.07626 3.45280 3.26995
# Velocity P-wave (km/s) = 4.89978 5.57709 5.24937
#
# Compressibility (1/GPa) = 0.04338912
#
# Stress axis : x y z
#
# Youngs Moduli (GPa) = 31.92446 76.99144 54.48485
#
# Poissons Ratio (x) = 0.22534 0.12407
# Poissons Ratio (y) = 0.09344 0.24161
# Poissons Ratio (z) = 0.07270 0.34142
#
# Static dielectric constant tensor:
#      x y z
#    x 1.712320 0.000000 0.011920 
#    y 0.000000 1.727140 0.000000 
#    z 0.011920 0.000000 1.691890 
# 
# From -- ./inp_files/75994.got.cif
#   From: 2010.05.17/outbox.cif.g08.bks.cpg/sg12_38_cif.got.tgz:75994.got - 2010.06.03 13:09:07.
