data_PCOD9211747
_publ_section_title
;
Structure prediction by ZEFSAII (Michael W. Deem and Ramdas Pophale) SiO2 
 PCOD9211747
Probable space group: C 2/M
;
_chemical_formula_sum "Si O2"
_cell_formula_units_Z 48
_cell_length_a 19.978184
_cell_length_b 8.632456
_cell_length_c 13.969133
_cell_angle_alpha 90.000000
_cell_angle_beta 89.735375
_cell_angle_gamma 90.000000
_cell_volume 2409.102079
_symmetry_space_group_name_H-M "C 2/M"
_symmetry_group_IT_number 12
_symmetry_cell_setting 'monoclinic'
loop_
_space_group_symop_operation_xyz
x,y,z
-x,y,-z
-x,-y,-z
x,-y,z
1/2+x,1/2+y,z
1/2-x,1/2+y,-z
1/2-x,1/2-y,-z
1/2+x,1/2-y,z
loop_
_atom_site_type_symbol
_atom_site_label
_atom_site_fract_x
_atom_site_fract_y
_atom_site_fract_z
Si Si1 0.019601 0.315175 0.300143
Si Si2 0.951134 0.688754 0.915916
Si Si3 0.203342 0.686408 0.084298
Si Si4 0.614201 0.682655 0.616924
Si Si5 0.343036 0.182389 0.586052
Si Si6 0.765630 0.317059 0.278620
O O1 0.005742 0.500000 0.303402
O O2 0.023954 0.264732 0.189608
O O3 0.091431 0.291405 0.348894
O O4 0.961206 0.229097 0.356719
O O5 0.951609 0.500000 0.916690
O O6 0.873923 0.735926 0.929282
O O7 0.000000 0.742396 0.000000
O O8 0.205012 0.500000 0.085060
O O9 0.230549 0.747894 0.185132
O O10 0.250000 0.750000 0.000000
O O11 0.620220 0.500000 0.603196
O O12 0.638012 0.768040 0.520648
O O13 0.663186 0.738824 0.701007
O O14 0.282152 0.277376 0.631356
O O15 0.326337 0.000000 0.589542
O O16 0.773905 0.500000 0.268291
#
# Coordination Sequence:
#
# PCOD9211747 Si02
#       6
#     8   8   8   8   8   8
#     4  10  21  40  65  93 128 170 211 256 314 381
#     4   9  19  38  65  94 125 164 207 250 307 377
#     4  11  23  42  66  97 130 168 211 262 316 375
#     4  12  26  41  61  94 131 167 212 267 317 379
#     4  11  22  42  67  93 127 168 213 263 318 383
#     4  12  25  43  66  92 126 171 215 265 322 379
#
# _framework density 19.924434999999999
#
# number of rings (size 3 to 8) (size 9 to 14) (size 15 to 20)
#    0.000    1.167    1.667    5.000    2.333    3.333 
#    0.000    0.000    0.000    2.500    0.000    0.000 
#    0.000    0.000    0.000    0.000    0.000    0.000 
#
# Total GULP energy -134287.741117 kJ/mol
# GULP energy per Si atom -5595.322547 kJ/mol
# Density = 1.987909 g / cm^3
# Si number density = 19.924435 Si / 1000 Ang^3
#
#
#
# Elastic Constant Matrix: (Units=GPa)
#
#
# Indices 1 2 3 4 5 6 
#
# 1 15.2008 5.5575 -0.6392 0.0000 -2.2490 0.0000
# 2 5.5575 32.7475 -3.7966 0.0000 9.3217 0.0000
# 3 -0.6392 -3.7966 83.9032 0.0000 4.5018 0.0000
# 4 0.0000 0.0000 0.0000 31.1110 0.0000 -2.9239
# 5 -2.2490 9.3217 4.5018 0.0000 38.6540 0.0000
# 6 0.0000 0.0000 0.0000 -2.9239 0.0000 32.6862
#
#
#
# Elastic Compliance Matrix: (Units=1/GPa)
#
#
# Indices 1 2 3 4 5 6 
#
# 1 0.072225 -0.014529 -0.000524 0.000000 0.007767 0.000000
# 2 -0.014529 0.036020 0.002043 0.000000 -0.009770 0.000000
# 3 -0.000524 0.002043 0.012111 0.000000 -0.001934 0.000000
# 4 0.000000 0.000000 0.000000 0.032415 0.000000 0.002900
# 5 0.007767 -0.009770 -0.001934 0.000000 0.028904 0.000000
# 6 0.000000 0.000000 0.000000 0.002900 0.000000 0.030853
#
#
# Mechanical properties :
#
#
# Convention : Reuss Voigt Hill
#
# Bulk Modulus (GPa) = 10.60022 14.89941 12.74982
# Shear Modulus (GPa) = 18.51900 29.20557 23.86228
#
# Velocity S-wave (km/s) = 3.05202 3.83275 3.46445
# Velocity P-wave (km/s) = 4.21325 5.20393 4.73457
#
# Compressibility (1/GPa) = 0.09433763
#
# Stress axis : x y z
#
# Youngs Moduli (GPa) = 13.84560 27.76217 82.57142
#
# Poissons Ratio (x) = 0.40335 0.04326
# Poissons Ratio (y) = 0.20116 -0.16873
# Poissons Ratio (z) = 0.00725 -0.05673
#
# Static dielectric constant tensor:
#      x y z
#    x 1.690130 0.000000 0.028020 
#    y 0.000000 1.669120 0.000000 
#    z 0.028020 0.000000 1.707380 
# 
# From -- ./inp_files/221586.got.cif
#   From: 2010.05.17/outbox.cif.g08.bks.cpg/sg12_111_cif.got.tgz:221586.got - 2010.06.03 13:09:07.
