data_PCOD9211076
_publ_section_title
;
Structure prediction by ZEFSAII (Michael W. Deem and Ramdas Pophale) SiO2 
 PCOD9211076
Probable space group: C 2/M
;
_chemical_formula_sum "Si O2"
_cell_formula_units_Z 44
_cell_length_a 5.216177
_cell_length_b 24.806788
_cell_length_c 14.973417
_cell_angle_alpha 90.000000
_cell_angle_beta 84.102325
_cell_angle_gamma 90.000000
_cell_volume 1927.253945
_symmetry_space_group_name_H-M "C 2/M"
_symmetry_group_IT_number 12
_symmetry_cell_setting 'monoclinic'
loop_
_space_group_symop_operation_xyz
x,y,z
-x,y,-z
-x,-y,-z
x,-y,z
1/2+x,1/2+y,z
1/2-x,1/2+y,-z
1/2-x,1/2-y,-z
1/2+x,1/2-y,z
loop_
_atom_site_type_symbol
_atom_site_label
_atom_site_fract_x
_atom_site_fract_y
_atom_site_fract_z
Si Si1 0.544669 0.371683 0.812745
Si Si2 0.176707 0.228358 0.100396
Si Si3 0.838767 0.440896 0.414689
Si Si4 0.533019 0.062397 0.786526
Si Si5 0.309067 0.286541 0.347849
Si Si6 0.500000 0.350498 0.500000
O O1 0.431100 0.331283 0.891037
O O2 0.796266 0.404000 0.834397
O O3 0.625466 0.331785 0.728732
O O4 0.311045 0.411093 0.794258
O O5 0.443777 0.234194 0.143350
O O6 0.250000 0.250000 0.000000
O O7 0.707092 0.500000 0.412232
O O8 0.651298 0.390601 0.428960
O O9 0.000000 0.440668 0.500000
O O10 0.006809 0.435906 0.319701
O O11 0.530907 0.000000 0.814349
O O12 0.539926 0.242986 0.341281
O O13 0.317212 0.314813 0.444649
#
# Coordination Sequence:
#
# PCOD9211076 Si02
#       6
#     8   8   8   8   8   4
#     4  12  22  42  66  91 131 170 207 271 324 373
#     4  10  21  39  66 103 134 162 208 252 312 382
#     4  10  22  38  59  84 114 162 228 286 328 377
#     4  11  24  41  63  95 126 168 220 269 328 391
#     4  12  26  40  57  83 120 167 217 261 315 387
#     4  12  23  38  58  76 120 164 219 264 346 354
#
# _framework density 22.830411000000002
#
# number of rings (size 3 to 8) (size 9 to 14) (size 15 to 20)
#    0.000    0.909    1.818    5.727    2.545    0.000 
#    0.000    0.000    0.000    0.000    0.000   50.909 
#    0.000    0.000    0.000    0.000    0.000    0.000 
#
# Total GULP energy -123100.172726 kJ/mol
# GULP energy per Si atom -5595.462397 kJ/mol
# Density = 2.277845 g / cm^3
# Si number density = 22.830411 Si / 1000 Ang^3
#
#
#
# Elastic Constant Matrix: (Units=GPa)
#
#
# Indices 1 2 3 4 5 6 
#
# 1 89.8379 27.9851 2.9378 0.0000 -23.1218 0.0000
# 2 27.9851 134.2809 29.6820 0.0000 -16.9738 0.0000
# 3 2.9378 29.6820 52.7530 0.0000 -2.0284 0.0000
# 4 0.0000 0.0000 0.0000 25.3539 0.0000 -6.6787
# 5 -23.1218 -16.9738 -2.0284 0.0000 23.1575 0.0000
# 6 0.0000 0.0000 0.0000 -6.6787 0.0000 36.5887
#
#
#
# Elastic Compliance Matrix: (Units=1/GPa)
#
#
# Indices 1 2 3 4 5 6 
#
# 1 0.015222 -0.001505 0.000543 0.000000 0.014143 0.000000
# 2 -0.001505 0.009519 -0.005079 0.000000 0.005030 0.000000
# 3 0.000543 -0.005079 0.021735 0.000000 -0.001277 0.000000
# 4 0.000000 0.000000 0.000000 0.041434 0.000000 0.007563
# 5 0.014143 0.005030 -0.001277 0.000000 0.060879 0.000000
# 6 0.000000 0.000000 0.000000 0.007563 0.000000 0.028711
#
#
# Mechanical properties :
#
#
# Convention : Reuss Voigt Hill
#
# Bulk Modulus (GPa) = 29.07443 44.23128 36.65285
# Shear Modulus (GPa) = 24.86985 31.43781 28.15383
#
# Velocity S-wave (km/s) = 3.30408 3.71484 3.51546
# Velocity P-wave (km/s) = 5.22671 6.14947 5.70677
#
# Compressibility (1/GPa) = 0.03439448
#
# Stress axis : x y z
#
# Youngs Moduli (GPa) = 65.69344 105.05171 46.00954
#
# Poissons Ratio (x) = 0.15806 -0.02497
# Poissons Ratio (y) = 0.09884 0.23367
# Poissons Ratio (z) = -0.03565 0.53354
#
# Static dielectric constant tensor:
#      x y z
#    x 1.946790 0.000000 0.069400 
#    y 0.000000 1.861820 0.000000 
#    z 0.069400 0.000000 1.952810 
# 
# From -- ./inp_files/252910.got.cif
#   From: 2010.05.17/outbox.cif.g08.bks.cpg/sg12_127_cif.got.tgz:252910.got - 2010.06.03 13:09:07.
