data_PCOD9211456
_publ_section_title
;
Structure prediction by ZEFSAII (Michael W. Deem and Ramdas Pophale) SiO2 
 PCOD9211456
Probable space group: C 2/M
;
_chemical_formula_sum "Si O2"
_cell_formula_units_Z 56
_cell_length_a 5.511385
_cell_length_b 27.644942
_cell_length_c 19.150004
_cell_angle_alpha 90.000000
_cell_angle_beta 106.547019
_cell_angle_gamma 90.000000
_cell_volume 2796.897414
_symmetry_space_group_name_H-M "C 2/M"
_symmetry_group_IT_number 12
_symmetry_cell_setting 'monoclinic'
loop_
_space_group_symop_operation_xyz
x,y,z
-x,y,-z
-x,-y,-z
x,-y,z
1/2+x,1/2+y,z
1/2-x,1/2+y,-z
1/2-x,1/2-y,-z
1/2+x,1/2-y,z
loop_
_atom_site_type_symbol
_atom_site_label
_atom_site_fract_x
_atom_site_fract_y
_atom_site_fract_z
Si Si1 0.789376 0.613667 0.042936
Si Si2 0.092510 0.383144 0.673438
Si Si3 0.300264 0.221593 0.102379
Si Si4 0.736494 0.553748 0.566610
Si Si5 0.517283 0.221897 0.722302
Si Si6 0.006714 0.947602 0.701458
Si Si7 0.491025 0.055575 0.191543
O O1 0.787871 0.670192 0.063758
O O2 0.877975 0.583116 0.116999
O O3 0.500000 0.600487 0.000000
O O4 0.000000 0.606340 0.000000
O O5 0.384670 0.394707 0.685514
O O6 0.955974 0.407491 0.595722
O O7 0.011378 0.329407 0.682997
O O8 0.065719 0.415295 0.742059
O O9 0.523154 0.253602 0.085211
O O10 0.390895 0.213833 0.190085
O O11 0.500000 0.568523 0.500000
O O12 0.819866 0.500000 0.549872
O O13 0.640865 0.548341 0.637903
O O14 0.740729 0.253715 0.705196
O O15 0.203341 0.946109 0.781094
O O16 0.862402 0.000000 0.694769
O O17 0.404631 0.000000 0.186805
#
# Coordination Sequence:
#
# PCOD9211456 Si02
#       7
#     8   8   8   8   8   8   8
#     4  12  27  42  61  89 122 166 208 254 322 380
#     4  11  20  36  66  88 123 162 210 256 316 369
#     4  10  21  40  63  87 117 152 200 260 322 375
#     4   9  19  35  56  94 137 165 202 252 307 371
#     4  10  23  38  63  94 122 156 205 266 316 367
#     4   9  19  34  61  92 118 160 209 254 307 364
#     4  10  23  41  60  87 121 162 211 262 306 371
#
# _framework density 20.022188
#
# number of rings (size 3 to 8) (size 9 to 14) (size 15 to 20)
#    0.000    1.857    1.429    3.000    6.000    4.000 
#    0.000    2.143    0.000    0.857    0.000    0.000 
#    0.000    0.000    0.000    0.000    0.000    0.000 
#
# Total GULP energy -156029.555646 kJ/mol
# GULP energy per Si atom -5572.484130 kJ/mol
# Density = 1.997662 g / cm^3
# Si number density = 20.022188 Si / 1000 Ang^3
#
#
#
# Elastic Constant Matrix: (Units=GPa)
#
#
# Indices 1 2 3 4 5 6 
#
# 1 87.8475 18.0134 34.4413 0.0000 7.3961 0.0000
# 2 18.0134 64.7355 32.2384 0.0000 10.7151 0.0000
# 3 34.4413 32.2384 88.7482 0.0000 27.2155 0.0000
# 4 0.0000 0.0000 0.0000 21.6804 0.0000 4.5988
# 5 7.3961 10.7151 27.2155 0.0000 24.3208 0.0000
# 6 0.0000 0.0000 0.0000 4.5988 0.0000 28.5235
#
#
#
# Elastic Compliance Matrix: (Units=1/GPa)
#
#
# Indices 1 2 3 4 5 6 
#
# 1 0.013652 -0.001460 -0.005621 0.000000 0.002781 0.000000
# 2 -0.001460 0.019031 -0.005955 0.000000 -0.001277 0.000000
# 3 -0.005621 -0.005955 0.021746 0.000000 -0.020001 0.000000
# 4 0.000000 0.000000 0.000000 0.047758 0.000000 -0.007700
# 5 0.002781 -0.001277 -0.020001 0.000000 0.063215 0.000000
# 6 0.000000 0.000000 0.000000 -0.007700 0.000000 0.036300
#
#
# Mechanical properties :
#
#
# Convention : Reuss Voigt Hill
#
# Bulk Modulus (GPa) = 35.26411 45.63528 40.44969
# Shear Modulus (GPa) = 21.07700 25.34749 23.21225
#
# Velocity S-wave (km/s) = 3.24803 3.56191 3.40858
# Velocity P-wave (km/s) = 5.63178 6.30540 5.97809
#
# Compressibility (1/GPa) = 0.02835745
#
# Stress axis : x y z
#
# Youngs Moduli (GPa) = 73.24822 52.54691 45.98616
#
# Poissons Ratio (x) = 0.07673 0.25847
# Poissons Ratio (y) = 0.10696 0.27384
# Poissons Ratio (z) = 0.41170 0.31291
#
# Static dielectric constant tensor:
#      x y z
#    x 1.873720 0.000000 0.014720 
#    y 0.000000 1.721390 0.000000 
#    z 0.014720 0.000000 1.674110 
# 
# From -- ./inp_files/253605.got.cif
#   From: 2010.05.17/outbox.cif.g08.bks.cpg/sg12_127_cif.got.tgz:253605.got - 2010.06.03 13:09:07.
