data_PCOD9211404
_publ_section_title
;
Structure prediction by ZEFSAII (Michael W. Deem and Ramdas Pophale) SiO2 
 PCOD9211404
Probable space group: C 2/M
;
_chemical_formula_sum "Si O2"
_cell_formula_units_Z 38
_cell_length_a 4.885136
_cell_length_b 31.258296
_cell_length_c 11.204397
_cell_angle_alpha 90.000000
_cell_angle_beta 86.545456
_cell_angle_gamma 90.000000
_cell_volume 1707.814042
_symmetry_space_group_name_H-M "C 2/M"
_symmetry_group_IT_number 12
_symmetry_cell_setting 'monoclinic'
loop_
_space_group_symop_operation_xyz
x,y,z
-x,y,-z
-x,-y,-z
x,-y,z
1/2+x,1/2+y,z
1/2-x,1/2+y,-z
1/2-x,1/2-y,-z
1/2+x,1/2-y,z
loop_
_atom_site_type_symbol
_atom_site_label
_atom_site_fract_x
_atom_site_fract_y
_atom_site_fract_z
Si Si1 0.500000 0.846199 0.000000
Si Si2 0.000000 0.500000 0.000000
Si Si3 0.690365 0.577045 0.114699
Si Si4 0.253451 0.721109 0.160567
Si Si5 0.972302 0.665466 0.366941
Si Si6 0.532980 0.606678 0.635998
O O1 0.654903 0.877943 0.906214
O O2 0.298139 0.815460 0.934796
O O3 0.105401 0.537625 0.904798
O O4 0.543481 0.578368 0.246777
O O5 0.500000 0.572853 0.000000
O O6 0.563640 0.736959 0.148618
O O7 0.115826 0.699792 0.279605
O O8 0.157679 0.622679 0.356305
O O9 0.000000 0.682062 0.500000
O O10 0.664115 0.649002 0.352931
O O11 0.500000 0.589992 0.500000
#
# Coordination Sequence:
#
# PCOD9211404 Si02
#       6
#     4   2   8   8   8   8
#     4  11  24  39  62  88 120 176 218 261 328 383
#     4  10  26  44  62 112 136 160 204 264 332 384
#     4  11  23  42  73  94 133 168 215 260 325 397
#     4  12  25  38  56  88 131 167 219 278 324 371
#     4  10  21  40  62  90 124 170 226 269 320 381
#     4  10  21  40  69  97 126 170 223 267 312 385
#
# _framework density 22.250665000000001
#
# number of rings (size 3 to 8) (size 9 to 14) (size 15 to 20)
#    0.000    1.263    2.105    3.474    5.895    0.842 
#    0.000    0.526    0.000    1.263    0.000    0.000 
#    0.000    0.000    0.000    0.000    0.000    0.000 
#
# Total GULP energy -105930.968099 kJ/mol
# GULP energy per Si atom -5575.314110 kJ/mol
# Density = 2.220002 g / cm^3
# Si number density = 22.250665 Si / 1000 Ang^3
#
#
#
# Elastic Constant Matrix: (Units=GPa)
#
#
# Indices 1 2 3 4 5 6 
#
# 1 60.3575 -3.0651 9.9840 0.0000 -8.4625 0.0000
# 2 -3.0651 75.5839 60.6928 0.0000 -10.2932 0.0000
# 3 9.9840 60.6928 181.0288 0.0000 -24.8527 0.0000
# 4 0.0000 0.0000 0.0000 7.2056 0.0000 9.1891
# 5 -8.4625 -10.2932 -24.8527 0.0000 30.2614 0.0000
# 6 0.0000 0.0000 0.0000 9.1891 0.0000 -40.1069
#
#
#
# Elastic Compliance Matrix: (Units=1/GPa)
#
#
# Indices 1 2 3 4 5 6 
#
# 1 0.017525 0.002205 -0.001048 0.000000 0.004790 0.000000
# 2 0.002205 0.018429 -0.006035 0.000000 0.001928 0.000000
# 3 -0.001048 -0.006035 0.008209 0.000000 0.004396 0.000000
# 4 0.000000 0.000000 0.000000 0.107400 0.000000 0.024607
# 5 0.004790 0.001928 0.004396 0.000000 0.038651 0.000000
# 6 0.000000 0.000000 0.000000 0.024607 0.000000 -0.019296
#
#
# Mechanical properties :
#
#
# Convention : Reuss Voigt Hill
#
# Bulk Modulus (GPa) = 29.06600 50.24373 39.65486
# Shear Modulus (GPa) = 26.02231 16.09593 21.05912
#
# Velocity S-wave (km/s) = 3.42352 2.69251 3.07978
# Velocity P-wave (km/s) = 5.35898 5.68295 5.52334
#
# Compressibility (1/GPa) = 0.03440445
#
# Stress axis : x y z
#
# Youngs Moduli (GPa) = 57.06183 54.26334 121.82220
#
# Poissons Ratio (x) = -0.11963 0.12768
# Poissons Ratio (y) = -0.12580 0.73524
# Poissons Ratio (z) = 0.05980 0.32750
#
# Static dielectric constant tensor:
#      x y z
#    x 1.850960 0.000000 0.030540 
#    y 0.000000 1.771050 0.000000 
#    z 0.030540 0.000000 1.894090 
# 
# From -- ./inp_files/115475.got.cif
#   From: 2010.05.17/outbox.cif.g08.bks.cpg/sg12_58_cif.got.tgz:115475.got - 2010.06.03 13:09:07.
