data_PCOD9211479
_publ_section_title
;
Structure prediction by ZEFSAII (Michael W. Deem and Ramdas Pophale) SiO2 
 PCOD9211479
Probable space group: C 2/M
;
_chemical_formula_sum "Si O2"
_cell_formula_units_Z 56
_cell_length_a 19.434684
_cell_length_b 8.792114
_cell_length_c 16.300248
_cell_angle_alpha 90.000000
_cell_angle_beta 75.045486
_cell_angle_gamma 90.000000
_cell_volume 2690.921450
_symmetry_space_group_name_H-M "C 2/M"
_symmetry_group_IT_number 12
_symmetry_cell_setting 'monoclinic'
loop_
_space_group_symop_operation_xyz
x,y,z
-x,y,-z
-x,-y,-z
x,-y,z
1/2+x,1/2+y,z
1/2-x,1/2+y,-z
1/2-x,1/2-y,-z
1/2+x,1/2-y,z
loop_
_atom_site_type_symbol
_atom_site_label
_atom_site_fract_x
_atom_site_fract_y
_atom_site_fract_z
Si Si1 0.404608 0.819776 0.109825
Si Si2 0.046143 0.681452 0.158103
Si Si3 0.156992 0.321115 0.377907
Si Si4 0.312396 0.319802 0.280199
Si Si5 0.170993 0.180475 0.024688
Si Si6 0.480732 0.320030 0.658221
Si Si7 0.365592 0.680312 0.448268
O O1 0.485246 0.777341 0.110291
O O2 0.356349 0.780147 0.203425
O O3 0.403362 0.000000 0.092625
O O4 0.370700 0.731593 0.044393
O O5 0.053942 0.500000 0.154751
O O6 0.121192 0.757199 0.113021
O O7 0.019140 0.735020 0.254941
O O8 0.141194 0.500000 0.376628
O O9 0.228101 0.290830 0.304101
O O10 0.090735 0.225413 0.366290
O O11 0.169314 0.276389 0.468767
O O12 0.325172 0.500000 0.259546
O O13 0.336250 0.291240 0.366318
O O14 0.176267 0.000000 0.027479
O O15 0.250000 0.250000 0.000000
O O16 0.483444 0.500000 0.673229
O O17 0.550429 0.282517 0.583634
O O18 0.357143 0.500000 0.468204
#
# Coordination Sequence:
#
# PCOD9211479 Si02
#       7
#     8   8   8   8   8   8   8
#     4  11  24  43  69  99 131 169 214 263 317 381
#     4  11  24  44  69  98 132 168 213 265 316 381
#     4  11  24  38  59  90 128 168 212 270 329 381
#     4  10  22  41  63  90 126 170 215 264 320 382
#     4  12  27  46  71 100 134 171 209 259 317 379
#     4  11  23  40  64  91 125 170 216 264 319 383
#     4  10  21  40  63  88 121 165 220 268 317 384
#
# _framework density 20.810715999999999
#
# number of rings (size 3 to 8) (size 9 to 14) (size 15 to 20)
#    0.000    1.143    1.429    4.286    2.000    8.000 
#    0.000    0.000    0.000    0.000    0.000    0.000 
#    0.000    0.000    0.000    0.000    0.000    0.000 
#
# Total GULP energy -156701.458558 kJ/mol
# GULP energy per Si atom -5596.480663 kJ/mol
# Density = 2.076335 g / cm^3
# Si number density = 20.810716 Si / 1000 Ang^3
#
#
#
# Elastic Constant Matrix: (Units=GPa)
#
#
# Indices 1 2 3 4 5 6 
#
# 1 64.4532 27.4880 7.6845 0.0000 -16.7498 0.0000
# 2 27.4880 64.1815 21.6883 0.0000 -15.5121 0.0000
# 3 7.6845 21.6883 57.3725 0.0000 -12.4174 0.0000
# 4 0.0000 0.0000 0.0000 35.3753 0.0000 3.4619
# 5 -16.7498 -15.5121 -12.4174 0.0000 32.6670 0.0000
# 6 0.0000 0.0000 0.0000 3.4619 0.0000 30.3934
#
#
#
# Elastic Compliance Matrix: (Units=1/GPa)
#
#
# Indices 1 2 3 4 5 6 
#
# 1 0.020493 -0.007531 0.001746 0.000000 0.007595 0.000000
# 2 -0.007531 0.021969 -0.006401 0.000000 0.004138 0.000000
# 3 0.001746 -0.006401 0.020869 0.000000 0.005788 0.000000
# 4 0.000000 0.000000 0.000000 0.028587 0.000000 -0.003256
# 5 0.007595 0.004138 0.005788 0.000000 0.038671 0.000000
# 6 0.000000 0.000000 0.000000 -0.003256 0.000000 0.033273
#
#
# Mechanical properties :
#
#
# Convention : Reuss Voigt Hill
#
# Bulk Modulus (GPa) = 25.66818 33.30319 29.48568
# Shear Modulus (GPa) = 24.84853 28.29688 26.57271
#
# Velocity S-wave (km/s) = 3.45922 3.69145 3.57722
# Velocity P-wave (km/s) = 5.32126 5.84865 5.59118
#
# Compressibility (1/GPa) = 0.03895875
#
# Stress axis : x y z
#
# Youngs Moduli (GPa) = 48.79824 45.51822 47.91904
#
# Poissons Ratio (x) = 0.34280 -0.08366
# Poissons Ratio (y) = 0.36750 0.30672
# Poissons Ratio (z) = -0.08520 0.29135
#
# Static dielectric constant tensor:
#      x y z
#    x 1.755520 0.000000 0.009610 
#    y 0.000000 1.694540 0.000000 
#    z 0.009610 0.000000 1.735720 
# 
# From -- ./inp_files/275228.got.cif
#   From: 2010.05.17/outbox.cif.g08.bks.cpg/sg12_138_cif.got.tgz:275228.got - 2010.06.03 13:09:07.
