data_PCOD9211299
_publ_section_title
;
Structure prediction by ZEFSAII (Michael W. Deem and Ramdas Pophale) SiO2 
 PCOD9211299
Probable space group: C 2/M
;
_chemical_formula_sum "Si O2"
_cell_formula_units_Z 38
_cell_length_a 11.531976
_cell_length_b 25.051198
_cell_length_c 12.456628
_cell_angle_alpha 90.000000
_cell_angle_beta 27.321003
_cell_angle_gamma 90.000000
_cell_volume 1651.665153
_symmetry_space_group_name_H-M "C 2/M"
_symmetry_group_IT_number 12
_symmetry_cell_setting 'monoclinic'
loop_
_space_group_symop_operation_xyz
x,y,z
-x,y,-z
-x,-y,-z
x,-y,z
1/2+x,1/2+y,z
1/2-x,1/2+y,-z
1/2-x,1/2-y,-z
1/2+x,1/2-y,z
loop_
_atom_site_type_symbol
_atom_site_label
_atom_site_fract_x
_atom_site_fract_y
_atom_site_fract_z
Si Si1 0.692081 0.815836 0.934465
Si Si2 0.000000 0.131512 0.000000
Si Si3 0.207843 0.059209 0.408069
Si Si4 0.355933 0.625276 0.341521
Si Si5 0.051531 0.707291 0.285719
Si Si6 0.000000 0.500000 0.000000
O O1 0.870404 0.767000 0.748475
O O2 0.875924 0.861506 0.825854
O O3 0.500000 0.830375 0.000000
O O4 0.543212 0.795401 0.162852
O O5 0.892847 0.101691 0.192734
O O6 0.779697 0.169397 0.135956
O O7 0.275804 0.089281 0.460116
O O8 0.439963 0.045311 0.141465
O O9 0.000000 0.085443 0.500000
O O10 0.088799 0.000000 0.534909
O O11 0.199516 0.680555 0.460382
#
# Coordination Sequence:
#
# PCOD9211299 Si02
#       6
#     8   4   8   8   8   2
#     4  10  22  38  60  94 132 173 220 273 321 377
#     4  10  22  42  59  91 130 182 216 270 312 380
#     4   9  21  42  64  99 126 161 203 265 342 390
#     4  11  23  39  67  94 127 175 226 262 321 396
#     4  10  21  40  60  88 133 177 221 266 321 372
#     4   8  18  40  68  86 134 162 180 274 340 390
#
# _framework density 23.007085
#
# number of rings (size 3 to 8) (size 9 to 14) (size 15 to 20)
#    0.632    1.474    1.053    1.263    2.947    3.368 
#    3.789    0.526    0.000    3.789    0.000    0.000 
#    0.000    0.000    0.000    0.000    0.000    0.000 
#
# Total GULP energy -105857.437467 kJ/mol
# GULP energy per Si atom -5571.444077 kJ/mol
# Density = 2.295472 g / cm^3
# Si number density = 23.007085 Si / 1000 Ang^3
#
#
#
# Elastic Constant Matrix: (Units=GPa)
#
#
# Indices 1 2 3 4 5 6 
#
# 1 139.7094 24.7359 53.0424 0.0005 22.8158 -0.0004
# 2 24.7359 41.4627 24.9626 0.0001 20.3439 0.0000
# 3 53.0424 24.9626 96.9547 0.0002 36.8622 -0.0001
# 4 0.0005 0.0001 0.0002 29.3234 -0.0001 1.2930
# 5 22.8158 20.3439 36.8622 -0.0001 54.8516 0.0002
# 6 -0.0004 0.0000 -0.0001 1.2930 0.0002 15.5368
#
#
#
# Elastic Compliance Matrix: (Units=1/GPa)
#
#
# Indices 1 2 3 4 5 6 
#
# 1 0.009331 -0.003011 -0.004404 0.000000 0.000195 0.000000
# 2 -0.003011 0.032075 -0.003444 0.000000 -0.008329 0.000000
# 3 -0.004404 -0.003444 0.016693 0.000000 -0.008109 0.000000
# 4 0.000000 0.000000 0.000000 0.034228 0.000000 -0.002849
# 5 0.000195 -0.008329 -0.008109 0.000000 0.026689 0.000000
# 6 0.000000 0.000000 0.000000 -0.002849 0.000000 0.064601
#
#
# Mechanical properties :
#
#
# Convention : Reuss Voigt Hill
#
# Bulk Modulus (GPa) = 27.48687 53.73431 40.61059
# Shear Modulus (GPa) = 22.99264 31.63475 27.31369
#
# Velocity S-wave (km/s) = 3.16471 3.71212 3.44929
# Velocity P-wave (km/s) = 5.03259 6.46370 5.79251
#
# Compressibility (1/GPa) = 0.03638100
#
# Stress axis : x y z
#
# Youngs Moduli (GPa) = 107.17074 31.17723 59.90477
#
# Poissons Ratio (x) = 0.09388 0.26380
# Poissons Ratio (y) = 0.32270 0.20632
# Poissons Ratio (z) = 0.47194 0.10738
#
# Static dielectric constant tensor:
#      x y z
#    x 1.860320 0.000000 -0.026300 
#    y 0.000000 1.904020 0.000000 
#    z -0.026300 0.000000 1.985620 
# 
# From -- ./inp_files/137153.got.cif
#   From: 2010.05.17/outbox.cif.g08.bks.cpg/sg12_69_cif.got.tgz:137153.got - 2010.06.03 13:09:07.
