data_PCOD9211250
_publ_section_title
;
Structure prediction by ZEFSAII (Michael W. Deem and Ramdas Pophale) SiO2 
 PCOD9211250
Probable space group: C 2/M
;
_chemical_formula_sum "Si O2"
_cell_formula_units_Z 50
_cell_length_a 10.862735
_cell_length_b 14.932271
_cell_length_c 17.727109
_cell_angle_alpha 90.000000
_cell_angle_beta 59.148493
_cell_angle_gamma 90.000000
_cell_volume 2468.555401
_symmetry_space_group_name_H-M "C 2/M"
_symmetry_group_IT_number 12
_symmetry_cell_setting 'monoclinic'
loop_
_space_group_symop_operation_xyz
x,y,z
-x,y,-z
-x,-y,-z
x,-y,z
1/2+x,1/2+y,z
1/2-x,1/2+y,-z
1/2-x,1/2-y,-z
1/2+x,1/2-y,z
loop_
_atom_site_type_symbol
_atom_site_label
_atom_site_fract_x
_atom_site_fract_y
_atom_site_fract_z
Si Si1 0.411536 0.205415 0.288677
Si Si2 0.014499 0.902401 0.764854
Si Si3 0.922450 0.747127 0.448801
Si Si4 0.000000 0.500000 0.000000
Si Si5 0.598055 0.641282 0.037063
Si Si6 0.427960 0.151829 0.910066
Si Si7 0.622827 0.601808 0.347583
O O1 0.395441 0.311615 0.274944
O O2 0.468319 0.199147 0.356336
O O3 0.514924 0.164063 0.192776
O O4 0.259514 0.157524 0.330092
O O5 0.945119 0.898423 0.868924
O O6 0.893026 0.896338 0.738311
O O7 0.085837 0.000000 0.731920
O O8 0.750000 0.750000 0.500000
O O9 0.000000 0.711240 0.500000
O O10 0.981964 0.848035 0.421334
O O11 0.984556 0.579544 0.069798
O O12 0.572949 0.748329 0.054365
O O13 0.500000 0.608819 0.000000
O O14 0.762684 0.621891 0.966698
O O15 0.631956 0.500000 0.369755
#
# Coordination Sequence:
#
# PCOD9211250 Si02
#       7
#     8   8   8   2   8   8   8
#     4  10  22  40  65  97 139 169 225 289 345 398
#     4   9  21  37  61  91 126 178 228 275 335 405
#     4  11  22  44  71 102 132 180 227 280 348 417
#     4  12  24  40  66  96 128 170 244 278 320 404
#     4  10  21  40  58  84 132 175 225 268 342 400
#     4  10  24  37  61  96 125 176 217 287 330 384
#     4  10  22  40  69 101 131 175 232 276 335 415
#
# _framework density 20.254760999999998
#
# number of rings (size 3 to 8) (size 9 to 14) (size 15 to 20)
#    0.000    1.920    2.400    0.000    4.480    7.040 
#    0.000    0.000    0.000    6.720    0.000    0.000 
#    0.000    0.000    0.000    0.000    0.000    0.000 
#
# Total GULP energy -139234.581374 kJ/mol
# GULP energy per Si atom -5569.383255 kJ/mol
# Density = 2.020866 g / cm^3
# Si number density = 20.254761 Si / 1000 Ang^3
#
#
#
# Elastic Constant Matrix: (Units=GPa)
#
#
# Indices 1 2 3 4 5 6 
#
# 1 88.2589 37.7841 57.7765 0.0000 12.4418 0.0000
# 2 37.7841 130.6678 27.2567 0.0000 1.1167 0.0000
# 3 57.7765 27.2567 125.6527 0.0000 28.9269 0.0000
# 4 0.0000 0.0000 0.0000 13.5793 0.0000 6.0432
# 5 12.4418 1.1167 28.9269 0.0000 40.0819 0.0000
# 6 0.0000 0.0000 0.0000 6.0432 0.0000 8.8755
#
#
#
# Elastic Compliance Matrix: (Units=1/GPa)
#
#
# Indices 1 2 3 4 5 6 
#
# 1 0.017674 -0.003581 -0.007327 0.000000 -0.000098 0.000000
# 2 -0.003581 0.008793 -0.000552 0.000000 0.001265 0.000000
# 3 -0.007327 -0.000552 0.013096 0.000000 -0.007161 0.000000
# 4 0.000000 0.000000 0.000000 0.105657 0.000000 -0.071940
# 5 -0.000098 0.001265 -0.007161 0.000000 0.030113 0.000000
# 6 0.000000 0.000000 0.000000 -0.071940 0.000000 0.161653
#
#
# Mechanical properties :
#
#
# Convention : Reuss Voigt Hill
#
# Bulk Modulus (GPa) = 60.08868 65.57931 62.83400
# Shear Modulus (GPa) = 13.68167 27.29148 20.48658
#
# Velocity S-wave (km/s) = 2.60182 3.67469 3.18377
# Velocity P-wave (km/s) = 6.22550 7.10296 6.67865
#
# Compressibility (1/GPa) = 0.01664207
#
# Stress axis : x y z
#
# Youngs Moduli (GPa) = 56.58059 113.72835 76.35970
#
# Poissons Ratio (x) = 0.40730 0.55950
# Poissons Ratio (y) = 0.20264 0.04214
# Poissons Ratio (z) = 0.41457 0.06276
#
# Static dielectric constant tensor:
#      x y z
#    x 1.709380 0.000000 0.015990 
#    y 0.000000 1.855880 0.000000 
#    z 0.015990 0.000000 1.752910 
# 
# From -- ./inp_files/262785.got.cif
#   From: 2010.05.17/outbox.cif.g08.bks.cpg/sg12_132_cif.got.tgz:262785.got - 2010.06.03 13:09:07.
