data_PCOD9211581
_publ_section_title
;
Structure prediction by ZEFSAII (Michael W. Deem and Ramdas Pophale) SiO2 
 PCOD9211581
Probable space group: C 2/M
;
_chemical_formula_sum "Si O2"
_cell_formula_units_Z 36
_cell_length_a 7.746032
_cell_length_b 21.805440
_cell_length_c 9.014800
_cell_angle_alpha 90.000000
_cell_angle_beta 67.609798
_cell_angle_gamma 90.000000
_cell_volume 1407.859710
_symmetry_space_group_name_H-M "C 2/M"
_symmetry_group_IT_number 12
_symmetry_cell_setting 'monoclinic'
loop_
_space_group_symop_operation_xyz
x,y,z
-x,y,-z
-x,-y,-z
x,-y,z
1/2+x,1/2+y,z
1/2-x,1/2+y,-z
1/2-x,1/2-y,-z
1/2+x,1/2-y,z
loop_
_atom_site_type_symbol
_atom_site_label
_atom_site_fract_x
_atom_site_fract_y
_atom_site_fract_z
Si Si1 0.289450 0.430033 0.386504
Si Si2 0.000000 0.154755 0.500000
Si Si3 0.849119 0.654536 0.819314
Si Si4 0.285465 0.234485 0.312339
Si Si5 0.847419 0.066624 0.917778
O O1 0.236997 0.500000 0.434124
O O2 0.318714 0.384346 0.511657
O O3 0.161154 0.399590 0.302135
O O4 0.508708 0.429789 0.264080
O O5 0.908906 0.198043 0.656109
O O6 0.712592 0.706182 0.793848
O O7 0.042189 0.689807 0.768305
O O8 0.782636 0.622351 0.992135
O O9 0.250000 0.250000 0.500000
O O10 0.750182 0.000000 0.944879
O O11 0.000000 0.064611 0.000000
#
# Coordination Sequence:
#
# PCOD9211581 Si02
#       5
#     8   4   8   8   8
#     4  10  21  40  64  90 122 157 196 245 298 353
#     4  12  23  40  62  86 123 164 196 246 298 356
#     4  11  20  38  64  87 116 161 198 243 300 352
#     4  12  22  38  61  84 122 159 198 246 299 350
#     4   8  17  37  63  88 117 152 195 248 297 348
#
# _framework density 25.570730999999999
#
# number of rings (size 3 to 8) (size 9 to 14) (size 15 to 20)
#    0.000    1.556    4.444    2.333    0.000    0.000 
#    0.000   24.444    0.000    2.667    0.000    0.000 
#    0.000    0.000    0.000    0.000    0.000    0.000 
#
# Total GULP energy -100508.692996 kJ/mol
# GULP energy per Si atom -5583.816278 kJ/mol
# Density = 2.551253 g / cm^3
# Si number density = 25.570731 Si / 1000 Ang^3
#
#
#
# Elastic Constant Matrix: (Units=GPa)
#
#
# Indices 1 2 3 4 5 6 
#
# 1 78.2215 33.8506 17.9465 0.0000 -22.8993 0.0000
# 2 33.8506 183.7499 39.5851 0.0000 -26.6086 0.0000
# 3 17.9465 39.5851 65.0474 0.0000 -19.4664 0.0000
# 4 0.0000 0.0000 0.0000 30.4949 0.0000 -15.2938
# 5 -22.8993 -26.6086 -19.4664 0.0000 33.4477 0.0000
# 6 0.0000 0.0000 0.0000 -15.2938 0.0000 -2.6435
#
#
#
# Elastic Compliance Matrix: (Units=1/GPa)
#
#
# Indices 1 2 3 4 5 6 
#
# 1 0.016411 -0.001466 -0.000753 0.000000 0.009630 0.000000
# 2 -0.001466 0.006720 -0.002889 0.000000 0.002661 0.000000
# 3 -0.000753 -0.002889 0.019976 0.000000 0.008812 0.000000
# 4 0.000000 0.000000 0.000000 0.008405 0.000000 -0.048627
# 5 0.009630 0.002661 0.008812 0.000000 0.043736 0.000000
# 6 0.000000 0.000000 0.000000 -0.048627 0.000000 -0.096959
#
#
# Mechanical properties :
#
#
# Convention : Reuss Voigt Hill
#
# Bulk Modulus (GPa) = 30.40375 56.64258 43.52316
# Shear Modulus (GPa) = 256.80797 27.96892 142.38845
#
# Velocity S-wave (km/s) = 10.03237 3.31083 7.47028
# Velocity P-wave (km/s) = 12.08776 6.06753 9.56370
#
# Compressibility (1/GPa) = 0.03289068
#
# Stress axis : x y z
#
# Youngs Moduli (GPa) = 60.93493 148.81138 50.05907
#
# Poissons Ratio (x) = 0.21821 0.03771
# Poissons Ratio (y) = 0.08935 0.14460
# Poissons Ratio (z) = 0.04590 0.42986
#
# Static dielectric constant tensor:
#      x y z
#    x 2.029320 0.000000 0.046770 
#    y 0.000000 2.132500 0.000000 
#    z 0.046770 0.000000 2.189940 
# 
# From -- ./inp_files/119986.got.cif
#   From: 2010.05.17/outbox.cif.g08.bks.cpg/sg12_60_cif.got.tgz:119986.got - 2010.06.03 13:09:07.
