data_PCOD9211854
_publ_section_title
;
Structure prediction by ZEFSAII (Michael W. Deem and Ramdas Pophale) SiO2 
 PCOD9211854
Probable space group: C 2/M
;
_chemical_formula_sum "Si O2"
_cell_formula_units_Z 52
_cell_length_a 20.318767
_cell_length_b 19.834488
_cell_length_c 5.703932
_cell_angle_alpha 90.000000
_cell_angle_beta 87.147990
_cell_angle_gamma 90.000000
_cell_volume 2295.907706
_symmetry_space_group_name_H-M "C 2/M"
_symmetry_group_IT_number 12
_symmetry_cell_setting 'monoclinic'
loop_
_space_group_symop_operation_xyz
x,y,z
-x,y,-z
-x,-y,-z
x,-y,z
1/2+x,1/2+y,z
1/2-x,1/2+y,-z
1/2-x,1/2-y,-z
1/2+x,1/2-y,z
loop_
_atom_site_type_symbol
_atom_site_label
_atom_site_fract_x
_atom_site_fract_y
_atom_site_fract_z
Si Si1 0.882729 0.379611 0.293050
Si Si2 0.000000 0.635589 0.000000
Si Si3 0.927831 0.079406 0.073683
Si Si4 0.912027 0.279188 0.656621
Si Si5 0.374923 0.371757 0.592787
Si Si6 0.244250 0.421608 0.426844
Si Si7 0.713922 0.181366 0.070315
O O1 0.943933 0.410157 0.137440
O O2 0.922288 0.321090 0.420936
O O3 0.832077 0.420200 0.468685
O O4 0.831749 0.344243 0.128565
O O5 0.955997 0.685814 0.846539
O O6 0.900699 0.105864 0.328937
O O7 0.934209 0.000000 0.111957
O O8 0.889447 0.089932 0.834717
O O9 0.000000 0.108588 0.000000
O O10 0.911005 0.199747 0.626967
O O11 0.835700 0.295063 0.719543
O O12 0.295602 0.379086 0.577123
O O13 0.264941 0.500000 0.412338
O O14 0.249685 0.383041 0.176926
O O15 0.750000 0.250000 0.000000
#
# Coordination Sequence:
#
# PCOD9211854 Si02
#       7
#     8   4   8   8   8   8   8
#     4  10  22  41  65  97 137 178 232 296 367 432
#     4  10  22  40  69  98 139 178 228 298 372 436
#     4  11  26  46  64  91 136 189 241 297 356 428
#     4  10  23  39  65 100 134 174 227 297 366 426
#     4  12  26  42  71 104 139 185 242 299 361 437
#     4  11  25  43  67 101 142 192 242 296 362 437
#     4  10  21  40  66  96 136 179 230 297 363 426
#
# _framework density 22.648993000000001
#
# number of rings (size 3 to 8) (size 9 to 14) (size 15 to 20)
#    0.000    1.385    0.000    4.154    9.692    5.538 
#    0.000    0.385    0.000   12.000    0.000    0.000 
#    0.000    0.000    0.000    0.000    0.000    0.000 
#
# Total GULP energy -144798.296478 kJ/mol
# GULP energy per Si atom -5569.165249 kJ/mol
# Density = 2.259744 g / cm^3
# Si number density = 22.648993 Si / 1000 Ang^3
#
#
#
# Elastic Constant Matrix: (Units=GPa)
#
#
# Indices 1 2 3 4 5 6 
#
# 1 111.4937 4.8718 28.6026 0.0000 -15.3819 0.0000
# 2 4.8718 67.9570 18.9086 0.0000 2.2429 0.0000
# 3 28.6026 18.9086 86.0696 0.0000 -2.7649 0.0000
# 4 0.0000 0.0000 0.0000 -45.3640 0.0000 -4.5816
# 5 -15.3819 2.2429 -2.7649 0.0000 57.7532 0.0000
# 6 0.0000 0.0000 0.0000 -4.5816 0.0000 17.7673
#
#
#
# Elastic Compliance Matrix: (Units=1/GPa)
#
#
# Indices 1 2 3 4 5 6 
#
# 1 0.010167 0.000111 -0.003322 0.000000 0.002545 0.000000
# 2 0.000111 0.015709 -0.003512 0.000000 -0.000749 0.000000
# 3 -0.003322 -0.003512 0.013491 0.000000 -0.000102 0.000000
# 4 0.000000 0.000000 0.000000 -0.021484 0.000000 -0.005540
# 5 0.002545 -0.000749 -0.000102 0.000000 0.018017 0.000000
# 6 0.000000 0.000000 0.000000 -0.005540 0.000000 0.054854
#
#
# Mechanical properties :
#
#
# Convention : Reuss Voigt Hill
#
# Bulk Modulus (GPa) = 38.57670 41.14293 39.85981
# Shear Modulus (GPa) = 44.31059 20.24046 32.27552
#
# Velocity S-wave (km/s) = 4.42792 2.99265 3.77905
# Velocity P-wave (km/s) = 6.57354 5.49056 6.05630
#
# Compressibility (1/GPa) = 0.02592238
#
# Stress axis : x y z
#
# Youngs Moduli (GPa) = 98.35335 63.65711 74.12556
#
# Poissons Ratio (x) = -0.00709 0.24621
# Poissons Ratio (y) = -0.01095 0.26034
# Poissons Ratio (z) = 0.32669 0.22358
#
# Static dielectric constant tensor:
#      x y z
#    x 1.946280 0.000000 -0.090320 
#    y 0.000000 1.876590 0.000000 
#    z -0.090320 0.000000 1.972040 
# 
# From -- ./inp_files/21228.got.cif
#   From: 2010.05.17/outbox.cif.g08.bks.cpg/sg12_11_cif.got.tgz:21228.got - 2010.06.03 13:09:07.
