data_PCOD9211927
_publ_section_title
;
Structure prediction by ZEFSAII (Michael W. Deem and Ramdas Pophale) SiO2 
 PCOD9211927
Probable space group: C 2/M
;
_chemical_formula_sum "Si O2"
_cell_formula_units_Z 64
_cell_length_a 13.204749
_cell_length_b 25.993934
_cell_length_c 16.673776
_cell_angle_alpha 90.000000
_cell_angle_beta 152.826497
_cell_angle_gamma 90.000000
_cell_volume 2613.691676
_symmetry_space_group_name_H-M "C 2/M"
_symmetry_group_IT_number 12
_symmetry_cell_setting 'monoclinic'
loop_
_space_group_symop_operation_xyz
x,y,z
-x,y,-z
-x,-y,-z
x,-y,z
1/2+x,1/2+y,z
1/2-x,1/2+y,-z
1/2-x,1/2-y,-z
1/2+x,1/2-y,z
loop_
_atom_site_type_symbol
_atom_site_label
_atom_site_fract_x
_atom_site_fract_y
_atom_site_fract_z
Si Si1 0.202756 0.440002 0.205117
Si Si2 0.048075 0.058773 0.129138
Si Si3 0.956280 0.650909 0.648243
Si Si4 0.785274 0.310431 0.020552
Si Si5 0.960669 0.441746 0.200697
Si Si6 0.857399 0.264407 0.829179
Si Si7 0.701762 0.337634 0.313442
Si Si8 0.509472 0.658208 0.602059
O O1 0.280594 0.500000 0.262718
O O2 0.099864 0.426089 0.220063
O O3 0.385868 0.398126 0.309309
O O4 0.000000 0.437888 0.000000
O O5 0.189385 0.108215 0.256618
O O6 0.133089 0.000000 0.203415
O O7 0.000000 0.063117 0.000000
O O8 0.804038 0.061901 0.998966
O O9 0.977687 0.590464 0.678236
O O10 0.900374 0.662461 0.517509
O O11 0.730379 0.666955 0.532136
O O12 0.148499 0.671543 0.842802
O O13 0.290026 0.282817 0.726012
O O14 0.552953 0.335308 0.829995
O O15 0.750000 0.250000 0.000000
O O16 0.998712 0.309936 0.112500
O O17 0.015721 0.500000 0.254544
O O18 0.660639 0.294201 0.733730
O O19 0.000000 0.240037 0.000000
O O20 0.500000 0.663341 0.500000
#
# Coordination Sequence:
#
# PCOD9211927 Si02
#       8
#     8   8   8   8   8   8   8   8
#     4  10  22  39  65 101 141 188 232 272 330 410
#     4  10  22  44  74 102 134 179 234 294 352 408
#     4  12  24  43  68 102 137 182 224 280 345 412
#     4  10  22  42  64  90 128 173 221 275 337 402
#     4  10  21  40  67  99 141 182 224 279 338 406
#     4  11  23  43  64  93 131 180 225 281 341 402
#     4  11  25  43  71  98 131 176 234 288 343 412
#     4  12  23  39  63  97 142 176 221 276 331 410
#
# _framework density 24.486438
#
# number of rings (size 3 to 8) (size 9 to 14) (size 15 to 20)
#    0.000    1.250    3.750    1.500    1.750    3.250 
#    4.500    0.625    0.000    2.250    0.000    0.000 
#    0.000    0.000    0.000    0.000    0.000    0.000 
#
# Total GULP energy -178896.228953 kJ/mol
# GULP energy per Si atom -5590.507155 kJ/mol
# Density = 2.443071 g / cm^3
# Si number density = 24.486438 Si / 1000 Ang^3
#
#
#
# Elastic Constant Matrix: (Units=GPa)
#
#
# Indices 1 2 3 4 5 6 
#
# 1 54.3324 26.5570 16.4107 0.0001 -11.0308 0.0002
# 2 26.5570 113.7678 11.6070 0.0004 -10.4213 0.0002
# 3 16.4107 11.6070 75.3654 0.0013 -8.6582 0.0008
# 4 0.0001 0.0004 0.0013 22.3987 0.0002 -15.9117
# 5 -11.0308 -10.4213 -8.6582 0.0002 53.6419 0.0003
# 6 0.0002 0.0002 0.0008 -15.9117 0.0003 25.8137
#
#
#
# Elastic Compliance Matrix: (Units=1/GPa)
#
#
# Indices 1 2 3 4 5 6 
#
# 1 0.022419 -0.004559 -0.003823 0.000000 0.003108 0.000000
# 2 -0.004559 0.009984 -0.000438 0.000000 0.000932 0.000000
# 3 -0.003823 -0.000438 0.014334 -0.000002 0.001442 -0.000002
# 4 0.000000 0.000000 -0.000002 0.079425 -0.000001 0.048958
# 5 0.003108 0.000932 0.001442 -0.000001 0.019695 -0.000001
# 6 0.000000 0.000000 -0.000002 0.048958 -0.000001 0.068917
#
#
# Mechanical properties :
#
#
# Convention : Reuss Voigt Hill
#
# Bulk Modulus (GPa) = 34.36584 39.17945 36.77265
# Shear Modulus (GPa) = 20.65163 32.96359 26.80761
#
# Velocity S-wave (km/s) = 2.90727 3.67304 3.31236
# Velocity P-wave (km/s) = 5.03336 5.83296 5.44785
#
# Compressibility (1/GPa) = 0.02909866
#
# Stress axis : x y z
#
# Youngs Moduli (GPa) = 44.60519 100.16046 69.76313
#
# Poissons Ratio (x) = 0.45660 0.26668
# Poissons Ratio (y) = 0.20334 0.03055
# Poissons Ratio (z) = 0.17051 0.04387
#
# Static dielectric constant tensor:
#      x y z
#    x 2.084230 0.000000 0.073110 
#    y 0.000000 1.926440 0.000000 
#    z 0.073110 0.000000 2.015760 
# 
# From -- ./inp_files/266313.got.cif
#   From: 2010.05.17/outbox.cif.g08.bks.cpg/sg12_134_cif.got.tgz:266313.got - 2010.06.03 13:09:07.
