data_PCOD9211930
_publ_section_title
;
Structure prediction by ZEFSAII (Michael W. Deem and Ramdas Pophale) SiO2 
 PCOD9211930
Probable space group: C 2/M
;
_chemical_formula_sum "Si O2"
_cell_formula_units_Z 46
_cell_length_a 16.972703
_cell_length_b 7.994987
_cell_length_c 21.476950
_cell_angle_alpha 90.000000
_cell_angle_beta 123.815129
_cell_angle_gamma 90.000000
_cell_volume 2421.349587
_symmetry_space_group_name_H-M "C 2/M"
_symmetry_group_IT_number 12
_symmetry_cell_setting 'monoclinic'
loop_
_space_group_symop_operation_xyz
x,y,z
-x,y,-z
-x,-y,-z
x,-y,z
1/2+x,1/2+y,z
1/2-x,1/2+y,-z
1/2-x,1/2-y,-z
1/2+x,1/2-y,z
loop_
_atom_site_type_symbol
_atom_site_label
_atom_site_fract_x
_atom_site_fract_y
_atom_site_fract_z
Si Si1 0.392476 0.318420 0.668446
Si Si2 0.969773 0.697969 0.830941
Si Si3 0.219011 0.500000 0.636147
Si Si4 0.697108 0.808225 0.143091
Si Si5 0.347906 0.698055 0.010540
Si Si6 0.034863 0.500000 0.366403
Si Si7 0.000000 0.500000 0.500000
Si Si8 0.679801 0.000000 0.765558
O O1 0.420192 0.500000 0.653373
O O2 0.450365 0.288748 0.757476
O O3 0.283181 0.343757 0.641340
O O4 0.410100 0.165448 0.630956
O O5 0.974708 0.500000 0.821162
O O6 0.881281 0.726709 0.838496
O O7 0.064651 0.754827 0.907105
O O8 0.115928 0.500000 0.562023
O O9 0.213195 0.500000 0.708175
O O10 0.777796 0.666836 0.184249
O O11 0.731290 0.000000 0.165180
O O12 0.648298 0.788388 0.054406
O O13 0.348700 0.500000 0.000019
O O14 0.250000 0.750000 0.000000
O O15 0.933442 0.500000 0.286374
O O16 0.015464 0.500000 0.430758
#
# Coordination Sequence:
#
# PCOD9211930 Si02
#       8
#     8   8   4   8   8   4   2   4
#     4  10  21  40  68 101 129 173 221 266 315 401
#     4  11  22  39  64  91 125 168 224 279 330 387
#     4   9  21  44  73 100 139 165 223 261 327 405
#     4  11  23  40  61  87 124 172 223 283 331 389
#     4  12  26  39  56  84 126 174 227 284 336 388
#     4  11  25  42  72 100 138 174 211 269 330 392
#     4  10  24  48  74 106 140 178 200 270 328 394
#     4  11  22  41  64  96 129 174 221 275 337 394
#
# _framework density 18.997669999999999
#
# number of rings (size 3 to 8) (size 9 to 14) (size 15 to 20)
#    0.522    0.696    3.478    2.609    3.652    3.478 
#    0.000    0.435    1.913    0.000    0.000    0.000 
#    0.000    0.000    0.000    0.000    0.000    0.000 
#
# Total GULP energy -128216.482283 kJ/mol
# GULP energy per Si atom -5574.629664 kJ/mol
# Density = 1.895443 g / cm^3
# Si number density = 18.997670 Si / 1000 Ang^3
#
#
#
# Elastic Constant Matrix: (Units=GPa)
#
#
# Indices 1 2 3 4 5 6 
#
# 1 69.1723 35.9791 29.2559 0.0000 -1.8603 0.0000
# 2 35.9791 111.8728 21.9583 0.0000 5.8456 0.0000
# 3 29.2559 21.9583 107.6742 0.0000 14.4939 0.0000
# 4 0.0000 0.0000 0.0000 -0.0348 0.0000 1.3079
# 5 -1.8603 5.8456 14.4939 0.0000 35.1256 0.0000
# 6 0.0000 0.0000 0.0000 1.3079 0.0000 19.3770
#
#
#
# Elastic Compliance Matrix: (Units=1/GPa)
#
#
# Indices 1 2 3 4 5 6 
#
# 1 0.019411 -0.005529 -0.004668 0.000000 0.003874 0.000000
# 2 -0.005529 0.010908 -0.000464 0.000000 -0.001917 0.000000
# 3 -0.004668 -0.000464 0.011301 0.000000 -0.004833 0.000000
# 4 0.000000 0.000000 0.000000 -8.121408 0.000000 0.548195
# 5 0.003874 -0.001917 -0.004833 0.000000 0.030988 0.000000
# 6 0.000000 0.000000 0.000000 0.548195 0.000000 0.014604
#
#
# Mechanical properties :
#
#
# Convention : Reuss Voigt Hill
#
# Bulk Modulus (GPa) = 49.26742 51.45622 50.36182
# Shear Modulus (GPa) = -0.62452 24.32862 11.85205
#
# Velocity S-wave (km/s) = -0.57398 3.58244 2.50045
# Velocity P-wave (km/s) = 5.05474 6.65253 5.90790
#
# Compressibility (1/GPa) = 0.02029739
#
# Stress axis : x y z
#
# Youngs Moduli (GPa) = 51.51725 91.67474 88.48849
#
# Poissons Ratio (x) = 0.50686 0.41307
# Poissons Ratio (y) = 0.28483 0.04108
# Poissons Ratio (z) = 0.24049 0.04256
#
# Static dielectric constant tensor:
#      x y z
#    x 1.660810 0.000000 -0.002140 
#    y 0.000000 1.665170 0.000000 
#    z -0.002140 0.000000 1.629280 
# 
# From -- ./inp_files/314532.got.cif
#   From: 2010.05.17/outbox.cif.g08.bks.cpg/sg12_158_cif.got.tgz:314532.got - 2010.06.03 13:09:07.
