data_PCOD9211094
_publ_section_title
;
Structure prediction by ZEFSAII (Michael W. Deem and Ramdas Pophale) SiO2 
 PCOD9211094
Probable space group: C 2/M
;
_chemical_formula_sum "Si O2"
_cell_formula_units_Z 44
_cell_length_a 17.277020
_cell_length_b 12.361129
_cell_length_c 13.363345
_cell_angle_alpha 90.000000
_cell_angle_beta 42.302128
_cell_angle_gamma 90.000000
_cell_volume 1920.803864
_symmetry_space_group_name_H-M "C 2/M"
_symmetry_group_IT_number 12
_symmetry_cell_setting 'monoclinic'
loop_
_space_group_symop_operation_xyz
x,y,z
-x,y,-z
-x,-y,-z
x,-y,z
1/2+x,1/2+y,z
1/2-x,1/2+y,-z
1/2-x,1/2-y,-z
1/2+x,1/2-y,z
loop_
_atom_site_type_symbol
_atom_site_label
_atom_site_fract_x
_atom_site_fract_y
_atom_site_fract_z
Si Si1 0.229933 0.189513 0.161296
Si Si2 0.027213 0.193847 0.085109
Si Si3 0.383282 0.500000 0.863192
Si Si4 0.516398 0.175361 0.373245
Si Si5 0.357352 0.619992 0.537761
Si Si6 0.619169 0.117710 0.688202
O O1 0.203934 0.143857 0.297706
O O2 0.148362 0.295972 0.226236
O O3 0.191759 0.095704 0.123077
O O4 0.358628 0.231267 0.026596
O O5 0.927783 0.277217 0.211670
O O6 0.046463 0.095808 0.142073
O O7 0.000000 0.153043 0.000000
O O8 0.500000 0.128816 0.500000
O O9 0.455471 0.292849 0.433433
O O10 0.447977 0.115842 0.352281
O O11 0.409773 0.500000 0.484768
O O12 0.257231 0.627402 0.551182
O O13 0.598759 0.000000 0.758084
#
# Coordination Sequence:
#
# PCOD9211094 Si02
#       6
#     8   8   4   8   8   8
#     4  11  23  40  65  99 127 169 220 275 326 387
#     4  12  26  45  69  98 140 178 219 274 339 405
#     4  12  25  42  70 102 133 175 224 280 334 389
#     4  10  23  40  64  91 131 168 220 275 324 391
#     4  10  21  39  66  93 126 172 222 271 325 391
#     4  11  24  41  66  96 132 177 220 271 336 403
#
# _framework density 22.907077999999998
#
# number of rings (size 3 to 8) (size 9 to 14) (size 15 to 20)
#    0.000    1.091    4.545    1.364    2.545    1.818 
#    0.000    0.000    2.000    0.000    0.000    0.000 
#    0.000    0.000    0.000    0.000    0.000    0.000 
#
# Total GULP energy -122588.598029 kJ/mol
# GULP energy per Si atom -5572.209001 kJ/mol
# Density = 2.285494 g / cm^3
# Si number density = 22.907078 Si / 1000 Ang^3
#
#
#
# Elastic Constant Matrix: (Units=GPa)
#
#
# Indices 1 2 3 4 5 6 
#
# 1 113.4098 7.9434 -6.2841 0.0000 3.8918 0.0000
# 2 7.9434 118.3147 9.5437 0.0000 -0.8679 0.0000
# 3 -6.2841 9.5437 26.1655 0.0000 -3.3458 0.0000
# 4 0.0000 0.0000 0.0000 4.6109 0.0000 -21.7162
# 5 3.8918 -0.8679 -3.3458 0.0000 35.7115 0.0000
# 6 0.0000 0.0000 0.0000 -21.7162 0.0000 2.6487
#
#
#
# Elastic Compliance Matrix: (Units=1/GPa)
#
#
# Indices 1 2 3 4 5 6 
#
# 1 0.009032 -0.000803 0.002362 0.000000 -0.000782 0.000000
# 2 -0.000803 0.008780 -0.003397 0.000000 -0.000017 0.000000
# 3 0.002362 -0.003397 0.040466 0.000000 0.003451 0.000000
# 4 0.000000 0.000000 0.000000 -0.005766 0.000000 -0.047273
# 5 -0.000782 -0.000017 0.003451 0.000000 0.028410 0.000000
# 6 0.000000 0.000000 0.000000 -0.047273 0.000000 -0.010037
#
#
# Mechanical properties :
#
#
# Convention : Reuss Voigt Hill
#
# Bulk Modulus (GPa) = 18.31472 31.14400 24.72936
# Shear Modulus (GPa) = 53.90161 25.04001 39.47081
#
# Velocity S-wave (km/s) = 4.85609 3.30981 4.15551
# Velocity P-wave (km/s) = 6.28130 5.31336 5.81750
#
# Compressibility (1/GPa) = 0.05460090
#
# Stress axis : x y z
#
# Youngs Moduli (GPa) = 110.72333 113.89729 24.71212
#
# Poissons Ratio (x) = 0.09141 -0.05836
# Poissons Ratio (y) = 0.08887 0.08396
# Poissons Ratio (z) = -0.26150 0.38695
#
# Static dielectric constant tensor:
#      x y z
#    x 1.862620 0.000000 0.051480 
#    y 0.000000 1.913080 0.000000 
#    z 0.051480 0.000000 1.912510 
# 
# From -- ./inp_files/222972.got.cif
#   From: 2010.05.17/outbox.cif.g08.bks.cpg/sg12_112_cif.got.tgz:222972.got - 2010.06.03 13:09:07.
