data_PCOD9211590
_publ_section_title
;
Structure prediction by ZEFSAII (Michael W. Deem and Ramdas Pophale) SiO2 
 PCOD9211590
Probable space group: C 2/M
;
_chemical_formula_sum "Si O2"
_cell_formula_units_Z 50
_cell_length_a 24.028510
_cell_length_b 9.612265
_cell_length_c 11.649524
_cell_angle_alpha 90.000000
_cell_angle_beta 110.636424
_cell_angle_gamma 90.000000
_cell_volume 2518.026831
_symmetry_space_group_name_H-M "C 2/M"
_symmetry_group_IT_number 12
_symmetry_cell_setting 'monoclinic'
loop_
_space_group_symop_operation_xyz
x,y,z
-x,y,-z
-x,-y,-z
x,-y,z
1/2+x,1/2+y,z
1/2-x,1/2+y,-z
1/2-x,1/2-y,-z
1/2+x,1/2-y,z
loop_
_atom_site_type_symbol
_atom_site_label
_atom_site_fract_x
_atom_site_fract_y
_atom_site_fract_z
Si Si1 0.864075 0.340511 0.331296
Si Si2 0.772125 0.163487 0.125939
Si Si3 0.440769 0.338218 0.034692
Si Si4 0.016561 0.257447 0.685721
Si Si5 0.500000 0.500000 0.500000
Si Si6 0.118686 0.661401 0.402741
Si Si7 0.652597 0.836037 0.179023
O O1 0.841543 0.500000 0.308523
O O2 0.829128 0.239194 0.220886
O O3 0.860543 0.281882 0.458853
O O4 0.933064 0.341754 0.345381
O O5 0.719458 0.171877 0.181537
O O6 0.782427 0.000000 0.107205
O O7 0.750000 0.250000 0.000000
O O8 0.423010 0.500000 0.030751
O O9 0.457353 0.279422 0.170906
O O10 0.500000 0.330528 0.000000
O O11 0.389803 0.249098 0.936536
O O12 0.952598 0.328077 0.654006
O O13 0.005743 0.120382 0.603456
O O14 0.135993 0.500000 0.418654
O O15 0.144777 0.719731 0.303206
O O16 0.635018 0.000000 0.164969
#
# Coordination Sequence:
#
# PCOD9211590 Si02
#       7
#     8   8   8   8   2   8   8
#     4  11  24  40  64  92 124 164 211 252 308 375
#     4  11  25  44  67  90 122 162 211 260 309 370
#     4  11  23  37  58  91 125 160 199 249 308 368
#     4  12  22  38  62  91 129 165 208 253 314 370
#     4  12  24  36  60  92 136 168 206 258 314 374
#     4  10  21  40  64  90 125 160 203 259 311 371
#     4  10  23  43  64  91 122 161 208 256 309 368
#
# _framework density 19.856816999999999
#
# number of rings (size 3 to 8) (size 9 to 14) (size 15 to 20)
#    0.000    1.120    4.000    1.920    1.120    7.360 
#    0.000    0.000    0.000    0.000    0.000    0.000 
#    0.000    0.000    0.000    0.000    0.000    0.000 
#
# Total GULP energy -139395.154102 kJ/mol
# GULP energy per Si atom -5575.806164 kJ/mol
# Density = 1.981162 g / cm^3
# Si number density = 19.856817 Si / 1000 Ang^3
#
#
#
# Elastic Constant Matrix: (Units=GPa)
#
#
# Indices 1 2 3 4 5 6 
#
# 1 57.3905 7.9713 20.3659 0.0000 -7.2315 0.0000
# 2 7.9713 71.1457 25.5498 0.0000 0.3010 0.0000
# 3 20.3659 25.5498 123.3958 0.0000 -28.3002 0.0000
# 4 0.0000 0.0000 0.0000 -31.3874 0.0000 -139.8456
# 5 -7.2315 0.3010 -28.3002 0.0000 32.4844 0.0000
# 6 0.0000 0.0000 0.0000 -139.8456 0.0000 -296.5533
#
#
#
# Elastic Compliance Matrix: (Units=1/GPa)
#
#
# Indices 1 2 3 4 5 6 
#
# 1 0.018698 -0.001266 -0.002333 0.000000 0.002142 0.000000
# 2 -0.001266 0.015615 -0.003902 0.000000 -0.003826 0.000000
# 3 -0.002333 -0.003902 0.011480 0.000000 0.009518 0.000000
# 4 0.000000 0.000000 0.000000 0.028935 0.000000 -0.013645
# 5 0.002142 -0.003826 0.009518 0.000000 0.039588 0.000000
# 6 0.000000 0.000000 0.000000 -0.013645 0.000000 0.003063
#
#
# Mechanical properties :
#
#
# Convention : Reuss Voigt Hill
#
# Bulk Modulus (GPa) = 32.47624 39.96732 36.22178
# Shear Modulus (GPa) = 35.05242 -45.88824 -5.41791
#
# Velocity S-wave (km/s) = 4.20606 -4.81246 -1.65361
# Velocity P-wave (km/s) = 6.32286 3.27234 3.82560
#
# Compressibility (1/GPa) = 0.03079174
#
# Stress axis : x y z
#
# Youngs Moduli (GPa) = 53.48156 64.04168 87.11039
#
# Poissons Ratio (x) = 0.08110 0.20319
# Poissons Ratio (y) = 0.06773 0.33986
# Poissons Ratio (z) = 0.12475 0.24986
#
# Static dielectric constant tensor:
#      x y z
#    x 1.715460 0.000000 -0.033830 
#    y 0.000000 1.684010 0.000000 
#    z -0.033830 0.000000 1.695700 
# 
# From -- ./inp_files/181198.got.cif
#   From: 2010.05.17/outbox.cif.g08.bks.cpg/sg12_91_cif.got.tgz:181198.got - 2010.06.03 13:09:07.
