data_PCOD9211600
_publ_section_title
;
Structure prediction by ZEFSAII (Michael W. Deem and Ramdas Pophale) SiO2 
 PCOD9211600
Probable space group: C 2/M
;
_chemical_formula_sum "Si O2"
_cell_formula_units_Z 36
_cell_length_a 8.701169
_cell_length_b 13.295578
_cell_length_c 16.897495
_cell_angle_alpha 90.000000
_cell_angle_beta 40.023830
_cell_angle_gamma 90.000000
_cell_volume 1257.157883
_symmetry_space_group_name_H-M "C 2/M"
_symmetry_group_IT_number 12
_symmetry_cell_setting 'monoclinic'
loop_
_space_group_symop_operation_xyz
x,y,z
-x,y,-z
-x,-y,-z
x,-y,z
1/2+x,1/2+y,z
1/2-x,1/2+y,-z
1/2-x,1/2-y,-z
1/2+x,1/2-y,z
loop_
_atom_site_type_symbol
_atom_site_label
_atom_site_fract_x
_atom_site_fract_y
_atom_site_fract_z
Si Si1 0.711711 0.112275 0.044302
Si Si2 0.865087 0.116707 0.254254
Si Si3 0.118643 0.621635 0.637349
Si Si4 0.000000 0.721483 0.000000
Si Si5 0.936993 0.878495 0.654779
O O1 0.491145 0.147973 0.078218
O O2 0.927282 0.114595 0.894271
O O3 0.699260 0.000000 0.081187
O O4 0.786039 0.199809 0.073664
O O5 0.624702 0.159398 0.308809
O O6 0.969533 0.156566 0.295793
O O7 0.805640 0.000000 0.295328
O O8 0.093125 0.500000 0.652026
O O9 0.337311 0.640534 0.491839
O O10 0.208037 0.651495 0.690335
O O11 0.907042 0.000000 0.674813
#
# Coordination Sequence:
#
# PCOD9211600 Si02
#       5
#     8   8   8   4   8
#     4  10  21  40  64  91 121 156 199 248 306 369
#     4   9  16  27  46  77 111 147 193 241 290 347
#     4   8  13  22  38  67 109 150 190 237 284 338
#     4  10  22  42  64  88 122 154 198 246 312 376
#     4   8  13  22  38  67 109 150 190 237 284 338
#
# _framework density 28.636022000000001
#
# number of rings (size 3 to 8) (size 9 to 14) (size 15 to 20)
#    0.000    3.111    0.000    2.667    0.000    2.667 
#    8.000    0.000    0.000    0.000    0.000    6.222 
#    0.000    0.000    0.000    0.000    0.000   24.889 
#
# Total GULP energy -100853.282747 kJ/mol
# GULP energy per Si atom -5602.960153 kJ/mol
# Density = 2.857085 g / cm^3
# Si number density = 28.636022 Si / 1000 Ang^3
#
#
#
# Elastic Constant Matrix: (Units=GPa)
#
#
# Indices 1 2 3 4 5 6 
#
# 1 285.7605 57.2290 84.7733 -0.0005 -4.4327 -0.0005
# 2 57.2290 141.7567 -3.5598 0.0001 0.0028 -0.0006
# 3 84.7733 -3.5598 126.0830 -0.0015 14.5877 0.0002
# 4 -0.0005 0.0001 -0.0015 14.8863 0.0007 3.4210
# 5 -4.4327 0.0028 14.5877 0.0007 48.1173 0.0002
# 6 -0.0005 -0.0006 0.0002 3.4210 0.0002 73.5689
#
#
#
# Elastic Compliance Matrix: (Units=1/GPa)
#
#
# Indices 1 2 3 4 5 6 
#
# 1 0.005020 -0.002118 -0.003616 0.000000 0.001559 0.000000
# 2 -0.002118 0.007953 0.001732 0.000000 -0.000721 0.000000
# 3 -0.003616 0.001732 0.010830 0.000001 -0.003616 0.000000
# 4 0.000000 0.000000 0.000001 0.067901 -0.000001 -0.003157
# 5 0.001559 -0.000721 -0.003616 -0.000001 0.022023 0.000000
# 6 0.000000 0.000000 0.000000 -0.003157 0.000000 0.013740
#
#
# Mechanical properties :
#
#
# Convention : Reuss Voigt Hill
#
# Bulk Modulus (GPa) = 63.29266 92.27614 77.78440
# Shear Modulus (GPa) = 35.52765 54.99167 45.25966
#
# Velocity S-wave (km/s) = 3.52613 4.38695 3.97988
# Velocity P-wave (km/s) = 6.22322 7.61277 6.95280
#
# Compressibility (1/GPa) = 0.01579962
#
# Stress axis : x y z
#
# Youngs Moduli (GPa) = 199.19160 125.74290 92.33984
#
# Poissons Ratio (x) = 0.26627 0.33386
# Poissons Ratio (y) = 0.42180 -0.15990
# Poissons Ratio (z) = 0.72019 -0.21775
#
# Static dielectric constant tensor:
#      x y z
#    x 2.211430 0.000000 -0.018220 
#    y 0.000000 2.178200 0.000000 
#    z -0.018220 0.000000 2.179570 
# 
# From -- ./inp_files/194191.got.cif
#   From: 2010.05.17/outbox.cif.g08.bks.cpg/sg12_98_cif.got.tgz:194191.got - 2010.06.03 13:09:07.
