data_PCOD9211720
_publ_section_title
;
Structure prediction by ZEFSAII (Michael W. Deem and Ramdas Pophale) SiO2 
 PCOD9211720
Probable space group: C 2/M
;
_chemical_formula_sum "Si O2"
_cell_formula_units_Z 56
_cell_length_a 19.569263
_cell_length_b 8.706510
_cell_length_c 20.080189
_cell_angle_alpha 90.000000
_cell_angle_beta 115.333522
_cell_angle_gamma 90.000000
_cell_volume 3092.247565
_symmetry_space_group_name_H-M "C 2/M"
_symmetry_group_IT_number 12
_symmetry_cell_setting 'monoclinic'
loop_
_space_group_symop_operation_xyz
x,y,z
-x,y,-z
-x,-y,-z
x,-y,z
1/2+x,1/2+y,z
1/2-x,1/2+y,-z
1/2-x,1/2-y,-z
1/2+x,1/2-y,z
loop_
_atom_site_type_symbol
_atom_site_label
_atom_site_fract_x
_atom_site_fract_y
_atom_site_fract_z
Si Si1 0.043173 0.177550 0.820240
Si Si2 0.178648 0.313013 0.428913
Si Si3 0.624319 0.183068 0.257964
Si Si4 0.033944 0.676600 0.449493
Si Si5 0.260731 0.680623 0.797502
Si Si6 0.700562 0.183676 0.919750
Si Si7 0.905415 0.672171 0.287294
O O1 0.113953 0.256954 0.887174
O O2 0.068579 0.202920 0.754519
O O3 0.959596 0.249443 0.788617
O O4 0.039688 0.000000 0.837240
O O5 0.182081 0.500000 0.429800
O O6 0.250000 0.250000 0.500000
O O7 0.162535 0.265958 0.344830
O O8 0.105647 0.259943 0.440814
O O9 0.676700 0.229543 0.217593
O O10 0.616880 0.000000 0.259236
O O11 0.055874 0.500000 0.477235
O O12 0.000000 0.756754 0.500000
O O13 0.964863 0.668784 0.370186
O O14 0.281203 0.500000 0.807344
O O15 0.238998 0.727593 0.864290
O O16 0.180248 0.696894 0.726391
O O17 0.700350 0.000000 0.922415
O O18 0.750000 0.250000 0.000000
O O19 0.906597 0.500000 0.255229
#
# Coordination Sequence:
#
# PCOD9211720 Si02
#       7
#     8   8   8   8   8   8   8
#     4  11  21  35  59  86 113 149 192 233 280 338
#     4  10  22  37  54  77 110 148 192 241 295 349
#     4  11  22  38  57  80 116 156 194 242 290 341
#     4   9  17  31  53  76 101 140 188 235 286 345
#     4   9  20  35  57  87 115 148 188 232 278 337
#     4  10  21  40  65  92 123 152 185 228 278 337
#     4   9  17  34  55  77 108 143 188 238 286 339
#
# _framework density 18.109805000000001
#
# number of rings (size 3 to 8) (size 9 to 14) (size 15 to 20)
#    0.000    2.143    1.429    3.000    2.000    4.000 
#    0.000    0.714    0.000    5.143    0.000    0.000 
#    0.000    0.000    0.000    0.000    0.000    0.000 
#
# Total GULP energy -155959.609075 kJ/mol
# GULP energy per Si atom -5569.986038 kJ/mol
# Density = 1.806859 g / cm^3
# Si number density = 18.109805 Si / 1000 Ang^3
#
#
#
# Elastic Constant Matrix: (Units=GPa)
#
#
# Indices 1 2 3 4 5 6 
#
# 1 135.7274 47.6354 74.1767 0.0000 13.8951 0.0000
# 2 47.6354 55.7202 39.1711 0.0000 7.8339 0.0000
# 3 74.1767 39.1711 119.1485 0.0000 23.8784 0.0000
# 4 0.0000 0.0000 0.0000 26.1593 0.0000 3.0627
# 5 13.8951 7.8339 23.8784 0.0000 24.6551 0.0000
# 6 0.0000 0.0000 0.0000 3.0627 0.0000 26.6185
#
#
#
# Elastic Compliance Matrix: (Units=1/GPa)
#
#
# Indices 1 2 3 4 5 6 
#
# 1 0.013006 -0.007058 -0.005903 0.000000 0.000630 0.000000
# 2 -0.007058 0.027171 -0.004474 0.000000 -0.000322 0.000000
# 3 -0.005903 -0.004474 0.015619 0.000000 -0.010378 0.000000
# 4 0.000000 0.000000 0.000000 0.038749 0.000000 -0.004458
# 5 0.000630 -0.000322 -0.010378 0.000000 0.050358 0.000000
# 6 0.000000 0.000000 0.000000 -0.004458 0.000000 0.038081
#
#
# Mechanical properties :
#
#
# Convention : Reuss Voigt Hill
#
# Bulk Modulus (GPa) = 47.78727 70.28472 59.03600
# Shear Modulus (GPa) = 22.23896 25.46080 23.84988
#
# Velocity S-wave (km/s) = 3.50809 3.75362 3.63293
# Velocity P-wave (km/s) = 6.54628 7.59478 7.08994
#
# Compressibility (1/GPa) = 0.02092607
#
# Stress axis : x y z
#
# Youngs Moduli (GPa) = 76.88506 36.80344 64.02596
#
# Poissons Ratio (x) = 0.25976 0.37795
# Poissons Ratio (y) = 0.54265 0.28647
# Poissons Ratio (z) = 0.45386 0.16467
#
# Static dielectric constant tensor:
#      x y z
#    x 1.623350 0.000000 -0.003780 
#    y 0.000000 1.641410 0.000000 
#    z -0.003780 0.000000 1.630710 
# 
# From -- ./inp_files/319020.got.cif
#   From: 2010.05.17/outbox.cif.g08.bks.cpg/sg12_160_cif.got.tgz:319020.got - 2010.06.03 13:09:07.
