data_PCOD9211185
_publ_section_title
;
Structure prediction by ZEFSAII (Michael W. Deem and Ramdas Pophale) SiO2 
 PCOD9211185
Probable space group: C 2/M
;
_chemical_formula_sum "Si O2"
_cell_formula_units_Z 36
_cell_length_a 5.424749
_cell_length_b 27.345468
_cell_length_c 10.718152
_cell_angle_alpha 90.000000
_cell_angle_beta 111.186566
_cell_angle_gamma 90.000000
_cell_volume 1482.487959
_symmetry_space_group_name_H-M "C 2/M"
_symmetry_group_IT_number 12
_symmetry_cell_setting 'monoclinic'
loop_
_space_group_symop_operation_xyz
x,y,z
-x,y,-z
-x,-y,-z
x,-y,z
1/2+x,1/2+y,z
1/2-x,1/2+y,-z
1/2-x,1/2-y,-z
1/2+x,1/2-y,z
loop_
_atom_site_type_symbol
_atom_site_label
_atom_site_fract_x
_atom_site_fract_y
_atom_site_fract_z
Si Si1 0.500000 0.862389 0.500000
Si Si2 0.288511 0.179177 0.048099
Si Si3 0.705584 0.569704 0.932910
Si Si4 0.604838 0.444076 0.376174
Si Si5 0.911029 0.717039 0.667079
O O1 0.313005 0.900477 0.393364
O O2 0.666076 0.823559 0.449480
O O3 0.434854 0.182818 0.205691
O O4 0.500000 0.204306 0.000000
O O5 0.234967 0.126938 0.973169
O O6 0.000000 0.200618 0.000000
O O7 0.605010 0.561801 0.774035
O O8 0.500000 0.551455 0.000000
O O9 0.000000 0.550127 0.000000
O O10 0.500000 0.438854 0.500000
O O11 0.709506 0.500000 0.385031
O O12 0.148278 0.754237 0.665627
#
# Coordination Sequence:
#
# PCOD9211185 Si02
#       5
#     4   8   8   8   8
#     4  12  27  48  80 102 160 210 255 320 398 468
#     4  10  21  39  67  99 142 192 247 304 374 446
#     4  10  23  45  76 112 153 202 256 314 391 465
#     4  11  28  49  80 119 156 206 267 328 395 476
#     4  12  28  46  72 111 152 200 261 318 378 462
#
# _framework density 24.283503
#
# number of rings (size 3 to 8) (size 9 to 14) (size 15 to 20)
#    0.000    1.111    0.000    5.000   12.444    3.556 
#    0.000    0.000    0.000    0.000    0.000    0.000 
#    0.000    0.000    0.000    0.000    0.000    0.000 
#
# Total GULP energy -100448.914388 kJ/mol
# GULP energy per Si atom -5580.495244 kJ/mol
# Density = 2.422823 g / cm^3
# Si number density = 24.283503 Si / 1000 Ang^3
#
#
#
# Elastic Constant Matrix: (Units=GPa)
#
#
# Indices 1 2 3 4 5 6 
#
# 1 184.1012 24.2831 43.5569 0.0000 8.1646 0.0000
# 2 24.2831 182.7787 35.9347 0.0000 -6.7589 0.0000
# 3 43.5569 35.9347 158.7788 0.0000 14.0342 0.0000
# 4 0.0000 0.0000 0.0000 6.2354 0.0000 -17.5089
# 5 8.1646 -6.7589 14.0342 0.0000 38.7166 0.0000
# 6 0.0000 0.0000 0.0000 -17.5089 0.0000 -33.4479
#
#
#
# Elastic Compliance Matrix: (Units=1/GPa)
#
#
# Indices 1 2 3 4 5 6 
#
# 1 0.005874 -0.000532 -0.001419 0.000000 -0.000817 0.000000
# 2 -0.000532 0.005862 -0.001324 0.000000 0.001615 0.000000
# 3 -0.001419 -0.001324 0.007212 0.000000 -0.002546 0.000000
# 4 0.000000 0.000000 0.000000 0.064932 0.000000 -0.033990
# 5 -0.000817 0.001615 -0.002546 0.000000 0.027206 0.000000
# 6 0.000000 0.000000 0.000000 -0.033990 0.000000 -0.012105
#
#
# Mechanical properties :
#
#
# Convention : Reuss Voigt Hill
#
# Bulk Modulus (GPa) = 80.64880 81.46756 81.05818
# Shear Modulus (GPa) = 45.59477 30.42641 38.01059
#
# Velocity S-wave (km/s) = 4.33783 3.54357 3.96066
# Velocity P-wave (km/s) = 7.64019 7.09675 7.37348
#
# Compressibility (1/GPa) = 0.01239944
#
# Stress axis : x y z
#
# Youngs Moduli (GPa) = 170.24655 170.60002 138.66058
#
# Poissons Ratio (x) = 0.09070 0.19673
# Poissons Ratio (y) = 0.09051 0.18352
# Poissons Ratio (z) = 0.24154 0.22579
#
# Static dielectric constant tensor:
#      x y z
#    x 1.970750 0.000000 -0.076520 
#    y 0.000000 1.841870 0.000000 
#    z -0.076520 0.000000 2.048720 
# 
# From -- ./inp_files/115573.got.cif
#   From: 2010.05.17/outbox.cif.g08.bks.cpg/sg12_58_cif.got.tgz:115573.got - 2010.06.03 13:09:07.
