data_PCOD9211673
_publ_section_title
;
Structure prediction by ZEFSAII (Michael W. Deem and Ramdas Pophale) SiO2 
 PCOD9211673
Probable space group: C 2/M
;
_chemical_formula_sum "Si O2"
_cell_formula_units_Z 48
_cell_length_a 17.223093
_cell_length_b 17.232478
_cell_length_c 14.446359
_cell_angle_alpha 90.000000
_cell_angle_beta 145.052132
_cell_angle_gamma 90.000000
_cell_volume 2456.086732
_symmetry_space_group_name_H-M "C 2/M"
_symmetry_group_IT_number 12
_symmetry_cell_setting 'monoclinic'
loop_
_space_group_symop_operation_xyz
x,y,z
-x,y,-z
-x,-y,-z
x,-y,z
1/2+x,1/2+y,z
1/2-x,1/2+y,-z
1/2-x,1/2-y,-z
1/2+x,1/2-y,z
loop_
_atom_site_type_symbol
_atom_site_label
_atom_site_fract_x
_atom_site_fract_y
_atom_site_fract_z
Si Si1 0.089734 0.500000 0.999464
Si Si2 0.605173 0.500000 0.684391
Si Si3 0.104988 0.330891 0.682907
Si Si4 0.383134 0.669049 0.222135
Si Si5 0.845819 0.091876 0.812585
Si Si6 0.074711 0.652736 0.867065
Si Si7 0.878092 0.783165 0.682521
O O1 0.238576 0.500000 0.188805
O O2 0.065922 0.572865 0.911268
O O3 0.000000 0.500000 0.000000
O O4 0.500000 0.500000 0.500000
O O5 0.592174 0.581057 0.724358
O O6 0.116149 0.236905 0.699779
O O7 0.244127 0.373595 0.790887
O O8 0.054156 0.353361 0.736157
O O9 0.000000 0.351796 0.500000
O O10 0.506544 0.685055 0.273652
O O11 0.232529 0.676460 0.032489
O O12 0.836951 0.150960 0.716294
O O13 0.815725 0.000000 0.763724
O O14 0.000000 0.095281 0.000000
O O15 0.964623 0.710140 0.805830
O O16 0.750000 0.750000 0.500000
#
# Coordination Sequence:
#
# PCOD9211673 Si02
#       7
#     4   4   8   8   8   8   8
#     4  10  24  42  65  96 124 166 217 272 333 388
#     4  10  22  38  62  96 122 162 212 270 326 382
#     4  11  22  40  62  93 127 171 216 260 319 385
#     4  10  21  40  65  87 126 174 216 261 319 392
#     4  11  24  39  62  95 127 164 211 267 325 379
#     4  10  22  42  65  91 127 174 220 261 323 402
#     4  11  23  41  61  94 125 167 214 265 328 375
#
# _framework density 19.543282999999999
#
# number of rings (size 3 to 8) (size 9 to 14) (size 15 to 20)
#    0.000    1.500    0.000    6.500    2.333    5.000 
#    4.500    0.000    0.000    0.000    0.000    0.000 
#    0.000    0.000    0.000    0.000    0.000    0.000 
#
# Total GULP energy -133812.187258 kJ/mol
# GULP energy per Si atom -5575.507802 kJ/mol
# Density = 1.949880 g / cm^3
# Si number density = 19.543283 Si / 1000 Ang^3
#
#
#
# Elastic Constant Matrix: (Units=GPa)
#
#
# Indices 1 2 3 4 5 6 
#
# 1 82.5715 56.8886 10.4054 0.0000 -0.0765 0.0000
# 2 56.8886 158.3970 41.2193 0.0000 2.2584 0.0000
# 3 10.4054 41.2193 76.9031 0.0000 -17.2538 0.0000
# 4 0.0000 0.0000 0.0000 -0.2593 0.0000 -20.7305
# 5 -0.0765 2.2584 -17.2538 0.0000 24.1591 0.0000
# 6 0.0000 0.0000 0.0000 -20.7305 0.0000 -4.2694
#
#
#
# Elastic Compliance Matrix: (Units=1/GPa)
#
#
# Indices 1 2 3 4 5 6 
#
# 1 0.016227 -0.006256 0.001548 0.000000 0.001742 0.000000
# 2 -0.006256 0.010117 -0.005707 0.000000 -0.005042 0.000000
# 3 0.001548 -0.005707 0.019022 0.000000 0.014123 0.000000
# 4 0.000000 0.000000 0.000000 0.009960 0.000000 -0.048363
# 5 0.001742 -0.005042 0.014123 0.000000 0.051955 0.000000
# 6 0.000000 0.000000 0.000000 -0.048363 0.000000 0.000605
#
#
# Mechanical properties :
#
#
# Convention : Reuss Voigt Hill
#
# Bulk Modulus (GPa) = 40.75627 59.43312 50.09469
# Shear Modulus (GPa) = 36.52438 17.88331 27.20384
#
# Velocity S-wave (km/s) = 4.32776 3.02828 3.73497
# Velocity P-wave (km/s) = 6.77291 6.53486 6.65495
#
# Compressibility (1/GPa) = 0.02453610
#
# Stress axis : x y z
#
# Youngs Moduli (GPa) = 61.62489 98.84245 52.57184
#
# Poissons Ratio (x) = 0.61833 -0.08139
# Poissons Ratio (y) = 0.38551 0.30005
# Poissons Ratio (z) = -0.09541 0.56413
#
# Static dielectric constant tensor:
#      x y z
#    x 1.665180 0.000000 -0.015160 
#    y 0.000000 1.718630 0.000000 
#    z -0.015160 0.000000 1.715240 
# 
# From -- ./inp_files/226969.got.cif
#   From: 2010.05.17/outbox.cif.g08.bks.cpg/sg12_114_cif.got.tgz:226969.got - 2010.06.03 13:09:07.
