data_PCOD9211497
_publ_section_title
;
Structure prediction by ZEFSAII (Michael W. Deem and Ramdas Pophale) SiO2 
 PCOD9211497
Probable space group: C 2/M
;
_chemical_formula_sum "Si O2"
_cell_formula_units_Z 36
_cell_length_a 15.328785
_cell_length_b 19.881733
_cell_length_c 12.016056
_cell_angle_alpha 90.000000
_cell_angle_beta 155.222414
_cell_angle_gamma 90.000000
_cell_volume 1534.752653
_symmetry_space_group_name_H-M "C 2/M"
_symmetry_group_IT_number 12
_symmetry_cell_setting 'monoclinic'
loop_
_space_group_symop_operation_xyz
x,y,z
-x,y,-z
-x,-y,-z
x,-y,z
1/2+x,1/2+y,z
1/2-x,1/2+y,-z
1/2-x,1/2-y,-z
1/2+x,1/2-y,z
loop_
_atom_site_type_symbol
_atom_site_label
_atom_site_fract_x
_atom_site_fract_y
_atom_site_fract_z
Si Si1 0.500000 0.208007 0.000000
Si Si2 0.755708 0.146156 0.496803
Si Si3 0.960330 0.925471 0.340139
Si Si4 0.419631 0.078858 0.246796
Si Si5 0.320609 0.290015 0.968436
O O1 0.401382 0.166479 0.783810
O O2 0.686765 0.249760 0.155855
O O3 0.912698 0.096539 0.618250
O O4 0.637432 0.110473 0.460756
O O5 0.927713 0.201009 0.730950
O O6 0.000000 0.886256 0.500000
O O7 0.041066 0.000000 0.450149
O O8 0.721649 0.924270 0.028671
O O9 0.427770 0.000000 0.295341
O O10 0.301608 0.138481 0.178610
O O11 0.250000 0.250000 0.000000
#
# Coordination Sequence:
#
# PCOD9211497 Si02
#       5
#     4   8   8   8   8
#     4  12  24  40  66  94 126 172 208 266 316 376
#     4  11  22  38  62  93 125 164 213 259 317 375
#     4   9  18  31  52  86 124 163 203 250 312 380
#     4  10  21  40  63  89 128 167 207 263 316 372
#     4  11  25  44  63  97 130 166 216 260 318 378
#
# _framework density 23.456548999999999
#
# number of rings (size 3 to 8) (size 9 to 14) (size 15 to 20)
#    0.000    1.556    2.222    2.667    3.111    0.889 
#    0.000    5.000    0.000    1.333    0.000    0.000 
#    0.000    0.000    0.000    0.000    0.000    0.000 
#
# Total GULP energy -100232.549134 kJ/mol
# GULP energy per Si atom -5568.474952 kJ/mol
# Density = 2.340316 g / cm^3
# Si number density = 23.456549 Si / 1000 Ang^3
#
#
#
# Elastic Constant Matrix: (Units=GPa)
#
#
# Indices 1 2 3 4 5 6 
#
# 1 111.7979 47.5795 20.9089 0.0000 18.2065 0.0000
# 2 47.5795 113.5589 17.8503 0.0000 16.6430 0.0000
# 3 20.9089 17.8503 56.4008 0.0000 17.4232 0.0000
# 4 0.0000 0.0000 0.0000 32.8314 0.0000 8.5004
# 5 18.2065 16.6430 17.4232 0.0000 40.7301 0.0000
# 6 0.0000 0.0000 0.0000 8.5004 0.0000 23.5814
#
#
#
# Elastic Compliance Matrix: (Units=1/GPa)
#
#
# Indices 1 2 3 4 5 6 
#
# 1 0.011515 -0.004110 -0.002186 0.000000 -0.002533 0.000000
# 2 -0.004110 0.011045 -0.001320 0.000000 -0.002111 0.000000
# 3 -0.002186 -0.001320 0.021305 0.000000 -0.007598 0.000000
# 4 0.000000 0.000000 0.000000 0.033594 0.000000 -0.012110
# 5 -0.002533 -0.002111 -0.007598 0.000000 0.029797 0.000000
# 6 0.000000 0.000000 0.000000 -0.012110 0.000000 0.046771
#
#
# Mechanical properties :
#
#
# Convention : Reuss Voigt Hill
#
# Bulk Modulus (GPa) = 34.92271 50.49280 42.70776
# Shear Modulus (GPa) = 27.96377 32.45651 30.21014
#
# Velocity S-wave (km/s) = 3.45650 3.72383 3.59265
# Velocity P-wave (km/s) = 5.55432 6.32946 5.95451
#
# Compressibility (1/GPa) = 0.02863466
#
# Stress axis : x y z
#
# Youngs Moduli (GPa) = 86.84262 90.53972 46.93690
#
# Poissons Ratio (x) = 0.37211 0.10259
# Poissons Ratio (y) = 0.35691 0.06194
# Poissons Ratio (z) = 0.18981 0.11949
#
# Static dielectric constant tensor:
#      x y z
#    x 2.194550 0.000000 -0.300600 
#    y 0.000000 2.092950 0.000000 
#    z -0.300600 0.000000 2.223750 
# 
# From -- ./inp_files/148750.got.cif
#   From: 2010.05.17/outbox.cif.g08.bks.cpg/sg12_75_cif.got.tgz:148750.got - 2010.06.03 13:09:07.
