data_PCOD9211244
_publ_section_title
;
Structure prediction by ZEFSAII (Michael W. Deem and Ramdas Pophale) SiO2 
 PCOD9211244
Probable space group: C 2/M
;
_chemical_formula_sum "Si O2"
_cell_formula_units_Z 48
_cell_length_a 9.185355
_cell_length_b 18.134541
_cell_length_c 21.884428
_cell_angle_alpha 90.000000
_cell_angle_beta 135.199983
_cell_angle_gamma 90.000000
_cell_volume 2568.630100
_symmetry_space_group_name_H-M "C 2/M"
_symmetry_group_IT_number 12
_symmetry_cell_setting 'monoclinic'
loop_
_space_group_symop_operation_xyz
x,y,z
-x,y,-z
-x,-y,-z
x,-y,z
1/2+x,1/2+y,z
1/2-x,1/2+y,-z
1/2-x,1/2-y,-z
1/2+x,1/2-y,z
loop_
_atom_site_type_symbol
_atom_site_label
_atom_site_fract_x
_atom_site_fract_y
_atom_site_fract_z
Si Si1 0.772150 0.167875 0.267393
Si Si2 0.435623 0.584860 0.550664
Si Si3 0.986894 0.828737 0.094552
Si Si4 0.839854 0.332905 0.096941
Si Si5 0.609422 0.672805 0.261703
Si Si6 0.507972 0.082509 0.574741
O O1 0.903838 0.124620 0.357250
O O2 0.554722 0.130691 0.181981
O O3 0.702806 0.246488 0.274740
O O4 0.919280 0.177973 0.252198
O O5 0.500000 0.581582 0.500000
O O6 0.410775 0.500000 0.565954
O O7 0.210095 0.621642 0.478487
O O8 0.185202 0.824099 0.108690
O O9 0.041796 0.862152 0.176549
O O10 0.912208 0.746598 0.091885
O O11 0.802621 0.864843 0.999967
O O12 0.791715 0.625316 0.344880
O O13 0.500000 0.075601 0.500000
O O14 0.508085 0.000000 0.602595
#
# Coordination Sequence:
#
# PCOD9211244 Si02
#       6
#     8   8   8   8   8   8
#     4  11  22  34  53  82 111 138 174 220 264 310
#     4  10  23  40  58  78 102 140 181 217 262 314
#     4   9  17  30  49  74 104 140 174 209 261 312
#     4   9  17  30  49  73 106 139 172 214 256 313
#     4  11  22  33  54  82 109 141 173 218 268 306
#     4  10  21  40  58  75 103 140 181 217 257 314
#
# _framework density 18.687003000000001
#
# number of rings (size 3 to 8) (size 9 to 14) (size 15 to 20)
#    0.000    2.000    1.667    4.000    4.667    3.333 
#    0.000    0.000    0.000    1.000    0.000    4.667 
#    0.000    0.000    0.000    0.000    0.000    0.000 
#
# Total GULP energy -133618.782629 kJ/mol
# GULP energy per Si atom -5567.449276 kJ/mol
# Density = 1.864447 g / cm^3
# Si number density = 18.687003 Si / 1000 Ang^3
#
#
#
# Elastic Constant Matrix: (Units=GPa)
#
#
# Indices 1 2 3 4 5 6 
#
# 1 136.5790 15.9894 79.6273 -0.0001 9.2067 0.0000
# 2 15.9894 24.7829 40.0118 0.0000 2.9931 0.0000
# 3 79.6273 40.0118 178.1117 0.0000 12.2229 -0.0001
# 4 -0.0001 0.0000 0.0000 -22.4374 -0.0001 6.9375
# 5 9.2067 2.9931 12.2229 -0.0001 39.7087 0.0000
# 6 0.0000 0.0000 -0.0001 6.9375 0.0000 18.7842
#
#
#
# Elastic Compliance Matrix: (Units=1/GPa)
#
#
# Indices 1 2 3 4 5 6 
#
# 1 0.009962 0.001212 -0.004659 0.000000 -0.000967 0.000000
# 2 0.001212 0.063467 -0.014764 0.000000 -0.000521 0.000000
# 3 -0.004659 -0.014764 0.011098 0.000000 -0.001223 0.000000
# 4 0.000000 0.000000 0.000000 -0.040001 0.000000 0.014773
# 5 -0.000967 -0.000521 -0.001223 0.000000 0.025823 0.000000
# 6 0.000000 0.000000 0.000000 0.014773 0.000000 0.047780
#
#
# Mechanical properties :
#
#
# Convention : Reuss Voigt Hill
#
# Bulk Modulus (GPa) = 20.78780 67.85893 44.32337
# Shear Modulus (GPa) = 29.31068 20.80078 25.05573
#
# Velocity S-wave (km/s) = 3.96473 3.33996 3.66568
# Velocity P-wave (km/s) = 5.66632 7.16003 6.45652
#
# Compressibility (1/GPa) = 0.04810514
#
# Stress axis : x y z
#
# Youngs Moduli (GPa) = 100.38623 15.75615 90.10563
#
# Poissons Ratio (x) = -0.01910 0.41984
# Poissons Ratio (y) = -0.12172 1.33031
# Poissons Ratio (z) = 0.46775 0.23262
#
# Static dielectric constant tensor:
#      x y z
#    x 1.447580 0.000000 0.003710 
#    y 0.000000 1.639040 0.000000 
#    z 0.003710 0.000000 1.704920 
# 
# From -- ./inp_files/301832.got.cif
#   From: 2010.05.17/outbox.cif.g08.bks.cpg/sg12_151_cif.got.tgz:301832.got - 2010.06.03 13:09:07.
