data_PCOD9211447
_publ_section_title
;
Structure prediction by ZEFSAII (Michael W. Deem and Ramdas Pophale) SiO2 
 PCOD9211447
Probable space group: C 2/M
;
_chemical_formula_sum "Si O2"
_cell_formula_units_Z 48
_cell_length_a 18.023264
_cell_length_b 14.449913
_cell_length_c 17.315776
_cell_angle_alpha 90.000000
_cell_angle_beta 146.379825
_cell_angle_gamma 90.000000
_cell_volume 2496.912016
_symmetry_space_group_name_H-M "C 2/M"
_symmetry_group_IT_number 12
_symmetry_cell_setting 'monoclinic'
loop_
_space_group_symop_operation_xyz
x,y,z
-x,y,-z
-x,-y,-z
x,-y,z
1/2+x,1/2+y,z
1/2-x,1/2+y,-z
1/2-x,1/2-y,-z
1/2+x,1/2-y,z
loop_
_atom_site_type_symbol
_atom_site_label
_atom_site_fract_x
_atom_site_fract_y
_atom_site_fract_z
Si Si1 0.921307 0.390587 0.615113
Si Si2 0.147807 0.193519 0.095686
Si Si3 0.850323 0.283684 0.402140
Si Si4 0.192134 0.604585 0.314249
Si Si5 0.115311 0.399411 0.006501
Si Si6 0.291923 0.154276 0.074917
O O1 0.944671 0.500000 0.622829
O O2 0.854902 0.343667 0.483939
O O3 0.833910 0.381274 0.616957
O O4 0.064894 0.344230 0.758045
O O5 0.255594 0.172201 0.254905
O O6 0.183523 0.138096 0.048250
O O7 0.159516 0.304327 0.085670
O O8 0.000000 0.176991 0.000000
O O9 0.788490 0.183561 0.367275
O O10 0.000000 0.276202 0.500000
O O11 0.241394 0.500000 0.344931
O O12 0.044049 0.611340 0.147455
O O13 0.138748 0.500000 0.065334
O O14 0.183462 0.404578 0.980837
O O15 0.250000 0.250000 0.000000
#
# Coordination Sequence:
#
# PCOD9211447 Si02
#       6
#     8   8   8   8   8   8
#     4  10  21  40  63  86 115 161 212 242 280 362
#     4  11  21  36  56  87 120 153 192 244 297 358
#     4  12  23  37  58  89 124 161 191 245 308 353
#     4   9  19  37  61  87 116 153 199 244 295 355
#     4   9  18  35  61  86 109 151 199 240 285 359
#     4   9  18  35  59  85 111 145 196 242 285 339
#
# _framework density 19.223745999999998
#
# number of rings (size 3 to 8) (size 9 to 14) (size 15 to 20)
#    0.000    2.000    3.333    2.000    0.000    1.667 
#    0.000    0.000    0.000    4.500    0.000    0.000 
#    0.000    0.000    0.000    0.000    0.000    0.000 
#
# Total GULP energy -133862.085262 kJ/mol
# GULP energy per Si atom -5577.586886 kJ/mol
# Density = 1.917999 g / cm^3
# Si number density = 19.223746 Si / 1000 Ang^3
#
#
#
# Elastic Constant Matrix: (Units=GPa)
#
#
# Indices 1 2 3 4 5 6 
#
# 1 106.7555 2.8883 37.0258 0.0000 2.3707 0.0000
# 2 2.8883 36.6004 25.1331 0.0000 -2.9283 0.0000
# 3 37.0258 25.1331 79.1251 0.0000 -4.5326 0.0001
# 4 0.0000 0.0000 0.0000 7.5736 0.0000 -13.5174
# 5 2.3707 -2.9283 -4.5326 0.0000 33.5404 0.0000
# 6 0.0000 0.0000 0.0001 -13.5174 0.0000 5.3986
#
#
#
# Elastic Compliance Matrix: (Units=1/GPa)
#
#
# Indices 1 2 3 4 5 6 
#
# 1 0.011602 0.003524 -0.006629 0.000000 -0.001408 0.000000
# 2 0.003524 0.036096 -0.013049 0.000000 0.001139 0.000000
# 3 -0.006629 -0.013049 0.020002 0.000000 0.002032 0.000000
# 4 0.000000 0.000000 0.000000 -0.038062 0.000000 -0.095304
# 5 -0.001408 0.001139 0.002032 0.000000 0.030288 0.000000
# 6 0.000000 0.000000 0.000000 -0.095304 0.000000 -0.053397
#
#
# Mechanical properties :
#
#
# Convention : Reuss Voigt Hill
#
# Bulk Modulus (GPa) = 28.25582 39.17505 33.71544
# Shear Modulus (GPa) = 98.74792 19.79809 59.27300
#
# Velocity S-wave (km/s) = 7.17490 3.21265 5.55879
# Velocity P-wave (km/s) = 9.13068 5.84673 7.66660
#
# Compressibility (1/GPa) = 0.03539093
#
# Stress axis : x y z
#
# Youngs Moduli (GPa) = 86.18963 27.70405 49.99604
#
# Poissons Ratio (x) = -0.09763 0.33143
# Poissons Ratio (y) = -0.30372 0.65240
# Poissons Ratio (z) = 0.57137 0.36151
#
# Static dielectric constant tensor:
#      x y z
#    x 1.712660 0.000000 -0.021670 
#    y 0.000000 1.665910 0.000000 
#    z -0.021670 0.000000 1.635780 
# 
# From -- ./inp_files/278227.got.cif
#   From: 2010.05.17/outbox.cif.g08.bks.cpg/sg12_140_cif.got.tgz:278227.got - 2010.06.03 13:09:07.
