data_PCOD9211113
_publ_section_title
;
Structure prediction by ZEFSAII (Michael W. Deem and Ramdas Pophale) SiO2 
 PCOD9211113
Probable space group: C 2/M
;
_chemical_formula_sum "Si O2"
_cell_formula_units_Z 58
_cell_length_a 29.759704
_cell_length_b 7.364664
_cell_length_c 11.924469
_cell_angle_alpha 90.000000
_cell_angle_beta 55.653136
_cell_angle_gamma 90.000000
_cell_volume 2157.793049
_symmetry_space_group_name_H-M "C 2/M"
_symmetry_group_IT_number 12
_symmetry_cell_setting 'monoclinic'
loop_
_space_group_symop_operation_xyz
x,y,z
-x,y,-z
-x,-y,-z
x,-y,z
1/2+x,1/2+y,z
1/2-x,1/2+y,-z
1/2-x,1/2-y,-z
1/2+x,1/2-y,z
loop_
_atom_site_type_symbol
_atom_site_label
_atom_site_fract_x
_atom_site_fract_y
_atom_site_fract_z
Si Si1 0.531541 0.294366 0.261626
Si Si2 0.148309 0.780339 0.304150
Si Si3 0.500000 0.000000 0.500000
Si Si4 0.340199 0.787588 0.318448
Si Si5 0.414447 0.210557 0.399475
Si Si6 0.807898 0.785184 0.980800
Si Si7 0.444204 0.280999 0.016577
Si Si8 0.255673 0.206948 0.275460
O O1 0.549359 0.500000 0.269436
O O2 0.521973 0.158406 0.377920
O O3 0.469887 0.310147 0.298948
O O4 0.561917 0.227707 0.105911
O O5 0.202423 0.710579 0.292720
O O6 0.150640 0.000000 0.299648
O O7 0.149479 0.721168 0.173234
O O8 0.599591 0.782302 0.449920
O O9 0.363347 0.714174 0.402489
O O10 0.392000 0.773394 0.163029
O O11 0.286702 0.706563 0.336204
O O12 0.328247 0.000000 0.352808
O O13 0.422274 0.000000 0.358000
O O14 0.800412 0.702391 0.112634
O O15 0.814940 0.000000 0.987100
O O16 0.750000 0.750000 0.000000
O O17 0.445623 0.500000 0.012926
O O18 0.500000 0.218182 0.000000
O O19 0.241610 0.000000 0.322708
#
# Coordination Sequence:
#
# PCOD9211113 Si02
#       8
#     8   8   2   8   8   8   8   8
#     4  11  24  45  70  97 135 172 214 269 323 389
#     4   9  19  35  56  79 117 165 209 253 312 375
#     4  12  26  48  70  98 132 176 218 266 328 390
#     4  10  22  37  60  89 125 160 204 262 319 378
#     4  11  22  38  60  91 122 164 216 261 312 387
#     4   9  17  32  54  78 107 148 197 248 304 365
#     4  10  21  39  66  95 121 159 206 257 321 390
#     4   9  19  37  55  83 120 158 201 256 316 372
#
# _framework density 26.879317
#
# number of rings (size 3 to 8) (size 9 to 14) (size 15 to 20)
#    0.000    2.069    2.069    1.862    0.966    4.690 
#    2.483    0.000    0.000    0.000    0.000    0.000 
#    0.000    0.000    0.000    0.000    0.000    0.000 
#
# Total GULP energy -162011.534788 kJ/mol
# GULP energy per Si atom -5586.604648 kJ/mol
# Density = 2.681814 g / cm^3
# Si number density = 26.879317 Si / 1000 Ang^3
#
#
#
# Elastic Constant Matrix: (Units=GPa)
#
#
# Indices 1 2 3 4 5 6 
#
# 1 117.2070 2.6715 10.2404 0.0000 28.3024 0.0000
# 2 2.6715 138.4899 14.2379 0.0000 9.4133 0.0000
# 3 10.2404 14.2379 163.9157 0.0000 10.2770 0.0000
# 4 0.0000 0.0000 0.0000 34.6489 0.0000 -11.5201
# 5 28.3024 9.4133 10.2770 0.0000 44.0408 0.0000
# 6 0.0000 0.0000 0.0000 -11.5201 0.0000 16.4628
#
#
#
# Elastic Compliance Matrix: (Units=1/GPa)
#
#
# Indices 1 2 3 4 5 6 
#
# 1 0.010117 0.000272 -0.000248 0.000000 -0.006502 0.000000
# 2 0.000272 0.007383 -0.000557 0.000000 -0.001623 0.000000
# 3 -0.000248 -0.000557 0.006238 0.000000 -0.001177 0.000000
# 4 0.000000 0.000000 0.000000 0.037612 0.000000 0.026319
# 5 -0.006502 -0.001623 -0.001177 0.000000 0.027506 0.000000
# 6 0.000000 0.000000 0.000000 0.026319 0.000000 0.079160
#
#
# Mechanical properties :
#
#
# Convention : Reuss Voigt Hill
#
# Bulk Modulus (GPa) = 44.10283 52.65691 48.37987
# Shear Modulus (GPa) = 28.30616 45.19469 36.75042
#
# Velocity S-wave (km/s) = 3.24864 4.10493 3.70163
# Velocity P-wave (km/s) = 5.52403 6.48844 6.02556
#
# Compressibility (1/GPa) = 0.02267428
#
# Stress axis : x y z
#
# Youngs Moduli (GPa) = 98.83865 135.44559 160.29875
#
# Poissons Ratio (x) = -0.03688 0.03976
# Poissons Ratio (y) = -0.02691 0.08921
# Poissons Ratio (z) = 0.02452 0.07538
#
# Static dielectric constant tensor:
#      x y z
#    x 2.196360 0.000000 0.019580 
#    y 0.000000 2.092300 0.000000 
#    z 0.019580 0.000000 2.067580 
# 
# From -- ./inp_files/243089.got.cif
#   From: 2010.05.17/outbox.cif.g08.bks.cpg/sg12_122_cif.got.tgz:243089.got - 2010.06.03 13:09:07.
