data_PCOD9211483
_publ_section_title
;
Structure prediction by ZEFSAII (Michael W. Deem and Ramdas Pophale) SiO2 
 PCOD9211483
Probable space group: C 2/M
;
_chemical_formula_sum "Si O2"
_cell_formula_units_Z 48
_cell_length_a 14.971462
_cell_length_b 15.768055
_cell_length_c 11.756428
_cell_angle_alpha 90.000000
_cell_angle_beta 58.615320
_cell_angle_gamma 90.000000
_cell_volume 2369.288574
_symmetry_space_group_name_H-M "C 2/M"
_symmetry_group_IT_number 12
_symmetry_cell_setting 'monoclinic'
loop_
_space_group_symop_operation_xyz
x,y,z
-x,y,-z
-x,-y,-z
x,-y,z
1/2+x,1/2+y,z
1/2-x,1/2+y,-z
1/2-x,1/2-y,-z
1/2+x,1/2-y,z
loop_
_atom_site_type_symbol
_atom_site_label
_atom_site_fract_x
_atom_site_fract_y
_atom_site_fract_z
Si Si1 0.158533 0.598317 0.322385
Si Si2 0.984590 0.200523 0.816459
Si Si3 0.312413 0.091636 0.233394
Si Si4 0.435636 0.136859 0.373143
Si Si5 0.069635 0.095785 0.359671
Si Si6 0.659631 0.279883 0.878218
O O1 0.197068 0.500000 0.302938
O O2 0.133108 0.633950 0.466103
O O3 0.235246 0.665320 0.209119
O O4 0.046619 0.596207 0.333220
O O5 0.942003 0.133161 0.756447
O O6 0.030919 0.273827 0.704568
O O7 0.078358 0.178991 0.841271
O O8 0.888538 0.219962 0.964213
O O9 0.370034 0.093938 0.316084
O O10 0.187410 0.094632 0.325980
O O11 0.337302 0.179953 0.154903
O O12 0.338957 0.000000 0.159809
O O13 0.000000 0.142630 0.500000
O O14 0.030394 0.000000 0.374870
#
# Coordination Sequence:
#
# PCOD9211483 Si02
#       6
#     8   8   8   8   8   8
#     4  11  23  39  62  95 130 166 210 261 317 379
#     4  10  23  43  64  89 130 165 211 265 311 379
#     4  10  21  40  63  88 125 163 207 263 313 369
#     4  10  22  39  63  91 126 166 213 261 313 378
#     4  10  23  38  60  93 124 163 212 257 310 372
#     4  10  24  42  64  96 123 169 216 255 321 380
#
# _framework density 20.259245
#
# number of rings (size 3 to 8) (size 9 to 14) (size 15 to 20)
#    0.000    1.833    0.000    3.000    7.000    5.333 
#    0.000   11.667    0.000    0.000    0.000    0.000 
#    0.000    0.000    0.000    0.000    0.000    0.000 
#
# Total GULP energy -133760.420437 kJ/mol
# GULP energy per Si atom -5573.350852 kJ/mol
# Density = 2.021313 g / cm^3
# Si number density = 20.259245 Si / 1000 Ang^3
#
#
#
# Elastic Constant Matrix: (Units=GPa)
#
#
# Indices 1 2 3 4 5 6 
#
# 1 67.1366 41.5928 33.1629 0.0000 7.3047 0.0000
# 2 41.5928 92.7788 56.7127 0.0000 10.9630 0.0000
# 3 33.1629 56.7127 99.3675 0.0000 13.5026 0.0000
# 4 0.0000 0.0000 0.0000 9.6298 0.0000 10.6385
# 5 7.3047 10.9630 13.5026 0.0000 24.1993 0.0000
# 6 0.0000 0.0000 0.0000 10.6385 0.0000 56.0327
#
#
#
# Elastic Compliance Matrix: (Units=1/GPa)
#
#
# Indices 1 2 3 4 5 6 
#
# 1 0.021074 -0.007826 -0.002363 0.000000 -0.001497 0.000000
# 2 -0.007826 0.019591 -0.008315 0.000000 -0.001873 0.000000
# 3 -0.002363 -0.008315 0.016219 0.000000 -0.004570 0.000000
# 4 0.000000 0.000000 0.000000 0.131406 0.000000 -0.024949
# 5 -0.001497 -0.001873 -0.004570 0.000000 0.045174 0.000000
# 6 0.000000 0.000000 0.000000 -0.024949 0.000000 0.022584
#
#
# Mechanical properties :
#
#
# Convention : Reuss Voigt Hill
#
# Bulk Modulus (GPa) = 50.31315 58.02442 54.16879
# Shear Modulus (GPa) = 16.68451 26.49334 21.58892
#
# Velocity S-wave (km/s) = 2.87287 3.62016 3.26795
# Velocity P-wave (km/s) = 5.99108 6.79538 6.40587
#
# Compressibility (1/GPa) = 0.01987552
#
# Stress axis : x y z
#
# Youngs Moduli (GPa) = 47.45288 51.04505 61.65710
#
# Poissons Ratio (x) = 0.39947 0.14570
# Poissons Ratio (y) = 0.37136 0.51266
# Poissons Ratio (z) = 0.11214 0.42442
#
# Static dielectric constant tensor:
#      x y z
#    x 1.716140 0.000000 -0.014050 
#    y 0.000000 13.507730 0.000000 
#    z -0.014050 0.000000 1.721040 
# 
# From -- ./inp_files/143553.got.cif
#   From: 2010.05.17/outbox.cif.g08.bks.cpg/sg12_72_cif.got.tgz:143553.got - 2010.06.03 13:09:07.
