data_PCOD9211284
_publ_section_title
;
Structure prediction by ZEFSAII (Michael W. Deem and Ramdas Pophale) SiO2 
 PCOD9211284
Probable space group: C 2/M
;
_chemical_formula_sum "Si O2"
_cell_formula_units_Z 44
_cell_length_a 8.493589
_cell_length_b 26.714543
_cell_length_c 8.958854
_cell_angle_alpha 90.000000
_cell_angle_beta 110.979891
_cell_angle_gamma 90.000000
_cell_volume 1898.023858
_symmetry_space_group_name_H-M "C 2/M"
_symmetry_group_IT_number 12
_symmetry_cell_setting 'monoclinic'
loop_
_space_group_symop_operation_xyz
x,y,z
-x,y,-z
-x,-y,-z
x,-y,z
1/2+x,1/2+y,z
1/2-x,1/2+y,-z
1/2-x,1/2-y,-z
1/2+x,1/2-y,z
loop_
_atom_site_type_symbol
_atom_site_label
_atom_site_fract_x
_atom_site_fract_y
_atom_site_fract_z
Si Si1 0.817671 0.220490 0.878356
Si Si2 0.235477 0.321784 0.294778
Si Si3 0.178401 0.056543 0.995523
Si Si4 0.991440 0.095520 0.326508
Si Si5 0.315398 0.858038 0.391111
Si Si6 0.000000 0.386682 0.000000
O O1 0.810420 0.264781 0.754498
O O2 0.709697 0.177070 0.762239
O O3 0.750000 0.250000 0.000000
O O4 0.000000 0.202715 0.000000
O O5 0.408977 0.347998 0.294684
O O6 0.100659 0.353124 0.152934
O O7 0.234766 0.329689 0.471756
O O8 0.360074 0.083233 0.049912
O O9 0.128473 0.059287 0.804004
O O10 0.194110 0.000000 0.056853
O O11 0.000000 0.078434 0.000000
O O12 0.180067 0.098200 0.328614
O O13 0.000000 0.080873 0.500000
O O14 0.500000 0.875530 0.500000
#
# Coordination Sequence:
#
# PCOD9211284 Si02
#       6
#     8   8   8   8   8   4
#     4  12  24  38  58  86 122 163 217 268 318 376
#     4  10  21  40  60  85 120 167 216 264 318 380
#     4  10  22  39  67 100 132 166 211 268 332 401
#     4   9  21  40  61  87 122 165 212 264 323 388
#     4  11  24  38  59  87 121 169 211 267 318 379
#     4  10  21  40  70  94 134 172 220 270 323 402
#
# _framework density 23.182006000000001
#
# number of rings (size 3 to 8) (size 9 to 14) (size 15 to 20)
#    0.000    1.636    0.909    3.000    2.545    4.727 
#    0.000    0.000    0.000    0.545    0.000    0.000 
#    0.000    0.000    0.000    0.000    0.000    0.000 
#
# Total GULP energy -122692.005197 kJ/mol
# GULP energy per Si atom -5576.909327 kJ/mol
# Density = 2.312924 g / cm^3
# Si number density = 23.182006 Si / 1000 Ang^3
#
#
#
# Elastic Constant Matrix: (Units=GPa)
#
#
# Indices 1 2 3 4 5 6 
#
# 1 132.2594 19.2776 13.8832 0.0000 25.2049 0.0000
# 2 19.2776 44.8093 -7.3858 0.0000 7.7329 0.0000
# 3 13.8832 -7.3858 98.1335 0.0000 23.5429 0.0000
# 4 0.0000 0.0000 0.0000 10.8913 0.0000 5.5370
# 5 25.2049 7.7329 23.5429 0.0000 46.2889 0.0000
# 6 0.0000 0.0000 0.0000 5.5370 0.0000 15.4631
#
#
#
# Elastic Compliance Matrix: (Units=1/GPa)
#
#
# Indices 1 2 3 4 5 6 
#
# 1 0.008848 -0.003201 -0.000530 0.000000 -0.004014 0.000000
# 2 -0.003201 0.024950 0.003317 0.000000 -0.004112 0.000000
# 3 -0.000530 0.003317 0.012049 0.000000 -0.006394 0.000000
# 4 0.000000 0.000000 0.000000 0.112251 0.000000 -0.040194
# 5 -0.004014 -0.004112 -0.006394 0.000000 0.027728 0.000000
# 6 0.000000 0.000000 0.000000 -0.040194 0.000000 0.079062
#
#
# Mechanical properties :
#
#
# Convention : Reuss Voigt Hill
#
# Bulk Modulus (GPa) = 22.21248 36.30579 29.25914
# Shear Modulus (GPa) = 17.81120 31.15713 24.48416
#
# Velocity S-wave (km/s) = 2.77487 3.67007 3.25340
# Velocity P-wave (km/s) = 4.45747 5.80124 5.17317
#
# Compressibility (1/GPa) = 0.04501973
#
# Stress axis : x y z
#
# Youngs Moduli (GPa) = 113.02008 40.07941 82.99630
#
# Poissons Ratio (x) = 0.12830 0.04397
# Poissons Ratio (y) = 0.36180 -0.27532
# Poissons Ratio (z) = 0.05988 -0.13295
#
# Static dielectric constant tensor:
#      x y z
#    x 2.018570 0.000000 -0.040860 
#    y 0.000000 1.869980 0.000000 
#    z -0.040860 0.000000 1.933920 
# 
# From -- ./inp_files/41796.got.cif
#   From: 2010.05.17/outbox.cif.g08.bks.cpg/sg12_21_cif.got.tgz:41796.got - 2010.06.03 13:09:07.
