data_PCOD9211949
_publ_section_title
;
Structure prediction by ZEFSAII (Michael W. Deem and Ramdas Pophale) SiO2 
 PCOD9211949
Probable space group: C 2/M
;
_chemical_formula_sum "Si O2"
_cell_formula_units_Z 40
_cell_length_a 10.447581
_cell_length_b 14.379343
_cell_length_c 13.479146
_cell_angle_alpha 90.000000
_cell_angle_beta 87.828762
_cell_angle_gamma 90.000000
_cell_volume 2023.509551
_symmetry_space_group_name_H-M "C 2/M"
_symmetry_group_IT_number 12
_symmetry_cell_setting 'monoclinic'
loop_
_space_group_symop_operation_xyz
x,y,z
-x,y,-z
-x,-y,-z
x,-y,z
1/2+x,1/2+y,z
1/2-x,1/2+y,-z
1/2-x,1/2-y,-z
1/2+x,1/2-y,z
loop_
_atom_site_type_symbol
_atom_site_label
_atom_site_fract_x
_atom_site_fract_y
_atom_site_fract_z
Si Si1 0.114685 0.886836 0.423118
Si Si2 0.880657 0.263888 0.935019
Si Si3 0.282412 0.111201 0.761911
Si Si4 0.978958 0.889332 0.790035
Si Si5 0.359642 0.113368 0.537391
O O1 0.086586 0.859444 0.311416
O O2 0.249055 0.855862 0.465037
O O3 0.000000 0.859247 0.500000
O O4 0.114650 0.000000 0.422915
O O5 0.855104 0.336067 0.847068
O O6 0.920403 0.167283 0.882074
O O7 0.750000 0.250000 0.000000
O O8 0.000000 0.293198 0.000000
O O9 0.327312 0.140454 0.650840
O O10 0.130570 0.129200 0.776445
O O11 0.301378 0.000000 0.769402
O O12 0.961929 0.000000 0.802572
O O13 0.500000 0.143345 0.500000
O O14 0.357698 0.000000 0.536236
#
# Coordination Sequence:
#
# PCOD9211949 Si02
#       5
#     8   8   8   8   8
#     4   9  15  29  58  91 120 157 202 242 289 364
#     4  12  26  44  64  91 124 157 208 276 320 353
#     4  10  21  41  67  92 124 167 207 248 309 375
#     4  10  21  40  68  94 121 165 213 248 299 380
#     4   9  17  31  56  92 130 160 192 244 305 361
#
# _framework density 19.767634999999999
#
# number of rings (size 3 to 8) (size 9 to 14) (size 15 to 20)
#    0.000    2.000    4.000    0.000    0.000    3.200 
#    0.000    4.000    0.000    0.000    0.000    0.000 
#    0.000    0.000    0.000    0.000    0.000    0.000 
#
# Total GULP energy -111797.750637 kJ/mol
# GULP energy per Si atom -5589.887532 kJ/mol
# Density = 1.972264 g / cm^3
# Si number density = 19.767635 Si / 1000 Ang^3
#
#
#
# Elastic Constant Matrix: (Units=GPa)
#
#
# Indices 1 2 3 4 5 6 
#
# 1 175.9621 43.3789 96.9894 0.0000 12.4538 0.0000
# 2 43.3789 65.2653 43.1142 0.0000 5.2781 0.0000
# 3 96.9894 43.1142 151.9897 0.0000 16.8826 0.0000
# 4 0.0000 0.0000 0.0000 986.5072 0.0000 -400.0952
# 5 12.4538 5.2781 16.8826 0.0000 50.8847 0.0000
# 6 0.0000 0.0000 0.0000 -400.0952 0.0000 179.8971
#
#
#
# Elastic Compliance Matrix: (Units=1/GPa)
#
#
# Indices 1 2 3 4 5 6 
#
# 1 0.009151 -0.002735 -0.005032 0.000000 -0.000286 0.000000
# 2 -0.002735 0.019675 -0.003824 0.000000 -0.000103 0.000000
# 3 -0.005032 -0.003824 0.011104 0.000000 -0.002056 0.000000
# 4 0.000000 0.000000 0.000000 0.010343 0.000000 0.023002
# 5 -0.000286 -0.000103 -0.002056 0.000000 0.020415 0.000000
# 6 0.000000 0.000000 0.000000 0.023002 0.000000 0.056717
#
#
# Mechanical properties :
#
#
# Convention : Reuss Voigt Hill
#
# Bulk Modulus (GPa) = 59.71323 84.46468 72.08896
# Shear Modulus (GPa) = 32.01663 257.44009 144.72836
#
# Velocity S-wave (km/s) = 4.02885 11.42435 8.56585
# Velocity P-wave (km/s) = 7.20523 14.72558 11.59220
#
# Compressibility (1/GPa) = 0.01674671
#
# Stress axis : x y z
#
# Youngs Moduli (GPa) = 109.27539 50.82707 90.06066
#
# Poissons Ratio (x) = 0.13902 0.45318
# Poissons Ratio (y) = 0.29888 0.34442
# Poissons Ratio (z) = 0.54987 0.19438
#
# Static dielectric constant tensor:
#      x y z
#    x 1.662550 0.000000 0.010630 
#    y 0.000000 1.717750 0.000000 
#    z 0.010630 0.000000 1.659120 
# 
# From -- ./inp_files/119062.got.cif
#   From: 2010.05.17/outbox.cif.g08.bks.cpg/sg12_60_cif.got.tgz:119062.got - 2010.06.03 13:09:07.
