data_PCOD9211232
_publ_section_title
;
Structure prediction by ZEFSAII (Michael W. Deem and Ramdas Pophale) SiO2 
 PCOD9211232
Probable space group: C 2/M
;
_chemical_formula_sum "Si O2"
_cell_formula_units_Z 56
_cell_length_a 11.605996
_cell_length_b 25.196057
_cell_length_c 11.927111
_cell_angle_alpha 90.000000
_cell_angle_beta 132.949246
_cell_angle_gamma 90.000000
_cell_volume 2552.913805
_symmetry_space_group_name_H-M "C 2/M"
_symmetry_group_IT_number 12
_symmetry_cell_setting 'monoclinic'
loop_
_space_group_symop_operation_xyz
x,y,z
-x,y,-z
-x,-y,-z
x,-y,z
1/2+x,1/2+y,z
1/2-x,1/2+y,-z
1/2-x,1/2-y,-z
1/2+x,1/2-y,z
loop_
_atom_site_type_symbol
_atom_site_label
_atom_site_fract_x
_atom_site_fract_y
_atom_site_fract_z
Si Si1 0.423286 0.687587 0.130956
Si Si2 0.663859 0.590966 0.093865
Si Si3 0.941793 0.302311 0.081766
Si Si4 0.171491 0.559112 0.165618
Si Si5 0.004041 0.595041 0.265360
Si Si6 0.490417 0.386707 0.359371
Si Si7 0.260580 0.063023 0.399714
O O1 0.499941 0.742235 0.140172
O O2 0.514119 0.665141 0.299023
O O3 0.393211 0.642301 0.016225
O O4 0.245927 0.700791 0.050248
O O5 0.722321 0.595374 0.260810
O O6 0.825737 0.572026 0.141780
O O7 0.500000 0.559272 0.000000
O O8 0.989502 0.344607 0.209275
O O9 0.000000 0.321291 0.000000
O O10 0.228268 0.500000 0.181407
O O11 0.128356 0.566827 0.266407
O O12 0.310282 0.596385 0.217346
O O13 0.000000 0.565803 0.000000
O O14 0.083950 0.586107 0.437825
O O15 0.500000 0.381136 0.500000
O O16 0.613589 0.427879 0.387334
O O17 0.278298 0.000000 0.387520
#
# Coordination Sequence:
#
# PCOD9211232 Si02
#       7
#     8   8   8   8   8   8   8
#     4  10  22  43  67 101 132 177 225 286 343 401
#     4  11  23  44  69  94 134 177 231 285 333 403
#     4  10  21  39  71  99 133 176 228 282 343 405
#     4  11  23  39  65  96 132 173 225 283 336 401
#     4  11  23  42  65  97 135 179 225 280 338 408
#     4  12  24  43  69  97 141 176 224 280 347 410
#     4  12  27  44  67  98 139 187 226 276 347 413
#
# _framework density 21.935718000000001
#
# number of rings (size 3 to 8) (size 9 to 14) (size 15 to 20)
#    0.000    1.000    2.857    4.714    0.000    2.571 
#    0.000    5.000    0.000    0.000    0.000    0.000 
#    0.000    0.000    0.000    0.000    0.000    0.000 
#
# Total GULP energy -156182.343498 kJ/mol
# GULP energy per Si atom -5577.940839 kJ/mol
# Density = 2.188579 g / cm^3
# Si number density = 21.935718 Si / 1000 Ang^3
#
#
#
# Elastic Constant Matrix: (Units=GPa)
#
#
# Indices 1 2 3 4 5 6 
#
# 1 96.2514 -0.7891 1.0187 0.0000 6.2902 0.0000
# 2 -0.7891 104.6379 13.1329 0.0000 -12.7976 0.0000
# 3 1.0187 13.1329 78.1786 0.0000 -11.0661 0.0000
# 4 0.0000 0.0000 0.0000 33.8505 0.0000 9.8027
# 5 6.2902 -12.7976 -11.0661 0.0000 47.5648 0.0000
# 6 0.0000 0.0000 0.0000 9.8027 0.0000 9.0239
#
#
#
# Elastic Compliance Matrix: (Units=1/GPa)
#
#
# Indices 1 2 3 4 5 6 
#
# 1 0.010489 -0.000060 -0.000336 0.000000 -0.001482 0.000000
# 2 -0.000060 0.010017 -0.001344 0.000000 0.002391 0.000000
# 3 -0.000336 -0.001344 0.013418 0.000000 0.002805 0.000000
# 4 0.000000 0.000000 0.000000 0.043100 0.000000 -0.046820
# 5 -0.001482 0.002391 0.002805 0.000000 0.022516 0.000000
# 6 0.000000 0.000000 0.000000 -0.046820 0.000000 0.161679
#
#
# Mechanical properties :
#
#
# Convention : Reuss Voigt Hill
#
# Bulk Modulus (GPa) = 32.84573 33.97699 33.41136
# Shear Modulus (GPa) = 18.19187 35.80152 26.99670
#
# Velocity S-wave (km/s) = 2.88293 4.04432 3.51197
# Velocity P-wave (km/s) = 5.10762 6.10997 5.63114
#
# Compressibility (1/GPa) = 0.03044536
#
# Stress axis : x y z
#
# Youngs Moduli (GPa) = 95.33485 99.82710 74.52492
#
# Poissons Ratio (x) = 0.00598 0.02507
# Poissons Ratio (y) = 0.00571 0.10013
# Poissons Ratio (z) = 0.03206 0.13413
#
# Static dielectric constant tensor:
#      x y z
#    x 1.878450 0.000000 -0.049140 
#    y 0.000000 1.833740 0.000000 
#    z -0.049140 0.000000 1.867190 
# 
# From -- ./inp_files/137017.got.cif
#   From: 2010.05.17/outbox.cif.g08.bks.cpg/sg12_69_cif.got.tgz:137017.got - 2010.06.03 13:09:07.
