data_PCOD9211457
_publ_section_title
;
Structure prediction by ZEFSAII (Michael W. Deem and Ramdas Pophale) SiO2 
 PCOD9211457
Probable space group: C 2/M
;
_chemical_formula_sum "Si O2"
_cell_formula_units_Z 56
_cell_length_a 25.538437
_cell_length_b 9.123948
_cell_length_c 14.887656
_cell_angle_alpha 90.000000
_cell_angle_beta 58.758069
_cell_angle_gamma 90.000000
_cell_volume 2965.936826
_symmetry_space_group_name_H-M "C 2/M"
_symmetry_group_IT_number 12
_symmetry_cell_setting 'monoclinic'
loop_
_space_group_symop_operation_xyz
x,y,z
-x,y,-z
-x,-y,-z
x,-y,z
1/2+x,1/2+y,z
1/2-x,1/2+y,-z
1/2-x,1/2-y,-z
1/2+x,1/2-y,z
loop_
_atom_site_type_symbol
_atom_site_label
_atom_site_fract_x
_atom_site_fract_y
_atom_site_fract_z
Si Si1 0.180336 0.324193 0.798296
Si Si2 0.959629 0.323738 0.122904
Si Si3 0.767017 0.327765 0.577263
Si Si4 0.742983 0.675665 0.101955
Si Si5 0.889968 0.174501 0.705400
Si Si6 0.590505 0.172606 0.498722
Si Si7 0.504750 0.674306 0.722335
O O1 0.187148 0.500000 0.781694
O O2 0.110866 0.286022 0.835843
O O3 0.226720 0.244785 0.690561
O O4 0.201328 0.287722 0.880590
O O5 0.963298 0.500000 0.132355
O O6 0.982237 0.246087 0.193083
O O7 0.000000 0.285623 0.000000
O O8 0.753720 0.500000 0.583058
O O9 0.750000 0.250000 0.500000
O O10 0.838769 0.310405 0.534521
O O11 0.741192 0.500000 0.092291
O O12 0.678928 0.718677 0.206587
O O13 0.750000 0.750000 0.000000
O O14 0.913824 0.258951 0.596630
O O15 0.935908 0.199440 0.747360
O O16 0.889854 0.000000 0.685546
O O17 0.548755 0.255028 0.608091
O O18 0.575531 0.000000 0.510492
O O19 0.515137 0.500000 0.717409
#
# Coordination Sequence:
#
# PCOD9211457 Si02
#       7
#     8   8   8   8   8   8   8
#     4  10  21  40  63  87 117 156 199 242 294 350
#     4  10  23  42  63  88 119 157 201 248 295 348
#     4  11  23  37  58  88 120 156 196 242 294 350
#     4  10  22  39  62  90 120 154 197 247 296 350
#     4  10  22  41  62  88 122 159 197 242 297 354
#     4  11  23  39  60  90 122 155 198 245 296 353
#     4  11  24  40  61  89 121 160 200 241 296 357
#
# _framework density 18.881048
#
# number of rings (size 3 to 8) (size 9 to 14) (size 15 to 20)
#    0.000    1.571    1.429    2.571    2.000   10.000 
#    0.000    0.000    0.000    0.000    0.000    0.000 
#    0.000    0.000    0.000    0.000    0.000    0.000 
#
# Total GULP energy -156519.580126 kJ/mol
# GULP energy per Si atom -5589.985005 kJ/mol
# Density = 1.883807 g / cm^3
# Si number density = 18.881048 Si / 1000 Ang^3
#
#
#
# Elastic Constant Matrix: (Units=GPa)
#
#
# Indices 1 2 3 4 5 6 
#
# 1 121.4206 57.6134 46.6941 0.0000 24.5477 0.0000
# 2 57.6134 40.0424 33.7954 0.0000 13.0077 0.0000
# 3 46.6941 33.7954 92.0341 0.0000 26.3183 0.0000
# 4 0.0000 0.0000 0.0000 35.3716 0.0000 8.9379
# 5 24.5477 13.0077 26.3183 0.0000 36.6028 0.0000
# 6 0.0000 0.0000 0.0000 8.9379 0.0000 31.3516
#
#
#
# Elastic Compliance Matrix: (Units=1/GPa)
#
#
# Indices 1 2 3 4 5 6 
#
# 1 0.026966 -0.038774 0.002251 0.000000 -0.005924 0.000000
# 2 -0.038774 0.092453 -0.015506 0.000000 0.004298 0.000000
# 3 0.002251 -0.015506 0.017968 0.000000 -0.008918 0.000000
# 4 0.000000 0.000000 0.000000 0.030466 0.000000 -0.008685
# 5 -0.005924 0.004298 -0.008918 0.000000 0.036178 0.000000
# 6 0.000000 0.000000 0.000000 -0.008685 0.000000 0.034372
#
#
# Mechanical properties :
#
#
# Convention : Reuss Voigt Hill
#
# Bulk Modulus (GPa) = 30.00482 58.85588 44.43035
# Shear Modulus (GPa) = 14.14139 28.35813 21.24976
#
# Velocity S-wave (km/s) = 2.73971 3.87969 3.35842
# Velocity P-wave (km/s) = 5.09254 7.16302 6.21462
#
# Compressibility (1/GPa) = 0.03332798
#
# Stress axis : x y z
#
# Youngs Moduli (GPa) = 37.08353 10.81629 55.65522
#
# Poissons Ratio (x) = 0.41940 -0.12526
# Poissons Ratio (y) = 1.43789 0.86298
# Poissons Ratio (z) = -0.08346 0.16772
#
# Static dielectric constant tensor:
#      x y z
#    x 1.657710 0.000000 -0.008160 
#    y 0.000000 1.627630 0.000000 
#    z -0.008160 0.000000 1.610200 
# 
# From -- ./inp_files/238231.got.cif
#   From: 2010.05.17/outbox.cif.g08.bks.cpg/sg12_120_cif.got.tgz:238231.got - 2010.06.03 13:09:07.
