data_PCOD9211989
_publ_section_title
;
Structure prediction by ZEFSAII (Michael W. Deem and Ramdas Pophale) SiO2 
 PCOD9211989
Probable space group: C 2/M
;
_chemical_formula_sum "Si O2"
_cell_formula_units_Z 48
_cell_length_a 16.057091
_cell_length_b 16.505649
_cell_length_c 30.781844
_cell_angle_alpha 90.000000
_cell_angle_beta 17.772689
_cell_angle_gamma 90.000000
_cell_volume 2490.219185
_symmetry_space_group_name_H-M "C 2/M"
_symmetry_group_IT_number 12
_symmetry_cell_setting 'monoclinic'
loop_
_space_group_symop_operation_xyz
x,y,z
-x,y,-z
-x,-y,-z
x,-y,z
1/2+x,1/2+y,z
1/2-x,1/2+y,-z
1/2-x,1/2-y,-z
1/2+x,1/2-y,z
loop_
_atom_site_type_symbol
_atom_site_label
_atom_site_fract_x
_atom_site_fract_y
_atom_site_fract_z
Si Si1 0.748854 0.412896 0.592598
Si Si2 0.739918 0.906408 0.909707
Si Si3 0.532775 0.319468 0.117788
Si Si4 0.340449 0.403260 0.123102
Si Si5 0.312641 0.409866 0.550664
Si Si6 0.449739 0.241838 0.440458
O O1 0.727833 0.500000 0.578338
O O2 0.489992 0.404718 0.752081
O O3 0.814553 0.331445 0.534496
O O4 0.000000 0.420264 0.500000
O O5 0.831458 0.871018 0.910474
O O6 0.661518 0.000000 0.957140
O O7 0.500000 0.866430 0.000000
O O8 0.452260 0.363851 0.112356
O O9 0.251968 0.283959 0.276574
O O10 0.750000 0.250000 0.000000
O O11 0.384742 0.500000 0.104580
O O12 0.011616 0.391627 0.281516
O O13 0.500000 0.375440 0.000000
O O14 0.500000 0.417583 0.500000
O O15 0.322681 0.500000 0.523984
O O16 0.441980 0.331075 0.464483
O O17 0.250000 0.250000 0.500000
#
# Coordination Sequence:
#
# PCOD9211989 Si02
#       6
#     8   8   8   8   8   8
#     4  10  21  40  69  97 124 168 216 269 334 396
#     4  10  23  44  68  97 132 171 217 271 332 396
#     4  12  27  42  63  97 134 175 216 270 332 398
#     4  10  23  45  69  93 127 176 225 271 326 390
#     4  10  23  43  68  95 127 172 223 275 326 381
#     4  12  25  42  64  98 132 168 220 275 327 396
#
# _framework density 19.275410999999998
#
# number of rings (size 3 to 8) (size 9 to 14) (size 15 to 20)
#    0.000    1.333    3.333    1.000    4.667    2.000 
#    0.000    0.833    0.000    0.000    0.000    0.000 
#    0.000    0.000    0.000    0.000    0.000    0.000 
#
# Total GULP energy -133682.847665 kJ/mol
# GULP energy per Si atom -5570.118653 kJ/mol
# Density = 1.923154 g / cm^3
# Si number density = 19.275411 Si / 1000 Ang^3
#
#
#
# Elastic Constant Matrix: (Units=GPa)
#
#
# Indices 1 2 3 4 5 6 
#
# 1 148.5523 82.5410 65.1127 -0.0587 -16.6848 -0.0596
# 2 82.5410 130.3969 32.5945 -0.0590 10.5454 -0.1684
# 3 65.1127 32.5945 85.6920 -0.1212 -15.9246 -0.5586
# 4 -0.0587 -0.0590 -0.1212 35.8879 -0.0469 14.6491
# 5 -16.6848 10.5454 -15.9246 -0.0469 35.6516 0.1203
# 6 -0.0596 -0.1684 -0.5586 14.6491 0.1203 73.9390
#
#
#
# Elastic Compliance Matrix: (Units=1/GPa)
#
#
# Indices 1 2 3 4 5 6 
#
# 1 0.015276 -0.008379 -0.007231 0.000027 0.006398 -0.000077
# 2 -0.008379 0.013723 -0.000366 -0.000019 -0.008144 0.000039
# 3 -0.007231 -0.000366 0.018207 0.000006 0.004856 0.000122
# 4 0.000027 -0.000019 0.000006 0.030316 0.000081 -0.006007
# 5 0.006398 -0.008144 0.004856 0.000081 0.035622 -0.000051
# 6 -0.000077 0.000039 0.000122 -0.006007 -0.000051 0.014716
#
#
# Mechanical properties :
#
#
# Convention : Reuss Voigt Hill
#
# Bulk Modulus (GPa) = 65.56526 80.57084 73.06805
# Shear Modulus (GPa) = 30.32178 41.38858 35.85518
#
# Velocity S-wave (km/s) = 3.97051 4.63884 4.31763
# Velocity P-wave (km/s) = 7.42353 8.40133 7.92752
#
# Compressibility (1/GPa) = 0.01525198
#
# Stress axis : x y z
#
# Youngs Moduli (GPa) = 65.46324 72.86905 54.92384
#
# Poissons Ratio (x) = 0.61060 0.39718
# Poissons Ratio (y) = 0.54854 0.02011
# Poissons Ratio (z) = 0.47340 0.02668
#
# Static dielectric constant tensor:
#      x y z
#    x 1.667170 -0.000700 -0.011140 
#    y -0.000700 0.901270 0.003630 
#    z -0.011140 0.003630 1.707720 
# 
# From -- ./inp_files/376588.got.cif
#   From: 2010.05.17/outbox.cif.g08.bks.cpg/sg12_189_cif.got.tgz:376588.got - 2010.06.03 13:09:07.
