data_PCOD9211442
_publ_section_title
;
Structure prediction by ZEFSAII (Michael W. Deem and Ramdas Pophale) SiO2 
 PCOD9211442
Probable space group: C 2/M
;
_chemical_formula_sum "Si O2"
_cell_formula_units_Z 64
_cell_length_a 10.351855
_cell_length_b 14.652321
_cell_length_c 32.727206
_cell_angle_alpha 90.000000
_cell_angle_beta 136.684369
_cell_angle_gamma 90.000000
_cell_volume 3405.401573
_symmetry_space_group_name_H-M "C 2/M"
_symmetry_group_IT_number 12
_symmetry_cell_setting 'monoclinic'
loop_
_space_group_symop_operation_xyz
x,y,z
-x,y,-z
-x,-y,-z
x,-y,z
1/2+x,1/2+y,z
1/2-x,1/2+y,-z
1/2-x,1/2-y,-z
1/2+x,1/2-y,z
loop_
_atom_site_type_symbol
_atom_site_label
_atom_site_fract_x
_atom_site_fract_y
_atom_site_fract_z
Si Si1 0.057508 0.388752 0.968227
Si Si2 0.484918 0.249380 0.262842
Si Si3 0.580292 0.233901 0.656873
Si Si4 0.164728 0.391012 0.164128
Si Si5 0.135093 0.608363 0.832182
Si Si6 0.810435 0.108292 0.576655
Si Si7 0.032007 0.391420 0.440051
Si Si8 0.972931 0.111059 0.040345
O O1 0.058243 0.500000 0.968082
O O2 0.918404 0.363416 0.899264
O O3 0.000000 0.358710 0.000000
O O4 0.270401 0.358495 0.008988
O O5 0.453449 0.223184 0.302747
O O6 0.700658 0.274613 0.303609
O O7 0.344331 0.331897 0.218495
O O8 0.436773 0.165126 0.222441
O O9 0.495552 0.332826 0.626016
O O10 0.471490 0.162992 0.602768
O O11 0.206345 0.500000 0.172937
O O12 0.000027 0.376798 0.159771
O O13 0.135241 0.500000 0.824147
O O14 0.346818 0.638213 0.892004
O O15 0.656250 0.129078 0.576563
O O16 0.707162 0.130220 0.510085
O O17 0.845877 0.000000 0.586030
O O18 0.033160 0.500000 0.433333
O O19 0.972259 0.000000 0.040365
O O20 0.000000 0.139557 0.000000
#
# Coordination Sequence:
#
# PCOD9211442 Si02
#       8
#     8   8   8   8   8   8   8   8
#     4   9  17  31  56  89 116 143 190 250 310 366
#     4  12  26  40  59  89 123 161 212 249 281 355
#     4  12  23  40  61  89 126 163 199 249 297 342
#     4  10  21  41  64  83 117 163 200 246 305 363
#     4  10  21  40  63  85 117 159 201 250 304 360
#     4   9  19  38  66  95 122 159 202 242 296 362
#     4   9  19  38  65  96 125 155 199 249 297 354
#     4   9  15  29  58  86 106 143 195 243 301 365
#
# _framework density 18.793672000000001
#
# number of rings (size 3 to 8) (size 9 to 14) (size 15 to 20)
#    0.000    2.000    3.750    1.125    0.000    3.000 
#    0.000    2.500    0.000    1.500    0.000    0.000 
#    0.000    0.000    0.000    0.000    0.000    0.000 
#
# Total GULP energy -178703.614330 kJ/mol
# GULP energy per Si atom -5584.487948 kJ/mol
# Density = 1.875090 g / cm^3
# Si number density = 18.793672 Si / 1000 Ang^3
#
#
#
# Elastic Constant Matrix: (Units=GPa)
#
#
# Indices 1 2 3 4 5 6 
#
# 1 112.3124 30.1525 58.8304 0.0000 -18.2257 0.0000
# 2 30.1525 64.0973 46.3807 0.0000 -9.9817 0.0000
# 3 58.8304 46.3807 121.0084 0.0000 -24.7195 0.0000
# 4 0.0000 0.0000 0.0000 21.0185 0.0000 11.0868
# 5 -18.2257 -9.9817 -24.7195 0.0000 39.7619 0.0000
# 6 0.0000 0.0000 0.0000 11.0868 0.0000 14.2360
#
#
#
# Elastic Compliance Matrix: (Units=1/GPa)
#
#
# Indices 1 2 3 4 5 6 
#
# 1 0.012288 -0.001993 -0.004767 0.000000 0.002168 0.000000
# 2 -0.001993 0.021916 -0.007438 0.000000 -0.000036 0.000000
# 3 -0.004767 -0.007438 0.014438 0.000000 0.004924 0.000000
# 4 0.000000 0.000000 0.000000 0.080747 0.000000 -0.062885
# 5 0.002168 -0.000036 0.004924 0.000000 0.029196 0.000000
# 6 0.000000 0.000000 0.000000 -0.062885 0.000000 0.119218
#
#
# Mechanical properties :
#
#
# Convention : Reuss Voigt Hill
#
# Bulk Modulus (GPa) = 49.39606 63.12723 56.26165
# Shear Modulus (GPa) = 15.97713 25.80693 20.89203
#
# Velocity S-wave (km/s) = 2.91887 3.70965 3.33776
# Velocity P-wave (km/s) = 6.14004 7.21188 6.69744
#
# Compressibility (1/GPa) = 0.02024453
#
# Stress axis : x y z
#
# Youngs Moduli (GPa) = 81.38200 45.62959 69.26070
#
# Poissons Ratio (x) = 0.09096 0.33016
# Poissons Ratio (y) = 0.16222 0.51518
# Poissons Ratio (z) = 0.38794 0.33940
#
# Static dielectric constant tensor:
#      x y z
#    x 1.633150 0.000000 0.012210 
#    y 0.000000 1.656650 0.000000 
#    z 0.012210 0.000000 1.647470 
# 
# From -- ./inp_files/372611.got.cif
#   From: 2010.05.17/outbox.cif.g08.bks.cpg/sg12_187_cif.got.tgz:372611.got - 2010.06.03 13:09:07.
