data_PCOD9211627
_publ_section_title
;
Structure prediction by ZEFSAII (Michael W. Deem and Ramdas Pophale) SiO2 
 PCOD9211627
Probable space group: C 2/M
;
_chemical_formula_sum "Si O2"
_cell_formula_units_Z 48
_cell_length_a 26.620938
_cell_length_b 14.353695
_cell_length_c 9.252291
_cell_angle_alpha 90.000000
_cell_angle_beta 141.090812
_cell_angle_gamma 90.000000
_cell_volume 2220.530502
_symmetry_space_group_name_H-M "C 2/M"
_symmetry_group_IT_number 12
_symmetry_cell_setting 'monoclinic'
loop_
_space_group_symop_operation_xyz
x,y,z
-x,y,-z
-x,-y,-z
x,-y,z
1/2+x,1/2+y,z
1/2-x,1/2+y,-z
1/2-x,1/2-y,-z
1/2+x,1/2-y,z
loop_
_atom_site_type_symbol
_atom_site_label
_atom_site_fract_x
_atom_site_fract_y
_atom_site_fract_z
Si Si1 0.191961 0.602987 0.601407
Si Si2 0.094555 0.262588 0.182227
Si Si3 0.674712 0.391443 0.557981
Si Si4 0.679094 0.236966 0.068028
Si Si5 0.929611 0.798655 0.437609
Si Si6 0.542470 0.100126 0.439237
O O1 0.218231 0.500000 0.617403
O O2 0.132314 0.648613 0.350469
O O3 0.263703 0.673672 0.783743
O O4 0.137747 0.595183 0.624172
O O5 0.139663 0.172425 0.350566
O O6 0.121942 0.270100 0.078344
O O7 0.000000 0.257031 0.000000
O O8 0.676687 0.500000 0.528986
O O9 0.761453 0.351069 0.795228
O O10 0.615958 0.368053 0.559938
O O11 0.631392 0.253274 0.814103
O O12 0.965950 0.711158 0.609248
O O13 0.000000 0.842388 0.500000
O O14 0.500000 0.095231 0.500000
O O15 0.514810 0.000000 0.305467
#
# Coordination Sequence:
#
# PCOD9211627 Si02
#       6
#     8   8   8   8   8   8
#     4  10  21  40  64  92 125 161 205 255 312 370
#     4  11  24  43  65  92 124 165 207 255 310 370
#     4  11  24  43  64  91 127 167 211 253 302 367
#     4  11  24  40  64  93 124 163 209 253 314 365
#     4  11  22  41  65  92 127 164 206 260 308 362
#     4   9  18  33  60  92 125 160 197 247 311 369
#
# _framework density 21.616454000000001
#
# number of rings (size 3 to 8) (size 9 to 14) (size 15 to 20)
#    0.000    1.500    3.333    3.500    2.333    5.000 
#    0.000    1.667    0.000    0.000    0.000    0.000 
#    0.000    0.000    0.000    0.000    0.000    0.000 
#
# Total GULP energy -133768.619748 kJ/mol
# GULP energy per Si atom -5573.692490 kJ/mol
# Density = 2.156725 g / cm^3
# Si number density = 21.616454 Si / 1000 Ang^3
#
#
#
# Elastic Constant Matrix: (Units=GPa)
#
#
# Indices 1 2 3 4 5 6 
#
# 1 103.6606 18.1110 16.5336 0.0000 11.8401 0.0000
# 2 18.1110 133.0473 28.7726 0.0000 6.0946 0.0000
# 3 16.5336 28.7726 94.8127 0.0000 6.3465 0.0000
# 4 0.0000 0.0000 0.0000 1.7844 0.0000 -0.2606
# 5 11.8401 6.0946 6.3465 0.0000 30.4617 0.0000
# 6 0.0000 0.0000 0.0000 -0.2606 0.0000 -9.0788
#
#
#
# Elastic Compliance Matrix: (Units=1/GPa)
#
#
# Indices 1 2 3 4 5 6 
#
# 1 0.010433 -0.000978 -0.001282 0.000000 -0.003592 0.000000
# 2 -0.000978 0.008173 -0.002257 0.000000 -0.000785 0.000000
# 3 -0.001282 -0.002257 0.011553 0.000000 -0.001457 0.000000
# 4 0.000000 0.000000 0.000000 0.558085 0.000000 -0.016022
# 5 -0.003592 -0.000785 -0.001457 0.000000 0.034685 0.000000
# 6 0.000000 0.000000 0.000000 -0.016022 0.000000 -0.109686
#
#
# Mechanical properties :
#
#
# Convention : Reuss Voigt Hill
#
# Bulk Modulus (GPa) = 47.33913 50.92834 49.13374
# Shear Modulus (GPa) = 9.44609 22.50699 15.97654
#
# Velocity S-wave (km/s) = 2.09269 3.23026 2.72157
# Velocity P-wave (km/s) = 5.27127 6.12568 5.71446
#
# Compressibility (1/GPa) = 0.02112417
#
# Stress axis : x y z
#
# Youngs Moduli (GPa) = 95.85374 122.34817 86.55621
#
# Poissons Ratio (x) = 0.11970 0.11096
# Poissons Ratio (y) = 0.09378 0.19538
# Poissons Ratio (z) = 0.12287 0.27617
#
# Static dielectric constant tensor:
#      x y z
#    x 1.818600 0.000000 -0.026600 
#    y 0.000000 1.787750 0.000000 
#    z -0.026600 0.000000 1.830800 
# 
# From -- ./inp_files/105030.got.cif
#   From: 2010.05.17/outbox.cif.g08.bks.cpg/sg12_53_cif.got.tgz:105030.got - 2010.06.03 13:09:07.
