data_PCOD9211777
_publ_section_title
;
Structure prediction by ZEFSAII (Michael W. Deem and Ramdas Pophale) SiO2 
 PCOD9211777
Probable space group: C 2/M
;
_chemical_formula_sum "Si O2"
_cell_formula_units_Z 64
_cell_length_a 11.404956
_cell_length_b 37.053482
_cell_length_c 7.012429
_cell_angle_alpha 90.000000
_cell_angle_beta 90.000018
_cell_angle_gamma 90.000000
_cell_volume 2963.405736
_symmetry_space_group_name_H-M "C 2/M"
_symmetry_group_IT_number 12
_symmetry_cell_setting 'monoclinic'
loop_
_space_group_symop_operation_xyz
x,y,z
-x,y,-z
-x,-y,-z
x,-y,z
1/2+x,1/2+y,z
1/2-x,1/2+y,-z
1/2-x,1/2-y,-z
1/2+x,1/2-y,z
loop_
_atom_site_type_symbol
_atom_site_label
_atom_site_fract_x
_atom_site_fract_y
_atom_site_fract_z
Si Si1 0.360144 0.541491 0.500000
Si Si2 0.359040 0.541105 0.000000
Si Si3 0.260474 0.082589 0.747830
Si Si4 0.368289 0.842569 0.723896
Si Si5 0.368289 0.842569 0.276103
Si Si6 0.260475 0.917411 0.252170
Si Si7 0.500000 0.041116 0.772552
Si Si8 0.861288 0.276921 1.000000
O O1 0.500000 0.542805 0.500000
O O2 0.314368 0.500000 0.500000
O O3 0.282945 0.581052 0.500000
O O4 0.341713 0.549548 0.749869
O O5 0.314123 0.500000 0.000000
O O6 0.341713 0.549548 0.250131
O O7 0.500000 0.544044 0.000000
O O8 0.262211 0.575481 1.000000
O O9 0.277728 0.125590 0.766452
O O10 0.384857 0.062914 0.718460
O O11 0.368142 0.837170 0.500000
O O12 0.499999 0.854876 0.781018
O O13 0.347882 0.804550 0.823989
O O14 0.277729 0.874411 0.233548
O O15 0.347882 0.804550 0.176009
O O16 0.384856 0.937086 0.281540
O O17 0.499999 0.000000 0.703549
O O18 0.500000 0.039311 0.000000
O O19 0.750000 0.250000 0.000000
O O20 0.000000 0.263598 0.000000
#
# Coordination Sequence:
#
# PCOD9211777 Si02
#       8
#     8   8   8   8   8   8   8   8
#     4  11  24  39  53  75 118 172 220 263 310 365
#     4  11  23  37  53  74 108 164 224 271 322 379
#     4  12  21  37  59  83 116 157 211 263 318 376
#     4  10  21  40  65  97 131 167 203 251 318 396
#     4  10  21  40  65  97 131 167 203 251 318 396
#     4  12  21  37  59  83 116 157 211 263 318 376
#     4  11  22  33  53  87 121 153 205 279 334 359
#     4  10  23  44  74 103 132 169 206 250 317 394
#
# _framework density 21.596772999999999
#
# number of rings (size 3 to 8) (size 9 to 14) (size 15 to 20)
#    0.000    1.125    3.750    3.750    0.000    3.000 
#    0.000    5.000    0.000    0.000    0.000    0.000 
#    0.000    0.000    0.000    0.000    0.000    0.000 
#
# Total GULP energy -178490.316978 kJ/mol
# GULP energy per Si atom -5577.822406 kJ/mol
# Density = 2.154762 g / cm^3
# Si number density = 21.596773 Si / 1000 Ang^3
#
#
#
# Elastic Constant Matrix: (Units=GPa)
#
#
# Indices 1 2 3 4 5 6 
#
# 1 118.5457 77.0619 34.2935 0.0000 0.0000 0.0000
# 2 77.0619 132.5192 51.6782 0.0000 0.0002 0.0000
# 3 34.2935 51.6782 189.1060 0.0000 0.0003 0.0000
# 4 0.0000 0.0000 0.0000 33.7849 0.0000 0.0001
# 5 0.0000 0.0002 0.0003 0.0000 52.0262 0.0000
# 6 0.0000 0.0000 0.0000 0.0001 0.0000 24.2926
#
#
#
# Elastic Compliance Matrix: (Units=1/GPa)
#
#
# Indices 1 2 3 4 5 6 
#
# 1 0.013582 -0.007765 -0.000341 0.000000 0.000000 0.000000
# 2 -0.007765 0.012886 -0.002113 0.000000 0.000000 0.000000
# 3 -0.000341 -0.002113 0.005927 0.000000 0.000000 0.000000
# 4 0.000000 0.000000 0.000000 0.029599 0.000000 0.000000
# 5 0.000000 0.000000 0.000000 0.000000 0.019221 0.000000
# 6 0.000000 0.000000 0.000000 0.000000 0.000000 0.041165
#
#
# Mechanical properties :
#
#
# Convention : Reuss Voigt Hill
#
# Bulk Modulus (GPa) = 83.63725 85.13757 84.38741
# Shear Modulus (GPa) = 34.05897 40.49657 37.27777
#
# Velocity S-wave (km/s) = 3.97550 4.33497 4.15912
# Velocity P-wave (km/s) = 7.73845 8.03510 7.88817
#
# Compressibility (1/GPa) = 0.01195640
#
# Stress axis : x y z
#
# Youngs Moduli (GPa) = 73.62663 77.60534 168.70918
#
# Poissons Ratio (x) = 0.60262 0.05753
# Poissons Ratio (y) = 0.57172 0.35651
# Poissons Ratio (z) = 0.02511 0.16399
#
# Static dielectric constant tensor:
#      x y z
#    x 1.714250 0.000000 0.000000 
#    y 0.000000 1.694460 0.000000 
#    z 0.000000 0.000000 2.407220 
# 
# From -- ./inp_files/54742.got.cif
#   From: 2010.05.17/outbox.cif.g08.bks.cpg/sg12_28_cif.got.tgz:54742.got - 2010.06.03 13:09:07.
