data_PCOD9211102
_publ_section_title
;
Structure prediction by ZEFSAII (Michael W. Deem and Ramdas Pophale) SiO2 
 PCOD9211102
Probable space group: C 2/M
;
_chemical_formula_sum "Si O2"
_cell_formula_units_Z 48
_cell_length_a 18.385103
_cell_length_b 25.186767
_cell_length_c 7.682349
_cell_angle_alpha 90.000000
_cell_angle_beta 34.350296
_cell_angle_gamma 90.000000
_cell_volume 2007.265716
_symmetry_space_group_name_H-M "C 2/M"
_symmetry_group_IT_number 12
_symmetry_cell_setting 'monoclinic'
loop_
_space_group_symop_operation_xyz
x,y,z
-x,y,-z
-x,-y,-z
x,-y,z
1/2+x,1/2+y,z
1/2-x,1/2+y,-z
1/2-x,1/2-y,-z
1/2+x,1/2-y,z
loop_
_atom_site_type_symbol
_atom_site_label
_atom_site_fract_x
_atom_site_fract_y
_atom_site_fract_z
Si Si1 0.688981 0.728063 0.946160
Si Si2 0.074191 0.779513 0.669658
Si Si3 0.816803 0.439665 0.347493
Si Si4 0.301635 0.601427 0.062733
Si Si5 0.886472 0.564267 0.853670
Si Si6 0.435276 0.400751 0.316670
O O1 0.792956 0.747930 0.599683
O O2 0.685794 0.664643 0.954635
O O3 0.750000 0.750000 0.000000
O O4 0.540622 0.745170 0.219372
O O5 0.103924 0.840487 0.554765
O O6 0.000000 0.780604 0.000000
O O7 0.853164 0.500000 0.314087
O O8 0.782515 0.414170 0.600340
O O9 0.684677 0.437396 0.493647
O O10 0.906641 0.416662 0.014452
O O11 0.238415 0.582974 0.008186
O O12 0.446648 0.579203 0.800217
O O13 0.887095 0.500000 0.860485
O O14 0.000000 0.581600 0.500000
O O15 0.500000 0.393463 0.000000
#
# Coordination Sequence:
#
# PCOD9211102 Si02
#       6
#     8   8   8   8   8   8
#     4  11  24  41  62  94 126 171 215 265 323 378
#     4  10  21  41  64  87 127 169 211 261 319 381
#     4  10  21  39  66  94 123 161 205 257 316 379
#     4  10  22  41  61  92 125 162 204 259 319 371
#     4  10  23  41  60  87 124 166 210 258 311 373
#     4   8  18  36  61  90 121 156 196 252 318 371
#
# _framework density 23.913125000000001
#
# number of rings (size 3 to 8) (size 9 to 14) (size 15 to 20)
#    0.000    2.167    0.000    2.500    2.333    6.333 
#    3.000    4.167    0.000    0.000    0.000    0.000 
#    0.000    0.000    0.000    0.000    0.000    0.000 
#
# Total GULP energy -133981.598787 kJ/mol
# GULP energy per Si atom -5582.566616 kJ/mol
# Density = 2.385870 g / cm^3
# Si number density = 23.913125 Si / 1000 Ang^3
#
#
#
# Elastic Constant Matrix: (Units=GPa)
#
#
# Indices 1 2 3 4 5 6 
#
# 1 104.2100 7.8836 13.2392 0.0000 21.0984 0.0000
# 2 7.8836 29.2963 12.8557 0.0000 0.3930 0.0000
# 3 13.2392 12.8557 71.5167 0.0000 22.2634 0.0000
# 4 0.0000 0.0000 0.0000 18.9863 0.0000 4.5611
# 5 21.0984 0.3930 22.2634 0.0000 59.9996 0.0000
# 6 0.0000 0.0000 0.0000 4.5611 0.0000 27.6046
#
#
#
# Elastic Compliance Matrix: (Units=1/GPa)
#
#
# Indices 1 2 3 4 5 6 
#
# 1 0.010563 -0.002630 -0.000375 0.000000 -0.003558 0.000000
# 2 -0.002630 0.038052 -0.007421 0.000000 0.003429 0.000000
# 3 -0.000375 -0.007421 0.017332 0.000000 -0.006251 0.000000
# 4 0.000000 0.000000 0.000000 0.054847 0.000000 -0.009062
# 5 -0.003558 0.003429 -0.006251 0.000000 0.020215 0.000000
# 6 0.000000 0.000000 0.000000 -0.009062 0.000000 0.037723
#
#
# Mechanical properties :
#
#
# Convention : Reuss Voigt Hill
#
# Bulk Modulus (GPa) = 22.17539 30.33114 26.25326
# Shear Modulus (GPa) = 23.29747 32.72105 28.00926
#
# Velocity S-wave (km/s) = 3.12469 3.70311 3.42613
# Velocity P-wave (km/s) = 4.72353 5.56735 5.16271
#
# Compressibility (1/GPa) = 0.04509505
#
# Stress axis : x y z
#
# Youngs Moduli (GPa) = 94.67016 26.27975 57.69681
#
# Poissons Ratio (x) = 0.06912 0.02164
# Poissons Ratio (y) = 0.24900 0.42816
# Poissons Ratio (z) = 0.03550 0.19502
#
# Static dielectric constant tensor:
#      x y z
#    x 2.002780 0.000000 0.097180 
#    y 0.000000 1.837100 0.000000 
#    z 0.097180 0.000000 3.265000 
# 
# From -- ./inp_files/91194.got.cif
#   From: 2010.05.17/outbox.cif.g08.bks.cpg/sg12_46_cif.got.tgz:91194.got - 2010.06.03 13:09:07.
