data_PCOD9211248
_publ_section_title
;
Structure prediction by ZEFSAII (Michael W. Deem and Ramdas Pophale) SiO2 
 PCOD9211248
Probable space group: C 2/M
;
_chemical_formula_sum "Si O2"
_cell_formula_units_Z 54
_cell_length_a 21.203934
_cell_length_b 16.152721
_cell_length_c 7.144165
_cell_angle_alpha 90.000000
_cell_angle_beta 59.675390
_cell_angle_gamma 90.000000
_cell_volume 2112.099427
_symmetry_space_group_name_H-M "C 2/M"
_symmetry_group_IT_number 12
_symmetry_cell_setting 'monoclinic'
loop_
_space_group_symop_operation_xyz
x,y,z
-x,y,-z
-x,-y,-z
x,-y,z
1/2+x,1/2+y,z
1/2-x,1/2+y,-z
1/2-x,1/2-y,-z
1/2+x,1/2-y,z
loop_
_atom_site_type_symbol
_atom_site_label
_atom_site_fract_x
_atom_site_fract_y
_atom_site_fract_z
Si Si1 0.689013 0.091699 0.900992
Si Si2 0.636444 0.906354 0.409922
Si Si3 0.000000 0.296766 0.500000
Si Si4 0.707383 0.403525 0.752383
Si Si5 0.936481 0.711106 0.998332
Si Si6 0.500000 0.500000 0.000000
Si Si7 0.646971 0.400403 0.235003
Si Si8 0.922696 0.861086 0.308079
O O1 0.773993 0.111330 0.787313
O O2 0.680581 0.000000 0.828817
O O3 0.663092 0.087172 0.154906
O O4 0.638159 0.161038 0.892157
O O5 0.564595 0.851298 0.500212
O O6 0.710494 0.869972 0.396770
O O7 0.619785 0.000000 0.500921
O O8 0.039343 0.263012 0.248768
O O9 0.720382 0.500000 0.779041
O O10 0.650885 0.402204 0.668028
O O11 0.662876 0.370672 0.999806
O O12 0.929583 0.782901 0.163570
O O13 0.000000 0.655919 0.000000
O O14 0.513994 0.427094 0.823160
O O15 0.630270 0.500000 0.259672
O O16 0.590691 0.352028 0.451882
#
# Coordination Sequence:
#
# PCOD9211248 Si02
#       8
#     8   8   4   8   8   2   8   8
#     4   8  17  37  61  89 120 151 189 240 294 354
#     4   8  15  32  62  93 121 153 195 236 284 358
#     4  10  21  40  58  83 126 166 186 230 306 345
#     4   9  18  35  61  92 115 147 199 247 288 349
#     4  11  25  40  57  85 123 157 198 249 288 351
#     4  12  24  44  62  84 118 160 202 250 300 344
#     4   9  18  36  63  87 115 152 192 242 302 352
#     4  12  23  41  60  84 119 155 203 253 296 343
#
# _framework density 25.566977000000001
#
# number of rings (size 3 to 8) (size 9 to 14) (size 15 to 20)
#    0.000    2.370    2.222    2.000    0.000    3.852 
#    0.000    8.889    0.000    0.000    0.000    0.000 
#    0.000    0.000    0.000    0.000    0.000    0.000 
#
# Total GULP energy -150536.963960 kJ/mol
# GULP energy per Si atom -5575.443110 kJ/mol
# Density = 2.550879 g / cm^3
# Si number density = 25.566977 Si / 1000 Ang^3
#
#
#
# Elastic Constant Matrix: (Units=GPa)
#
#
# Indices 1 2 3 4 5 6 
#
# 1 68.9685 12.9756 8.4803 0.0000 10.3456 0.0000
# 2 12.9756 40.8506 22.7453 0.0000 6.7000 0.0000
# 3 8.4803 22.7453 172.9480 0.0000 20.0390 0.0000
# 4 0.0000 0.0000 0.0000 4.5402 0.0000 5.4023
# 5 10.3456 6.7000 20.0390 0.0000 32.1467 0.0000
# 6 0.0000 0.0000 0.0000 5.4023 0.0000 29.2260
#
#
#
# Elastic Compliance Matrix: (Units=1/GPa)
#
#
# Indices 1 2 3 4 5 6 
#
# 1 0.015972 -0.004532 0.000322 0.000000 -0.004396 0.000000
# 2 -0.004532 0.028091 -0.003194 0.000000 -0.002406 0.000000
# 3 0.000322 -0.003194 0.006598 0.000000 -0.003551 0.000000
# 4 0.000000 0.000000 0.000000 0.282362 0.000000 -0.052193
# 5 -0.004396 -0.002406 -0.003551 0.000000 0.035237 0.000000
# 6 0.000000 0.000000 0.000000 -0.052193 0.000000 0.043864
#
#
# Mechanical properties :
#
#
# Convention : Reuss Voigt Hill
#
# Bulk Modulus (GPa) = 27.88987 41.24107 34.56547
# Shear Modulus (GPa) = 11.39261 29.08696 20.23978
#
# Velocity S-wave (km/s) = 2.11321 3.37661 2.81666
# Velocity P-wave (km/s) = 4.10931 5.60068 4.91193
#
# Compressibility (1/GPa) = 0.03585532
#
# Stress axis : x y z
#
# Youngs Moduli (GPa) = 62.61036 35.59797 151.56779
#
# Poissons Ratio (x) = 0.16131 -0.04884
# Poissons Ratio (y) = 0.28372 0.48403
# Poissons Ratio (z) = -0.02017 0.11368
#
# Static dielectric constant tensor:
#      x y z
#    x 2.092780 0.000000 -0.050090 
#    y 0.000000 2.006970 0.000000 
#    z -0.050090 0.000000 2.081830 
# 
# From -- ./inp_files/98103.got.cif
#   From: 2010.05.17/outbox.cif.g08.bks.cpg/sg12_50_cif.got.tgz:98103.got - 2010.06.03 13:09:07.
