data_PCOD9211910
_publ_section_title
;
Structure prediction by ZEFSAII (Michael W. Deem and Ramdas Pophale) SiO2 
 PCOD9211910
Probable space group: C 2/M
;
_chemical_formula_sum "Si O2"
_cell_formula_units_Z 42
_cell_length_a 19.664031
_cell_length_b 8.128955
_cell_length_c 11.927857
_cell_angle_alpha 90.000000
_cell_angle_beta 66.459556
_cell_angle_gamma 90.000000
_cell_volume 1747.970322
_symmetry_space_group_name_H-M "C 2/M"
_symmetry_group_IT_number 12
_symmetry_cell_setting 'monoclinic'
loop_
_space_group_symop_operation_xyz
x,y,z
-x,y,-z
-x,-y,-z
x,-y,z
1/2+x,1/2+y,z
1/2-x,1/2+y,-z
1/2-x,1/2-y,-z
1/2+x,1/2-y,z
loop_
_atom_site_type_symbol
_atom_site_label
_atom_site_fract_x
_atom_site_fract_y
_atom_site_fract_z
Si Si1 0.824785 0.687186 0.890960
Si Si2 0.313000 0.316370 0.656861
Si Si3 0.548855 0.307739 0.604198
Si Si4 0.500000 0.000000 0.500000
Si Si5 0.422648 0.304040 0.005910
Si Si6 0.339887 0.304391 0.272538
O O1 0.832903 0.500000 0.917675
O O2 0.819348 0.702656 0.761075
O O3 0.896281 0.774574 0.897561
O O4 0.750000 0.750000 0.000000
O O5 0.312397 0.500000 0.703688
O O6 0.381064 0.301554 0.527655
O O7 0.235896 0.283168 0.644312
O O8 0.519653 0.500000 0.619299
O O9 0.588089 0.279845 0.697981
O O10 0.501662 0.150352 0.595727
O O11 0.425974 0.500000 0.018834
O O12 0.500000 0.234708 0.000000
O O13 0.359746 0.246973 0.134265
O O14 0.325093 0.500000 0.284255
#
# Coordination Sequence:
#
# PCOD9211910 Si02
#       6
#     8   8   8   2   8   8
#     4  12  24  40  64  95 133 174 224 277 331 397
#     4  11  23  40  68  98 133 171 221 282 340 398
#     4  10  25  45  67 101 136 179 225 278 339 402
#     4  12  26  44  72  94 142 184 224 270 326 420
#     4  10  22  41  65  95 131 175 219 269 342 404
#     4  10  21  40  67  96 134 170 217 284 337 400
#
# _framework density 24.027868999999999
#
# number of rings (size 3 to 8) (size 9 to 14) (size 15 to 20)
#    0.000    1.333    1.905    3.143    4.000    1.905 
#    0.000    3.810    0.000    0.000    0.000    0.000 
#    0.000    0.000    0.000    0.000    0.000    0.000 
#
# Total GULP energy -117140.671587 kJ/mol
# GULP energy per Si atom -5578.127218 kJ/mol
# Density = 2.397318 g / cm^3
# Si number density = 24.027869 Si / 1000 Ang^3
#
#
#
# Elastic Constant Matrix: (Units=GPa)
#
#
# Indices 1 2 3 4 5 6 
#
# 1 88.2324 17.6623 -1.4128 0.0000 15.8595 0.0000
# 2 17.6623 86.7233 7.9898 0.0000 -7.2662 0.0000
# 3 -1.4128 7.9898 52.6541 0.0000 20.1886 0.0000
# 4 0.0000 0.0000 0.0000 22.0127 0.0000 14.4752
# 5 15.8595 -7.2662 20.1886 0.0000 38.1379 0.0000
# 6 0.0000 0.0000 0.0000 14.4752 0.0000 32.8321
#
#
#
# Elastic Compliance Matrix: (Units=1/GPa)
#
#
# Indices 1 2 3 4 5 6 
#
# 1 0.013767 -0.003937 0.004328 0.000000 -0.008766 0.000000
# 2 -0.003937 0.013321 -0.004677 0.000000 0.006651 0.000000
# 3 0.004328 -0.004677 0.026159 0.000000 -0.016538 0.000000
# 4 0.000000 0.000000 0.000000 0.063977 0.000000 -0.028207
# 5 -0.008766 0.006651 -0.016538 0.000000 0.039888 0.000000
# 6 0.000000 0.000000 0.000000 -0.028207 0.000000 0.042894
#
#
# Mechanical properties :
#
#
# Convention : Reuss Voigt Hill
#
# Bulk Modulus (GPa) = 22.38442 30.67648 26.53045
# Shear Modulus (GPa) = 22.37453 32.15457 27.26455
#
# Velocity S-wave (km/s) = 3.05485 3.66214 3.37219
# Velocity P-wave (km/s) = 4.66681 5.53863 5.12130
#
# Compressibility (1/GPa) = 0.04467393
#
# Stress axis : x y z
#
# Youngs Moduli (GPa) = 72.63882 75.07005 38.22814
#
# Poissons Ratio (x) = 0.29555 -0.16544
# Poissons Ratio (y) = 0.28598 0.17880
# Poissons Ratio (z) = -0.31437 0.35111
#
# Static dielectric constant tensor:
#      x y z
#    x 1.902970 0.000000 -0.052850 
#    y 0.000000 1.878240 0.000000 
#    z -0.052850 0.000000 1.908020 
# 
# From -- ./inp_files/162976.got.cif
#   From: 2010.05.17/outbox.cif.g08.bks.cpg/sg12_82_cif.got.tgz:162976.got - 2010.06.03 13:09:07.
