data_PCOD9211143
_publ_section_title
;
Structure prediction by ZEFSAII (Michael W. Deem and Ramdas Pophale) SiO2 
 PCOD9211143
Probable space group: C 2/M
;
_chemical_formula_sum "Si O2"
_cell_formula_units_Z 36
_cell_length_a 19.131447
_cell_length_b 20.146216
_cell_length_c 11.223321
_cell_angle_alpha 90.000000
_cell_angle_beta 159.516616
_cell_angle_gamma 90.000000
_cell_volume 1513.738912
_symmetry_space_group_name_H-M "C 2/M"
_symmetry_group_IT_number 12
_symmetry_cell_setting 'monoclinic'
loop_
_space_group_symop_operation_xyz
x,y,z
-x,y,-z
-x,-y,-z
x,-y,z
1/2+x,1/2+y,z
1/2-x,1/2+y,-z
1/2-x,1/2-y,-z
1/2+x,1/2-y,z
loop_
_atom_site_type_symbol
_atom_site_label
_atom_site_fract_x
_atom_site_fract_y
_atom_site_fract_z
Si Si1 0.500000 0.617234 0.500000
Si Si2 0.795575 0.289704 0.836045
Si Si3 0.123298 0.395672 0.309714
Si Si4 0.025635 0.178720 0.180398
Si Si5 0.832694 0.000000 0.082081
Si Si6 0.093870 0.500000 0.467209
O O1 0.322332 0.665541 0.257580
O O2 0.553489 0.566414 0.692740
O O3 0.676996 0.294655 0.523142
O O4 0.009714 0.325962 0.157037
O O5 0.824441 0.211805 0.911556
O O6 0.357378 0.390250 0.651421
O O7 0.105558 0.437591 0.399516
O O8 0.000000 0.422707 0.000000
O O9 0.000000 0.199231 0.000000
O O10 0.768090 0.000000 0.842557
O O11 0.621979 0.000000 0.815697
#
# Coordination Sequence:
#
# PCOD9211143 Si02
#       6
#     4   8   8   8   4   4
#     4  11  24  44  66  94 134 179 224 268 332 387
#     4  11  22  40  65  93 132 179 215 268 336 390
#     4  10  21  39  66  98 134 170 216 275 334 397
#     4  11  23  41  65  96 133 170 215 275 335 396
#     4  10  24  44  65  93 136 178 223 284 309 394
#     4  11  21  42  68  98 127 179 232 264 335 380
#
# _framework density 23.782171999999999
#
# number of rings (size 3 to 8) (size 9 to 14) (size 15 to 20)
#    0.000    1.333    2.222    5.000    3.111    0.889 
#    0.000    0.556    0.000    0.000    0.000    0.000 
#    0.000    0.000    0.000    0.000    0.000    0.000 
#
# Total GULP energy -100205.435783 kJ/mol
# GULP energy per Si atom -5566.968655 kJ/mol
# Density = 2.372804 g / cm^3
# Si number density = 23.782172 Si / 1000 Ang^3
#
#
#
# Elastic Constant Matrix: (Units=GPa)
#
#
# Indices 1 2 3 4 5 6 
#
# 1 90.5319 40.9329 33.3509 0.0000 -12.1370 0.0000
# 2 40.9329 64.1050 31.9285 0.0000 -1.4173 0.0000
# 3 33.3509 31.9285 68.2582 0.0000 -27.6524 0.0000
# 4 0.0000 0.0000 0.0000 -3.5611 0.0000 14.4546
# 5 -12.1370 -1.4173 -27.6524 0.0000 52.1717 0.0000
# 6 0.0000 0.0000 0.0000 14.4546 0.0000 27.6533
#
#
#
# Elastic Compliance Matrix: (Units=1/GPa)
#
#
# Indices 1 2 3 4 5 6 
#
# 1 0.016490 -0.008956 -0.003072 0.000000 0.001965 0.000000
# 2 -0.008956 0.026635 -0.010995 0.000000 -0.007187 0.000000
# 3 -0.003072 -0.010995 0.026594 0.000000 0.013082 0.000000
# 4 0.000000 0.000000 0.000000 -0.089955 0.000000 0.047020
# 5 0.001965 -0.007187 0.013082 0.000000 0.026363 0.000000
# 6 0.000000 0.000000 0.000000 0.047020 0.000000 0.011584
#
#
# Mechanical properties :
#
#
# Convention : Reuss Voigt Hill
#
# Bulk Modulus (GPa) = 42.24043 48.36887 45.30465
# Shear Modulus (GPa) = 69.78535 23.03164 46.40849
#
# Velocity S-wave (km/s) = 5.42285 3.11535 4.42226
# Velocity P-wave (km/s) = 7.55047 5.77261 6.72059
#
# Compressibility (1/GPa) = 0.02367400
#
# Stress axis : x y z
#
# Youngs Moduli (GPa) = 60.64193 37.54415 37.60265
#
# Poissons Ratio (x) = 0.33625 0.11551
# Poissons Ratio (y) = 0.54311 0.41343
# Poissons Ratio (z) = 0.18629 0.41279
#
# Static dielectric constant tensor:
#      x y z
#    x 1.897500 0.000000 0.049550 
#    y 0.000000 1.999600 0.000000 
#    z 0.049550 0.000000 1.906860 
# 
# From -- ./inp_files/120490.got.cif
#   From: 2010.05.17/outbox.cif.g08.bks.cpg/sg12_61_cif.got.tgz:120490.got - 2010.06.03 13:09:07.
