data_PCOD9211906
_publ_section_title
;
Structure prediction by ZEFSAII (Michael W. Deem and Ramdas Pophale) SiO2 
 PCOD9211906
Probable space group: C 2/M
;
_chemical_formula_sum "Si O2"
_cell_formula_units_Z 48
_cell_length_a 8.571211
_cell_length_b 23.189184
_cell_length_c 14.949719
_cell_angle_alpha 90.000000
_cell_angle_beta 47.161781
_cell_angle_gamma 90.000000
_cell_volume 2178.855548
_symmetry_space_group_name_H-M "C 2/M"
_symmetry_group_IT_number 12
_symmetry_cell_setting 'monoclinic'
loop_
_space_group_symop_operation_xyz
x,y,z
-x,y,-z
-x,-y,-z
x,-y,z
1/2+x,1/2+y,z
1/2-x,1/2+y,-z
1/2-x,1/2-y,-z
1/2+x,1/2-y,z
loop_
_atom_site_type_symbol
_atom_site_label
_atom_site_fract_x
_atom_site_fract_y
_atom_site_fract_z
Si Si1 0.956026 0.772890 0.235707
Si Si2 0.148400 0.566217 0.149686
Si Si3 0.253394 0.874037 0.069676
Si Si4 0.612391 0.327475 0.543511
Si Si5 0.072663 0.670492 0.285439
Si Si6 0.851020 0.065106 0.710418
O O1 0.141487 0.812218 0.122423
O O2 0.005162 0.705050 0.221414
O O3 0.916983 0.792168 0.353910
O O4 0.747776 0.789863 0.263034
O O5 0.212044 0.500000 0.137870
O O6 0.173744 0.609107 0.222747
O O7 0.893331 0.567052 0.228402
O O8 0.260339 0.595244 0.020600
O O9 0.154129 0.915518 0.184219
O O10 0.500000 0.867777 0.000000
O O11 0.500000 0.299833 0.500000
O O12 0.492438 0.387899 0.605243
O O13 0.859707 0.336163 0.425892
O O14 0.929157 0.000000 0.668962
#
# Coordination Sequence:
#
# PCOD9211906 Si02
#       6
#     8   8   8   8   8   8
#     4  11  26  43  65  93 130 171 214 267 322 382
#     4  10  21  40  67  96 131 170 214 263 319 383
#     4   9  20  40  66  96 129 167 215 264 320 381
#     4  11  21  40  65  94 129 165 215 265 316 383
#     4  12  25  42  64  96 130 172 214 264 325 380
#     4   9  18  35  65  98 128 168 217 266 312 378
#
# _framework density 22.029914999999999
#
# number of rings (size 3 to 8) (size 9 to 14) (size 15 to 20)
#    0.000    1.667    1.667    2.500    4.667    4.333 
#    0.000    5.000    0.000    5.000    0.000    0.000 
#    0.000    0.000    0.000    0.000    0.000    0.000 
#
# Total GULP energy -134322.201043 kJ/mol
# GULP energy per Si atom -5596.758377 kJ/mol
# Density = 2.197977 g / cm^3
# Si number density = 22.029915 Si / 1000 Ang^3
#
#
#
# Elastic Constant Matrix: (Units=GPa)
#
#
# Indices 1 2 3 4 5 6 
#
# 1 47.1729 4.0786 25.8853 0.0000 -2.5664 0.0000
# 2 4.0786 126.3321 53.5395 0.0000 0.9952 0.0000
# 3 25.8853 53.5395 80.0257 0.0000 -0.9159 0.0000
# 4 0.0000 0.0000 0.0000 19.5453 0.0000 -5.1517
# 5 -2.5664 0.9952 -0.9159 0.0000 14.0666 0.0000
# 6 0.0000 0.0000 0.0000 -5.1517 0.0000 22.4640
#
#
#
# Elastic Compliance Matrix: (Units=1/GPa)
#
#
# Indices 1 2 3 4 5 6 
#
# 1 0.027346 0.003929 -0.011429 0.000000 0.003967 0.000000
# 2 0.003929 0.011635 -0.009063 0.000000 -0.000696 0.000000
# 3 -0.011429 -0.009063 0.022257 0.000000 0.000005 0.000000
# 4 0.000000 0.000000 0.000000 0.054455 0.000000 0.012488
# 5 0.003967 -0.000696 0.000005 0.000000 0.071864 0.000000
# 6 0.000000 0.000000 0.000000 0.012488 0.000000 0.047380
#
#
# Mechanical properties :
#
#
# Convention : Reuss Voigt Hill
#
# Bulk Modulus (GPa) = 35.57168 46.72640 41.14904
# Shear Modulus (GPa) = 18.02240 22.55034 20.28637
#
# Velocity S-wave (km/s) = 2.86333 3.20288 3.03785
# Velocity P-wave (km/s) = 5.20707 5.91053 5.56992
#
# Compressibility (1/GPa) = 0.02811225
#
# Stress axis : x y z
#
# Youngs Moduli (GPa) = 36.56825 85.94524 44.93061
#
# Poissons Ratio (x) = -0.33772 0.51351
# Poissons Ratio (y) = -0.14369 0.40722
# Poissons Ratio (z) = 0.41794 0.77895
#
# Static dielectric constant tensor:
#      x y z
#    x 1.832140 0.000000 -0.002920 
#    y 0.000000 1.801720 0.000000 
#    z -0.002920 0.000000 1.796190 
# 
# From -- ./inp_files/200132.got.cif
#   From: 2010.05.17/outbox.cif.g08.bks.cpg/sg12_101_cif.got.tgz:200132.got - 2010.06.03 13:09:07.
