data_PCOD9211807
_publ_section_title
;
Structure prediction by ZEFSAII (Michael W. Deem and Ramdas Pophale) SiO2 
 PCOD9211807
Probable space group: C 2/M
;
_chemical_formula_sum "Si O2"
_cell_formula_units_Z 56
_cell_length_a 9.584369
_cell_length_b 21.643698
_cell_length_c 15.456362
_cell_angle_alpha 90.000000
_cell_angle_beta 118.456282
_cell_angle_gamma 90.000000
_cell_volume 2818.905625
_symmetry_space_group_name_H-M "C 2/M"
_symmetry_group_IT_number 12
_symmetry_cell_setting 'monoclinic'
loop_
_space_group_symop_operation_xyz
x,y,z
-x,y,-z
-x,-y,-z
x,-y,z
1/2+x,1/2+y,z
1/2-x,1/2+y,-z
1/2-x,1/2-y,-z
1/2+x,1/2-y,z
loop_
_atom_site_type_symbol
_atom_site_label
_atom_site_fract_x
_atom_site_fract_y
_atom_site_fract_z
Si Si1 0.887823 0.878895 0.200391
Si Si2 0.926008 0.430621 0.895990
Si Si3 0.982228 0.425448 0.718775
Si Si4 0.364670 0.378644 0.394540
Si Si5 0.814534 0.260084 0.922872
Si Si6 0.218843 0.157832 0.237759
Si Si7 0.827652 0.736910 0.430130
O O1 0.760396 0.931144 0.141433
O O2 0.914694 0.888977 0.310398
O O3 0.784703 0.816737 0.149614
O O4 0.050880 0.876845 0.196986
O O5 0.990186 0.500000 0.910247
O O6 0.966718 0.403889 0.814835
O O7 0.000000 0.398274 0.000000
O O8 0.002203 0.500000 0.719115
O O9 0.129810 0.387652 0.724079
O O10 0.806626 0.407587 0.633054
O O11 0.500000 0.400336 0.500000
O O12 0.351457 0.304748 0.397849
O O13 0.789224 0.203538 0.847451
O O14 0.750000 0.250000 0.000000
O O15 0.000000 0.267587 0.000000
O O16 0.235065 0.197120 0.331802
O O17 0.750000 0.750000 0.500000
O O18 0.000000 0.708109 0.500000
#
# Coordination Sequence:
#
# PCOD9211807 Si02
#       7
#     8   8   8   8   8   8   8
#     4  11  23  38  61  90 125 164 209 260 324 383
#     4   9  20  40  64  86 115 165 223 269 313 375
#     4  10  24  42  64  92 129 174 217 267 323 387
#     4  10  21  40  66  92 124 161 213 263 319 383
#     4  12  26  40  59  91 134 171 209 260 332 391
#     4  12  25  39  62  95 132 169 211 264 328 388
#     4  11  22  37  62  91 124 158 203 257 316 374
#
# _framework density 19.865866
#
# number of rings (size 3 to 8) (size 9 to 14) (size 15 to 20)
#    0.000    1.286    2.857    3.000    8.000    0.857 
#    0.000    0.000    0.000   12.857    0.000    0.000 
#    0.000    0.000    0.000    0.000    0.000    0.000 
#
# Total GULP energy -156098.091508 kJ/mol
# GULP energy per Si atom -5574.931840 kJ/mol
# Density = 1.982065 g / cm^3
# Si number density = 19.865866 Si / 1000 Ang^3
#
#
#
# Elastic Constant Matrix: (Units=GPa)
#
#
# Indices 1 2 3 4 5 6 
#
# 1 146.1826 26.9288 53.1592 0.0000 12.0505 0.0000
# 2 26.9288 62.3331 25.7594 0.0000 6.6231 0.0000
# 3 53.1592 25.7594 140.1124 0.0000 6.1633 0.0000
# 4 0.0000 0.0000 0.0000 -12.1127 0.0000 6.1267
# 5 12.0505 6.6231 6.1633 0.0000 26.4526 0.0000
# 6 0.0000 0.0000 0.0000 6.1267 0.0000 23.0180
#
#
#
# Elastic Compliance Matrix: (Units=1/GPa)
#
#
# Indices 1 2 3 4 5 6 
#
# 1 0.008449 -0.002263 -0.002672 0.000000 -0.002660 0.000000
# 2 -0.002263 0.018322 -0.002378 0.000000 -0.003003 0.000000
# 3 -0.002672 -0.002378 0.008597 0.000000 -0.000190 0.000000
# 4 0.000000 0.000000 0.000000 -0.072762 0.000000 0.019367
# 5 -0.002660 -0.003003 -0.000190 0.000000 0.039811 0.000000
# 6 0.000000 0.000000 0.000000 0.019367 0.000000 0.038289
#
#
# Mechanical properties :
#
#
# Convention : Reuss Voigt Hill
#
# Bulk Modulus (GPa) = 48.21385 62.25811 55.23598
# Shear Modulus (GPa) = 80.32614 23.65694 51.99154
#
# Velocity S-wave (km/s) = 6.36569 3.45459 5.12134
# Velocity P-wave (km/s) = 8.85165 6.87892 7.92689
#
# Compressibility (1/GPa) = 0.02074093
#
# Stress axis : x y z
#
# Youngs Moduli (GPa) = 118.36139 54.57876 116.32525
#
# Poissons Ratio (x) = 0.12351 0.31087
# Poissons Ratio (y) = 0.26785 0.27660
# Poissons Ratio (z) = 0.31631 0.12978
#
# Static dielectric constant tensor:
#      x y z
#    x 1.680800 0.000000 0.014410 
#    y 0.000000 1.770270 0.000000 
#    z 0.014410 0.000000 1.803370 
# 
# From -- ./inp_files/198786.got.cif
#   From: 2010.05.17/outbox.cif.g08.bks.cpg/sg12_100_cif.got.tgz:198786.got - 2010.06.03 13:09:07.
