data_PCOD9211716
_publ_section_title
;
Structure prediction by ZEFSAII (Michael W. Deem and Ramdas Pophale) SiO2 
 PCOD9211716
Probable space group: C 2/M
;
_chemical_formula_sum "Si O2"
_cell_formula_units_Z 64
_cell_length_a 24.638357
_cell_length_b 8.607797
_cell_length_c 15.797791
_cell_angle_alpha 90.000000
_cell_angle_beta 90.699154
_cell_angle_gamma 90.000000
_cell_volume 3350.177284
_symmetry_space_group_name_H-M "C 2/M"
_symmetry_group_IT_number 12
_symmetry_cell_setting 'monoclinic'
loop_
_space_group_symop_operation_xyz
x,y,z
-x,y,-z
-x,-y,-z
x,-y,z
1/2+x,1/2+y,z
1/2-x,1/2+y,-z
1/2-x,1/2-y,-z
1/2+x,1/2-y,z
loop_
_atom_site_type_symbol
_atom_site_label
_atom_site_fract_x
_atom_site_fract_y
_atom_site_fract_z
Si Si1 0.885113 0.313575 0.653265
Si Si2 0.115948 0.184546 0.656475
Si Si3 0.063659 0.313618 0.004314
Si Si4 0.495832 0.178201 0.399138
Si Si5 0.188824 0.812884 0.499866
Si Si6 0.368370 0.685844 0.153052
Si Si7 0.754389 0.315730 0.906294
Si Si8 0.864856 0.184205 0.838931
O O1 0.882108 0.500000 0.645489
O O2 0.946611 0.264492 0.633504
O O3 0.844193 0.242589 0.583476
O O4 0.874279 0.262750 0.748596
O O5 0.156822 0.242867 0.584057
O O6 0.121512 0.246528 0.751949
O O7 0.055043 0.219638 0.627049
O O8 0.125360 0.000000 0.661898
O O9 0.065687 0.500000 0.010222
O O10 0.095480 0.261452 0.920072
O O11 0.094939 0.245067 0.086518
O O12 0.000000 0.266479 0.000000
O O13 0.500000 0.174720 0.500000
O O14 0.487129 0.000000 0.369274
O O15 0.250000 0.750000 0.500000
O O16 0.189782 0.000000 0.500573
O O17 0.379163 0.500000 0.149970
O O18 0.304548 0.708124 0.135158
O O19 0.766154 0.500000 0.906984
O O20 0.803631 0.227617 0.863446
O O21 0.750000 0.250000 0.000000
O O22 0.871258 0.000000 0.832216
#
# Coordination Sequence:
#
# PCOD9211716 Si02
#       8
#     8   8   8   8   8   8   8   8
#     4  11  24  43  66  92 128 168 211 265 318 374
#     4  10  23  41  63  93 127 164 207 256 313 372
#     4  11  25  44  65  92 127 167 211 261 317 376
#     4  10  21  40  65  92 122 162 209 259 315 372
#     4  11  24  42  64  93 129 170 214 260 316 377
#     4  10  23  42  64  93 126 166 208 255 315 375
#     4  11  22  40  67  94 126 165 211 262 316 374
#     4  12  26  43  65  95 128 167 214 261 318 383
#
# _framework density 19.103466999999998
#
# number of rings (size 3 to 8) (size 9 to 14) (size 15 to 20)
#    0.000    1.250    2.500    2.625    3.500    3.750 
#    0.000    0.000    0.000    0.000    0.000    0.000 
#    0.000    0.000    0.000    0.000    0.000    0.000 
#
# Total GULP energy -178804.867773 kJ/mol
# GULP energy per Si atom -5587.652118 kJ/mol
# Density = 1.905999 g / cm^3
# Si number density = 19.103467 Si / 1000 Ang^3
#
#
#
# Elastic Constant Matrix: (Units=GPa)
#
#
# Indices 1 2 3 4 5 6 
#
# 1 117.9197 27.9950 60.5711 0.0000 -16.8874 0.0000
# 2 27.9950 39.2018 17.3790 0.0000 5.9699 0.0000
# 3 60.5711 17.3790 143.0008 0.0000 -6.1406 0.0000
# 4 0.0000 0.0000 0.0000 24.1177 0.0000 2.3954
# 5 -16.8874 5.9699 -6.1406 0.0000 32.8472 0.0000
# 6 0.0000 0.0000 0.0000 2.3954 0.0000 29.2566
#
#
#
# Elastic Compliance Matrix: (Units=1/GPa)
#
#
# Indices 1 2 3 4 5 6 
#
# 1 0.014199 -0.009376 -0.004524 0.000000 0.008158 0.000000
# 2 -0.009376 0.034199 -0.000664 0.000000 -0.011160 0.000000
# 3 -0.004524 -0.000664 0.008967 0.000000 -0.000529 0.000000
# 4 0.000000 0.000000 0.000000 0.041803 0.000000 -0.003423
# 5 0.008158 -0.011160 -0.000529 0.000000 0.036568 0.000000
# 6 0.000000 0.000000 0.000000 -0.003423 0.000000 0.034461
#
#
# Mechanical properties :
#
#
# Convention : Reuss Voigt Hill
#
# Bulk Modulus (GPa) = 35.41612 56.89027 46.15320
# Shear Modulus (GPa) = 23.95358 30.18947 27.07153
#
# Velocity S-wave (km/s) = 3.54487 3.97963 3.76852
# Velocity P-wave (km/s) = 5.94425 7.13872 6.56869
#
# Compressibility (1/GPa) = 0.02823573
#
# Stress axis : x y z
#
# Youngs Moduli (GPa) = 70.42921 29.24080 111.51607
#
# Poissons Ratio (x) = 0.27417 0.50453
# Poissons Ratio (y) = 0.66036 0.07404
# Poissons Ratio (z) = 0.31864 0.01941
#
# Static dielectric constant tensor:
#      x y z
#    x 1.620040 0.000000 -0.002080 
#    y 0.000000 1.675560 0.000000 
#    z -0.002080 0.000000 1.662280 
# 
# From -- ./inp_files/238604.got.cif
#   From: 2010.05.17/outbox.cif.g08.bks.cpg/sg12_120_cif.got.tgz:238604.got - 2010.06.03 13:09:07.
