data_PCOD9211028
_publ_section_title
;
Structure prediction by ZEFSAII (Michael W. Deem and Ramdas Pophale) SiO2 
 PCOD9211028
Probable space group: C 2/M
;
_chemical_formula_sum "Si O2"
_cell_formula_units_Z 40
_cell_length_a 13.964961
_cell_length_b 19.266966
_cell_length_c 14.975807
_cell_angle_alpha 90.000000
_cell_angle_beta 150.409180
_cell_angle_gamma 90.000000
_cell_volume 1989.741325
_symmetry_space_group_name_H-M "C 2/M"
_symmetry_group_IT_number 12
_symmetry_cell_setting 'monoclinic'
loop_
_space_group_symop_operation_xyz
x,y,z
-x,y,-z
-x,-y,-z
x,-y,z
1/2+x,1/2+y,z
1/2-x,1/2+y,-z
1/2-x,1/2-y,-z
1/2+x,1/2-y,z
loop_
_atom_site_type_symbol
_atom_site_label
_atom_site_fract_x
_atom_site_fract_y
_atom_site_fract_z
Si Si1 0.399794 0.674593 0.186023
Si Si2 0.256068 0.419304 0.465243
Si Si3 0.529550 0.918685 0.918785
Si Si4 0.159233 0.204959 0.061491
Si Si5 0.911036 0.580144 0.330407
O O1 0.573434 0.631908 0.369569
O O2 0.338199 0.743045 0.190153
O O3 0.437129 0.694072 0.113529
O O4 0.207463 0.627137 0.030267
O O5 0.322490 0.500000 0.518166
O O6 0.161740 0.401923 0.293216
O O7 0.082223 0.414210 0.396152
O O8 0.571394 0.000000 0.935178
O O9 0.500000 0.909737 0.000000
O O10 0.243168 0.133438 0.168365
O O11 0.000000 0.234143 0.000000
O O12 0.843110 0.500000 0.275422
O O13 0.000000 0.595201 0.500000
#
# Coordination Sequence:
#
# PCOD9211028 Si02
#       5
#     8   8   8   8   8
#     4  11  23  41  64  91 131 166 209 261 318 377
#     4  10  21  39  65  95 124 163 213 259 314 376
#     4  10  21  40  64  91 129 169 210 261 313 373
#     4  11  24  42  61  92 129 167 212 258 319 383
#     4  10  21  40  64  93 126 162 210 263 315 376
#
# _framework density 20.103114999999999
#
# number of rings (size 3 to 8) (size 9 to 14) (size 15 to 20)
#    0.000    1.600    2.000    2.400    0.000    2.800 
#    7.200    3.000    0.000    0.000    0.000    0.000 
#    0.000    0.000    0.000    0.000    0.000    0.000 
#
# Total GULP energy -111838.892593 kJ/mol
# GULP energy per Si atom -5591.944630 kJ/mol
# Density = 2.005736 g / cm^3
# Si number density = 20.103115 Si / 1000 Ang^3
#
#
#
# Elastic Constant Matrix: (Units=GPa)
#
#
# Indices 1 2 3 4 5 6 
#
# 1 85.9458 20.1456 34.9769 -0.0005 -26.6384 0.0002
# 2 20.1456 64.5070 42.6035 0.0000 -6.5190 0.0000
# 3 34.9769 42.6035 86.2584 -0.0010 -17.3517 0.0004
# 4 -0.0005 0.0000 -0.0010 -134.3700 -0.0008 78.2723
# 5 -26.6384 -6.5190 -17.3517 -0.0008 23.0007 0.0003
# 6 0.0002 0.0000 0.0004 78.2723 0.0003 -13.0280
#
#
#
# Elastic Compliance Matrix: (Units=1/GPa)
#
#
# Indices 1 2 3 4 5 6 
#
# 1 0.019415 -0.002214 -0.002809 0.000000 0.019740 0.000000
# 2 -0.002214 0.023374 -0.011589 0.000000 -0.004681 0.000000
# 3 -0.002809 -0.011589 0.020207 0.000000 0.008707 0.000000
# 4 0.000000 0.000000 0.000000 0.002977 0.000000 0.017887
# 5 0.019740 -0.004681 0.008707 0.000000 0.071580 0.000000
# 6 0.000000 0.000000 0.000000 0.017887 0.000000 0.030706
#
#
# Mechanical properties :
#
#
# Convention : Reuss Voigt Hill
#
# Bulk Modulus (GPa) = 33.58551 48.01814 40.80182
# Shear Modulus (GPa) = 23.65107 -15.61378 4.01865
#
# Velocity S-wave (km/s) = 3.43372 -2.78993 1.41540
# Velocity P-wave (km/s) = 5.69767 3.68232 4.79703
#
# Compressibility (1/GPa) = 0.02977475
#
# Stress axis : x y z
#
# Youngs Moduli (GPa) = 51.50580 42.78224 49.48747
#
# Poissons Ratio (x) = 0.09470 0.13899
# Poissons Ratio (y) = 0.11401 0.57350
# Poissons Ratio (z) = 0.14466 0.49579
#
# Static dielectric constant tensor:
#      x y z
#    x 1.704170 0.000000 -0.023350 
#    y 0.000000 1.725360 0.000000 
#    z -0.023350 0.000000 1.669810 
# 
# From -- ./inp_files/216937.got.cif
#   From: 2010.05.17/outbox.cif.g08.bks.cpg/sg12_109_cif.got.tgz:216937.got - 2010.06.03 13:09:07.
