data_PCOD9211096
_publ_section_title
;
Structure prediction by ZEFSAII (Michael W. Deem and Ramdas Pophale) SiO2 
 PCOD9211096
Probable space group: C 2/M
;
_chemical_formula_sum "Si O2"
_cell_formula_units_Z 48
_cell_length_a 5.251958
_cell_length_b 28.327557
_cell_length_c 20.839537
_cell_angle_alpha 90.000000
_cell_angle_beta 50.046068
_cell_angle_gamma 90.000000
_cell_volume 2376.649644
_symmetry_space_group_name_H-M "C 2/M"
_symmetry_group_IT_number 12
_symmetry_cell_setting 'monoclinic'
loop_
_space_group_symop_operation_xyz
x,y,z
-x,y,-z
-x,-y,-z
x,-y,z
1/2+x,1/2+y,z
1/2-x,1/2+y,-z
1/2-x,1/2-y,-z
1/2+x,1/2-y,z
loop_
_atom_site_type_symbol
_atom_site_label
_atom_site_fract_x
_atom_site_fract_y
_atom_site_fract_z
Si Si1 0.161741 0.600740 0.911307
Si Si2 0.881723 0.153609 0.444868
Si Si3 0.689822 0.139411 0.148775
Si Si4 0.415135 0.551293 0.588594
Si Si5 0.706556 0.946723 0.233190
Si Si6 0.270068 0.219042 0.282961
O O1 0.421399 0.639179 0.897372
O O2 0.403908 0.566758 0.830560
O O3 0.896310 0.625428 0.909284
O O4 0.000000 0.576881 0.000000
O O5 0.500000 0.168113 0.500000
O O6 0.000000 0.155641 0.500000
O O7 0.916565 0.099347 0.415079
O O8 0.104086 0.186916 0.364748
O O9 0.564099 0.094126 0.210547
O O10 0.505227 0.185551 0.202529
O O11 0.500000 0.549563 0.500000
O O12 0.518516 0.500000 0.599965
O O13 0.019992 0.555853 0.666687
O O14 0.673337 0.000000 0.213680
O O15 0.489653 0.258307 0.283271
#
# Coordination Sequence:
#
# PCOD9211096 Si02
#       6
#     8   8   8   8   8   8
#     4  10  21  39  66  93 129 166 201 254 320 382
#     4  11  23  39  61  89 126 162 210 268 314 367
#     4  10  22  41  63  91 126 160 207 252 319 373
#     4   9  18  37  61  91 129 173 213 251 301 365
#     4   9  20  37  63  96 130 168 212 255 304 375
#     4  12  25  42  66  90 121 166 216 264 325 381
#
# _framework density 20.196497999999998
#
# number of rings (size 3 to 8) (size 9 to 14) (size 15 to 20)
#    1.000    0.833    1.667    2.500    0.000    6.000 
#    0.000    0.833    0.000   10.000    0.000    0.000 
#    0.000    0.000    0.000    0.000    0.000    0.000 
#
# Total GULP energy -133673.814997 kJ/mol
# GULP energy per Si atom -5569.742292 kJ/mol
# Density = 2.015053 g / cm^3
# Si number density = 20.196498 Si / 1000 Ang^3
#
#
#
# Elastic Constant Matrix: (Units=GPa)
#
#
# Indices 1 2 3 4 5 6 
#
# 1 63.8733 -11.9748 8.7789 0.0000 4.2630 0.0000
# 2 -11.9748 53.9694 4.8173 0.0000 0.8484 0.0000
# 3 8.7789 4.8173 82.6261 0.0000 -6.4564 0.0000
# 4 0.0000 0.0000 0.0000 29.2486 0.0000 2.0354
# 5 4.2630 0.8484 -6.4564 0.0000 24.5117 0.0000
# 6 0.0000 0.0000 0.0000 2.0354 0.0000 8.8060
#
#
#
# Elastic Compliance Matrix: (Units=1/GPa)
#
#
# Indices 1 2 3 4 5 6 
#
# 1 0.016980 0.004034 -0.002329 0.000000 -0.003706 0.000000
# 2 0.004034 0.019606 -0.001715 0.000000 -0.001832 0.000000
# 3 -0.002329 -0.001715 0.012749 0.000000 0.003822 0.000000
# 4 0.000000 0.000000 0.000000 0.034749 0.000000 -0.008032
# 5 -0.003706 -0.001832 0.003822 0.000000 0.042512 0.000000
# 6 0.000000 0.000000 0.000000 -0.008032 0.000000 0.115415
#
#
# Mechanical properties :
#
#
# Convention : Reuss Voigt Hill
#
# Bulk Modulus (GPa) = 20.27808 22.63461 21.45634
# Shear Modulus (GPa) = 19.34476 25.76975 22.55725
#
# Velocity S-wave (km/s) = 3.09824 3.57592 3.34562
# Velocity P-wave (km/s) = 4.78131 5.31800 5.05678
#
# Compressibility (1/GPa) = 0.04931434
#
# Stress axis : x y z
#
# Youngs Moduli (GPa) = 58.89408 51.00513 78.43868
#
# Poissons Ratio (x) = -0.20573 0.18267
# Poissons Ratio (y) = -0.23756 0.13450
# Poissons Ratio (z) = 0.13715 0.08746
#
# Static dielectric constant tensor:
#      x y z
#    x 1.714280 0.000000 -0.019350 
#    y 0.000000 1.711100 0.000000 
#    z -0.019350 0.000000 1.750580 
# 
# From -- ./inp_files/298258.got.cif
#   From: 2010.05.17/outbox.cif.g08.bks.cpg/sg12_150_cif.got.tgz:298258.got - 2010.06.03 13:09:07.
