data_PCOD9211545
_publ_section_title
;
Structure prediction by ZEFSAII (Michael W. Deem and Ramdas Pophale) SiO2 
 PCOD9211545
Probable space group: C 2/M
;
_chemical_formula_sum "Si O2"
_cell_formula_units_Z 48
_cell_length_a 16.388255
_cell_length_b 8.942498
_cell_length_c 14.603879
_cell_angle_alpha 90.000000
_cell_angle_beta 101.433848
_cell_angle_gamma 90.000000
_cell_volume 2097.752327
_symmetry_space_group_name_H-M "C 2/M"
_symmetry_group_IT_number 12
_symmetry_cell_setting 'monoclinic'
loop_
_space_group_symop_operation_xyz
x,y,z
-x,y,-z
-x,-y,-z
x,-y,z
1/2+x,1/2+y,z
1/2-x,1/2+y,-z
1/2-x,1/2-y,-z
1/2+x,1/2-y,z
loop_
_atom_site_type_symbol
_atom_site_label
_atom_site_fract_x
_atom_site_fract_y
_atom_site_fract_z
Si Si1 0.188953 0.174630 0.559278
Si Si2 0.567499 0.673637 0.887145
Si Si3 0.447334 0.674666 0.618527
Si Si4 0.820008 0.324157 0.952367
Si Si5 0.372922 0.671991 0.789195
Si Si6 0.115898 0.676626 0.712646
O O1 0.250000 0.250000 0.500000
O O2 0.099073 0.181306 0.488049
O O3 0.180674 0.260716 0.652956
O O4 0.209210 0.000000 0.577444
O O5 0.588518 0.500000 0.907573
O O6 0.595333 0.768595 0.980164
O O7 0.469773 0.681835 0.842730
O O8 0.615330 0.737691 0.809081
O O9 0.473850 0.500000 0.640129
O O10 0.380384 0.710594 0.683861
O O11 0.524859 0.782605 0.650703
O O12 0.812371 0.500000 0.954539
O O13 0.750000 0.250000 0.000000
O O14 0.820947 0.269328 0.848115
O O15 0.345677 0.500000 0.791592
O O16 0.124896 0.500000 0.727870
#
# Coordination Sequence:
#
# PCOD9211545 Si02
#       6
#     8   8   8   8   8   8
#     4  11  23  39  58  83 118 157 197 240 290 344
#     4  10  21  40  64  87 114 150 191 237 288 341
#     4   9  20  39  62  85 113 152 193 237 287 338
#     4  12  25  39  57  84 119 156 194 236 286 344
#     4   9  19  38  62  86 113 147 190 239 290 341
#     4  11  22  37  60  89 118 149 190 239 288 343
#
# _framework density 22.881634999999999
#
# number of rings (size 3 to 8) (size 9 to 14) (size 15 to 20)
#    0.000    1.667    0.000    6.000    0.000   10.000 
#    0.000    5.000    0.000    0.000    0.000    0.000 
#    0.000    0.000    0.000    0.000    0.000    0.000 
#
# Total GULP energy -134368.048580 kJ/mol
# GULP energy per Si atom -5598.668691 kJ/mol
# Density = 2.282956 g / cm^3
# Si number density = 22.881635 Si / 1000 Ang^3
#
#
#
# Elastic Constant Matrix: (Units=GPa)
#
#
# Indices 1 2 3 4 5 6 
#
# 1 66.6264 27.4815 10.3775 0.0000 -18.9950 0.0000
# 2 27.4815 132.8419 42.3773 0.0000 -36.6104 0.0000
# 3 10.3775 42.3773 114.9996 0.0000 -30.6362 0.0000
# 4 0.0000 0.0000 0.0000 32.8241 0.0000 -9.9922
# 5 -18.9950 -36.6104 -30.6362 0.0000 45.9387 0.0000
# 6 0.0000 0.0000 0.0000 -9.9922 0.0000 28.0683
#
#
#
# Elastic Compliance Matrix: (Units=1/GPa)
#
#
# Indices 1 2 3 4 5 6 
#
# 1 0.017517 -0.002233 0.000848 0.000000 0.006029 0.000000
# 2 -0.002233 0.010259 -0.002003 0.000000 0.005917 0.000000
# 3 0.000848 -0.002003 0.010975 0.000000 0.006074 0.000000
# 4 0.000000 0.000000 0.000000 0.034168 0.000000 0.012164
# 5 0.006029 0.005917 0.006074 0.000000 0.033028 0.000000
# 6 0.000000 0.000000 0.000000 0.012164 0.000000 0.039958
#
#
# Mechanical properties :
#
#
# Convention : Reuss Voigt Hill
#
# Bulk Modulus (GPa) = 31.27244 52.77117 42.02181
# Shear Modulus (GPa) = 30.61134 36.98165 33.79650
#
# Velocity S-wave (km/s) = 3.66158 4.02458 3.84736
# Velocity P-wave (km/s) = 5.61898 6.68648 6.17584
#
# Compressibility (1/GPa) = 0.03197703
#
# Stress axis : x y z
#
# Youngs Moduli (GPa) = 57.08803 97.47291 91.11402
#
# Poissons Ratio (x) = 0.21763 -0.07729
# Poissons Ratio (y) = 0.12746 0.18247
# Poissons Ratio (z) = -0.04843 0.19521
#
# Static dielectric constant tensor:
#      x y z
#    x 1.942600 0.000000 0.041940 
#    y 0.000000 1.765620 0.000000 
#    z 0.041940 0.000000 1.882860 
# 
# From -- ./inp_files/221562.got.cif
#   From: 2010.05.17/outbox.cif.g08.bks.cpg/sg12_111_cif.got.tgz:221562.got - 2010.06.03 13:09:07.
