data_PCOD9211046
_publ_section_title
;
Structure prediction by ZEFSAII (Michael W. Deem and Ramdas Pophale) SiO2 
 PCOD9211046
Probable space group: C 2/M
;
_chemical_formula_sum "Si O2"
_cell_formula_units_Z 52
_cell_length_a 8.707666
_cell_length_b 11.638387
_cell_length_c 24.416404
_cell_angle_alpha 90.000000
_cell_angle_beta 83.868306
_cell_angle_gamma 90.000000
_cell_volume 2460.279967
_symmetry_space_group_name_H-M "C 2/M"
_symmetry_group_IT_number 12
_symmetry_cell_setting 'monoclinic'
loop_
_space_group_symop_operation_xyz
x,y,z
-x,y,-z
-x,-y,-z
x,-y,z
1/2+x,1/2+y,z
1/2-x,1/2+y,-z
1/2-x,1/2-y,-z
1/2+x,1/2-y,z
loop_
_atom_site_type_symbol
_atom_site_label
_atom_site_fract_x
_atom_site_fract_y
_atom_site_fract_z
Si Si1 0.788200 0.199777 0.939576
Si Si2 0.887851 0.278848 0.718500
Si Si3 0.903648 0.177637 0.205477
Si Si4 0.683224 0.872906 0.651538
Si Si5 0.167393 0.631225 0.521758
Si Si6 0.991289 0.367861 0.125655
Si Si7 0.995408 0.000000 0.893190
O O1 0.636024 0.146837 0.917376
O O2 0.855054 0.302033 0.899148
O O3 0.917907 0.101637 0.934378
O O4 0.750000 0.250000 0.000000
O O5 0.968473 0.178997 0.751769
O O6 0.762899 0.340924 0.761867
O O7 0.796461 0.221918 0.671926
O O8 0.022736 0.356910 0.689700
O O9 0.915711 0.306949 0.180832
O O10 0.947551 0.098063 0.153527
O O11 0.656868 0.860911 0.587928
O O12 0.746591 0.000000 0.659485
O O13 0.233271 0.500000 0.507365
O O14 0.250000 0.750000 0.500000
O O15 0.000000 0.632293 0.500000
O O16 0.023937 0.500000 0.133832
#
# Coordination Sequence:
#
# PCOD9211046 Si02
#       7
#     8   8   8   8   8   8   4
#     4  11  24  43  67  95 119 162 204 249 324 374
#     4  10  22  39  61  93 125 165 213 268 317 394
#     4  10  22  40  63  93 122 166 213 251 331 380
#     4  10  22  40  62  95 130 172 223 268 330 383
#     4  10  21  39  65  95 135 183 229 285 335 392
#     4  11  24  45  67  91 126 162 205 259 309 394
#     4  10  22  40  62  90 128 154 199 266 299 392
#
# _framework density 21.135804
#
# number of rings (size 3 to 8) (size 9 to 14) (size 15 to 20)
#    0.000    1.692    0.769    3.231    3.231    3.385 
#   11.077    3.846    0.000    0.000    0.000    0.000 
#    0.000    0.000    0.000    0.000    0.000    0.000 
#
# Total GULP energy -144742.804845 kJ/mol
# GULP energy per Si atom -5567.030956 kJ/mol
# Density = 2.108770 g / cm^3
# Si number density = 21.135804 Si / 1000 Ang^3
#
#
#
# Elastic Constant Matrix: (Units=GPa)
#
#
# Indices 1 2 3 4 5 6 
#
# 1 47.7871 6.0947 12.0251 0.0000 4.1525 0.0000
# 2 6.0947 145.1472 30.6276 0.0000 -13.2135 0.0000
# 3 12.0251 30.6276 83.1446 0.0000 -5.3845 0.0000
# 4 0.0000 0.0000 0.0000 27.3008 0.0000 -1.2841
# 5 4.1525 -13.2135 -5.3845 0.0000 31.1161 0.0000
# 6 0.0000 0.0000 0.0000 -1.2841 0.0000 18.4346
#
#
#
# Elastic Compliance Matrix: (Units=1/GPa)
#
#
# Indices 1 2 3 4 5 6 
#
# 1 0.022141 -0.000591 -0.003228 0.000000 -0.003764 0.000000
# 2 -0.000591 0.007722 -0.002570 0.000000 0.002913 0.000000
# 3 -0.003228 -0.002570 0.013550 0.000000 0.001684 0.000000
# 4 0.000000 0.000000 0.000000 0.036749 0.000000 0.002560
# 5 -0.003764 0.002913 0.001684 0.000000 0.034169 0.000000
# 6 0.000000 0.000000 0.000000 0.002560 0.000000 0.054424
#
#
# Mechanical properties :
#
#
# Convention : Reuss Voigt Hill
#
# Bulk Modulus (GPa) = 32.64404 41.50819 37.07612
# Shear Modulus (GPa) = 26.07621 30.52574 28.30097
#
# Velocity S-wave (km/s) = 3.51628 3.80447 3.66321
# Velocity P-wave (km/s) = 5.65368 6.24341 5.95585
#
# Compressibility (1/GPa) = 0.03063346
#
# Stress axis : x y z
#
# Youngs Moduli (GPa) = 45.16503 129.50087 73.80065
#
# Poissons Ratio (x) = 0.07656 0.23825
# Poissons Ratio (y) = 0.02670 0.18969
# Poissons Ratio (z) = 0.14580 0.33286
#
# Static dielectric constant tensor:
#      x y z
#    x 1.798700 0.000000 0.029400 
#    y 0.000000 1.779930 0.000000 
#    z 0.029400 0.000000 1.730420 
# 
# From -- ./inp_files/355513.got.cif
#   From: 2010.05.17/outbox.cif.g08.bks.cpg/sg12_178_cif.got.tgz:355513.got - 2010.06.03 13:09:07.
