data_PCOD9211764
_publ_section_title
;
Structure prediction by ZEFSAII (Michael W. Deem and Ramdas Pophale) SiO2 
 PCOD9211764
Probable space group: C 2/M
;
_chemical_formula_sum "Si O2"
_cell_formula_units_Z 52
_cell_length_a 25.139504
_cell_length_b 14.759584
_cell_length_c 8.588821
_cell_angle_alpha 90.000000
_cell_angle_beta 134.531897
_cell_angle_gamma 90.000000
_cell_volume 2271.792719
_symmetry_space_group_name_H-M "C 2/M"
_symmetry_group_IT_number 12
_symmetry_cell_setting 'monoclinic'
loop_
_space_group_symop_operation_xyz
x,y,z
-x,y,-z
-x,-y,-z
x,-y,z
1/2+x,1/2+y,z
1/2-x,1/2+y,-z
1/2-x,1/2-y,-z
1/2+x,1/2-y,z
loop_
_atom_site_type_symbol
_atom_site_label
_atom_site_fract_x
_atom_site_fract_y
_atom_site_fract_z
Si Si1 0.966003 0.707026 0.159039
Si Si2 0.390828 0.500000 0.853878
Si Si3 0.839314 0.399131 0.044943
Si Si4 0.500000 0.344883 0.500000
Si Si5 0.119242 0.396183 0.520312
Si Si6 0.269907 0.263091 0.299772
Si Si7 0.043845 0.000000 0.361779
Si Si8 0.143736 0.809610 0.251885
O O1 0.903865 0.629716 0.057781
O O2 0.961765 0.775901 0.298925
O O3 0.046148 0.658690 0.313745
O O4 0.935582 0.768903 0.956483
O O5 0.410531 0.500000 0.707978
O O6 0.347914 0.408979 0.798387
O O7 0.461482 0.500000 0.114049
O O8 0.810042 0.500000 0.951223
O O9 0.882695 0.401079 0.297084
O O10 0.771047 0.326783 0.909543
O O11 0.547805 0.412751 0.486175
O O12 0.122803 0.500000 0.467534
O O13 0.192851 0.334674 0.647813
O O14 0.202770 0.251626 0.283724
O O15 0.336368 0.313603 0.526631
#
# Coordination Sequence:
#
# PCOD9211764 Si02
#       8
#     8   4   8   4   8   8   4   8
#     4  11  21  39  68  94 130 171 214 281 336 390
#     4  11  22  38  64  90 128 171 222 270 313 401
#     4  10  21  40  65  95 127 171 223 267 330 401
#     4  11  20  40  59  94 136 168 201 278 339 380
#     4  11  23  39  66 100 130 166 220 279 330 393
#     4  10  24  43  61  90 131 175 217 271 327 395
#     4  10  24  36  58 100 130 162 220 264 331 394
#     4  10  24  42  63  89 124 181 222 265 335 392
#
# _framework density 22.889413000000001
#
# number of rings (size 3 to 8) (size 9 to 14) (size 15 to 20)
#    0.000    1.538    3.077    0.923    4.308    1.846 
#    0.000    2.308    1.692    0.000    0.000    0.000 
#    0.000    0.000    0.000    0.000    0.000    0.000 
#
# Total GULP energy -144837.702098 kJ/mol
# GULP energy per Si atom -5570.680850 kJ/mol
# Density = 2.283732 g / cm^3
# Si number density = 22.889413 Si / 1000 Ang^3
#
#
#
# Elastic Constant Matrix: (Units=GPa)
#
#
# Indices 1 2 3 4 5 6 
#
# 1 53.3868 9.7074 22.5071 0.0000 12.9718 0.0000
# 2 9.7074 130.6933 48.7717 0.0000 19.5889 0.0000
# 3 22.5071 48.7717 109.3693 0.0000 13.9999 0.0000
# 4 0.0000 0.0000 0.0000 5.2948 0.0000 -2.3446
# 5 12.9718 19.5889 13.9999 0.0000 15.9560 0.0000
# 6 0.0000 0.0000 0.0000 -2.3446 0.0000 20.4626
#
#
#
# Elastic Compliance Matrix: (Units=1/GPa)
#
#
# Indices 1 2 3 4 5 6 
#
# 1 0.024654 0.002517 -0.003644 0.000000 -0.019935 0.000000
# 2 0.002517 0.010634 -0.003748 0.000000 -0.011812 0.000000
# 3 -0.003644 -0.003748 0.011937 0.000000 -0.002910 0.000000
# 4 0.000000 0.000000 0.000000 0.198958 0.000000 0.022796
# 5 -0.019935 -0.011812 -0.002910 0.000000 0.095934 0.000000
# 6 0.000000 0.000000 0.000000 0.022796 0.000000 0.051482
#
#
# Mechanical properties :
#
#
# Convention : Reuss Voigt Hill
#
# Bulk Modulus (GPa) = 26.68504 50.60244 38.64374
# Shear Modulus (GPa) = 12.02387 22.50690 17.26539
#
# Velocity S-wave (km/s) = 2.29444 3.13915 2.74942
# Velocity P-wave (km/s) = 4.32467 5.94090 5.19601
#
# Compressibility (1/GPa) = 0.03747418
#
# Stress axis : x y z
#
# Youngs Moduli (GPa) = 40.56191 94.04111 83.77324
#
# Poissons Ratio (x) = -0.23667 0.30526
# Poissons Ratio (y) = -0.10208 0.31396
# Poissons Ratio (z) = 0.14780 0.35244
#
# Static dielectric constant tensor:
#      x y z
#    x 1.866600 0.000000 -0.031050 
#    y 0.000000 1.884170 0.000000 
#    z -0.031050 0.000000 1.901700 
# 
# From -- ./inp_files/112101.got.cif
#   From: 2010.05.17/outbox.cif.g08.bks.cpg/sg12_57_cif.got.tgz:112101.got - 2010.06.03 13:09:07.
