data_PCOD9211292
_publ_section_title
;
Structure prediction by ZEFSAII (Michael W. Deem and Ramdas Pophale) SiO2 
 PCOD9211292
Probable space group: C 2/M
;
_chemical_formula_sum "Si O2"
_cell_formula_units_Z 40
_cell_length_a 19.097623
_cell_length_b 12.661160
_cell_length_c 7.410762
_cell_angle_alpha 90.000000
_cell_angle_beta 75.926096
_cell_angle_gamma 90.000000
_cell_volume 1738.119949
_symmetry_space_group_name_H-M "C 2/M"
_symmetry_group_IT_number 12
_symmetry_cell_setting 'monoclinic'
loop_
_space_group_symop_operation_xyz
x,y,z
-x,y,-z
-x,-y,-z
x,-y,z
1/2+x,1/2+y,z
1/2-x,1/2+y,-z
1/2-x,1/2-y,-z
1/2+x,1/2-y,z
loop_
_atom_site_type_symbol
_atom_site_label
_atom_site_fract_x
_atom_site_fract_y
_atom_site_fract_z
Si Si1 0.079066 0.298845 0.417725
Si Si2 0.768728 0.341731 0.720430
Si Si3 0.077577 0.712319 0.995223
Si Si4 0.886773 0.120446 0.318200
Si Si5 0.728522 0.114787 0.858866
O O1 0.151845 0.367091 0.403787
O O2 0.083355 0.270176 0.204239
O O3 0.085544 0.196346 0.540444
O O4 0.000000 0.347865 0.500000
O O5 0.700269 0.376332 0.648558
O O6 0.765871 0.214454 0.743615
O O7 0.758267 0.380708 0.932919
O O8 0.914221 0.821145 0.119518
O O9 0.143296 0.638122 0.893569
O O10 0.000000 0.665121 0.000000
O O11 0.910605 0.000000 0.320406
O O12 0.749800 0.000000 0.778009
#
# Coordination Sequence:
#
# PCOD9211292 Si02
#       5
#     8   8   8   8   8
#     4  11  22  39  61  85 119 163 197 243 299 359
#     4   9  20  37  60  88 124 157 195 253 300 350
#     4  10  21  40  60  87 123 158 197 250 303 351
#     4  11  23  39  63  91 120 159 203 247 301 360
#     4   9  18  35  63  90 115 157 206 246 294 356
#
# _framework density 23.013369999999998
#
# number of rings (size 3 to 8) (size 9 to 14) (size 15 to 20)
#    0.000    2.000    2.000    2.400    0.000    2.800 
#    0.000    0.000    0.000   25.800    0.000    0.000 
#    0.000    0.000    0.000    0.000    0.000    0.000 
#
# Total GULP energy -111821.394106 kJ/mol
# GULP energy per Si atom -5591.069705 kJ/mol
# Density = 2.296099 g / cm^3
# Si number density = 23.013370 Si / 1000 Ang^3
#
#
#
# Elastic Constant Matrix: (Units=GPa)
#
#
# Indices 1 2 3 4 5 6 
#
# 1 126.4008 -17.4705 3.0728 0.0000 -6.6397 0.0000
# 2 -17.4705 91.2366 -0.8742 0.0000 -0.7714 0.0000
# 3 3.0728 -0.8742 81.4672 0.0000 -2.1144 0.0000
# 4 0.0000 0.0000 0.0000 -1.1003 0.0000 -3.0749
# 5 -6.6397 -0.7714 -2.1144 0.0000 33.9452 0.0000
# 6 0.0000 0.0000 0.0000 -3.0749 0.0000 -7.2970
#
#
#
# Elastic Compliance Matrix: (Units=1/GPa)
#
#
# Indices 1 2 3 4 5 6 
#
# 1 0.008222 0.001586 -0.000251 0.000000 0.001629 0.000000
# 2 0.001586 0.011270 0.000076 0.000000 0.000571 0.000000
# 3 -0.000251 0.000076 0.012304 0.000000 0.000719 0.000000
# 4 0.000000 0.000000 0.000000 5.117028 0.000000 -2.156302
# 5 0.001629 0.000571 0.000719 0.000000 0.029836 0.000000
# 6 0.000000 0.000000 0.000000 -2.156302 0.000000 0.771618
#
#
# Mechanical properties :
#
#
# Convention : Reuss Voigt Hill
#
# Bulk Modulus (GPa) = 28.88711 29.84008 29.36359
# Shear Modulus (GPa) = 0.83907 26.06802 13.45354
#
# Velocity S-wave (km/s) = 0.60448 3.36926 2.42047
# Velocity P-wave (km/s) = 3.61480 5.30382 4.53857
#
# Compressibility (1/GPa) = 0.03461752
#
# Stress axis : x y z
#
# Youngs Moduli (GPa) = 121.62236 88.73331 81.27564
#
# Poissons Ratio (x) = -0.14071 0.02039
# Poissons Ratio (y) = -0.19287 -0.00617
# Poissons Ratio (z) = 0.03051 -0.00674
#
# Static dielectric constant tensor:
#      x y z
#    x 1.914260 0.000000 -0.015330 
#    y 0.000000 1.825890 0.000000 
#    z -0.015330 0.000000 1.876020 
# 
# From -- ./inp_files/71240.got.cif
#   From: 2010.05.17/outbox.cif.g08.bks.cpg/sg12_36_cif.got.tgz:71240.got - 2010.06.03 13:09:07.
