data_PCOD9211767
_publ_section_title
;
Structure prediction by ZEFSAII (Michael W. Deem and Ramdas Pophale) SiO2 
 PCOD9211767
Probable space group: C 2/M
;
_chemical_formula_sum "Si O2"
_cell_formula_units_Z 52
_cell_length_a 17.845149
_cell_length_b 8.509865
_cell_length_c 22.322190
_cell_angle_alpha 90.000000
_cell_angle_beta 132.055026
_cell_angle_gamma 90.000000
_cell_volume 2516.965109
_symmetry_space_group_name_H-M "C 2/M"
_symmetry_group_IT_number 12
_symmetry_cell_setting 'monoclinic'
loop_
_space_group_symop_operation_xyz
x,y,z
-x,y,-z
-x,-y,-z
x,-y,z
1/2+x,1/2+y,z
1/2-x,1/2+y,-z
1/2-x,1/2-y,-z
1/2+x,1/2-y,z
loop_
_atom_site_type_symbol
_atom_site_label
_atom_site_fract_x
_atom_site_fract_y
_atom_site_fract_z
Si Si1 0.530090 0.000000 0.090687
Si Si2 0.802391 0.500000 0.948786
Si Si3 0.530302 0.188157 0.344287
Si Si4 0.615289 0.000000 0.881594
Si Si5 0.098674 0.688931 0.514257
Si Si6 0.172007 0.256671 0.812945
Si Si7 0.308636 0.184510 0.675735
Si Si8 0.644705 0.324996 0.171884
O O1 0.585496 0.830697 0.116531
O O2 0.578018 0.000000 0.001632
O O3 0.488041 0.000000 0.137413
O O4 0.743728 0.640690 0.887422
O O5 0.801955 0.500000 0.020782
O O6 0.578470 0.227599 0.433964
O O7 0.428781 0.286733 0.277271
O O8 0.610088 0.208369 0.333614
O O9 0.502640 0.000000 0.331450
O O10 0.627365 0.142318 0.843319
O O11 0.111566 0.500000 0.525675
O O12 0.198755 0.769236 0.592624
O O13 0.000000 0.731629 0.500000
O O14 0.249062 0.329523 0.806361
O O15 0.335525 0.288296 0.747923
O O16 0.307263 0.000000 0.691697
O O17 0.597033 0.500000 0.138886
#
# Coordination Sequence:
#
# PCOD9211767 Si02
#       8
#     4   4   8   4   8   8   8   8
#     4  10  25  50  70  97 147 178 232 292 370 415
#     4  10  27  44  72 100 142 182 232 298 365 432
#     4  10  21  40  66  93 133 188 229 287 349 415
#     4  10  22  48  69  96 133 183 225 294 355 432
#     4  10  21  40  65  95 134 180 234 290 343 409
#     4  12  22  45  70 100 137 180 240 292 358 426
#     4  11  23  41  64  98 143 184 228 288 349 411
#     4  12  24  43  73 105 139 191 239 293 354 427
#
# _framework density 20.659801000000002
#
# number of rings (size 3 to 8) (size 9 to 14) (size 15 to 20)
#    0.462    0.769    2.308    3.692    0.000    2.769 
#    9.692    0.769    0.000    0.000    0.000    0.000 
#    0.000    0.000    0.000    0.000    0.000    0.000 
#
# Total GULP energy -145045.215524 kJ/mol
# GULP energy per Si atom -5578.662136 kJ/mol
# Density = 2.061278 g / cm^3
# Si number density = 20.659801 Si / 1000 Ang^3
#
#
#
# Elastic Constant Matrix: (Units=GPa)
#
#
# Indices 1 2 3 4 5 6 
#
# 1 81.2370 39.9777 11.9653 0.0000 9.6438 0.0000
# 2 39.9777 88.0957 46.1972 0.0000 12.5462 0.0000
# 3 11.9653 46.1972 129.2174 0.0000 13.6940 0.0000
# 4 0.0000 0.0000 0.0000 37.4734 0.0000 3.2402
# 5 9.6438 12.5462 13.6940 0.0000 47.8019 0.0000
# 6 0.0000 0.0000 0.0000 3.2402 0.0000 64.7916
#
#
#
# Elastic Compliance Matrix: (Units=1/GPa)
#
#
# Indices 1 2 3 4 5 6 
#
# 1 0.016164 -0.007889 0.001495 0.000000 -0.001619 0.000000
# 2 -0.007889 0.018071 -0.005565 0.000000 -0.001557 0.000000
# 3 0.001495 -0.005565 0.009764 0.000000 -0.001638 0.000000
# 4 0.000000 0.000000 0.000000 0.026801 0.000000 -0.001340
# 5 -0.001619 -0.001557 -0.001638 0.000000 0.022124 0.000000
# 6 0.000000 0.000000 0.000000 -0.001340 0.000000 0.015501
#
#
# Mechanical properties :
#
#
# Convention : Reuss Voigt Hill
#
# Bulk Modulus (GPa) = 49.79765 54.98115 52.38940
# Shear Modulus (GPa) = 35.96173 43.37402 39.66788
#
# Velocity S-wave (km/s) = 4.17665 4.58694 4.38659
# Velocity P-wave (km/s) = 6.88587 7.39755 7.14629
#
# Compressibility (1/GPa) = 0.02008127
#
# Stress axis : x y z
#
# Youngs Moduli (GPa) = 61.86714 55.33639 102.42004
#
# Poissons Ratio (x) = 0.43652 -0.15313
# Poissons Ratio (y) = 0.48804 0.57000
# Poissons Ratio (z) = -0.09250 0.30796
#
# Static dielectric constant tensor:
#      x y z
#    x 1.730190 0.000000 -0.015540 
#    y 0.000000 1.750760 0.000000 
#    z -0.015540 0.000000 1.729200 
# 
# From -- ./inp_files/314931.got.cif
#   From: 2010.05.17/outbox.cif.g08.bks.cpg/sg12_158_cif.got.tgz:314931.got - 2010.06.03 13:09:07.
