data_PCOD9211435
_publ_section_title
;
Structure prediction by ZEFSAII (Michael W. Deem and Ramdas Pophale) SiO2 
 PCOD9211435
Probable space group: C 2/M
;
_chemical_formula_sum "Si O2"
_cell_formula_units_Z 32
_cell_length_a 8.187449
_cell_length_b 20.456198
_cell_length_c 7.442830
_cell_angle_alpha 90.000000
_cell_angle_beta 116.106518
_cell_angle_gamma 90.000000
_cell_volume 1119.378836
_symmetry_space_group_name_H-M "C 2/M"
_symmetry_group_IT_number 12
_symmetry_cell_setting 'monoclinic'
loop_
_space_group_symop_operation_xyz
x,y,z
-x,y,-z
-x,-y,-z
x,-y,z
1/2+x,1/2+y,z
1/2-x,1/2+y,-z
1/2-x,1/2-y,-z
1/2+x,1/2-y,z
loop_
_atom_site_type_symbol
_atom_site_label
_atom_site_fract_x
_atom_site_fract_y
_atom_site_fract_z
Si Si1 0.271640 0.500000 0.691442
Si Si2 0.807944 0.266816 0.231671
Si Si3 0.000000 0.158817 0.000000
Si Si4 0.345956 0.620580 0.286683
Si Si5 0.500000 0.117793 0.500000
Si Si6 0.779520 0.000000 0.120987
O O1 0.170451 0.567278 0.577493
O O2 0.491022 0.500000 0.760156
O O3 0.237464 0.500000 0.890216
O O4 0.950599 0.325987 0.325021
O O5 0.816991 0.196098 0.323849
O O6 0.750000 0.250000 0.000000
O O7 0.619756 0.300074 0.198971
O O8 0.886683 0.120187 0.089898
O O9 0.500000 0.600083 0.500000
O O10 0.205976 0.561485 0.202919
#
# Coordination Sequence:
#
# PCOD9211435 Si02
#       6
#     4   8   4   8   4   4
#     4  10  22  38  68  96 125 175 219 278 318 399
#     4  10  21  40  62  97 134 166 216 276 326 387
#     4  10  22  41  66  95 128 174 218 270 336 383
#     4  11  22  39  65  95 129 174 215 271 319 395
#     4  11  20  38  64 101 130 164 232 267 332 394
#     4  11  21  42  62  90 135 173 219 263 338 381
#
# _framework density 28.587282999999999
#
# number of rings (size 3 to 8) (size 9 to 14) (size 15 to 20)
#    0.000    1.500    1.250    6.375    0.000    1.000 
#    9.000    0.000    0.000    0.750    0.000    0.000 
#    0.000    0.000    0.000    0.000    0.000    0.000 
#
# Total GULP energy -89075.659517 kJ/mol
# GULP energy per Si atom -5567.228720 kJ/mol
# Density = 2.852222 g / cm^3
# Si number density = 28.587283 Si / 1000 Ang^3
#
#
#
# Elastic Constant Matrix: (Units=GPa)
#
#
# Indices 1 2 3 4 5 6 
#
# 1 68.1311 21.2485 31.2280 0.0000 4.5938 0.0000
# 2 21.2485 281.5689 73.6386 0.0000 7.3261 0.0000
# 3 31.2280 73.6386 166.6281 0.0000 -4.4833 0.0000
# 4 0.0000 0.0000 0.0000 80.2750 0.0000 18.0077
# 5 4.5938 7.3261 -4.4833 0.0000 36.5428 0.0000
# 6 0.0000 0.0000 0.0000 18.0077 0.0000 -9.2622
#
#
#
# Elastic Compliance Matrix: (Units=1/GPa)
#
#
# Indices 1 2 3 4 5 6 
#
# 1 0.016308 -0.000401 -0.002942 0.000000 -0.002331 0.000000
# 2 -0.000401 0.004064 -0.001747 0.000000 -0.000979 0.000000
# 3 -0.002942 -0.001747 0.007369 0.000000 0.001624 0.000000
# 4 0.000000 0.000000 0.000000 0.008674 0.000000 0.016864
# 5 -0.002331 -0.000979 0.001624 0.000000 0.028054 0.000000
# 6 0.000000 0.000000 0.000000 0.016864 0.000000 -0.075178
#
#
# Mechanical properties :
#
#
# Convention : Reuss Voigt Hill
#
# Bulk Modulus (GPa) = 56.94418 85.39538 71.16978
# Shear Modulus (GPa) = 938.99716 47.52531 493.26124
#
# Velocity S-wave (km/s) = 18.14331 4.08176 13.14992
# Velocity P-wave (km/s) = 21.42123 7.22156 15.98468
#
# Compressibility (1/GPa) = 0.01756106
#
# Stress axis : x y z
#
# Youngs Moduli (GPa) = 61.31905 246.04976 135.70958
#
# Poissons Ratio (x) = 0.09857 0.39926
# Poissons Ratio (y) = 0.02457 0.23713
# Poissons Ratio (z) = 0.18040 0.42994
#
# Static dielectric constant tensor:
#      x y z
#    x 2.673750 0.000000 0.032640 
#    y 0.000000 2.652370 0.000000 
#    z 0.032640 0.000000 2.224490 
# 
# From -- ./inp_files/48373.got.cif
#   From: 2010.05.17/outbox.cif.g08.bks.cpg/sg12_25_cif.got.tgz:48373.got - 2010.06.03 13:09:07.
