data_PCOD9211461
_publ_section_title
;
Structure prediction by ZEFSAII (Michael W. Deem and Ramdas Pophale) SiO2 
 PCOD9211461
Probable space group: C 2/M
;
_chemical_formula_sum "Si O2"
_cell_formula_units_Z 50
_cell_length_a 25.844700
_cell_length_b 14.577022
_cell_length_c 15.843109
_cell_angle_alpha 90.000000
_cell_angle_beta 157.136568
_cell_angle_gamma 90.000000
_cell_volume 2319.059617
_symmetry_space_group_name_H-M "C 2/M"
_symmetry_group_IT_number 12
_symmetry_cell_setting 'monoclinic'
loop_
_space_group_symop_operation_xyz
x,y,z
-x,y,-z
-x,-y,-z
x,-y,z
1/2+x,1/2+y,z
1/2-x,1/2+y,-z
1/2-x,1/2-y,-z
1/2+x,1/2-y,z
loop_
_atom_site_type_symbol
_atom_site_label
_atom_site_fract_x
_atom_site_fract_y
_atom_site_fract_z
Si Si1 0.409414 0.725179 0.601952
Si Si2 0.385503 0.399592 0.002553
Si Si3 0.142166 0.635658 0.751591
Si Si4 0.141343 0.811629 0.208107
Si Si5 0.100948 0.601534 0.885409
Si Si6 0.627536 0.333574 0.647916
Si Si7 0.000000 0.000000 0.000000
O O1 0.265942 0.752322 0.422941
O O2 0.500004 0.815652 0.749707
O O3 0.403251 0.698279 0.493635
O O4 0.483648 0.642894 0.760757
O O5 0.410754 0.500000 0.998528
O O6 0.270422 0.405168 0.898540
O O7 0.331055 0.333441 0.848789
O O8 0.142955 0.613703 0.850765
O O9 0.149027 0.743533 0.739316
O O10 0.000000 0.604618 0.500000
O O11 0.105580 0.913626 0.188294
O O12 0.000000 0.760132 0.000000
O O13 0.042057 0.500000 0.807633
O O14 0.235001 0.612085 0.141091
O O15 0.500000 0.381098 0.500000
#
# Coordination Sequence:
#
# PCOD9211461 Si02
#       7
#     8   8   8   8   8   8   2
#     4  12  23  39  62  87 117 155 191 243 293 338
#     4  12  23  39  62  89 116 153 201 240 287 350
#     4  11  20  37  58  83 117 156 198 243 278 334
#     4  10  21  40  63  87 119 143 187 240 299 347
#     4  12  24  36  56  88 117 156 201 236 284 338
#     4  11  21  39  58  77 124 162 191 237 283 339
#     4   8  20  40  64  88 116 146 184 240 304 344
#
# _framework density 21.560464
#
# number of rings (size 3 to 8) (size 9 to 14) (size 15 to 20)
#    0.480    0.320    7.200    1.920    1.120    4.160 
#    0.000    0.000    0.000    0.480    0.000    0.000 
#    0.000    0.000    0.000    0.000    0.000    0.000 
#
# Total GULP energy -139417.442850 kJ/mol
# GULP energy per Si atom -5576.697714 kJ/mol
# Density = 2.151139 g / cm^3
# Si number density = 21.560464 Si / 1000 Ang^3
#
#
#
# Elastic Constant Matrix: (Units=GPa)
#
#
# Indices 1 2 3 4 5 6 
#
# 1 47.9623 11.1318 27.4749 0.0000 12.7560 0.0000
# 2 11.1318 68.7887 36.3351 0.0000 -3.4959 0.0000
# 3 27.4749 36.3351 120.5537 0.0000 18.3296 0.0000
# 4 0.0000 0.0000 0.0000 -11.4015 0.0000 12.7021
# 5 12.7560 -3.4959 18.3296 0.0000 41.5698 0.0000
# 6 0.0000 0.0000 0.0000 12.7021 0.0000 20.6307
#
#
#
# Elastic Compliance Matrix: (Units=1/GPa)
#
#
# Indices 1 2 3 4 5 6 
#
# 1 0.025392 -0.002208 -0.004190 0.000000 -0.006130 0.000000
# 2 -0.002208 0.018133 -0.005678 0.000000 0.004706 0.000000
# 3 -0.004190 -0.005678 0.011617 0.000000 -0.004314 0.000000
# 4 0.000000 0.000000 0.000000 -0.052023 0.000000 0.032030
# 5 -0.006130 0.004706 -0.004314 0.000000 0.028235 0.000000
# 6 0.000000 0.000000 0.000000 0.032030 0.000000 0.028751
#
#
# Mechanical properties :
#
#
# Convention : Reuss Voigt Hill
#
# Bulk Modulus (GPa) = 32.26590 43.02091 37.64341
# Shear Modulus (GPa) = 52.86249 20.98399 36.92324
#
# Velocity S-wave (km/s) = 4.95696 3.12310 4.14278
# Velocity P-wave (km/s) = 6.91084 5.74473 6.35459
#
# Compressibility (1/GPa) = 0.03099247
#
# Stress axis : x y z
#
# Youngs Moduli (GPa) = 39.38174 55.14910 86.08008
#
# Poissons Ratio (x) = 0.12175 0.36064
# Poissons Ratio (y) = 0.08694 0.48873
# Poissons Ratio (z) = 0.16500 0.31311
#
# Static dielectric constant tensor:
#      x y z
#    x 1.762480 0.000000 -0.000330 
#    y 0.000000 1.807680 0.000000 
#    z -0.000330 0.000000 1.801240 
# 
# From -- ./inp_files/296823.got.cif
#   From: 2010.05.17/outbox.cif.g08.bks.cpg/sg12_149_cif.got.tgz:296823.got - 2010.06.03 13:09:07.
