data_PCOD9211892
_publ_section_title
;
Structure prediction by ZEFSAII (Michael W. Deem and Ramdas Pophale) SiO2 
 PCOD9211892
Probable space group: C 2/M
;
_chemical_formula_sum "Si O2"
_cell_formula_units_Z 64
_cell_length_a 33.509946
_cell_length_b 8.897248
_cell_length_c 19.630256
_cell_angle_alpha 90.000000
_cell_angle_beta 33.583060
_cell_angle_gamma 90.000000
_cell_volume 3237.386760
_symmetry_space_group_name_H-M "C 2/M"
_symmetry_group_IT_number 12
_symmetry_cell_setting 'monoclinic'
loop_
_space_group_symop_operation_xyz
x,y,z
-x,y,-z
-x,-y,-z
x,-y,z
1/2+x,1/2+y,z
1/2-x,1/2+y,-z
1/2-x,1/2-y,-z
1/2+x,1/2-y,z
loop_
_atom_site_type_symbol
_atom_site_label
_atom_site_fract_x
_atom_site_fract_y
_atom_site_fract_z
Si Si1 0.537619 0.681513 0.018510
Si Si2 0.202786 0.171452 0.008804
Si Si3 0.196139 0.679268 0.777948
Si Si4 0.047693 0.181808 0.720829
Si Si5 0.922088 0.169774 0.643662
Si Si6 0.700369 0.830356 0.262746
Si Si7 0.716394 0.318904 0.480667
Si Si8 0.440912 0.178549 0.764583
O O1 0.542039 0.500000 0.013233
O O2 0.618782 0.746052 0.903404
O O3 0.500000 0.725389 0.000000
O O4 0.490666 0.725627 0.152438
O O5 0.250496 0.162642 0.874122
O O6 0.182864 0.000000 0.055934
O O7 0.250000 0.250000 0.000000
O O8 0.132696 0.270198 0.094153
O O9 0.186981 0.500000 0.791612
O O10 0.256319 0.729445 0.746245
O O11 0.231775 0.726078 0.655425
O O12 0.131980 0.225300 0.596305
O O13 0.005230 0.252403 0.717557
O O14 0.043025 0.000000 0.723041
O O15 0.872775 0.258940 0.660774
O O16 0.930583 0.251860 0.703989
O O17 0.000000 0.160454 0.500000
O O18 0.893461 0.000000 0.693582
O O19 0.689753 0.000000 0.304215
O O20 0.717079 0.500000 0.482713
O O21 0.750000 0.250000 0.500000
O O22 0.447068 0.000000 0.751357
#
# Coordination Sequence:
#
# PCOD9211892 Si02
#       8
#     8   8   8   8   8   8   8   8
#     4  10  21  40  67  95 124 164 212 260 316 377
#     4  11  22  38  61  88 119 160 206 254 309 364
#     4  11  24  40  62  95 131 166 207 257 316 380
#     4  10  22  41  64  91 126 167 212 260 310 375
#     4  11  25  43  64  87 119 165 210 258 313 370
#     4  11  24  41  63  92 125 162 208 257 306 368
#     4  10  23  43  67  94 125 163 207 256 313 378
#     4  12  25  40  61  92 126 163 208 258 310 369
#
# _framework density 19.769030000000001
#
# number of rings (size 3 to 8) (size 9 to 14) (size 15 to 20)
#    0.000    1.250    1.250    4.125    1.750    8.750 
#    0.000    0.000    0.000    0.000    0.000    0.000 
#    0.000    0.000    0.000    0.000    0.000    0.000 
#
# Total GULP energy -178813.596315 kJ/mol
# GULP energy per Si atom -5587.924885 kJ/mol
# Density = 1.972403 g / cm^3
# Si number density = 19.769030 Si / 1000 Ang^3
#
#
#
# Elastic Constant Matrix: (Units=GPa)
#
#
# Indices 1 2 3 4 5 6 
#
# 1 78.8729 5.4225 -7.9857 0.0010 -19.0247 -0.0003
# 2 5.4225 41.2260 6.5138 -0.0003 -3.3359 0.0038
# 3 -7.9857 6.5138 61.6974 -0.0036 -17.0373 0.0026
# 4 0.0010 -0.0003 -0.0036 15.3712 0.0000 -3.0029
# 5 -19.0247 -3.3359 -17.0373 0.0000 36.9400 -0.0006
# 6 -0.0003 0.0038 0.0026 -3.0029 -0.0006 35.4567
#
#
#
# Elastic Compliance Matrix: (Units=1/GPa)
#
#
# Indices 1 2 3 4 5 6 
#
# 1 0.015829 -0.002055 0.005117 0.000000 0.010327 0.000000
# 2 -0.002055 0.024979 -0.002948 -0.000001 -0.000162 -0.000003
# 3 0.005117 -0.002948 0.020439 0.000004 0.011796 -0.000001
# 4 0.000000 -0.000001 0.000004 0.066151 0.000002 0.005603
# 5 0.010327 -0.000162 0.011796 0.000002 0.037815 0.000000
# 6 0.000000 -0.000003 -0.000001 0.005603 0.000000 0.028678
#
#
# Mechanical properties :
#
#
# Convention : Reuss Voigt Hill
#
# Bulk Modulus (GPa) = 16.26638 21.07751 18.67194
# Shear Modulus (GPa) = 23.34755 29.40996 26.37875
#
# Velocity S-wave (km/s) = 3.44032 3.86123 3.65683
# Velocity P-wave (km/s) = 4.90175 5.52845 5.22451
#
# Compressibility (1/GPa) = 0.06147649
#
# Stress axis : x y z
#
# Youngs Moduli (GPa) = 63.17549 40.03283 48.92563
#
# Poissons Ratio (x) = 0.08226 -0.25037
# Poissons Ratio (y) = 0.12982 0.14423
# Poissons Ratio (z) = -0.32329 0.11802
#
# Static dielectric constant tensor:
#      x y z
#    x 1.801640 -0.000020 0.061210 
#    y -0.000020 1.713830 0.000000 
#    z 0.061210 0.000000 1.723350 
# 
# From -- ./inp_files/295613.got.cif
#   From: 2010.05.17/outbox.cif.g08.bks.cpg/sg12_148_cif.got.tgz:295613.got - 2010.06.03 13:09:07.
