data_PCOD9211708
_publ_section_title
;
Structure prediction by ZEFSAII (Michael W. Deem and Ramdas Pophale) SiO2 
 PCOD9211708
Probable space group: C 2/M
;
_chemical_formula_sum "Si O2"
_cell_formula_units_Z 64
_cell_length_a 13.618188
_cell_length_b 12.557211
_cell_length_c 28.028499
_cell_angle_alpha 90.000000
_cell_angle_beta 140.012216
_cell_angle_gamma 90.000000
_cell_volume 3080.133070
_symmetry_space_group_name_H-M "C 2/M"
_symmetry_group_IT_number 12
_symmetry_cell_setting 'monoclinic'
loop_
_space_group_symop_operation_xyz
x,y,z
-x,y,-z
-x,-y,-z
x,-y,z
1/2+x,1/2+y,z
1/2-x,1/2+y,-z
1/2-x,1/2-y,-z
1/2+x,1/2-y,z
loop_
_atom_site_type_symbol
_atom_site_label
_atom_site_fract_x
_atom_site_fract_y
_atom_site_fract_z
Si Si1 0.781283 0.377741 0.710964
Si Si2 0.736160 0.690132 0.795173
Si Si3 0.640160 0.878251 0.826334
Si Si4 0.804881 0.881558 0.988236
Si Si5 0.700521 0.621073 0.486967
Si Si6 0.089426 0.114454 0.344221
Si Si7 0.535084 0.833879 0.957663
Si Si8 0.340710 0.706692 0.428297
O O1 0.761439 0.500000 0.720266
O O2 0.759894 0.299583 0.747505
O O3 0.670742 0.352743 0.625955
O O4 0.956754 0.368208 0.758975
O O5 0.711383 0.797754 0.815298
O O6 0.575830 0.629427 0.739951
O O7 0.886205 0.634523 0.872271
O O8 0.703976 0.857268 0.903420
O O9 0.677771 0.000000 0.828547
O O10 0.689842 0.877720 0.990781
O O11 0.868000 0.000000 0.007357
O O12 0.934598 0.792634 0.037556
O O13 0.778568 0.500000 0.509306
O O14 0.750000 0.750000 0.500000
O O15 0.580783 0.616166 0.398794
O O16 0.671005 0.624824 0.532264
O O17 0.204787 0.208633 0.375586
O O18 0.153084 0.000000 0.353330
O O19 0.500000 0.857524 0.000000
O O20 0.500000 0.764419 0.500000
#
# Coordination Sequence:
#
# PCOD9211708 Si02
#       8
#     8   8   8   8   8   8   8   8
#     4  11  23  40  65  94 125 167 210 258 321 385
#     4  12  22  39  65  92 126 163 215 262 318 381
#     4  10  21  40  65  91 125 168 213 262 319 385
#     4  10  22  42  64  92 128 166 211 261 319 381
#     4   9  19  37  61  92 124 161 213 270 328 390
#     4  10  22  40  61  89 127 169 209 262 330 393
#     4  11  23  38  65  95 126 165 208 265 314 372
#     4  11  22  38  63  93 125 165 212 270 322 390
#
# _framework density 20.778324000000001
#
# number of rings (size 3 to 8) (size 9 to 14) (size 15 to 20)
#    0.000    1.500    3.750    1.500    0.000    3.750 
#    0.000    0.625    0.000    0.000    0.000    0.000 
#    0.000    0.000    0.000    0.000    0.000    0.000 
#
# Total GULP energy -178215.931850 kJ/mol
# GULP energy per Si atom -5569.247870 kJ/mol
# Density = 2.073103 g / cm^3
# Si number density = 20.778324 Si / 1000 Ang^3
#
#
#
# Elastic Constant Matrix: (Units=GPa)
#
#
# Indices 1 2 3 4 5 6 
#
# 1 76.4018 32.2365 22.1469 0.0000 -19.5605 0.0000
# 2 32.2365 107.9028 23.5992 0.0000 -2.5011 0.0000
# 3 22.1469 23.5992 96.6824 0.0000 -1.0543 0.0000
# 4 0.0000 0.0000 0.0000 18.2950 0.0000 -7.1487
# 5 -19.5605 -2.5011 -1.0543 0.0000 43.7005 0.0000
# 6 0.0000 0.0000 0.0000 -7.1487 0.0000 4.3388
#
#
#
# Elastic Compliance Matrix: (Units=1/GPa)
#
#
# Indices 1 2 3 4 5 6 
#
# 1 0.017780 -0.004503 -0.002891 0.000000 0.007631 0.000000
# 2 -0.004503 0.010942 -0.001655 0.000000 -0.001429 0.000000
# 3 -0.002891 -0.001655 0.011397 0.000000 -0.001114 0.000000
# 4 0.000000 0.000000 0.000000 0.153457 0.000000 0.252841
# 5 0.007631 -0.001429 -0.001114 0.000000 0.026190 0.000000
# 6 0.000000 0.000000 0.000000 0.252841 0.000000 0.647066
#
#
# Mechanical properties :
#
#
# Convention : Reuss Voigt Hill
#
# Bulk Modulus (GPa) = 45.40841 48.55025 46.97933
# Shear Modulus (GPa) = 5.60369 26.80048 16.20208
#
# Velocity S-wave (km/s) = 1.64400 3.59531 2.79545
# Velocity P-wave (km/s) = 5.05023 6.37586 5.75137
#
# Compressibility (1/GPa) = 0.02202235
#
# Stress axis : x y z
#
# Youngs Moduli (GPa) = 56.24228 91.39392 87.74184
#
# Poissons Ratio (x) = 0.41153 0.25362
# Poissons Ratio (y) = 0.25325 0.14520
# Poissons Ratio (z) = 0.16257 0.15124
#
# Static dielectric constant tensor:
#      x y z
#    x 1.797900 0.000000 0.013330 
#    y 0.000000 1.775720 0.000000 
#    z 0.013330 0.000000 1.726520 
# 
# From -- ./inp_files/361057.got.cif
#   From: 2010.05.17/outbox.cif.g08.bks.cpg/sg12_181_cif.got.tgz:361057.got - 2010.06.03 13:09:07.
