data_PCOD9211343
_publ_section_title
;
Structure prediction by ZEFSAII (Michael W. Deem and Ramdas Pophale) SiO2 
 PCOD9211343
Probable space group: C 2/M
;
_chemical_formula_sum "Si O2"
_cell_formula_units_Z 56
_cell_length_a 14.230027
_cell_length_b 21.185689
_cell_length_c 16.273389
_cell_angle_alpha 90.000000
_cell_angle_beta 143.438096
_cell_angle_gamma 90.000000
_cell_volume 2922.451580
_symmetry_space_group_name_H-M "C 2/M"
_symmetry_group_IT_number 12
_symmetry_cell_setting 'monoclinic'
loop_
_space_group_symop_operation_xyz
x,y,z
-x,y,-z
-x,-y,-z
x,-y,z
1/2+x,1/2+y,z
1/2-x,1/2+y,-z
1/2-x,1/2-y,-z
1/2+x,1/2-y,z
loop_
_atom_site_type_symbol
_atom_site_label
_atom_site_fract_x
_atom_site_fract_y
_atom_site_fract_z
Si Si1 0.691476 0.428738 0.134906
Si Si2 0.501928 0.500000 0.600483
Si Si3 0.112521 0.209874 0.804204
Si Si4 0.871488 0.704500 0.721200
Si Si5 0.566490 0.365138 0.454273
Si Si6 0.677428 0.707362 0.158713
Si Si7 0.174342 0.615947 0.947654
Si Si8 0.167147 0.500000 0.069817
O O1 0.744130 0.500000 0.196278
O O2 0.727266 0.365059 0.212889
O O3 0.500000 0.431520 0.000000
O O4 0.764835 0.412419 0.096412
O O5 0.500000 0.500000 0.500000
O O6 0.413434 0.436355 0.563102
O O7 0.680163 0.500000 0.762221
O O8 0.217013 0.265676 0.840474
O O9 0.205457 0.169631 0.936503
O O10 0.957446 0.240918 0.731465
O O11 0.062326 0.165651 0.694424
O O12 0.725566 0.674366 0.571292
O O13 0.817341 0.740909 0.765508
O O14 0.002894 0.649766 0.826458
O O15 0.500000 0.367063 0.500000
O O16 0.500000 0.705483 0.000000
O O17 0.174256 0.560927 0.015743
O O18 0.000000 0.500000 0.000000
#
# Coordination Sequence:
#
# PCOD9211343 Si02
#       8
#     8   4   8   8   8   8   8   4
#     4  10  21  40  61  91 127 165 206 255 316 377
#     4  10  24  46  62  83 127 176 209 240 320 390
#     4  12  22  40  62  92 125 163 212 258 317 374
#     4  12  25  39  64  95 124 164 214 263 320 371
#     4  11  24  41  63  86 124 171 209 254 311 384
#     4  11  21  37  62  91 125 163 201 262 315 374
#     4  12  24  40  65  97 130 164 210 266 319 376
#     4  12  28  40  65 101 133 166 211 265 318 385
#
# _framework density 19.161995000000001
#
# number of rings (size 3 to 8) (size 9 to 14) (size 15 to 20)
#    0.000    0.714    6.429    2.571    6.000    0.000 
#    0.000    0.000    0.000    0.000    0.000    1.000 
#    0.000    0.286    0.000    0.000    0.000    0.000 
#
# Total GULP energy -156254.221558 kJ/mol
# GULP energy per Si atom -5580.507913 kJ/mol
# Density = 1.911838 g / cm^3
# Si number density = 19.161995 Si / 1000 Ang^3
#
#
#
# Elastic Constant Matrix: (Units=GPa)
#
#
# Indices 1 2 3 4 5 6 
#
# 1 78.4386 15.5573 2.4855 0.0000 6.4782 0.0000
# 2 15.5573 122.9108 10.5333 -0.0001 3.0709 0.0000
# 3 2.4855 10.5333 43.8255 0.0000 -4.6928 -0.0002
# 4 0.0000 -0.0001 0.0000 11.1479 0.0000 1.6196
# 5 6.4782 3.0709 -4.6928 0.0000 22.1715 -0.0001
# 6 0.0000 0.0000 -0.0002 1.6196 -0.0001 19.2308
#
#
#
# Elastic Compliance Matrix: (Units=1/GPa)
#
#
# Indices 1 2 3 4 5 6 
#
# 1 0.013398 -0.001530 -0.000807 0.000000 -0.003874 0.000000
# 2 -0.001530 0.008538 -0.002092 0.000000 -0.001178 0.000000
# 3 -0.000807 -0.002092 0.023966 0.000000 0.005598 0.000000
# 4 0.000000 0.000000 0.000000 0.090814 0.000000 -0.007648
# 5 -0.003874 -0.001178 0.005598 0.000000 0.047583 0.000000
# 6 0.000000 0.000000 0.000000 -0.007648 0.000000 0.052644
#
#
# Mechanical properties :
#
#
# Convention : Reuss Voigt Hill
#
# Bulk Modulus (GPa) = 26.99415 33.59188 30.29301
# Shear Modulus (GPa) = 19.36876 24.94995 22.15936
#
# Velocity S-wave (km/s) = 3.18274 3.61231 3.40431
# Velocity P-wave (km/s) = 5.25589 5.91328 5.59425
#
# Compressibility (1/GPa) = 0.03704506
#
# Stress axis : x y z
#
# Youngs Moduli (GPa) = 74.63946 117.11924 41.72633
#
# Poissons Ratio (x) = 0.17918 0.03367
# Poissons Ratio (y) = 0.11419 0.08727
# Poissons Ratio (z) = 0.06023 0.24496
#
# Static dielectric constant tensor:
#      x y z
#    x 1.998410 0.000000 -0.167540 
#    y 0.000000 1.713260 0.000000 
#    z -0.167540 0.000000 1.712340 
# 
# From -- ./inp_files/272443.got.cif
#   From: 2010.05.17/outbox.cif.g08.bks.cpg/sg12_137_cif.got.tgz:272443.got - 2010.06.03 13:09:07.
