data_PCOD9211893
_publ_section_title
;
Structure prediction by ZEFSAII (Michael W. Deem and Ramdas Pophale) SiO2 
 PCOD9211893
Probable space group: C 2/M
;
_chemical_formula_sum "Si O2"
_cell_formula_units_Z 64
_cell_length_a 15.205373
_cell_length_b 29.207447
_cell_length_c 12.570399
_cell_angle_alpha 90.000000
_cell_angle_beta 34.295205
_cell_angle_gamma 90.000000
_cell_volume 3145.577931
_symmetry_space_group_name_H-M "C 2/M"
_symmetry_group_IT_number 12
_symmetry_cell_setting 'monoclinic'
loop_
_space_group_symop_operation_xyz
x,y,z
-x,y,-z
-x,-y,-z
x,-y,z
1/2+x,1/2+y,z
1/2-x,1/2+y,-z
1/2-x,1/2-y,-z
1/2+x,1/2-y,z
loop_
_atom_site_type_symbol
_atom_site_label
_atom_site_fract_x
_atom_site_fract_y
_atom_site_fract_z
Si Si1 0.310067 0.377518 0.560833
Si Si2 0.180487 0.697146 0.323932
Si Si3 0.183596 0.405341 0.297810
Si Si4 0.826130 0.947426 0.366321
Si Si5 0.819447 0.870566 0.794180
Si Si6 0.300113 0.550852 0.973486
Si Si7 0.378982 0.780335 0.025432
Si Si8 0.150229 0.295494 0.600491
O O1 0.266566 0.419229 0.527391
O O2 0.287758 0.388119 0.706582
O O3 0.495520 0.366995 0.368010
O O4 0.215332 0.333535 0.615810
O O5 0.216060 0.647856 0.236358
O O6 0.184067 0.686864 0.447292
O O7 0.000000 0.712817 0.500000
O O8 0.290342 0.735167 0.159474
O O9 0.276140 0.421352 0.309593
O O10 0.000000 0.407146 0.500000
O O11 0.224043 0.438868 0.162099
O O12 0.013466 0.947692 0.192553
O O13 0.772119 0.000000 0.416664
O O14 0.755266 0.908021 0.939942
O O15 0.743256 0.820756 0.872454
O O16 0.261236 0.500000 0.972312
O O17 0.481115 0.779708 0.814380
O O18 0.500000 0.791678 0.000000
O O19 0.250000 0.250000 0.500000
#
# Coordination Sequence:
#
# PCOD9211893 Si02
#       8
#     8   8   8   8   8   8   8   8
#     4  10  21  41  64  95 127 168 211 268 320 384
#     4  11  27  45  63  97 134 170 222 270 322 391
#     4  11  24  42  63  92 131 168 212 265 324 382
#     4  10  21  40  67  95 126 168 215 264 323 383
#     4  10  23  40  66  92 128 169 215 263 323 384
#     4  10  23  42  65  95 127 167 216 268 320 382
#     4  12  25  41  66  95 126 174 216 260 324 388
#     4  12  24  43  65  91 132 173 214 273 323 385
#
# _framework density 20.346022999999999
#
# number of rings (size 3 to 8) (size 9 to 14) (size 15 to 20)
#    0.000    1.250    3.750    0.750    7.000    6.000 
#    0.000    2.500    0.000    0.375    0.000    0.000 
#    0.000    0.000    0.000    0.000    0.000    0.000 
#
# Total GULP energy -178591.685266 kJ/mol
# GULP energy per Si atom -5580.990165 kJ/mol
# Density = 2.029971 g / cm^3
# Si number density = 20.346023 Si / 1000 Ang^3
#
#
#
# Elastic Constant Matrix: (Units=GPa)
#
#
# Indices 1 2 3 4 5 6 
#
# 1 51.5355 36.7132 13.5143 0.0000 6.5586 0.0000
# 2 36.7132 122.8424 54.5481 0.0001 2.5536 0.0000
# 3 13.5143 54.5481 58.6615 -0.0003 17.0885 0.0000
# 4 0.0000 0.0001 -0.0003 24.6882 0.0001 3.3421
# 5 6.5586 2.5536 17.0885 0.0001 12.5918 0.0000
# 6 0.0000 0.0000 0.0000 3.3421 0.0000 27.7778
#
#
#
# Elastic Compliance Matrix: (Units=1/GPa)
#
#
# Indices 1 2 3 4 5 6 
#
# 1 0.032701 -0.019275 0.023505 0.000001 -0.045023 0.000000
# 2 -0.019275 0.031870 -0.043391 -0.000001 0.062462 0.000000
# 3 0.023505 -0.043391 0.087624 0.000002 -0.122359 0.000000
# 4 0.000001 -0.000001 0.000002 0.041176 -0.000003 -0.004954
# 5 -0.045023 0.062462 -0.122359 -0.000003 0.256254 0.000000
# 6 0.000000 0.000000 0.000000 -0.004954 0.000000 0.036596
#
#
# Mechanical properties :
#
#
# Convention : Reuss Voigt Hill
#
# Bulk Modulus (GPa) = 13.53645 49.17674 31.35659
# Shear Modulus (GPa) = 8.48655 21.56249 15.02452
#
# Velocity S-wave (km/s) = 2.04455 3.25897 2.72039
# Velocity P-wave (km/s) = 3.49873 6.19547 5.03115
#
# Compressibility (1/GPa) = 0.07387464
#
# Stress axis : x y z
#
# Youngs Moduli (GPa) = 30.57996 31.37724 11.41239
#
# Poissons Ratio (x) = 0.60479 -0.26825
# Poissons Ratio (y) = 0.58942 0.49519
# Poissons Ratio (z) = -0.71878 1.36148
#
# Static dielectric constant tensor:
#      x y z
#    x 2.092040 0.000000 0.458980 
#    y 0.000000 1.696560 0.000000 
#    z 0.458980 0.000000 2.301490 
# 
# From -- ./inp_files/149736.got.cif
#   From: 2010.05.17/outbox.cif.g08.bks.cpg/sg12_75_cif.got.tgz:149736.got - 2010.06.03 13:09:07.
