data_PCOD9211270
_publ_section_title
;
Structure prediction by ZEFSAII (Michael W. Deem and Ramdas Pophale) SiO2 
 PCOD9211270
Probable space group: C 2/M
;
_chemical_formula_sum "Si O2"
_cell_formula_units_Z 58
_cell_length_a 26.263274
_cell_length_b 22.833439
_cell_length_c 9.435337
_cell_angle_alpha 90.000000
_cell_angle_beta 31.763007
_cell_angle_gamma 90.000000
_cell_volume 2978.511110
_symmetry_space_group_name_H-M "C 2/M"
_symmetry_group_IT_number 12
_symmetry_cell_setting 'monoclinic'
loop_
_space_group_symop_operation_xyz
x,y,z
-x,y,-z
-x,-y,-z
x,-y,z
1/2+x,1/2+y,z
1/2-x,1/2+y,-z
1/2-x,1/2-y,-z
1/2+x,1/2-y,z
loop_
_atom_site_type_symbol
_atom_site_label
_atom_site_fract_x
_atom_site_fract_y
_atom_site_fract_z
Si Si1 0.000000 0.500000 0.000000
Si Si2 0.428654 0.769223 0.453396
Si Si3 0.078163 0.620475 0.710636
Si Si4 0.357798 0.753687 0.934343
Si Si5 0.688968 0.314096 0.480339
Si Si6 0.042261 0.066826 0.256096
Si Si7 0.794068 0.849668 0.249439
Si Si8 0.594000 0.563545 0.678509
O O1 0.043470 0.553151 0.793126
O O2 0.425198 0.837394 0.416898
O O3 0.370825 0.761649 0.736815
O O4 0.537861 0.751134 0.236493
O O5 0.385191 0.728005 0.430694
O O6 0.187181 0.623716 0.512490
O O7 0.000000 0.650422 0.000000
O O8 0.292507 0.801972 0.166009
O O9 0.301243 0.693881 0.100197
O O10 0.686902 0.309886 0.656157
O O11 0.662741 0.381938 0.526051
O O12 0.000000 0.094517 0.500000
O O13 0.950415 0.062701 0.371850
O O14 0.076063 0.000000 0.206014
O O15 0.124853 0.102026 0.977076
O O16 0.637028 0.500000 0.613013
O O17 0.500000 0.571736 0.000000
#
# Coordination Sequence:
#
# PCOD9211270 Si02
#       8
#     2   8   8   8   8   8   8   8
#     4   8  24  44  68  98 126 170 218 282 320 368
#     4  11  25  43  68  89 140 168 209 271 325 387
#     4  10  23  43  66  96 126 169 217 275 318 378
#     4  11  26  42  62 100 128 174 210 262 332 391
#     4  12  24  40  65  96 127 170 216 267 318 382
#     4  10  23  39  59  90 126 165 209 260 320 391
#     4  12  24  38  65  97 127 167 221 262 322 390
#     4  10  21  40  59  87 125 164 201 256 324 379
#
# _framework density 19.472815000000001
#
# number of rings (size 3 to 8) (size 9 to 14) (size 15 to 20)
#    0.414    0.828    2.759    2.483    6.759    0.000 
#    0.000    0.000    1.517    0.828    0.000    0.000 
#    0.000    0.000    0.000    0.000    0.000    0.000 
#
# Total GULP energy -161439.613408 kJ/mol
# GULP energy per Si atom -5566.883221 kJ/mol
# Density = 1.942849 g / cm^3
# Si number density = 19.472815 Si / 1000 Ang^3
#
#
#
# Elastic Constant Matrix: (Units=GPa)
#
#
# Indices 1 2 3 4 5 6 
#
# 1 52.6625 7.2746 28.5421 0.0000 16.2485 0.0000
# 2 7.2746 109.4780 50.1001 0.0000 2.7914 0.0000
# 3 28.5421 50.1001 108.6314 0.0000 11.8827 0.0000
# 4 0.0000 0.0000 0.0000 16.3453 0.0000 -1.0697
# 5 16.2485 2.7914 11.8827 0.0000 32.1006 0.0000
# 6 0.0000 0.0000 0.0000 -1.0697 0.0000 21.9954
#
#
#
# Elastic Compliance Matrix: (Units=1/GPa)
#
#
# Indices 1 2 3 4 5 6 
#
# 1 0.025440 0.001401 -0.006158 0.000000 -0.010720 0.000000
# 2 0.001401 0.011686 -0.005804 0.000000 0.000423 0.000000
# 3 -0.006158 -0.005804 0.013657 0.000000 -0.001434 0.000000
# 4 0.000000 0.000000 0.000000 0.061375 0.000000 0.002985
# 5 -0.010720 0.000423 -0.001434 0.000000 0.037072 0.000000
# 6 0.000000 0.000000 0.000000 0.002985 0.000000 0.045609
#
#
# Mechanical properties :
#
#
# Convention : Reuss Voigt Hill
#
# Bulk Modulus (GPa) = 33.71354 49.17836 41.44595
# Shear Modulus (GPa) = 22.13872 26.41196 24.27534
#
# Velocity S-wave (km/s) = 3.37546 3.68686 3.53459
# Velocity P-wave (km/s) = 5.70459 6.59042 6.16344
#
# Compressibility (1/GPa) = 0.02966167
#
# Stress axis : x y z
#
# Youngs Moduli (GPa) = 39.30800 85.56899 73.22272
#
# Poissons Ratio (x) = -0.11986 0.45088
# Poissons Ratio (y) = -0.05506 0.42499
# Poissons Ratio (z) = 0.24205 0.49665
#
# Static dielectric constant tensor:
#      x y z
#    x 1.642380 0.000000 -0.126560 
#    y 0.000000 1.736340 0.000000 
#    z -0.126560 0.000000 1.529080 
# 
# From -- ./inp_files/106894.got.cif
#   From: 2010.05.17/outbox.cif.g08.bks.cpg/sg12_54_cif.got.tgz:106894.got - 2010.06.03 13:09:07.
