data_PCOD9211644
_publ_section_title
;
Structure prediction by ZEFSAII (Michael W. Deem and Ramdas Pophale) SiO2 
 PCOD9211644
Probable space group: C 2/M
;
_chemical_formula_sum "Si O2"
_cell_formula_units_Z 36
_cell_length_a 25.371141
_cell_length_b 13.306525
_cell_length_c 5.694095
_cell_angle_alpha 90.000000
_cell_angle_beta 61.895038
_cell_angle_gamma 90.000000
_cell_volume 1695.666055
_symmetry_space_group_name_H-M "C 2/M"
_symmetry_group_IT_number 12
_symmetry_cell_setting 'monoclinic'
loop_
_space_group_symop_operation_xyz
x,y,z
-x,y,-z
-x,-y,-z
x,-y,z
1/2+x,1/2+y,z
1/2-x,1/2+y,-z
1/2-x,1/2-y,-z
1/2+x,1/2-y,z
loop_
_atom_site_type_symbol
_atom_site_label
_atom_site_fract_x
_atom_site_fract_y
_atom_site_fract_z
Si Si1 0.033851 0.000000 0.179467
Si Si2 0.199283 0.219766 0.290658
Si Si3 0.260005 0.611991 0.396781
Si Si4 0.115867 0.192529 0.079836
Si Si5 0.463899 0.117077 0.826799
O O1 0.071779 0.897654 0.113062
O O2 0.000000 0.000000 0.500000
O O3 0.000000 0.000000 0.000000
O O4 0.205338 0.314468 0.452704
O O5 0.224945 0.121211 0.360883
O O6 0.135135 0.203577 0.312623
O O7 0.250000 0.250000 0.000000
O O8 0.249381 0.500000 0.338260
O O9 0.321620 0.655997 0.162766
O O10 0.087603 0.298333 0.064679
O O11 0.500000 0.132238 0.500000
O O12 0.443548 0.000000 0.864444
O O13 0.500000 0.128908 0.000000
#
# Coordination Sequence:
#
# PCOD9211644 Si02
#       5
#     4   8   8   8   8
#     4  12  28  42  64 108 142 184 228 282 348 418
#     4   9  22  39  60  93 123 172 219 267 340 402
#     4  10  21  40  64  93 132 168 219 279 348 414
#     4  11  23  39  66  95 130 174 221 279 340 412
#     4  10  23  43  65  91 127 174 222 277 333 394
#
# _framework density 21.230595000000001
#
# number of rings (size 3 to 8) (size 9 to 14) (size 15 to 20)
#    0.000    1.778    1.111    1.333    7.778    1.778 
#    0.000    8.889    0.000    0.000    0.000    0.000 
#    0.000    0.000    0.000    0.000    0.000    0.000 
#
# Total GULP energy -100205.049384 kJ/mol
# GULP energy per Si atom -5566.947188 kJ/mol
# Density = 2.118227 g / cm^3
# Si number density = 21.230595 Si / 1000 Ang^3
#
#
#
# Elastic Constant Matrix: (Units=GPa)
#
#
# Indices 1 2 3 4 5 6 
#
# 1 129.8170 69.6502 27.6902 0.0000 44.3249 0.0000
# 2 69.6502 155.4273 19.0310 0.0000 14.8994 0.0000
# 3 27.6902 19.0310 72.3532 0.0000 14.1542 0.0000
# 4 0.0000 0.0000 0.0000 13.8141 0.0000 7.7846
# 5 44.3249 14.8994 14.1542 0.0000 32.3897 0.0000
# 6 0.0000 0.0000 0.0000 7.7846 0.0000 22.1112
#
#
#
# Elastic Compliance Matrix: (Units=1/GPa)
#
#
# Indices 1 2 3 4 5 6 
#
# 1 0.019026 -0.006206 -0.001218 0.000000 -0.022650 0.000000
# 2 -0.006206 0.008864 -0.000897 0.000000 0.004807 0.000000
# 3 -0.001218 -0.000897 0.015436 0.000000 -0.004666 0.000000
# 4 0.000000 0.000000 0.000000 0.090307 0.000000 -0.031794
# 5 -0.022650 0.004807 -0.004666 0.000000 0.061698 0.000000
# 6 0.000000 0.000000 0.000000 -0.031794 0.000000 0.056420
#
#
# Mechanical properties :
#
#
# Convention : Reuss Voigt Hill
#
# Bulk Modulus (GPa) = 37.47498 65.59337 51.53418
# Shear Modulus (GPa) = 18.03189 29.74473 23.88831
#
# Velocity S-wave (km/s) = 2.91750 3.74710 3.35801
# Velocity P-wave (km/s) = 5.38876 7.04867 6.27385
#
# Compressibility (1/GPa) = 0.02668447
#
# Stress axis : x y z
#
# Youngs Moduli (GPa) = 52.55938 112.81909 64.78377
#
# Poissons Ratio (x) = 0.70011 0.07892
# Poissons Ratio (y) = 0.32616 0.05810
# Poissons Ratio (z) = 0.06403 0.10118
#
# Static dielectric constant tensor:
#      x y z
#    x 1.826220 0.000000 0.144290 
#    y 0.000000 1.765260 0.000000 
#    z 0.144290 0.000000 2.120950 
# 
# From -- ./inp_files/23644.got.cif
#   From: 2010.05.17/outbox.cif.g08.bks.cpg/sg12_12_cif.got.tgz:23644.got - 2010.06.03 13:09:07.
