data_PCOD9211513
_publ_section_title
;
Structure prediction by ZEFSAII (Michael W. Deem and Ramdas Pophale) SiO2 
 PCOD9211513
Probable space group: C 2/M
;
_chemical_formula_sum "Si O2"
_cell_formula_units_Z 52
_cell_length_a 9.404823
_cell_length_b 20.174304
_cell_length_c 16.476876
_cell_angle_alpha 90.000000
_cell_angle_beta 120.463204
_cell_angle_gamma 90.000000
_cell_volume 2694.688807
_symmetry_space_group_name_H-M "C 2/M"
_symmetry_group_IT_number 12
_symmetry_cell_setting 'monoclinic'
loop_
_space_group_symop_operation_xyz
x,y,z
-x,y,-z
-x,-y,-z
x,-y,z
1/2+x,1/2+y,z
1/2-x,1/2+y,-z
1/2-x,1/2-y,-z
1/2+x,1/2-y,z
loop_
_atom_site_type_symbol
_atom_site_label
_atom_site_fract_x
_atom_site_fract_y
_atom_site_fract_z
Si Si1 0.858139 0.645941 0.029108
Si Si2 0.491042 0.141525 0.404472
Si Si3 0.764106 0.748020 0.270032
Si Si4 0.450518 0.000000 0.389084
Si Si5 0.322410 0.631458 0.407180
Si Si6 0.450650 0.000000 0.081426
Si Si7 0.697973 0.000000 0.303872
Si Si8 0.098774 0.779616 0.857098
O O1 0.861159 0.571480 0.065841
O O2 0.894551 0.705583 0.102358
O O3 0.681444 0.667358 0.940908
O O4 0.000000 0.648541 0.000000
O O5 0.500000 0.163369 0.500000
O O6 0.411915 0.197107 0.326587
O O7 0.677689 0.126659 0.431927
O O8 0.382152 0.074508 0.363896
O O9 0.780814 0.804353 0.342177
O O10 0.788633 0.779911 0.189599
O O11 0.590288 0.710413 0.221649
O O12 0.500000 0.000000 0.500000
O O13 0.573244 0.000000 0.345782
O O14 0.500000 0.635590 0.500000
O O15 0.305247 0.566138 0.346524
O O16 0.597994 0.000000 0.190486
O O17 0.500000 0.000000 0.000000
#
# Coordination Sequence:
#
# PCOD9211513 Si02
#       8
#     8   8   8   4   8   4   4   8
#     4  10  21  40  63  91 124 158 205 262 319 370
#     4  10  22  39  60  86 123 162 203 257 309 362
#     4  12  23  38  61  91 123 164 212 249 309 373
#     4   8  18  39  62  85 115 162 208 246 306 374
#     4  11  24  39  62  93 126 164 212 260 308 370
#     4  10  22  37  66  96 127 157 209 266 318 375
#     4  10  21  40  66  90 125 166 207 261 320 368
#     4  11  23  39  62  89 124 165 207 253 313 382
#
# _framework density 19.297218999999998
#
# number of rings (size 3 to 8) (size 9 to 14) (size 15 to 20)
#    0.000    1.538    3.077    1.615    6.462    1.231 
#    0.000    0.769    0.000    0.923    0.000    0.000 
#    0.000    0.000    0.000    0.000    0.000    0.000 
#
# Total GULP energy -144845.726869 kJ/mol
# GULP energy per Si atom -5570.989495 kJ/mol
# Density = 1.925330 g / cm^3
# Si number density = 19.297219 Si / 1000 Ang^3
#
#
#
# Elastic Constant Matrix: (Units=GPa)
#
#
# Indices 1 2 3 4 5 6 
#
# 1 52.7440 6.3071 35.6357 0.0000 6.5790 0.0000
# 2 6.3071 74.8231 48.7856 0.0000 18.6199 0.0000
# 3 35.6357 48.7856 115.1747 0.0000 16.1000 0.0000
# 4 0.0000 0.0000 0.0000 -11.6687 0.0000 -1.4964
# 5 6.5790 18.6199 16.1000 0.0000 34.3936 0.0000
# 6 0.0000 0.0000 0.0000 -1.4964 0.0000 13.6966
#
#
#
# Elastic Compliance Matrix: (Units=1/GPa)
#
#
# Indices 1 2 3 4 5 6 
#
# 1 0.025078 0.004718 -0.009341 0.000000 -0.002979 0.000000
# 2 0.004718 0.020957 -0.009229 0.000000 -0.007928 0.000000
# 3 -0.009341 -0.009229 0.015551 0.000000 -0.000497 0.000000
# 4 0.000000 0.000000 0.000000 -0.084515 0.000000 -0.009234
# 5 -0.002979 -0.007928 -0.000497 0.000000 0.034170 0.000000
# 6 0.000000 0.000000 0.000000 -0.009234 0.000000 0.072002
#
#
# Mechanical properties :
#
#
# Convention : Reuss Voigt Hill
#
# Bulk Modulus (GPa) = 29.51353 47.13318 38.32336
# Shear Modulus (GPa) = 40.90265 17.41852 29.16058
#
# Velocity S-wave (km/s) = 4.60892 3.00766 3.89154
# Velocity P-wave (km/s) = 6.60683 6.04477 6.33204
#
# Compressibility (1/GPa) = 0.03388276
#
# Stress axis : x y z
#
# Youngs Moduli (GPa) = 39.87513 47.71613 64.30365
#
# Poissons Ratio (x) = -0.22513 0.60069
# Poissons Ratio (y) = -0.18813 0.59343
# Poissons Ratio (z) = 0.37249 0.44035
#
# Static dielectric constant tensor:
#      x y z
#    x 1.701680 0.000000 -0.009990 
#    y 0.000000 1.695280 0.000000 
#    z -0.009990 0.000000 1.683630 
# 
# From -- ./inp_files/197113.got.cif
#   From: 2010.05.17/outbox.cif.g08.bks.cpg/sg12_99_cif.got.tgz:197113.got - 2010.06.03 13:09:07.
