data_PCOD9211670
_publ_section_title
;
Structure prediction by ZEFSAII (Michael W. Deem and Ramdas Pophale) SiO2 
 PCOD9211670
Probable space group: C 2/M
;
_chemical_formula_sum "Si O2"
_cell_formula_units_Z 40
_cell_length_a 19.925573
_cell_length_b 10.524861
_cell_length_c 11.803044
_cell_angle_alpha 90.000000
_cell_angle_beta 127.497635
_cell_angle_gamma 90.000000
_cell_volume 1963.819751
_symmetry_space_group_name_H-M "C 2/M"
_symmetry_group_IT_number 12
_symmetry_cell_setting 'monoclinic'
loop_
_space_group_symop_operation_xyz
x,y,z
-x,y,-z
-x,-y,-z
x,-y,z
1/2+x,1/2+y,z
1/2-x,1/2+y,-z
1/2-x,1/2-y,-z
1/2+x,1/2-y,z
loop_
_atom_site_type_symbol
_atom_site_label
_atom_site_fract_x
_atom_site_fract_y
_atom_site_fract_z
Si Si1 0.561359 0.645452 0.388437
Si Si2 0.708711 0.249243 0.687844
Si Si3 0.117941 0.855965 0.190169
Si Si4 0.423528 0.857322 0.277379
Si Si5 0.135231 0.358437 0.040442
O O1 0.534294 0.500000 0.381047
O O2 0.649043 0.672905 0.542796
O O3 0.576820 0.662759 0.270148
O O4 0.493391 0.748182 0.359107
O O5 0.780475 0.168296 0.696534
O O6 0.648764 0.163920 0.704207
O O7 0.765733 0.338273 0.828014
O O8 0.092686 0.752528 0.070444
O O9 0.102724 0.000000 0.136300
O O10 0.459447 0.000000 0.323958
O O11 0.383404 0.845028 0.110871
O O12 0.109204 0.500000 0.049548
#
# Coordination Sequence:
#
# PCOD9211670 Si02
#       5
#     8   8   8   8   8
#     4  11  24  41  61  90 124 159 198 246 302 355
#     4  10  21  40  65  86 116 156 204 246 291 356
#     4   9  21  39  63  90 119 157 201 246 296 353
#     4  11  24  41  61  90 124 159 198 246 302 355
#     4   9  21  39  63  90 119 157 201 246 296 353
#
# _framework density 20.368469000000001
#
# number of rings (size 3 to 8) (size 9 to 14) (size 15 to 20)
#    1.200    0.800    0.000    3.000    0.000    7.200 
#    0.000    4.000    0.000    0.000    0.000    0.000 
#    0.000    0.000    0.000    0.000    0.000    0.000 
#
# Total GULP energy -111603.139097 kJ/mol
# GULP energy per Si atom -5580.156955 kJ/mol
# Density = 2.032211 g / cm^3
# Si number density = 20.368469 Si / 1000 Ang^3
#
#
#
# Elastic Constant Matrix: (Units=GPa)
#
#
# Indices 1 2 3 4 5 6 
#
# 1 84.1406 40.7946 1.7589 0.0000 2.6254 0.0000
# 2 40.7946 132.3127 22.9759 0.0000 -15.3515 0.0000
# 3 1.7589 22.9759 75.0454 0.0000 -4.0924 0.0000
# 4 0.0000 0.0000 0.0000 -7.2953 0.0000 -34.3955
# 5 2.6254 -15.3515 -4.0924 0.0000 28.8300 0.0000
# 6 0.0000 0.0000 0.0000 -34.3955 0.0000 -10.6577
#
#
#
# Elastic Compliance Matrix: (Units=1/GPa)
#
#
# Indices 1 2 3 4 5 6 
#
# 1 0.014447 -0.005079 0.001005 0.000000 -0.003877 0.000000
# 2 -0.005079 0.010236 -0.002713 0.000000 0.005528 0.000000
# 3 0.001005 -0.002713 0.014158 0.000000 0.000473 0.000000
# 4 0.000000 0.000000 0.000000 0.009642 0.000000 -0.031119
# 5 -0.003877 0.005528 0.000473 0.000000 0.038050 0.000000
# 6 0.000000 0.000000 0.000000 -0.031119 0.000000 0.006600
#
#
# Mechanical properties :
#
#
# Convention : Reuss Voigt Hill
#
# Bulk Modulus (GPa) = 39.57711 46.95083 43.26397
# Shear Modulus (GPa) = 43.42868 17.24002 30.33435
#
# Velocity S-wave (km/s) = 4.62253 2.91246 3.86331
# Velocity P-wave (km/s) = 6.92555 5.86606 6.41771
#
# Compressibility (1/GPa) = 0.02526713
#
# Stress axis : x y z
#
# Youngs Moduli (GPa) = 69.21764 97.69184 70.63010
#
# Poissons Ratio (x) = 0.49615 -0.07097
# Poissons Ratio (y) = 0.35154 0.19165
# Poissons Ratio (z) = -0.06955 0.26508
#
# Static dielectric constant tensor:
#      x y z
#    x 1.693990 0.000000 0.021990 
#    y 0.000000 1.712670 0.000000 
#    z 0.021990 0.000000 1.713360 
# 
# From -- ./inp_files/153889.got.cif
#   From: 2010.05.17/outbox.cif.g08.bks.cpg/sg12_77_cif.got.tgz:153889.got - 2010.06.03 13:09:07.
