data_PCOD9211652
_publ_section_title
;
Structure prediction by ZEFSAII (Michael W. Deem and Ramdas Pophale) SiO2 
 PCOD9211652
Probable space group: C 2/M
;
_chemical_formula_sum "Si O2"
_cell_formula_units_Z 58
_cell_length_a 12.447148
_cell_length_b 17.001644
_cell_length_c 28.639140
_cell_angle_alpha 90.000000
_cell_angle_beta 154.157831
_cell_angle_gamma 90.000000
_cell_volume 2641.807944
_symmetry_space_group_name_H-M "C 2/M"
_symmetry_group_IT_number 12
_symmetry_cell_setting 'monoclinic'
loop_
_space_group_symop_operation_xyz
x,y,z
-x,y,-z
-x,-y,-z
x,-y,z
1/2+x,1/2+y,z
1/2-x,1/2+y,-z
1/2-x,1/2-y,-z
1/2+x,1/2-y,z
loop_
_atom_site_type_symbol
_atom_site_label
_atom_site_fract_x
_atom_site_fract_y
_atom_site_fract_z
Si Si1 0.111750 0.590475 0.161645
Si Si2 0.263950 0.644683 0.463105
Si Si3 0.691023 0.844992 0.784777
Si Si4 0.778142 0.589905 0.110552
Si Si5 0.022636 0.687376 0.562058
Si Si6 0.500000 0.500000 0.500000
Si Si7 0.901894 0.182517 0.206256
Si Si8 0.661707 0.592515 0.912527
O O1 0.176875 0.500000 0.196094
O O2 0.341965 0.633474 0.229444
O O3 0.982865 0.627222 0.157053
O O4 0.898577 0.594670 0.038760
O O5 0.432078 0.722269 0.529043
O O6 0.405031 0.569410 0.499312
O O7 0.035861 0.662030 0.338888
O O8 0.142593 0.638081 0.466690
O O9 0.638415 0.910261 0.803511
O O10 0.709590 0.767026 0.823911
O O11 0.935529 0.868741 0.852533
O O12 0.752520 0.500000 0.082622
O O13 0.500000 0.622746 0.000000
O O14 0.307247 0.686995 0.687563
O O15 0.000000 0.660356 0.500000
O O16 0.799539 0.139673 0.120219
O O17 0.608689 0.500000 0.881987
#
# Coordination Sequence:
#
# PCOD9211652 Si02
#       8
#     8   8   8   8   8   2   8   8
#     4  10  23  45  67  98 143 191 229 285 347 413
#     4  11  25  45  77  99 145 179 240 301 367 421
#     4  12  24  40  69 105 133 185 233 293 338 424
#     4  10  21  40  64  94 139 184 224 278 347 408
#     4  11  23  50  70  99 139 196 224 292 376 435
#     4  12  24  48  70 120 126 172 244 320 330 428
#     4  12  25  40  69 103 135 179 241 284 342 421
#     4  11  24  45  71  98 144 192 234 281 350 421
#
# _framework density 21.954661999999999
#
# number of rings (size 3 to 8) (size 9 to 14) (size 15 to 20)
#    0.000    0.966    4.828    1.241    3.862    2.759 
#    3.724    0.345    0.000    0.000    0.000    0.000 
#    0.000    0.000    0.000    0.000    0.000    0.000 
#
# Total GULP energy -161875.031269 kJ/mol
# GULP energy per Si atom -5581.897630 kJ/mol
# Density = 2.190469 g / cm^3
# Si number density = 21.954662 Si / 1000 Ang^3
#
#
#
# Elastic Constant Matrix: (Units=GPa)
#
#
# Indices 1 2 3 4 5 6 
#
# 1 200.8404 57.5788 19.5108 -0.0024 2.3211 0.0008
# 2 57.5788 97.6206 5.6329 -0.0014 7.2735 0.0008
# 3 19.5108 5.6329 44.0254 -0.0058 5.0302 0.0031
# 4 -0.0024 -0.0014 -0.0058 -3.1985 0.0001 6.2040
# 5 2.3211 7.2735 5.0302 0.0001 36.9643 0.0003
# 6 0.0008 0.0008 0.0031 6.2040 0.0003 33.1813
#
#
#
# Elastic Compliance Matrix: (Units=1/GPa)
#
#
# Indices 1 2 3 4 5 6 
#
# 1 0.006230 -0.003585 -0.002375 0.000001 0.000637 0.000000
# 2 -0.003585 0.012513 0.000247 -0.000003 -0.002271 0.000000
# 3 -0.002375 0.000247 0.024098 -0.000034 -0.003179 0.000004
# 4 0.000001 -0.000003 -0.000034 -0.229436 0.000005 0.042899
# 5 0.000637 -0.002271 -0.003179 0.000005 0.027893 -0.000001
# 6 0.000000 0.000000 0.000004 0.042899 -0.000001 0.022117
#
#
# Mechanical properties :
#
#
# Convention : Reuss Voigt Hill
#
# Bulk Modulus (GPa) = 31.83126 56.43681 44.13404
# Shear Modulus (GPa) = -43.59688 30.70701 -6.44493
#
# Velocity S-wave (km/s) = -4.46103 3.74392 -1.71521
# Velocity P-wave (km/s) = 3.46472 6.66717 4.02783
#
# Compressibility (1/GPa) = 0.03141566
#
# Stress axis : x y z
#
# Youngs Moduli (GPa) = 160.50613 79.91497 41.49663
#
# Poissons Ratio (x) = 0.28651 0.09856
# Poissons Ratio (y) = 0.57545 -0.01026
# Poissons Ratio (z) = 0.38124 -0.01976
#
# Static dielectric constant tensor:
#      x y z
#    x 1.831560 0.000000 -0.007250 
#    y 0.000000 1.865100 0.000000 
#    z -0.007250 0.000000 1.826690 
# 
# From -- ./inp_files/358801.got.cif
#   From: 2010.05.17/outbox.cif.g08.bks.cpg/sg12_180_cif.got.tgz:358801.got - 2010.06.03 13:09:07.
