data_PCOD9211337
_publ_section_title
;
Structure prediction by ZEFSAII (Michael W. Deem and Ramdas Pophale) SiO2 
 PCOD9211337
Probable space group: C 2/M
;
_chemical_formula_sum "Si O2"
_cell_formula_units_Z 44
_cell_length_a 10.214268
_cell_length_b 22.955057
_cell_length_c 10.076245
_cell_angle_alpha 90.000000
_cell_angle_beta 94.168991
_cell_angle_gamma 90.000000
_cell_volume 2356.316708
_symmetry_space_group_name_H-M "C 2/M"
_symmetry_group_IT_number 12
_symmetry_cell_setting 'monoclinic'
loop_
_space_group_symop_operation_xyz
x,y,z
-x,y,-z
-x,-y,-z
x,-y,z
1/2+x,1/2+y,z
1/2-x,1/2+y,-z
1/2-x,1/2-y,-z
1/2+x,1/2-y,z
loop_
_atom_site_type_symbol
_atom_site_label
_atom_site_fract_x
_atom_site_fract_y
_atom_site_fract_z
Si Si1 0.882690 0.000000 0.805144
Si Si2 0.810772 0.624025 0.876308
Si Si3 0.915616 0.664971 0.167493
Si Si4 0.670962 0.627524 0.297660
Si Si5 0.814576 0.000000 0.111964
Si Si6 0.563802 0.296428 0.788182
Si Si7 0.000000 0.821284 0.500000
O O1 0.834105 0.940385 0.735851
O O2 0.040930 0.000000 0.813800
O O3 0.837874 0.000000 0.955026
O O4 0.762303 0.558316 0.856748
O O5 0.691595 0.666760 0.832370
O O6 0.940647 0.638263 0.802009
O O7 0.852635 0.636016 0.031684
O O8 0.812959 0.653153 0.276931
O O9 0.933766 0.733815 0.144894
O O10 0.565283 0.663414 0.197649
O O11 0.613543 0.640257 0.439534
O O12 0.556783 0.286099 0.628305
#
# Coordination Sequence:
#
# PCOD9211337 Si02
#       7
#     4   8   8   8   4   8   4
#     4  11  20  36  66  88 113 160 204 250 288 356
#     4  11  23  38  59  93 126 159 188 249 309 353
#     4  11  23  37  58  91 128 154 194 246 306 360
#     4  10  21  40  61  90 112 158 206 246 290 349
#     4  11  20  38  61  87 123 156 203 236 299 371
#     4  10  21  42  61  88 120 162 202 245 295 357
#     4   8  22  41  62  88 112 159 216 246 286 342
#
# _framework density 18.673210999999998
#
# number of rings (size 3 to 8) (size 9 to 14) (size 15 to 20)
#    1.091    0.545    3.636    1.636    0.000    5.455 
#    0.000    0.000    0.000    0.000    0.000    3.818 
#    0.000    0.000    0.000    0.000    0.000    0.000 
#
# Total GULP energy -122676.527770 kJ/mol
# GULP energy per Si atom -5576.205808 kJ/mol
# Density = 1.863071 g / cm^3
# Si number density = 18.673211 Si / 1000 Ang^3
#
#
#
# Elastic Constant Matrix: (Units=GPa)
#
#
# Indices 1 2 3 4 5 6 
#
# 1 152.5186 63.9642 6.0700 0.0000 -9.1280 0.0000
# 2 63.9642 142.9763 3.4215 0.0000 10.2460 0.0000
# 3 6.0700 3.4215 15.5318 0.0000 -2.9315 0.0000
# 4 0.0000 0.0000 0.0000 5.0230 0.0000 10.7598
# 5 -9.1280 10.2460 -2.9315 0.0000 28.3026 0.0000
# 6 0.0000 0.0000 0.0000 10.7598 0.0000 17.4519
#
#
#
# Elastic Compliance Matrix: (Units=1/GPa)
#
#
# Indices 1 2 3 4 5 6 
#
# 1 0.008584 -0.004092 -0.001684 0.000000 0.004075 0.000000
# 2 -0.004092 0.009200 -0.001331 0.000000 -0.004788 0.000000
# 3 -0.001684 -0.001331 0.066626 0.000000 0.006840 0.000000
# 4 0.000000 0.000000 0.000000 -0.620752 0.000000 0.382721
# 5 0.004075 -0.004788 0.006840 0.000000 0.039089 0.000000
# 6 0.000000 0.000000 0.000000 0.382721 0.000000 -0.178663
#
#
# Mechanical properties :
#
#
# Convention : Reuss Voigt Hill
#
# Bulk Modulus (GPa) = 14.24590 50.88200 32.56395
# Shear Modulus (GPa) = -7.83324 25.99356 9.08016
#
# Velocity S-wave (km/s) = -2.05037 3.73503 2.20754
# Velocity P-wave (km/s) = 1.42838 6.77558 4.89636
#
# Compressibility (1/GPa) = 0.07019563
#
# Stress axis : x y z
#
# Youngs Moduli (GPa) = 116.50196 108.69892 15.00908
#
# Poissons Ratio (x) = 0.44478 0.02528
# Poissons Ratio (y) = 0.47670 0.01998
# Poissons Ratio (z) = 0.19619 0.14469
#
# Static dielectric constant tensor:
#      x y z
#    x 1.651220 0.000000 -0.022400 
#    y 0.000000 1.612340 0.000000 
#    z -0.022400 0.000000 1.653780 
# 
# From -- ./inp_files/122151.got.cif
#   From: 2010.05.17/outbox.cif.g08.bks.cpg/sg12_62_cif.got.tgz:122151.got - 2010.06.03 13:09:07.
