data_PCOD9211302
_publ_section_title
;
Structure prediction by ZEFSAII (Michael W. Deem and Ramdas Pophale) SiO2 
 PCOD9211302
Probable space group: C 2/M
;
_chemical_formula_sum "Si O2"
_cell_formula_units_Z 60
_cell_length_a 19.657539
_cell_length_b 24.157776
_cell_length_c 17.286290
_cell_angle_alpha 90.000000
_cell_angle_beta 158.443606
_cell_angle_gamma 90.000000
_cell_volume 3016.108273
_symmetry_space_group_name_H-M "C 2/M"
_symmetry_group_IT_number 12
_symmetry_cell_setting 'monoclinic'
loop_
_space_group_symop_operation_xyz
x,y,z
-x,y,-z
-x,-y,-z
x,-y,z
1/2+x,1/2+y,z
1/2-x,1/2+y,-z
1/2-x,1/2-y,-z
1/2+x,1/2-y,z
loop_
_atom_site_type_symbol
_atom_site_label
_atom_site_fract_x
_atom_site_fract_y
_atom_site_fract_z
Si Si1 0.873428 0.564816 0.611524
Si Si2 0.156183 0.107472 0.519446
Si Si3 0.500000 0.706392 0.000000
Si Si4 0.723077 0.561046 0.916180
Si Si5 0.696887 0.907853 0.167708
Si Si6 0.684019 0.674046 0.348847
Si Si7 0.052695 0.778961 0.365504
Si Si8 0.307642 0.284056 0.248219
O O1 0.845474 0.500000 0.560773
O O2 0.803606 0.574305 0.625449
O O3 0.761252 0.613028 0.449549
O O4 0.092674 0.577247 0.843190
O O5 0.159283 0.085640 0.609691
O O6 0.185130 0.173691 0.546039
O O7 0.955692 0.099062 0.269557
O O8 0.592472 0.673711 0.168256
O O9 0.659921 0.742562 0.128119
O O10 0.665840 0.500000 0.881939
O O11 0.775543 0.558846 0.881052
O O12 0.720462 0.844585 0.165434
O O13 0.500000 0.916635 0.000000
O O14 0.849022 0.719516 0.526218
O O15 0.549048 0.698717 0.273508
O O16 0.869277 0.776488 0.224020
O O17 0.500000 0.280722 0.500000
#
# Coordination Sequence:
#
# PCOD9211302 Si02
#       8
#     8   8   4   8   8   8   8   8
#     4  10  23  43  61  80 117 161 204 265 320 361
#     4  11  20  37  57  86 123 163 209 246 297 367
#     4  12  24  40  65  94 125 160 202 262 318 380
#     4  11  23  36  55  81 114 165 219 258 297 350
#     4  12  21  33  56  87 126 174 211 245 291 359
#     4  10  23  42  64  96 126 157 212 255 308 385
#     4  10  21  40  60  93 131 163 196 249 302 369
#     4  12  21  37  61  91 132 172 197 239 309 371
#
# _framework density 19.893184999999999
#
# number of rings (size 3 to 8) (size 9 to 14) (size 15 to 20)
#    0.000    1.067    6.000    0.800    0.000    3.467 
#    4.800    0.333    0.000    0.000    0.000    1.867 
#    0.000    0.000    0.000    0.000    0.000    0.000 
#
# Total GULP energy -167436.269007 kJ/mol
# GULP energy per Si atom -5581.208967 kJ/mol
# Density = 1.984791 g / cm^3
# Si number density = 19.893185 Si / 1000 Ang^3
#
#
#
# Elastic Constant Matrix: (Units=GPa)
#
#
# Indices 1 2 3 4 5 6 
#
# 1 77.6730 13.6264 23.2460 0.0000 -8.5452 0.0000
# 2 13.6264 99.4265 40.0051 0.0000 -11.4224 0.0000
# 3 23.2460 40.0051 51.5646 0.0001 -10.1565 0.0001
# 4 0.0000 0.0000 0.0001 16.2483 0.0000 5.0779
# 5 -8.5452 -11.4224 -10.1565 0.0000 38.5286 0.0000
# 6 0.0000 0.0000 0.0001 5.0779 0.0000 12.2937
#
#
#
# Elastic Compliance Matrix: (Units=1/GPa)
#
#
# Indices 1 2 3 4 5 6 
#
# 1 0.015055 0.001060 -0.007267 0.000000 0.001738 0.000000
# 2 0.001060 0.014771 -0.011633 0.000000 0.001548 0.000000
# 3 -0.007267 -0.011633 0.032379 0.000000 0.003475 0.000000
# 4 0.000000 0.000000 0.000000 0.070667 0.000000 -0.029189
# 5 0.001738 0.001548 0.003475 0.000000 0.027715 0.000000
# 6 0.000000 0.000000 0.000000 -0.029189 0.000000 0.093399
#
#
# Mechanical properties :
#
#
# Convention : Reuss Voigt Hill
#
# Bulk Modulus (GPa) = 37.70041 42.49101 40.09571
# Shear Modulus (GPa) = 16.75011 23.53323 20.14167
#
# Velocity S-wave (km/s) = 2.90488 3.44318 3.18542
# Velocity P-wave (km/s) = 5.49942 6.10027 5.80762
#
# Compressibility (1/GPa) = 0.02652491
#
# Stress axis : x y z
#
# Youngs Moduli (GPa) = 66.42509 67.70183 30.88456
#
# Poissons Ratio (x) = -0.07179 0.22445
# Poissons Ratio (y) = -0.07044 0.35927
# Poissons Ratio (z) = 0.48273 0.78755
#
# Static dielectric constant tensor:
#      x y z
#    x 1.729330 0.000000 -0.002990 
#    y 0.000000 1.696940 0.000000 
#    z -0.002990 0.000000 1.739470 
# 
# From -- ./inp_files/286480.got.cif
#   From: 2010.05.17/outbox.cif.g08.bks.cpg/sg12_144_cif.got.tgz:286480.got - 2010.06.03 13:09:07.
