data_PCOD9211550
_publ_section_title
;
Structure prediction by ZEFSAII (Michael W. Deem and Ramdas Pophale) SiO2 
 PCOD9211550
Probable space group: C 2/M
;
_chemical_formula_sum "Si O2"
_cell_formula_units_Z 48
_cell_length_a 19.243985
_cell_length_b 15.154542
_cell_length_c 17.138968
_cell_angle_alpha 90.000000
_cell_angle_beta 153.027992
_cell_angle_gamma 90.000000
_cell_volume 2267.005576
_symmetry_space_group_name_H-M "C 2/M"
_symmetry_group_IT_number 12
_symmetry_cell_setting 'monoclinic'
loop_
_space_group_symop_operation_xyz
x,y,z
-x,y,-z
-x,-y,-z
x,-y,z
1/2+x,1/2+y,z
1/2-x,1/2+y,-z
1/2-x,1/2-y,-z
1/2+x,1/2-y,z
loop_
_atom_site_type_symbol
_atom_site_label
_atom_site_fract_x
_atom_site_fract_y
_atom_site_fract_z
Si Si1 0.788852 0.669599 0.100496
Si Si2 0.534639 0.404929 0.764695
Si Si3 0.570069 0.893056 0.482433
Si Si4 0.587913 0.774083 0.011678
Si Si5 0.123884 0.106642 0.689214
Si Si6 0.172975 0.216018 0.343616
O O1 0.695062 0.699120 0.082790
O O2 0.950393 0.638241 0.295201
O O3 0.750000 0.750000 0.000000
O O4 0.704507 0.592359 0.969812
O O5 0.467974 0.500000 0.681592
O O6 0.551444 0.358761 0.697995
O O7 0.435037 0.359703 0.730046
O O8 0.500000 0.878710 0.500000
O O9 0.714976 0.829567 0.607347
O O10 0.599603 0.000000 0.505491
O O11 0.706787 0.852703 0.148374
O O12 0.500000 0.744603 0.000000
O O13 0.445815 0.788424 0.809776
O O14 0.000000 0.130829 0.500000
O O15 0.136075 0.000000 0.703870
O O16 0.250000 0.250000 0.500000
#
# Coordination Sequence:
#
# PCOD9211550 Si02
#       6
#     8   8   8   8   8   8
#     4  11  21  41  62  94 127 168 216 269 319 391
#     4  10  21  40  64  87 123 169 210 261 321 379
#     4  11  24  43  69  98 132 177 225 276 334 398
#     4  11  24  39  63  92 127 169 211 264 325 381
#     4  10  23  42  64  92 128 172 218 262 320 387
#     4  11  25  41  61  99 131 168 215 274 324 392
#
# _framework density 21.173306
#
# number of rings (size 3 to 8) (size 9 to 14) (size 15 to 20)
#    0.000    1.333    1.667    4.000    2.333    1.000 
#    0.000    0.833    0.000    8.000    0.000    0.000 
#    0.000    0.000    0.000    0.000    0.000    0.000 
#
# Total GULP energy -133643.576391 kJ/mol
# GULP energy per Si atom -5568.482350 kJ/mol
# Density = 2.112511 g / cm^3
# Si number density = 21.173306 Si / 1000 Ang^3
#
#
#
# Elastic Constant Matrix: (Units=GPa)
#
#
# Indices 1 2 3 4 5 6 
#
# 1 123.6758 24.7095 31.1539 -0.0001 3.0789 0.0000
# 2 24.7095 79.0797 33.3161 -0.0006 4.9277 -0.0003
# 3 31.1539 33.3161 151.3817 -0.0010 -4.6748 -0.0006
# 4 -0.0001 -0.0006 -0.0010 27.9215 -0.0009 0.8575
# 5 3.0789 4.9277 -4.6748 -0.0009 31.0243 -0.0005
# 6 0.0000 -0.0003 -0.0006 0.8575 -0.0005 21.6171
#
#
#
# Elastic Compliance Matrix: (Units=1/GPa)
#
#
# Indices 1 2 3 4 5 6 
#
# 1 0.008880 -0.002148 -0.001378 0.000000 -0.000748 0.000000
# 2 -0.002148 0.014684 -0.002868 0.000000 -0.002551 0.000000
# 3 -0.001378 -0.002868 0.007574 0.000000 0.001734 0.000000
# 4 0.000000 0.000000 0.000000 0.035858 0.000001 -0.001422
# 5 -0.000748 -0.002551 0.001734 0.000001 0.032973 0.000001
# 6 0.000000 0.000000 0.000000 -0.001422 0.000001 0.046316
#
#
# Mechanical properties :
#
#
# Convention : Reuss Voigt Hill
#
# Bulk Modulus (GPa) = 54.49464 59.16626 56.83045
# Shear Modulus (GPa) = 30.26786 33.77643 32.02215
#
# Velocity S-wave (km/s) = 3.78501 3.99837 3.89316
# Velocity P-wave (km/s) = 6.70038 7.02285 6.86351
#
# Compressibility (1/GPa) = 0.01835043
#
# Stress axis : x y z
#
# Youngs Moduli (GPa) = 112.60652 68.10130 132.02650
#
# Poissons Ratio (x) = 0.14626 0.18193
# Poissons Ratio (y) = 0.24184 0.37871
# Poissons Ratio (z) = 0.15517 0.19535
#
# Static dielectric constant tensor:
#      x y z
#    x 1.801440 0.000000 0.021870 
#    y 0.000000 1.838860 0.000000 
#    z 0.021870 0.000000 1.883450 
# 
# From -- ./inp_files/226945.got.cif
#   From: 2010.05.17/outbox.cif.g08.bks.cpg/sg12_114_cif.got.tgz:226945.got - 2010.06.03 13:09:07.
