data_PCOD9211733
_publ_section_title
;
Structure prediction by ZEFSAII (Michael W. Deem and Ramdas Pophale) SiO2 
 PCOD9211733
Probable space group: C 2/M
;
_chemical_formula_sum "Si O2"
_cell_formula_units_Z 56
_cell_length_a 15.386138
_cell_length_b 27.129026
_cell_length_c 8.526064
_cell_angle_alpha 90.000000
_cell_angle_beta 41.330774
_cell_angle_gamma 90.000000
_cell_volume 2350.297401
_symmetry_space_group_name_H-M "C 2/M"
_symmetry_group_IT_number 12
_symmetry_cell_setting 'monoclinic'
loop_
_space_group_symop_operation_xyz
x,y,z
-x,y,-z
-x,-y,-z
x,-y,z
1/2+x,1/2+y,z
1/2-x,1/2+y,-z
1/2-x,1/2-y,-z
1/2+x,1/2-y,z
loop_
_atom_site_type_symbol
_atom_site_label
_atom_site_fract_x
_atom_site_fract_y
_atom_site_fract_z
Si Si1 0.084268 0.761517 0.535682
Si Si2 0.356591 0.629350 0.488731
Si Si3 0.693582 0.622056 0.793312
Si Si4 0.928542 0.554691 0.429133
Si Si5 0.676680 0.724813 0.949866
Si Si6 0.182282 0.555605 0.879817
Si Si7 0.913309 0.944443 0.820875
O O1 0.120250 0.818814 0.461489
O O2 0.228749 0.736870 0.328131
O O3 0.000000 0.743062 0.500000
O O4 0.976848 0.758969 0.822804
O O5 0.365668 0.638678 0.290731
O O6 0.223895 0.600091 0.711357
O O7 0.469372 0.591338 0.381753
O O8 0.838753 0.602729 0.559821
O O9 0.680329 0.665232 0.939845
O O10 0.627133 0.573260 0.952343
O O11 0.864265 0.500000 0.497313
O O12 0.000000 0.552686 0.500000
O O13 0.037383 0.559455 0.146761
O O14 0.750000 0.750000 0.000000
O O15 0.198245 0.500000 0.792107
O O16 0.283836 0.559411 0.888893
O O17 0.960744 0.000000 0.749598
#
# Coordination Sequence:
#
# PCOD9211733 Si02
#       7
#     8   8   8   8   8   8   8
#     4  10  22  43  69  94 130 173 229 280 345 410
#     4  12  25  39  63  99 139 175 210 280 345 404
#     4  12  25  41  65  98 134 170 222 278 343 403
#     4  10  21  40  65  92 130 179 228 278 327 398
#     4  10  24  44  67  96 123 171 228 288 344 411
#     4  10  22  40  64  96 135 183 232 272 324 401
#     4  11  22  40  67  97 135 182 225 264 323 407
#
# _framework density 23.826772999999999
#
# number of rings (size 3 to 8) (size 9 to 14) (size 15 to 20)
#    0.000    1.286    2.857    2.571    2.000    8.000 
#    0.000    1.429    0.000    0.000    0.000    0.000 
#    0.000    0.000    0.000    0.000    0.000    0.000 
#
# Total GULP energy -156415.495837 kJ/mol
# GULP energy per Si atom -5586.267708 kJ/mol
# Density = 2.377254 g / cm^3
# Si number density = 23.826773 Si / 1000 Ang^3
#
#
#
# Elastic Constant Matrix: (Units=GPa)
#
#
# Indices 1 2 3 4 5 6 
#
# 1 60.5773 18.3349 10.3762 0.0000 6.9790 0.0000
# 2 18.3349 79.8418 23.7651 0.0000 -13.6535 0.0000
# 3 10.3762 23.7651 145.9501 0.0000 -23.9605 0.0000
# 4 0.0000 0.0000 0.0000 48.1516 0.0000 -14.5521
# 5 6.9790 -13.6535 -23.9605 0.0000 37.8971 0.0000
# 6 0.0000 0.0000 0.0000 -14.5521 0.0000 -40.0907
#
#
#
# Elastic Compliance Matrix: (Units=1/GPa)
#
#
# Indices 1 2 3 4 5 6 
#
# 1 0.019006 -0.004971 -0.001574 0.000000 -0.006286 0.000000
# 2 -0.004971 0.014967 -0.001169 0.000000 0.005568 0.000000
# 3 -0.001574 -0.001169 0.007958 0.000000 0.004900 0.000000
# 4 0.000000 0.000000 0.000000 0.018715 0.000000 -0.006793
# 5 -0.006286 0.005568 0.004900 0.000000 0.032649 0.000000
# 6 0.000000 0.000000 0.000000 -0.006793 0.000000 -0.022478
#
#
# Mechanical properties :
#
#
# Convention : Reuss Voigt Hill
#
# Bulk Modulus (GPa) = 37.73222 43.48017 40.60620
# Shear Modulus (GPa) = 52.58707 24.78448 38.68578
#
# Velocity S-wave (km/s) = 4.70303 3.22870 4.03380
# Velocity P-wave (km/s) = 6.73511 5.67340 6.22693
#
# Compressibility (1/GPa) = 0.02650255
#
# Stress axis : x y z
#
# Youngs Moduli (GPa) = 52.61440 66.81527 125.65297
#
# Poissons Ratio (x) = 0.33215 0.19775
# Poissons Ratio (y) = 0.26155 0.14695
# Poissons Ratio (z) = 0.08280 0.07814
#
# Static dielectric constant tensor:
#      x y z
#    x 1.938000 0.000000 -0.011280 
#    y 0.000000 1.851770 0.000000 
#    z -0.011280 0.000000 2.006080 
# 
# From -- ./inp_files/79996.got.cif
#   From: 2010.05.17/outbox.cif.g08.bks.cpg/sg12_40_cif.got.tgz:79996.got - 2010.06.03 13:09:07.
