data_PCOD9211304
_publ_section_title
;
Structure prediction by ZEFSAII (Michael W. Deem and Ramdas Pophale) SiO2 
 PCOD9211304
Probable space group: C 2/M
;
_chemical_formula_sum "Si O2"
_cell_formula_units_Z 38
_cell_length_a 13.417829
_cell_length_b 24.768514
_cell_length_c 5.139830
_cell_angle_alpha 90.000000
_cell_angle_beta 96.032056
_cell_angle_gamma 90.000000
_cell_volume 1698.711791
_symmetry_space_group_name_H-M "C 2/M"
_symmetry_group_IT_number 12
_symmetry_cell_setting 'monoclinic'
loop_
_space_group_symop_operation_xyz
x,y,z
-x,y,-z
-x,-y,-z
x,-y,z
1/2+x,1/2+y,z
1/2-x,1/2+y,-z
1/2-x,1/2-y,-z
1/2+x,1/2-y,z
loop_
_atom_site_type_symbol
_atom_site_label
_atom_site_fract_x
_atom_site_fract_y
_atom_site_fract_z
Si Si1 0.264140 0.086683 0.801072
Si Si2 0.709417 0.207193 0.196380
Si Si3 0.899715 0.202171 0.634939
Si Si4 0.000000 0.000000 0.500000
Si Si5 0.871078 0.914265 0.756105
Si Si6 0.430332 0.000000 0.733579
O O1 0.302699 0.145946 0.894862
O O2 0.194114 0.086448 0.527236
O O3 0.357192 0.050817 0.742221
O O4 0.196783 0.065764 0.022937
O O5 0.797585 0.201624 0.435904
O O6 0.608069 0.237501 0.253431
O O7 0.750000 0.250000 0.000000
O O8 0.896348 0.149024 0.815744
O O9 0.000000 0.196142 0.500000
O O10 0.961981 0.952471 0.697329
O O11 0.500000 0.000000 0.500000
O O12 0.500000 0.000000 0.000000
#
# Coordination Sequence:
#
# PCOD9211304 Si02
#       6
#     8   8   8   2   8   4
#     4  11  24  45  68  92 133 172 211 273 331 379
#     4  10  21  40  65  90 130 173 210 259 339 386
#     4  10  21  40  60  96 132 169 215 273 317 394
#     4  12  24  40  64 102 128 170 224 246 320 402
#     4  11  23  40  66  95 134 173 210 263 328 386
#     4  12  26  47  70  97 126 169 232 277 320 382
#
# _framework density 22.369895
#
# number of rings (size 3 to 8) (size 9 to 14) (size 15 to 20)
#    0.000    1.263    3.158    2.526    0.000    3.368 
#    3.789    0.000    0.000    0.000    0.000    0.000 
#    0.000    0.000    0.000    0.000    0.000    0.000 
#
# Total GULP energy -105820.200433 kJ/mol
# GULP energy per Si atom -5569.484233 kJ/mol
# Density = 2.231898 g / cm^3
# Si number density = 22.369895 Si / 1000 Ang^3
#
#
#
# Elastic Constant Matrix: (Units=GPa)
#
#
# Indices 1 2 3 4 5 6 
#
# 1 80.5407 49.0057 34.1774 0.0000 -34.1068 0.0000
# 2 49.0057 163.2407 27.9858 0.0000 -28.4011 0.0000
# 3 34.1774 27.9858 126.0406 0.0000 -33.2013 0.0000
# 4 0.0000 0.0000 0.0000 21.5347 0.0000 -23.4331
# 5 -34.1068 -28.4011 -33.2013 0.0000 57.3306 0.0000
# 6 0.0000 0.0000 0.0000 -23.4331 0.0000 -0.7376
#
#
#
# Elastic Compliance Matrix: (Units=1/GPa)
#
#
# Indices 1 2 3 4 5 6 
#
# 1 0.019234 -0.003972 -0.002168 0.000000 0.008219 0.000000
# 2 -0.003972 0.007581 -0.000282 0.000000 0.001229 0.000000
# 3 -0.002168 -0.000282 0.009686 0.000000 0.004179 0.000000
# 4 0.000000 0.000000 0.000000 0.001305 0.000000 -0.041475
# 5 0.008219 0.001229 0.004179 0.000000 0.025361 0.000000
# 6 0.000000 0.000000 0.000000 -0.041475 0.000000 -0.038115
#
#
# Mechanical properties :
#
#
# Convention : Reuss Voigt Hill
#
# Bulk Modulus (GPa) = 42.27729 65.79553 54.03641
# Shear Modulus (GPa) = 109.21253 32.86908 71.04080
#
# Velocity S-wave (km/s) = 6.99480 3.83736 5.64148
# Velocity P-wave (km/s) = 9.17477 7.00787 8.16354
#
# Compressibility (1/GPa) = 0.02365336
#
# Stress axis : x y z
#
# Youngs Moduli (GPa) = 51.99202 131.91532 103.24696
#
# Poissons Ratio (x) = 0.52402 0.22389
# Poissons Ratio (y) = 0.20653 0.02916
# Poissons Ratio (z) = 0.11274 0.03725
#
# Static dielectric constant tensor:
#      x y z
#    x 1.581840 0.000000 -0.188420 
#    y 0.000000 1.932920 0.000000 
#    z -0.188420 0.000000 1.763070 
# 
# From -- ./inp_files/7643.got.cif
#   From: 2010.05.17/outbox.cif.g08.bks.cpg/sg12_4_cif.got.tgz:7643.got - 2010.06.03 13:09:07.
