data_PCOD9211283
_publ_section_title
;
Structure prediction by ZEFSAII (Michael W. Deem and Ramdas Pophale) SiO2 
 PCOD9211283
Probable space group: C 2/M
;
_chemical_formula_sum "Si O2"
_cell_formula_units_Z 40
_cell_length_a 14.390189
_cell_length_b 29.925635
_cell_length_c 8.273522
_cell_angle_alpha 90.000000
_cell_angle_beta 35.220409
_cell_angle_gamma 90.000000
_cell_volume 2054.791847
_symmetry_space_group_name_H-M "C 2/M"
_symmetry_group_IT_number 12
_symmetry_cell_setting 'monoclinic'
loop_
_space_group_symop_operation_xyz
x,y,z
-x,y,-z
-x,-y,-z
x,-y,z
1/2+x,1/2+y,z
1/2-x,1/2+y,-z
1/2-x,1/2-y,-z
1/2+x,1/2-y,z
loop_
_atom_site_type_symbol
_atom_site_label
_atom_site_fract_x
_atom_site_fract_y
_atom_site_fract_z
Si Si1 0.000000 0.419326 0.000000
Si Si2 0.634981 0.197212 0.420629
Si Si3 0.981570 0.219660 0.830619
Si Si4 0.277785 0.500000 0.135620
Si Si5 0.000000 0.930718 0.000000
Si Si6 0.539696 0.000000 0.194345
Si Si7 0.714355 0.360877 0.509721
O O1 0.847199 0.385967 0.215203
O O2 0.019840 0.454543 0.118823
O O3 0.500000 0.176007 0.500000
O O4 0.552418 0.239390 0.628202
O O5 0.693552 0.164149 0.476004
O O6 0.790604 0.211067 0.092877
O O7 0.089447 0.176870 0.625814
O O8 0.000000 0.227088 0.000000
O O9 0.387576 0.459085 0.039687
O O10 0.208820 0.500000 0.051786
O O11 0.114545 0.500000 0.470714
O O12 0.890083 0.899799 0.265111
#
# Coordination Sequence:
#
# PCOD9211283 Si02
#       7
#     4   8   8   4   4   4   8
#     4  11  24  40  65  90 128 154 201 260 302 353
#     4  11  23  38  61  89 123 157 206 253 299 353
#     4  10  21  40  60  85 120 163 201 243 303 363
#     4  10  22  39  72  87 122 159 199 242 312 374
#     4  11  20  42  63  92 118 164 195 250 304 365
#     4  10  22  43  62  97 118 159 199 246 306 374
#     4  11  22  39  62  86 122 162 204 242 302 363
#
# _framework density 19.46669
#
# number of rings (size 3 to 8) (size 9 to 14) (size 15 to 20)
#    0.000    1.400    5.000    3.000    4.200    1.600 
#    0.000    2.000    0.000    0.000    0.000    0.000 
#    0.000    0.000    0.000    0.000    0.000    0.000 
#
# Total GULP energy -111531.512004 kJ/mol
# GULP energy per Si atom -5576.575600 kJ/mol
# Density = 1.942238 g / cm^3
# Si number density = 19.466690 Si / 1000 Ang^3
#
#
#
# Elastic Constant Matrix: (Units=GPa)
#
#
# Indices 1 2 3 4 5 6 
#
# 1 61.0141 15.3246 7.5277 0.0000 -25.6252 0.0000
# 2 15.3246 84.9994 30.0157 0.0000 -4.2395 0.0000
# 3 7.5277 30.0157 103.7696 0.0000 -17.9156 0.0000
# 4 0.0000 0.0000 0.0000 46.7474 0.0000 -0.1256
# 5 -25.6252 -4.2395 -17.9156 0.0000 29.9804 0.0000
# 6 0.0000 0.0000 0.0000 -0.1256 0.0000 11.5707
#
#
#
# Elastic Compliance Matrix: (Units=1/GPa)
#
#
# Indices 1 2 3 4 5 6 
#
# 1 0.027862 -0.005113 0.003841 0.000000 0.025387 0.000000
# 2 -0.005113 0.014047 -0.004576 0.000000 -0.005119 0.000000
# 3 0.003841 -0.004576 0.012418 0.000000 0.010057 0.000000
# 4 0.000000 0.000000 0.000000 0.021392 0.000000 0.000232
# 5 0.025387 -0.005119 0.010057 0.000000 0.060340 0.000000
# 6 0.000000 0.000000 0.000000 0.000232 0.000000 0.086428
#
#
# Mechanical properties :
#
#
# Convention : Reuss Voigt Hill
#
# Bulk Modulus (GPa) = 23.45744 39.50214 31.47979
# Shear Modulus (GPa) = 20.12925 30.78738 25.45831
#
# Velocity S-wave (km/s) = 3.21913 3.98117 3.62026
# Velocity P-wave (km/s) = 5.08854 6.43966 5.80355
#
# Compressibility (1/GPa) = 0.04263040
#
# Stress axis : x y z
#
# Youngs Moduli (GPa) = 35.89079 71.18798 80.52843
#
# Poissons Ratio (x) = 0.36402 -0.30930
# Poissons Ratio (y) = 0.18353 0.36850
# Poissons Ratio (z) = -0.13785 0.32576
#
# Static dielectric constant tensor:
#      x y z
#    x 1.707680 0.000000 -0.011020 
#    y 0.000000 1.664940 0.000000 
#    z -0.011020 0.000000 1.673370 
# 
# From -- ./inp_files/68508.got.cif
#   From: 2010.05.17/outbox.cif.g08.bks.cpg/sg12_35_cif.got.tgz:68508.got - 2010.06.03 13:09:07.
