data_PCOD9211848
_publ_section_title
;
Structure prediction by ZEFSAII (Michael W. Deem and Ramdas Pophale) SiO2 
 PCOD9211848
Probable space group: C 2/M
;
_chemical_formula_sum "Si O2"
_cell_formula_units_Z 48
_cell_length_a 23.209103
_cell_length_b 19.085226
_cell_length_c 4.820467
_cell_angle_alpha 90.000000
_cell_angle_beta 92.551431
_cell_angle_gamma 90.000000
_cell_volume 2133.113833
_symmetry_space_group_name_H-M "C 2/M"
_symmetry_group_IT_number 12
_symmetry_cell_setting 'monoclinic'
loop_
_space_group_symop_operation_xyz
x,y,z
-x,y,-z
-x,-y,-z
x,-y,z
1/2+x,1/2+y,z
1/2-x,1/2+y,-z
1/2-x,1/2-y,-z
1/2+x,1/2-y,z
loop_
_atom_site_type_symbol
_atom_site_label
_atom_site_fract_x
_atom_site_fract_y
_atom_site_fract_z
Si Si1 0.782382 0.190750 0.321723
Si Si2 0.894652 0.421359 0.374719
Si Si3 0.812730 0.419988 0.866224
Si Si4 0.957982 0.077006 0.737380
Si Si5 0.635377 0.309064 0.174459
Si Si6 0.460571 0.803688 0.717394
O O1 0.750000 0.250000 0.500000
O O2 0.738106 0.135782 0.176017
O O3 0.824743 0.163209 0.567292
O O4 0.824550 0.211398 0.077730
O O5 0.918288 0.500000 0.338767
O O6 0.840784 0.424668 0.570631
O O7 0.939190 0.371253 0.538675
O O8 0.865075 0.397685 0.082006
O O9 0.795457 0.500000 0.945506
O O10 0.910286 0.128602 0.851318
O O11 0.000000 0.102895 0.500000
O O12 0.934534 0.000000 0.646277
O O13 0.000000 0.067777 0.000000
O O14 0.596266 0.241583 0.234911
O O15 0.500000 0.764027 0.500000
O O16 0.500000 0.816406 0.000000
#
# Coordination Sequence:
#
# PCOD9211848 Si02
#       6
#     8   8   8   8   8   8
#     4  12  26  42  65  95 131 171 219 273 323 388
#     4  10  22  42  67  94 127 166 210 264 326 388
#     4  10  22  43  68  94 128 168 210 262 327 390
#     4  10  21  40  66  95 130 171 216 269 331 397
#     4  12  25  42  64  93 132 174 218 270 326 389
#     4  12  25  41  64  93 129 171 217 267 323 391
#
# _framework density 22.502314999999999
#
# number of rings (size 3 to 8) (size 9 to 14) (size 15 to 20)
#    0.000    1.000    0.000    6.500    0.000    4.667 
#    0.000    0.000    0.000    0.000    0.000    0.000 
#    0.000    0.000    0.000    0.000    0.000    0.000 
#
# Total GULP energy -133957.035976 kJ/mol
# GULP energy per Si atom -5581.543166 kJ/mol
# Density = 2.245110 g / cm^3
# Si number density = 22.502315 Si / 1000 Ang^3
#
#
#
# Elastic Constant Matrix: (Units=GPa)
#
#
# Indices 1 2 3 4 5 6 
#
# 1 113.5544 69.6633 31.1211 0.0000 -11.2751 0.0000
# 2 69.6633 142.4615 31.5314 0.0000 13.2030 0.0000
# 3 31.1211 31.5314 125.2630 0.0000 -6.3606 0.0000
# 4 0.0000 0.0000 0.0000 25.4026 0.0000 4.8543
# 5 -11.2751 13.2030 -6.3606 0.0000 55.9478 0.0000
# 6 0.0000 0.0000 0.0000 4.8543 0.0000 25.1571
#
#
#
# Elastic Compliance Matrix: (Units=1/GPa)
#
#
# Indices 1 2 3 4 5 6 
#
# 1 0.013819 -0.006816 -0.001503 0.000000 0.004223 0.000000
# 2 -0.006816 0.011020 -0.001290 0.000000 -0.004121 0.000000
# 3 -0.001503 -0.001290 0.008732 0.000000 0.000994 0.000000
# 4 0.000000 0.000000 0.000000 0.040873 0.000000 -0.007887
# 5 0.004223 -0.004121 0.000994 0.000000 0.019810 0.000000
# 6 0.000000 0.000000 0.000000 -0.007887 0.000000 0.041272
#
#
# Mechanical properties :
#
#
# Convention : Reuss Voigt Hill
#
# Bulk Modulus (GPa) = 69.67300 71.76781 70.72041
# Shear Modulus (GPa) = 31.34235 37.89906 34.62070
#
# Velocity S-wave (km/s) = 3.73614 4.10839 3.92668
# Velocity P-wave (km/s) = 7.04567 7.38024 7.21489
#
# Compressibility (1/GPa) = 0.01435276
#
# Stress axis : x y z
#
# Youngs Moduli (GPa) = 72.36326 90.74494 114.52412
#
# Poissons Ratio (x) = 0.61853 0.17214
# Poissons Ratio (y) = 0.49324 0.14771
# Poissons Ratio (z) = 0.10877 0.11704
#
# Static dielectric constant tensor:
#      x y z
#    x 1.850600 0.000000 -0.008910 
#    y 0.000000 1.956630 0.000000 
#    z -0.008910 0.000000 1.807540 
# 
# From -- ./inp_files/21006.got.cif
#   From: 2010.05.17/outbox.cif.g08.bks.cpg/sg12_11_cif.got.tgz:21006.got - 2010.06.03 13:09:07.
