data_PCOD9211923
_publ_section_title
;
Structure prediction by ZEFSAII (Michael W. Deem and Ramdas Pophale) SiO2 
 PCOD9211923
Probable space group: C 2/M
;
_chemical_formula_sum "Si O2"
_cell_formula_units_Z 42
_cell_length_a 16.904134
_cell_length_b 15.157588
_cell_length_c 8.006906
_cell_angle_alpha 90.000000
_cell_angle_beta 69.838528
_cell_angle_gamma 90.000000
_cell_volume 1925.866330
_symmetry_space_group_name_H-M "C 2/M"
_symmetry_group_IT_number 12
_symmetry_cell_setting 'monoclinic'
loop_
_space_group_symop_operation_xyz
x,y,z
-x,y,-z
-x,-y,-z
x,-y,z
1/2+x,1/2+y,z
1/2-x,1/2+y,-z
1/2-x,1/2-y,-z
1/2+x,1/2-y,z
loop_
_atom_site_type_symbol
_atom_site_label
_atom_site_fract_x
_atom_site_fract_y
_atom_site_fract_z
Si Si1 0.418614 0.598568 0.173722
Si Si2 0.649684 0.757008 0.576681
Si Si3 0.019261 0.632574 0.802795
Si Si4 0.000000 0.500000 0.500000
Si Si5 0.630727 0.229352 0.211468
Si Si6 0.720988 0.397895 0.011042
O O1 0.432036 0.500000 0.231987
O O2 0.393901 0.667199 0.333049
O O3 0.500000 0.618197 0.000000
O O4 0.337778 0.597986 0.110192
O O5 0.750000 0.750000 0.500000
O O6 0.614793 0.831775 0.726562
O O7 0.619747 0.782584 0.415286
O O8 0.003490 0.574244 0.650191
O O9 0.955386 0.714832 0.824470
O O10 0.000000 0.595440 0.000000
O O11 0.672189 0.326017 0.159649
O O12 0.693014 0.152287 0.099760
O O13 0.731958 0.500000 0.061058
#
# Coordination Sequence:
#
# PCOD9211923 Si02
#       6
#     8   8   8   2   8   8
#     4  10  21  40  67  98 133 181 238 296 367 432
#     4  12  23  42  68 102 143 188 237 299 365 440
#     4  12  27  48  75 105 150 193 245 303 371 441
#     4  12  26  52  72 114 134 196 250 306 356 442
#     4  11  23  42  68 100 142 191 241 301 364 445
#     4  10  22  39  63  97 138 183 238 303 367 431
#
# _framework density 21.808368000000002
#
# number of rings (size 3 to 8) (size 9 to 14) (size 15 to 20)
#    0.000    0.952    3.810    3.143    4.000    0.762 
#    1.714    0.000    0.000    5.714    0.000    0.000 
#    0.000    0.000    0.000    0.000    0.000    0.000 
#
# Total GULP energy -116991.479938 kJ/mol
# GULP energy per Si atom -5571.022854 kJ/mol
# Density = 2.175873 g / cm^3
# Si number density = 21.808368 Si / 1000 Ang^3
#
#
#
# Elastic Constant Matrix: (Units=GPa)
#
#
# Indices 1 2 3 4 5 6 
#
# 1 86.4730 30.6817 33.2093 0.0000 -19.7321 0.0000
# 2 30.6817 167.0252 70.4218 0.0000 -19.1193 0.0000
# 3 33.2093 70.4218 141.3569 0.0000 -0.3239 0.0000
# 4 0.0000 0.0000 0.0000 31.5878 0.0000 15.9545
# 5 -19.7321 -19.1193 -0.3239 0.0000 41.4752 0.0000
# 6 0.0000 0.0000 0.0000 15.9545 0.0000 13.1377
#
#
#
# Elastic Compliance Matrix: (Units=1/GPa)
#
#
# Indices 1 2 3 4 5 6 
#
# 1 0.014463 -0.000605 -0.003082 0.000000 0.006578 0.000000
# 2 -0.000605 0.008137 -0.003904 0.000000 0.003433 0.000000
# 3 -0.003082 -0.003904 0.009736 0.000000 -0.003190 0.000000
# 4 0.000000 0.000000 0.000000 0.081884 0.000000 -0.099441
# 5 0.006578 0.003433 -0.003190 0.000000 0.028798 0.000000
# 6 0.000000 0.000000 0.000000 -0.099441 0.000000 0.196879
#
#
# Mechanical properties :
#
#
# Convention : Reuss Voigt Hill
#
# Bulk Modulus (GPa) = 58.28822 73.72008 66.00415
# Shear Modulus (GPa) = 13.85823 34.60962 24.23392
#
# Velocity S-wave (km/s) = 2.52356 3.98802 3.33712
# Velocity P-wave (km/s) = 5.93941 7.42177 6.72158
#
# Compressibility (1/GPa) = 0.01715613
#
# Stress axis : x y z
#
# Youngs Moduli (GPa) = 69.14011 122.89374 102.71338
#
# Poissons Ratio (x) = 0.07429 0.31653
# Poissons Ratio (y) = 0.04180 0.40098
# Poissons Ratio (z) = 0.21307 0.47976
#
# Static dielectric constant tensor:
#      x y z
#    x 1.773390 0.000000 -0.055830 
#    y 0.000000 1.837820 0.000000 
#    z -0.055830 0.000000 1.782400 
# 
# From -- ./inp_files/73530.got.cif
#   From: 2010.05.17/outbox.cif.g08.bks.cpg/sg12_37_cif.got.tgz:73530.got - 2010.06.03 13:09:07.
