data_PCOD9211918
_publ_section_title
;
Structure prediction by ZEFSAII (Michael W. Deem and Ramdas Pophale) SiO2 
 PCOD9211918
Probable space group: C 2/M
;
_chemical_formula_sum "Si O2"
_cell_formula_units_Z 64
_cell_length_a 15.444178
_cell_length_b 30.123305
_cell_length_c 9.124149
_cell_angle_alpha 90.000000
_cell_angle_beta 131.610658
_cell_angle_gamma 90.000000
_cell_volume 3173.747701
_symmetry_space_group_name_H-M "C 2/M"
_symmetry_group_IT_number 12
_symmetry_cell_setting 'monoclinic'
loop_
_space_group_symop_operation_xyz
x,y,z
-x,y,-z
-x,-y,-z
x,-y,z
1/2+x,1/2+y,z
1/2-x,1/2+y,-z
1/2-x,1/2-y,-z
1/2+x,1/2-y,z
loop_
_atom_site_type_symbol
_atom_site_label
_atom_site_fract_x
_atom_site_fract_y
_atom_site_fract_z
Si Si1 0.066862 0.293000 0.431424
Si Si2 0.641883 0.948991 0.526574
Si Si3 0.214957 0.604532 0.873581
Si Si4 0.007572 0.800450 0.771051
Si Si5 0.003150 0.623663 0.179720
Si Si6 0.549216 0.606072 0.709738
Si Si7 0.414784 0.547899 0.764951
Si Si8 0.686486 0.314904 0.212995
O O1 0.017247 0.245352 0.335550
O O2 0.056200 0.329266 0.291030
O O3 0.200555 0.287802 0.620277
O O4 0.000000 0.311034 0.500000
O O5 0.643274 0.930448 0.694569
O O6 0.576797 0.915477 0.342808
O O7 0.779863 0.949404 0.648648
O O8 0.600649 0.000000 0.469367
O O9 0.266523 0.639883 0.812263
O O10 0.124597 0.623254 0.890403
O O11 0.327427 0.588518 0.091370
O O12 0.896017 0.817588 0.738095
O O13 0.051809 0.840568 0.719896
O O14 0.107749 0.792311 0.002112
O O15 0.000000 0.618874 0.000000
O O16 0.500000 0.590999 0.500000
O O17 0.454341 0.588857 0.715566
O O18 0.435248 0.500000 0.713363
O O19 0.500000 0.548543 0.000000
#
# Coordination Sequence:
#
# PCOD9211918 Si02
#       8
#     8   8   8   8   8   8   8   8
#     4  12  23  44  67  93 132 179 224 265 321 395
#     4  11  23  44  74  99 127 172 223 268 324 401
#     4  11  22  45  67  96 129 174 221 268 326 394
#     4  10  24  39  63 100 131 170 223 273 325 378
#     4  12  28  44  67  96 133 172 219 276 335 387
#     4  11  24  39  64  99 138 172 213 273 335 384
#     4  10  21  40  67  98 127 167 217 266 323 393
#     4  10  21  42  66  92 128 171 219 271 317 386
#
# _framework density 20.165433
#
# number of rings (size 3 to 8) (size 9 to 14) (size 15 to 20)
#    0.000    1.125    3.750    1.875    5.250    2.000 
#    2.250    0.000    0.000    0.000    0.000    0.000 
#    0.000    0.000    0.000    0.000    0.000    0.000 
#
# Total GULP energy -178589.336751 kJ/mol
# GULP energy per Si atom -5580.916773 kJ/mol
# Density = 2.011954 g / cm^3
# Si number density = 20.165433 Si / 1000 Ang^3
#
#
#
# Elastic Constant Matrix: (Units=GPa)
#
#
# Indices 1 2 3 4 5 6 
#
# 1 65.2340 5.6687 35.9379 0.0000 2.9912 0.0000
# 2 5.6687 99.6212 39.3711 0.0000 -11.9055 0.0000
# 3 35.9379 39.3711 98.2871 0.0000 -7.5871 0.0000
# 4 0.0000 0.0000 0.0000 48.8339 0.0000 9.9361
# 5 2.9912 -11.9055 -7.5871 0.0000 30.4761 0.0000
# 6 0.0000 0.0000 0.0000 9.9361 0.0000 20.2493
#
#
#
# Elastic Compliance Matrix: (Units=1/GPa)
#
#
# Indices 1 2 3 4 5 6 
#
# 1 0.019851 0.001715 -0.008202 0.000000 -0.003320 0.000000
# 2 0.001715 0.012460 -0.005359 0.000000 0.003365 0.000000
# 3 -0.008202 -0.005359 0.015518 0.000000 0.002575 0.000000
# 4 0.000000 0.000000 0.000000 0.022749 0.000000 -0.011163
# 5 -0.003320 0.003365 0.002575 0.000000 0.035094 0.000000
# 6 0.000000 0.000000 0.000000 -0.011163 0.000000 0.054862
#
#
# Mechanical properties :
#
#
# Convention : Reuss Voigt Hill
#
# Bulk Modulus (GPa) = 41.42619 47.23308 44.32963
# Shear Modulus (GPa) = 26.00491 32.05615 29.03053
#
# Velocity S-wave (km/s) = 3.59497 3.99138 3.79835
# Velocity P-wave (km/s) = 6.14975 6.68694 6.42396
#
# Compressibility (1/GPa) = 0.02413932
#
# Stress axis : x y z
#
# Youngs Moduli (GPa) = 50.37539 80.25445 64.43966
#
# Poissons Ratio (x) = -0.13763 0.52851
# Poissons Ratio (y) = -0.08639 0.34530
# Poissons Ratio (z) = 0.41316 0.43005
#
# Static dielectric constant tensor:
#      x y z
#    x 1.705840 0.000000 0.026350 
#    y 0.000000 1.733880 0.000000 
#    z 0.026350 0.000000 1.671300 
# 
# From -- ./inp_files/68574.got.cif
#   From: 2010.05.17/outbox.cif.g08.bks.cpg/sg12_35_cif.got.tgz:68574.got - 2010.06.03 13:09:07.
