data_PCOD9211004
_publ_section_title
;
Structure prediction by ZEFSAII (Michael W. Deem and Ramdas Pophale) SiO2 
 PCOD9211004
Probable space group: C 2/M
;
_chemical_formula_sum "Si O2"
_cell_formula_units_Z 40
_cell_length_a 16.426864
_cell_length_b 12.509286
_cell_length_c 11.022967
_cell_angle_alpha 90.000000
_cell_angle_beta 43.259832
_cell_angle_gamma 90.000000
_cell_volume 1552.285043
_symmetry_space_group_name_H-M "C 2/M"
_symmetry_group_IT_number 12
_symmetry_cell_setting 'monoclinic'
loop_
_space_group_symop_operation_xyz
x,y,z
-x,y,-z
-x,-y,-z
x,-y,z
1/2+x,1/2+y,z
1/2-x,1/2+y,-z
1/2-x,1/2-y,-z
1/2+x,1/2-y,z
loop_
_atom_site_type_symbol
_atom_site_label
_atom_site_fract_x
_atom_site_fract_y
_atom_site_fract_z
Si Si1 0.399396 0.676066 0.725939
Si Si2 0.695578 0.210085 0.384539
Si Si3 0.010443 0.000000 0.772190
Si Si4 0.864225 0.383706 0.924312
Si Si5 0.186296 0.000000 0.804362
Si Si6 0.385892 0.876378 0.266407
O O1 0.393673 0.713958 0.591471
O O2 0.487572 0.600059 0.707858
O O3 0.384245 0.785307 0.815302
O O4 0.268675 0.620175 0.881138
O O5 0.640069 0.157462 0.564866
O O6 0.809009 0.285230 0.285860
O O7 0.740216 0.108069 0.261825
O O8 0.127936 0.000000 0.730355
O O9 0.911036 0.000000 0.984765
O O10 0.883731 0.500000 0.845378
O O11 0.971855 0.372823 0.903388
O O12 0.347458 0.000000 0.286596
#
# Coordination Sequence:
#
# PCOD9211004 Si02
#       6
#     8   8   4   8   4   8
#     4  11  23  39  65  98 136 166 221 278 335 382
#     4  11  24  40  68  96 133 175 224 274 333 390
#     4  11  24  42  64  99 136 176 218 277 335 402
#     4  10  21  39  65  93 129 166 214 274 329 393
#     4  11  22  42  68  94 132 181 222 262 337 411
#     4  10  23  44  66  94 133 176 224 269 328 408
#
# _framework density 25.768462
#
# number of rings (size 3 to 8) (size 9 to 14) (size 15 to 20)
#    0.000    1.400    2.000    3.600    2.800    3.200 
#    0.000    4.000    0.000    3.600    0.000    0.000 
#    0.000    0.000    0.000    0.000    0.000    0.000 
#
# Total GULP energy -111890.434174 kJ/mol
# GULP energy per Si atom -5594.521709 kJ/mol
# Density = 2.570981 g / cm^3
# Si number density = 25.768462 Si / 1000 Ang^3
#
#
#
# Elastic Constant Matrix: (Units=GPa)
#
#
# Indices 1 2 3 4 5 6 
#
# 1 132.9809 76.4786 11.6700 0.0000 1.0234 0.0000
# 2 76.4786 212.3039 31.2091 0.0000 14.0574 0.0000
# 3 11.6700 31.2091 22.9402 0.0000 16.9979 0.0000
# 4 0.0000 0.0000 0.0000 215.0763 0.0000 151.1528
# 5 1.0234 14.0574 16.9979 0.0000 42.8680 0.0000
# 6 0.0000 0.0000 0.0000 151.1528 0.0000 136.1828
#
#
#
# Elastic Compliance Matrix: (Units=1/GPa)
#
#
# Indices 1 2 3 4 5 6 
#
# 1 0.009544 -0.003330 -0.001366 0.000000 0.001406 0.000000
# 2 -0.003330 0.007146 -0.008991 0.000000 0.001302 0.000000
# 3 -0.001366 -0.008991 0.076905 0.000000 -0.027513 0.000000
# 4 0.000000 0.000000 0.000000 0.021138 0.000000 -0.023462
# 5 0.001406 0.001302 -0.027513 0.000000 0.033776 0.000000
# 6 0.000000 0.000000 0.000000 -0.023462 0.000000 0.033384
#
#
# Mechanical properties :
#
#
# Convention : Reuss Voigt Hill
#
# Bulk Modulus (GPa) = 15.10143 67.43783 41.26963
# Shear Modulus (GPa) = 21.61299 95.41657 58.51478
#
# Velocity S-wave (km/s) = 2.89924 6.09170 4.77045
# Velocity P-wave (km/s) = 4.13287 8.70092 6.81126
#
# Compressibility (1/GPa) = 0.06621890
#
# Stress axis : x y z
#
# Youngs Moduli (GPa) = 104.77450 139.94799 13.00305
#
# Poissons Ratio (x) = 0.46608 0.01777
# Poissons Ratio (y) = 0.34894 0.11691
# Poissons Ratio (z) = 0.14315 1.25831
#
# Static dielectric constant tensor:
#      x y z
#    x 2.066750 0.000000 0.008950 
#    y 0.000000 1.906940 0.000000 
#    z 0.008950 0.000000 2.151540 
# 
# From -- ./inp_files/155135.got.cif
#   From: 2010.05.17/outbox.cif.g08.bks.cpg/sg12_78_cif.got.tgz:155135.got - 2010.06.03 13:09:07.
