data_PCOD9211868
_publ_section_title
;
Structure prediction by ZEFSAII (Michael W. Deem and Ramdas Pophale) SiO2 
 PCOD9211868
Probable space group: C 2/M
;
_chemical_formula_sum "Si O2"
_cell_formula_units_Z 48
_cell_length_a 14.283944
_cell_length_b 20.845130
_cell_length_c 10.915850
_cell_angle_alpha 90.000000
_cell_angle_beta 46.274521
_cell_angle_gamma 90.000000
_cell_volume 2348.790216
_symmetry_space_group_name_H-M "C 2/M"
_symmetry_group_IT_number 12
_symmetry_cell_setting 'monoclinic'
loop_
_space_group_symop_operation_xyz
x,y,z
-x,y,-z
-x,-y,-z
x,-y,z
1/2+x,1/2+y,z
1/2-x,1/2+y,-z
1/2-x,1/2-y,-z
1/2+x,1/2-y,z
loop_
_atom_site_type_symbol
_atom_site_label
_atom_site_fract_x
_atom_site_fract_y
_atom_site_fract_z
Si Si1 0.804564 0.367426 0.141133
Si Si2 0.487649 0.386943 0.646367
Si Si3 0.876865 0.627576 0.541168
Si Si4 0.456320 0.075028 0.209603
Si Si5 0.686328 0.729970 0.428150
Si Si6 0.595580 0.425031 0.811652
O O1 0.666468 0.376703 0.201691
O O2 0.844447 0.419675 0.207943
O O3 0.784828 0.302848 0.241077
O O4 0.923927 0.379307 0.940762
O O5 0.500000 0.419537 0.500000
O O6 0.573594 0.322250 0.552768
O O7 0.543854 0.416813 0.719598
O O8 0.897557 0.605587 0.383575
O O9 0.870650 0.703559 0.566899
O O10 0.736576 0.603335 0.703844
O O11 0.000000 0.599825 0.500000
O O12 0.493943 0.000000 0.189063
O O13 0.750000 0.750000 0.500000
O O14 0.606942 0.500000 0.824372
O O15 0.500000 0.396272 0.000000
#
# Coordination Sequence:
#
# PCOD9211868 Si02
#       6
#     8   8   8   8   8   8
#     4  10  21  40  67 100 132 168 222 287 337 397
#     4  10  21  41  71  97 128 173 229 282 341 401
#     4  12  25  44  67  95 133 186 225 272 338 416
#     4  11  24  42  67 100 139 178 224 281 341 401
#     4  11  20  44  68  93 137 169 218 285 346 404
#     4  11  26  45  64  97 141 180 225 280 340 410
#
# _framework density 20.436052
#
# number of rings (size 3 to 8) (size 9 to 14) (size 15 to 20)
#    0.000    1.167    3.333    4.000    2.333    3.000 
#    6.000    4.167    0.000    0.000    0.000    0.000 
#    0.000    0.000    0.000    0.000    0.000    0.000 
#
# Total GULP energy -133813.944378 kJ/mol
# GULP energy per Si atom -5575.581016 kJ/mol
# Density = 2.038954 g / cm^3
# Si number density = 20.436052 Si / 1000 Ang^3
#
#
#
# Elastic Constant Matrix: (Units=GPa)
#
#
# Indices 1 2 3 4 5 6 
#
# 1 77.7516 13.1065 47.9790 0.0000 -36.9531 0.0000
# 2 13.1065 85.8542 57.4543 0.0000 -12.7038 0.0000
# 3 47.9790 57.4543 155.4297 0.0000 -21.3007 0.0000
# 4 0.0000 0.0000 0.0000 19.9584 0.0000 23.8657
# 5 -36.9531 -12.7038 -21.3007 0.0000 31.6980 0.0000
# 6 0.0000 0.0000 0.0000 23.8657 0.0000 -149.4712
#
#
#
# Elastic Compliance Matrix: (Units=1/GPa)
#
#
# Indices 1 2 3 4 5 6 
#
# 1 0.034022 0.005187 -0.007379 0.000000 0.036783 0.000000
# 2 0.005187 0.016463 -0.006558 0.000000 0.008238 0.000000
# 3 -0.007379 -0.006558 0.010570 0.000000 -0.004127 0.000000
# 4 0.000000 0.000000 0.000000 0.042072 0.000000 0.006717
# 5 0.036783 0.008238 -0.004127 0.000000 0.074957 0.000000
# 6 0.000000 0.000000 0.000000 0.006717 0.000000 -0.005618
#
#
# Mechanical properties :
#
#
# Convention : Reuss Voigt Hill
#
# Bulk Modulus (GPa) = 22.95882 61.79056 42.37469
# Shear Modulus (GPa) = 24.45177 -6.19658 9.12759
#
# Velocity S-wave (km/s) = 3.46280 -1.74320 2.11568
# Velocity P-wave (km/s) = 5.21985 5.12348 5.17189
#
# Compressibility (1/GPa) = 0.04355624
#
# Stress axis : x y z
#
# Youngs Moduli (GPa) = 29.39257 60.74111 94.60837
#
# Poissons Ratio (x) = -0.31505 0.69807
# Poissons Ratio (y) = -0.15245 0.62042
# Poissons Ratio (z) = 0.21687 0.39832
#
# Static dielectric constant tensor:
#      x y z
#    x 1.818030 0.000000 0.019340 
#    y 0.000000 1.699330 0.000000 
#    z 0.019340 0.000000 1.766150 
# 
# From -- ./inp_files/147941.got.cif
#   From: 2010.05.17/outbox.cif.g08.bks.cpg/sg12_74_cif.got.tgz:147941.got - 2010.06.03 13:09:07.
