data_PCOD9211316
_publ_section_title
;
Structure prediction by ZEFSAII (Michael W. Deem and Ramdas Pophale) SiO2 
 PCOD9211316
Probable space group: C 2/M
;
_chemical_formula_sum "Si O2"
_cell_formula_units_Z 48
_cell_length_a 17.242283
_cell_length_b 14.935800
_cell_length_c 17.157622
_cell_angle_alpha 90.000000
_cell_angle_beta 32.710777
_cell_angle_gamma 90.000000
_cell_volume 2387.781399
_symmetry_space_group_name_H-M "C 2/M"
_symmetry_group_IT_number 12
_symmetry_cell_setting 'monoclinic'
loop_
_space_group_symop_operation_xyz
x,y,z
-x,y,-z
-x,-y,-z
x,-y,z
1/2+x,1/2+y,z
1/2-x,1/2+y,-z
1/2-x,1/2-y,-z
1/2+x,1/2-y,z
loop_
_atom_site_type_symbol
_atom_site_label
_atom_site_fract_x
_atom_site_fract_y
_atom_site_fract_z
Si Si1 0.179434 0.097605 0.185192
Si Si2 0.141405 0.100028 0.485483
Si Si3 0.724963 0.153270 0.058979
Si Si4 0.353541 0.208123 0.583260
Si Si5 0.662317 0.725114 0.883491
Si Si6 0.903728 0.603927 0.383977
O O1 0.256383 0.182904 0.159768
O O2 0.008192 0.108651 0.340889
O O3 0.219431 0.000000 0.185468
O O4 0.220685 0.094747 0.059003
O O5 0.146654 0.184192 0.424415
O O6 0.280191 0.107750 0.423274
O O7 0.142053 0.000000 0.449549
O O8 0.812470 0.157197 0.065799
O O9 0.558341 0.135937 0.220897
O O10 0.750000 0.250000 0.000000
O O11 0.500000 0.179393 0.500000
O O12 0.229848 0.184812 0.748030
O O13 0.352837 0.164589 0.499008
O O14 0.500000 0.746167 0.000000
O O15 0.918641 0.500000 0.395554
#
# Coordination Sequence:
#
# PCOD9211316 Si02
#       6
#     8   8   8   8   8   8
#     4  10  21  40  62  87 123 162 202 254 310 369
#     4  10  23  40  65  96 124 163 211 258 311 372
#     4  10  21  40  61  86 120 161 205 251 301 365
#     4  12  22  41  63  89 125 167 203 260 321 366
#     4  11  25  39  58  90 122 160 208 252 312 377
#     4  11  24  42  66  95 123 164 217 259 305 372
#
# _framework density 20.102343000000001
#
# number of rings (size 3 to 8) (size 9 to 14) (size 15 to 20)
#    0.000    1.333    3.333    2.000    7.000    1.667 
#    0.000    0.000    0.000    2.500    0.000    0.000 
#    0.000    0.000    0.000    0.000    0.000    0.000 
#
# Total GULP energy -133934.460463 kJ/mol
# GULP energy per Si atom -5580.602519 kJ/mol
# Density = 2.005659 g / cm^3
# Si number density = 20.102343 Si / 1000 Ang^3
#
#
#
# Elastic Constant Matrix: (Units=GPa)
#
#
# Indices 1 2 3 4 5 6 
#
# 1 72.2287 14.4985 51.9495 0.0000 -7.0830 0.0000
# 2 14.4985 59.6625 23.6016 0.0002 -3.6989 0.0000
# 3 51.9495 23.6016 92.8365 0.0005 11.1027 -0.0002
# 4 0.0000 0.0002 0.0005 21.8614 -0.0001 -17.4926
# 5 -7.0830 -3.6989 11.1027 -0.0001 43.8229 0.0000
# 6 0.0000 0.0000 -0.0002 -17.4926 0.0000 26.1281
#
#
#
# Elastic Compliance Matrix: (Units=1/GPa)
#
#
# Indices 1 2 3 4 5 6 
#
# 1 0.025649 0.000365 -0.015412 0.000001 0.008081 0.000000
# 2 0.000365 0.018994 -0.005395 0.000000 0.003029 0.000000
# 3 -0.015412 -0.005395 0.021780 -0.000001 -0.008464 0.000000
# 4 0.000001 0.000000 -0.000001 0.098520 0.000001 0.065958
# 5 0.008081 0.003029 -0.008464 0.000001 0.026525 0.000000
# 6 0.000000 0.000000 0.000000 0.065958 0.000000 0.082432
#
#
# Mechanical properties :
#
#
# Convention : Reuss Voigt Hill
#
# Bulk Modulus (GPa) = 39.15683 44.98078 42.06880
# Shear Modulus (GPa) = 15.46565 27.34102 21.40333
#
# Velocity S-wave (km/s) = 2.77672 3.69194 3.26654
# Velocity P-wave (km/s) = 5.45905 6.37169 5.93294
#
# Compressibility (1/GPa) = 0.02553833
#
# Stress axis : x y z
#
# Youngs Moduli (GPa) = 38.98811 52.64718 45.91439
#
# Poissons Ratio (x) = -0.01920 0.70762
# Poissons Ratio (y) = -0.01422 0.24772
# Poissons Ratio (z) = 0.60088 0.28405
#
# Static dielectric constant tensor:
#      x y z
#    x 1.692420 0.000000 0.003140 
#    y 0.000000 1.713450 0.000000 
#    z 0.003140 0.000000 1.683830 
# 
# From -- ./inp_files/278030.got.cif
#   From: 2010.05.17/outbox.cif.g08.bks.cpg/sg12_140_cif.got.tgz:278030.got - 2010.06.03 13:09:07.
