data_PCOD9211697
_publ_section_title
;
Structure prediction by ZEFSAII (Michael W. Deem and Ramdas Pophale) SiO2 
 PCOD9211697
Probable space group: C 2/M
;
_chemical_formula_sum "Si O2"
_cell_formula_units_Z 48
_cell_length_a 16.424175
_cell_length_b 11.247092
_cell_length_c 21.551251
_cell_angle_alpha 90.000000
_cell_angle_beta 32.662694
_cell_angle_gamma 90.000000
_cell_volume 2148.535374
_symmetry_space_group_name_H-M "C 2/M"
_symmetry_group_IT_number 12
_symmetry_cell_setting 'monoclinic'
loop_
_space_group_symop_operation_xyz
x,y,z
-x,y,-z
-x,-y,-z
x,-y,z
1/2+x,1/2+y,z
1/2-x,1/2+y,-z
1/2-x,1/2-y,-z
1/2+x,1/2-y,z
loop_
_atom_site_type_symbol
_atom_site_label
_atom_site_fract_x
_atom_site_fract_y
_atom_site_fract_z
Si Si1 0.922842 0.867298 0.847690
Si Si2 0.515777 0.500000 0.386973
Si Si3 0.589370 0.748152 0.569393
Si Si4 0.262132 0.637215 0.077771
Si Si5 0.275018 0.742477 0.331832
Si Si6 0.793217 0.366575 0.753487
Si Si7 0.243682 0.500000 0.661840
O O1 0.839456 0.752731 0.872702
O O2 0.100031 0.848627 0.725236
O O3 0.873958 0.000000 0.858498
O O4 0.890082 0.860567 0.942878
O O5 0.492161 0.622176 0.365937
O O6 0.376450 0.500000 0.525267
O O7 0.668137 0.500000 0.329185
O O8 0.750000 0.750000 0.500000
O O9 0.632604 0.760750 0.468978
O O10 0.466720 0.847103 0.664011
O O11 0.198790 0.500000 0.114612
O O12 0.305644 0.652253 0.121792
O O13 0.233431 0.717207 0.287745
O O14 0.340855 0.876424 0.292308
O O15 0.771439 0.500000 0.744818
#
# Coordination Sequence:
#
# PCOD9211697 Si02
#       7
#     8   4   8   8   8   8   4
#     4  10  21  40  65  91 118 152 199 248 294 346
#     4   9  18  38  58  77 111 155 201 231 286 353
#     4  11  23  38  57  86 118 155 194 244 292 353
#     4   9  21  42  64  86 119 160 196 239 296 358
#     4  11  22  38  59  87 119 157 196 244 297 351
#     4  11  23  39  58  85 119 156 195 239 297 354
#     4   9  18  36  60  80 111 158 200 232 291 357
#
# _framework density 22.340800000000002
#
# number of rings (size 3 to 8) (size 9 to 14) (size 15 to 20)
#    0.000    1.833    1.667    2.000    2.333    2.667 
#    6.000    2.500    0.000    1.000    0.000    0.000 
#    0.000    0.000    0.000    0.000    0.000    0.000 
#
# Total GULP energy -133946.470537 kJ/mol
# GULP energy per Si atom -5581.102939 kJ/mol
# Density = 2.228995 g / cm^3
# Si number density = 22.340800 Si / 1000 Ang^3
#
#
#
# Elastic Constant Matrix: (Units=GPa)
#
#
# Indices 1 2 3 4 5 6 
#
# 1 46.7158 15.6042 10.9954 0.0000 17.7873 0.0000
# 2 15.6042 123.3347 33.4201 0.0001 12.9059 0.0000
# 3 10.9954 33.4201 57.3317 0.0001 16.9522 -0.0001
# 4 0.0000 0.0001 0.0001 31.6996 0.0000 0.0883
# 5 17.7873 12.9059 16.9522 0.0000 34.1962 0.0000
# 6 0.0000 0.0000 -0.0001 0.0883 0.0000 27.6437
#
#
#
# Elastic Compliance Matrix: (Units=1/GPa)
#
#
# Indices 1 2 3 4 5 6 
#
# 1 0.027177 -0.002018 -0.000095 0.000000 -0.013327 0.000000
# 2 -0.002018 0.009808 -0.005327 0.000000 -0.000011 0.000000
# 3 -0.000095 -0.005327 0.023384 0.000000 -0.009533 0.000000
# 4 0.000000 0.000000 0.000000 0.031546 0.000000 -0.000101
# 5 -0.013327 -0.000011 -0.009533 0.000000 0.040905 0.000000
# 6 0.000000 0.000000 0.000000 -0.000101 0.000000 0.036175
#
#
# Mechanical properties :
#
#
# Convention : Reuss Voigt Hill
#
# Bulk Modulus (GPa) = 21.98318 38.60237 30.29278
# Shear Modulus (GPa) = 25.12069 29.86541 27.49305
#
# Velocity S-wave (km/s) = 3.35689 3.66021 3.51183
# Velocity P-wave (km/s) = 4.98861 5.93121 5.48021
#
# Compressibility (1/GPa) = 0.04548932
#
# Stress axis : x y z
#
# Youngs Moduli (GPa) = 36.79581 101.95801 42.76347
#
# Poissons Ratio (x) = 0.20576 0.00406
# Poissons Ratio (y) = 0.07426 0.22780
# Poissons Ratio (z) = 0.00350 0.54313
#
# Static dielectric constant tensor:
#      x y z
#    x 1.856190 0.000000 0.025280 
#    y 0.000000 1.823120 0.000000 
#    z 0.025280 0.000000 1.799770 
# 
# From -- ./inp_files/310226.got.cif
#   From: 2010.05.17/outbox.cif.g08.bks.cpg/sg12_156_cif.got.tgz:310226.got - 2010.06.03 13:09:07.
