data_PCOD9211205
_publ_section_title
;
Structure prediction by ZEFSAII (Michael W. Deem and Ramdas Pophale) SiO2 
 PCOD9211205
Probable space group: C 2/M
;
_chemical_formula_sum "Si O2"
_cell_formula_units_Z 38
_cell_length_a 14.333098
_cell_length_b 17.647431
_cell_length_c 11.861366
_cell_angle_alpha 90.000000
_cell_angle_beta 39.320682
_cell_angle_gamma 90.000000
_cell_volume 1901.133764
_symmetry_space_group_name_H-M "C 2/M"
_symmetry_group_IT_number 12
_symmetry_cell_setting 'monoclinic'
loop_
_space_group_symop_operation_xyz
x,y,z
-x,y,-z
-x,-y,-z
x,-y,z
1/2+x,1/2+y,z
1/2-x,1/2+y,-z
1/2-x,1/2-y,-z
1/2+x,1/2-y,z
loop_
_atom_site_type_symbol
_atom_site_label
_atom_site_fract_x
_atom_site_fract_y
_atom_site_fract_z
Si Si1 0.746890 0.244697 0.760400
Si Si2 0.480854 0.742384 0.836426
Si Si3 0.000000 0.500000 0.500000
Si Si4 0.500000 0.623646 0.500000
Si Si5 0.593264 0.141325 0.550897
Si Si6 0.400791 0.415919 0.352410
O O1 0.614161 0.233070 0.795261
O O2 0.861111 0.176733 0.657188
O O3 0.833546 0.315859 0.625283
O O4 0.668869 0.252078 0.953638
O O5 0.503369 0.796141 0.706685
O O6 0.507544 0.653849 0.784938
O O7 0.009662 0.567238 0.587750
O O8 0.549014 0.580444 0.565512
O O9 0.732553 0.111334 0.493878
O O10 0.417631 0.500000 0.284507
#
# Coordination Sequence:
#
# PCOD9211205 Si02
#       6
#     8   8   2   4   8   8
#     4  10  21  39  68  98 123 171 228 251 315 387
#     4  10  21  42  69  90 130 177 212 266 312 383
#     4  12  26  40  70  94 126 166 212 266 320 392
#     4  12  20  38  65  95 126 170 214 268 310 391
#     4  11  21  45  65  93 130 170 213 267 323 374
#     4  11  22  40  63  94 133 167 212 267 325 371
#
# _framework density 19.988073
#
# number of rings (size 3 to 8) (size 9 to 14) (size 15 to 20)
#    0.000    1.263    5.263    2.211    0.000    0.842 
#    1.895    2.105    2.316    2.526    0.000    0.000 
#    0.000    0.000    0.000    0.000    0.000    0.000 
#
# Total GULP energy -105790.449900 kJ/mol
# GULP energy per Si atom -5567.918416 kJ/mol
# Density = 1.994258 g / cm^3
# Si number density = 19.988073 Si / 1000 Ang^3
#
#
#
# Elastic Constant Matrix: (Units=GPa)
#
#
# Indices 1 2 3 4 5 6 
#
# 1 81.6134 32.2500 31.5649 0.0000 9.2229 0.0001
# 2 32.2500 178.9916 90.0165 0.0001 5.2803 0.0000
# 3 31.5649 90.0165 147.0002 0.0002 7.9929 0.0000
# 4 0.0000 0.0001 0.0002 2.5358 -0.0001 8.3995
# 5 9.2229 5.2803 7.9929 -0.0001 24.7904 0.0000
# 6 0.0001 0.0000 0.0000 8.3995 0.0000 32.3375
#
#
#
# Elastic Compliance Matrix: (Units=1/GPa)
#
#
# Indices 1 2 3 4 5 6 
#
# 1 0.014045 -0.001452 -0.001893 0.000002 -0.004306 0.000000
# 2 -0.001452 0.008223 -0.004741 -0.000001 0.000317 0.000000
# 3 -0.001893 -0.004741 0.010198 -0.000004 -0.001574 0.000001
# 4 0.000002 -0.000001 -0.000004 2.823829 0.000007 -0.733473
# 5 -0.004306 0.000317 -0.001574 0.000007 0.042380 -0.000002
# 6 0.000000 0.000000 0.000001 -0.733473 -0.000002 0.221439
#
#
# Mechanical properties :
#
#
# Convention : Reuss Voigt Hill
#
# Bulk Modulus (GPa) = 61.36748 79.47422 70.42085
# Shear Modulus (GPa) = 1.59149 28.85102 15.22125
#
# Velocity S-wave (km/s) = 0.89328 3.80335 2.76255
# Velocity P-wave (km/s) = 5.64204 7.68989 6.74415
#
# Compressibility (1/GPa) = 0.01629527
#
# Stress axis : x y z
#
# Youngs Moduli (GPa) = 71.19883 121.60347 98.05804
#
# Poissons Ratio (x) = 0.17653 0.18561
# Poissons Ratio (y) = 0.10336 0.46491
# Poissons Ratio (z) = 0.13477 0.57655
#
# Static dielectric constant tensor:
#      x y z
#    x 1.797790 0.000000 0.011170 
#    y 0.000000 1.679690 0.000000 
#    z 0.011170 0.000000 1.682420 
# 
# From -- ./inp_files/145300.got.cif
#   From: 2010.05.17/outbox.cif.g08.bks.cpg/sg12_73_cif.got.tgz:145300.got - 2010.06.03 13:09:07.
