data_PCOD9211645
_publ_section_title
;
Structure prediction by ZEFSAII (Michael W. Deem and Ramdas Pophale) SiO2 
 PCOD9211645
Probable space group: C 2/M
;
_chemical_formula_sum "Si O2"
_cell_formula_units_Z 34
_cell_length_a 21.858901
_cell_length_b 9.510393
_cell_length_c 8.139052
_cell_angle_alpha 90.000000
_cell_angle_beta 90.906144
_cell_angle_gamma 90.000000
_cell_volume 1691.789382
_symmetry_space_group_name_H-M "C 2/M"
_symmetry_group_IT_number 12
_symmetry_cell_setting 'monoclinic'
loop_
_space_group_symop_operation_xyz
x,y,z
-x,y,-z
-x,-y,-z
x,-y,z
1/2+x,1/2+y,z
1/2-x,1/2+y,-z
1/2-x,1/2-y,-z
1/2+x,1/2-y,z
loop_
_atom_site_type_symbol
_atom_site_label
_atom_site_fract_x
_atom_site_fract_y
_atom_site_fract_z
Si Si1 0.482214 0.199889 0.182824
Si Si2 0.638539 0.500000 0.501848
Si Si3 0.828880 0.000000 0.008361
Si Si4 0.500000 0.000000 0.500000
Si Si5 0.740977 0.000000 0.691413
Si Si6 0.652569 0.744135 0.749246
Si Si7 0.048607 0.000000 0.191210
O O1 0.408842 0.188947 0.183291
O O2 0.507729 0.360038 0.189490
O O3 0.503832 0.120558 0.349870
O O4 0.500000 0.149985 0.000000
O O5 0.709397 0.500000 0.450070
O O6 0.630170 0.640338 0.605589
O O7 0.591517 0.500000 0.352215
O O8 0.899919 0.000000 0.951549
O O9 0.782606 0.000000 0.855912
O O10 0.818646 0.139220 0.115693
O O11 0.698595 0.862613 0.689608
#
# Coordination Sequence:
#
# PCOD9211645 Si02
#       7
#     8   4   4   2   4   8   4
#     4  12  24  44  71  99 142 170 225 273 333 404
#     4  10  23  39  65  94 132 165 222 281 322 390
#     4  10  21  40  64  94 120 162 225 277 320 375
#     4  12  28  40  58 100 144 188 198 256 340 410
#     4  11  23  39  61  89 132 173 219 263 331 400
#     4  11  22  40  65  94 127 173 215 272 337 389
#     4  11  21  42  70 100 120 171 226 280 322 378
#
# _framework density 20.097066000000002
#
# number of rings (size 3 to 8) (size 9 to 14) (size 15 to 20)
#    0.000    0.941    2.353    5.647    0.000    1.412 
#    0.000    0.000   10.353    0.000    0.000    0.000 
#    0.000    0.000    0.000    0.000    0.000    0.000 
#
# Total GULP energy -94675.612708 kJ/mol
# GULP energy per Si atom -5569.153689 kJ/mol
# Density = 2.005132 g / cm^3
# Si number density = 20.097066 Si / 1000 Ang^3
#
#
#
# Elastic Constant Matrix: (Units=GPa)
#
#
# Indices 1 2 3 4 5 6 
#
# 1 69.5627 7.3497 11.2124 0.0000 -10.7812 0.0000
# 2 7.3497 121.7605 36.3364 0.0000 2.9530 0.0000
# 3 11.2124 36.3364 135.5467 0.0000 -7.9544 0.0000
# 4 0.0000 0.0000 0.0000 27.2834 0.0000 1.6116
# 5 -10.7812 2.9530 -7.9544 0.0000 28.6441 0.0000
# 6 0.0000 0.0000 0.0000 1.6116 0.0000 -16.0420
#
#
#
# Elastic Compliance Matrix: (Units=1/GPa)
#
#
# Indices 1 2 3 4 5 6 
#
# 1 0.015467 -0.000859 -0.000714 0.000000 0.005712 0.000000
# 2 -0.000859 0.009048 -0.002469 0.000000 -0.001942 0.000000
# 3 -0.000714 -0.002469 0.008232 0.000000 0.002272 0.000000
# 4 0.000000 0.000000 0.000000 0.036436 0.000000 0.003660
# 5 0.005712 -0.001942 0.002272 0.000000 0.037892 0.000000
# 6 0.000000 0.000000 0.000000 0.003660 0.000000 -0.061969
#
#
# Mechanical properties :
#
#
# Convention : Reuss Voigt Hill
#
# Bulk Modulus (GPa) = 40.54545 48.51853 44.53199
# Shear Modulus (GPa) = 81.41948 26.10853 53.76400
#
# Velocity S-wave (km/s) = 6.37190 3.60824 5.17786
# Velocity P-wave (km/s) = 8.62284 6.44622 7.61272
#
# Compressibility (1/GPa) = 0.02466368
#
# Stress axis : x y z
#
# Youngs Moduli (GPa) = 64.65547 110.51601 121.48247
#
# Poissons Ratio (x) = 0.09494 0.08673
# Poissons Ratio (y) = 0.05554 0.29988
# Poissons Ratio (z) = 0.04616 0.27281
#
# Static dielectric constant tensor:
#      x y z
#    x 1.678240 0.000000 -0.012960 
#    y 0.000000 1.699740 0.000000 
#    z -0.012960 0.000000 1.736920 
# 
# From -- ./inp_files/82109.got.cif
#   From: 2010.05.17/outbox.cif.g08.bks.cpg/sg12_42_cif.got.tgz:82109.got - 2010.06.03 13:09:07.
