data_PCOD9211920
_publ_section_title
;
Structure prediction by ZEFSAII (Michael W. Deem and Ramdas Pophale) SiO2 
 PCOD9211920
Probable space group: C 2/M
;
_chemical_formula_sum "Si O2"
_cell_formula_units_Z 56
_cell_length_a 13.500193
_cell_length_b 21.984554
_cell_length_c 9.818927
_cell_angle_alpha 90.000000
_cell_angle_beta 123.638703
_cell_angle_gamma 90.000000
_cell_volume 2426.222088
_symmetry_space_group_name_H-M "C 2/M"
_symmetry_group_IT_number 12
_symmetry_cell_setting 'monoclinic'
loop_
_space_group_symop_operation_xyz
x,y,z
-x,y,-z
-x,-y,-z
x,-y,z
1/2+x,1/2+y,z
1/2-x,1/2+y,-z
1/2-x,1/2-y,-z
1/2+x,1/2-y,z
loop_
_atom_site_type_symbol
_atom_site_label
_atom_site_fract_x
_atom_site_fract_y
_atom_site_fract_z
Si Si1 0.553791 0.070803 0.398728
Si Si2 0.117790 0.112920 0.175713
Si Si3 0.886779 0.741779 0.816781
Si Si4 0.320885 0.116692 0.130393
Si Si5 0.811304 0.071933 0.486081
Si Si6 0.182370 0.153329 0.765616
Si Si7 0.463674 0.764973 0.316159
O O1 0.500000 0.097324 0.500000
O O2 0.443905 0.080411 0.213336
O O3 0.677833 0.092761 0.431033
O O4 0.575076 0.000000 0.441015
O O5 0.132300 0.186001 0.192903
O O6 0.236027 0.091439 0.185126
O O7 0.111960 0.085262 0.321239
O O8 0.000000 0.099114 0.000000
O O9 0.775765 0.703216 0.780886
O O10 0.923808 0.723615 0.693322
O O11 0.000000 0.728159 0.000000
O O12 0.364578 0.185534 0.198831
O O13 0.245394 0.117999 0.935716
O O14 0.849726 0.110017 0.383827
O O15 0.810120 0.000000 0.455341
O O16 0.079175 0.196295 0.745643
O O17 0.500000 0.768104 0.500000
#
# Coordination Sequence:
#
# PCOD9211920 Si02
#       7
#     8   8   8   8   8   8   8
#     4  10  21  40  67  98 129 166 222 288 336 389
#     4  11  24  42  69  97 134 178 230 278 332 401
#     4  11  22  40  64  96 139 175 213 271 333 409
#     4  12  23  40  67 100 137 177 220 276 341 408
#     4  11  26  46  69  98 134 178 232 284 338 402
#     4  12  25  42  64 100 143 180 216 272 346 412
#     4  12  25  39  64  97 137 176 226 275 339 400
#
# _framework density 23.081150999999998
#
# number of rings (size 3 to 8) (size 9 to 14) (size 15 to 20)
#    0.000    0.714    4.286    4.286    2.000    2.000 
#    0.000    1.429    0.000    9.857    0.000    0.000 
#    0.000    0.000    0.000    0.000    0.000    0.000 
#
# Total GULP energy -156792.824102 kJ/mol
# GULP energy per Si atom -5599.743718 kJ/mol
# Density = 2.302862 g / cm^3
# Si number density = 23.081151 Si / 1000 Ang^3
#
#
#
# Elastic Constant Matrix: (Units=GPa)
#
#
# Indices 1 2 3 4 5 6 
#
# 1 49.8611 1.1478 -6.9770 0.0000 1.6206 0.0000
# 2 1.1478 49.7364 -4.2460 0.0000 11.7250 0.0000
# 3 -6.9770 -4.2460 99.1168 0.0000 -5.4673 0.0000
# 4 0.0000 0.0000 0.0000 20.3644 0.0000 13.9770
# 5 1.6206 11.7250 -5.4673 0.0000 29.9320 0.0000
# 6 0.0000 0.0000 0.0000 13.9770 0.0000 -8.7252
#
#
#
# Elastic Compliance Matrix: (Units=1/GPa)
#
#
# Indices 1 2 3 4 5 6 
#
# 1 0.020278 -0.000166 0.001377 0.000000 -0.000781 0.000000
# 2 -0.000166 0.022175 0.000464 0.000000 -0.008593 0.000000
# 3 0.001377 0.000464 0.010296 0.000000 0.001624 0.000000
# 4 0.000000 0.000000 0.000000 0.023389 0.000000 0.037468
# 5 -0.000781 -0.008593 0.001624 0.000000 0.037114 0.000000
# 6 0.000000 0.000000 0.000000 0.037468 0.000000 -0.054590
#
#
# Mechanical properties :
#
#
# Convention : Reuss Voigt Hill
#
# Bulk Modulus (GPa) = 17.82571 19.84044 18.83307
# Shear Modulus (GPa) = 67.55794 22.23353 44.89574
#
# Velocity S-wave (km/s) = 5.41602 3.10704 4.41514
# Velocity P-wave (km/s) = 6.84477 4.63532 5.84539
#
# Compressibility (1/GPa) = 0.05609873
#
# Stress axis : x y z
#
# Youngs Moduli (GPa) = 49.31542 45.09552 97.12960
#
# Poissons Ratio (x) = 0.00750 -0.13376
# Poissons Ratio (y) = 0.00820 -0.04510
# Poissons Ratio (z) = -0.06792 -0.02094
#
# Static dielectric constant tensor:
#      x y z
#    x 1.877390 0.000000 0.009120 
#    y 0.000000 1.849030 0.000000 
#    z 0.009120 0.000000 1.858450 
# 
# From -- ./inp_files/65950.got.cif
#   From: 2010.05.17/outbox.cif.g08.bks.cpg/sg12_33_cif.got.tgz:65950.got - 2010.06.03 13:09:07.
