data_PCOD9211653
_publ_section_title
;
Structure prediction by ZEFSAII (Michael W. Deem and Ramdas Pophale) SiO2 
 PCOD9211653
Probable space group: C 2/M
;
_chemical_formula_sum "Si O2"
_cell_formula_units_Z 44
_cell_length_a 15.459506
_cell_length_b 20.011823
_cell_length_c 5.807483
_cell_angle_alpha 90.000000
_cell_angle_beta 86.862521
_cell_angle_gamma 90.000000
_cell_volume 1793.984772
_symmetry_space_group_name_H-M "C 2/M"
_symmetry_group_IT_number 12
_symmetry_cell_setting 'monoclinic'
loop_
_space_group_symop_operation_xyz
x,y,z
-x,y,-z
-x,-y,-z
x,-y,z
1/2+x,1/2+y,z
1/2-x,1/2+y,-z
1/2-x,1/2-y,-z
1/2+x,1/2-y,z
loop_
_atom_site_type_symbol
_atom_site_label
_atom_site_fract_x
_atom_site_fract_y
_atom_site_fract_z
Si Si1 0.364609 0.133677 0.101864
Si Si2 0.266658 0.924331 0.724728
Si Si3 0.905885 0.885163 0.007686
Si Si4 0.799880 0.176198 0.646310
Si Si5 0.947721 0.500000 0.259349
Si Si6 0.422843 0.744294 0.333369
O O1 0.274828 0.176310 0.151996
O O2 0.389596 0.067409 0.243420
O O3 0.429441 0.190154 0.177480
O O4 0.348596 0.105639 0.849699
O O5 0.179462 0.924364 0.897007
O O6 0.239651 0.876151 0.525692
O O7 0.284405 0.000000 0.655028
O O8 0.916025 0.820430 0.172053
O O9 0.882022 0.858088 0.759146
O O10 0.000000 0.919201 0.000000
O O11 0.837713 0.240185 0.510448
O O12 0.000000 0.500000 0.500000
O O13 0.000000 0.500000 0.000000
O O14 0.500000 0.742648 0.500000
#
# Coordination Sequence:
#
# PCOD9211653 Si02
#       6
#     8   8   8   8   4   8
#     4  11  25  43  70 100 138 186 236 289 356 433
#     4  10  23  41  64  95 133 181 229 282 348 421
#     4  10  21  40  64  95 132 171 224 289 350 424
#     4  10  23  40  69  96 137 179 235 287 359 428
#     4  12  30  52  76 110 150 195 254 305 362 436
#     4  11  22  41  66 101 138 179 227 293 364 425
#
# _framework density 24.526406000000001
#
# number of rings (size 3 to 8) (size 9 to 14) (size 15 to 20)
#    0.000    1.455    2.727    1.091    3.818    9.818 
#    0.000    0.909    0.000    0.000    0.000    0.000 
#    0.000    0.000    0.000    0.000    0.000    0.000 
#
# Total GULP energy -122846.717289 kJ/mol
# GULP energy per Si atom -5583.941695 kJ/mol
# Density = 2.447058 g / cm^3
# Si number density = 24.526406 Si / 1000 Ang^3
#
#
#
# Elastic Constant Matrix: (Units=GPa)
#
#
# Indices 1 2 3 4 5 6 
#
# 1 91.5786 29.3439 44.6072 0.0000 10.6407 0.0000
# 2 29.3439 153.3228 48.5335 0.0000 22.2584 0.0000
# 3 44.6072 48.5335 115.7085 0.0000 52.3231 0.0000
# 4 0.0000 0.0000 0.0000 26.6434 0.0000 5.8329
# 5 10.6407 22.2584 52.3231 0.0000 64.1045 0.0000
# 6 0.0000 0.0000 0.0000 5.8329 0.0000 17.8392
#
#
#
# Elastic Compliance Matrix: (Units=1/GPa)
#
#
# Indices 1 2 3 4 5 6 
#
# 1 0.014030 -0.001130 -0.006434 0.000000 0.003315 0.000000
# 2 -0.001130 0.007612 -0.002610 0.000000 -0.000325 0.000000
# 3 -0.006434 -0.002610 0.017950 0.000000 -0.012677 0.000000
# 4 0.000000 0.000000 0.000000 0.040426 0.000000 -0.013218
# 5 0.003315 -0.000325 -0.012677 0.000000 0.025509 0.000000
# 6 0.000000 0.000000 0.000000 -0.013218 0.000000 0.060378
#
#
# Mechanical properties :
#
#
# Convention : Reuss Voigt Hill
#
# Bulk Modulus (GPa) = 51.96387 67.28657 59.62522
# Shear Modulus (GPa) = 25.95120 37.59244 31.77182
#
# Velocity S-wave (km/s) = 3.25636 3.91926 3.60309
# Velocity P-wave (km/s) = 5.94739 6.92638 6.45547
#
# Compressibility (1/GPa) = 0.01924414
#
# Stress axis : x y z
#
# Youngs Moduli (GPa) = 71.27391 131.37399 55.70984
#
# Poissons Ratio (x) = 0.14843 0.35844
# Poissons Ratio (y) = 0.08053 0.14542
# Poissons Ratio (z) = 0.45858 0.34293
#
# Static dielectric constant tensor:
#      x y z
#    x 2.117920 0.000000 -0.116610 
#    y 0.000000 1.897720 0.000000 
#    z -0.116610 0.000000 2.000160 
# 
# From -- ./inp_files/16137.got.cif
#   From: 2010.05.17/outbox.cif.g08.bks.cpg/sg12_9_cif.got.tgz:16137.got - 2010.06.03 13:09:07.
