data_PCOD9211189
_publ_section_title
;
Structure prediction by ZEFSAII (Michael W. Deem and Ramdas Pophale) SiO2 
 PCOD9211189
Probable space group: C 2/M
;
_chemical_formula_sum "Si O2"
_cell_formula_units_Z 46
_cell_length_a 21.976397
_cell_length_b 19.969922
_cell_length_c 6.043443
_cell_angle_alpha 90.000000
_cell_angle_beta 50.761252
_cell_angle_gamma 90.000000
_cell_volume 2054.225801
_symmetry_space_group_name_H-M "C 2/M"
_symmetry_group_IT_number 12
_symmetry_cell_setting 'monoclinic'
loop_
_space_group_symop_operation_xyz
x,y,z
-x,y,-z
-x,-y,-z
x,-y,z
1/2+x,1/2+y,z
1/2-x,1/2+y,-z
1/2-x,1/2-y,-z
1/2+x,1/2-y,z
loop_
_atom_site_type_symbol
_atom_site_label
_atom_site_fract_x
_atom_site_fract_y
_atom_site_fract_z
Si Si1 0.385572 0.379406 0.610896
Si Si2 0.457638 0.000000 0.342229
Si Si3 0.079019 0.751907 0.715557
Si Si4 0.500000 0.500000 0.500000
Si Si5 0.910301 0.633402 0.626637
Si Si6 0.768921 0.646907 0.262268
Si Si7 0.699122 0.704996 0.820516
O O1 0.436027 0.323503 0.364564
O O2 0.437978 0.441375 0.557763
O O3 0.307182 0.393686 0.645362
O O4 0.347898 0.339907 0.902565
O O5 0.500000 0.000000 0.500000
O O6 0.409646 0.931389 0.471383
O O7 0.500000 0.000000 0.000000
O O8 0.109294 0.700207 0.463352
O O9 0.136134 0.767777 0.786574
O O10 0.000000 0.722363 0.000000
O O11 0.000000 0.642767 0.500000
O O12 0.849887 0.622766 0.968518
O O13 0.758353 0.656968 0.548322
O O14 0.762513 0.724760 0.193385
#
# Coordination Sequence:
#
# PCOD9211189 Si02
#       7
#     8   4   8   2   8   8   8
#     4  11  24  45  64  96 138 188 237 303 362 435
#     4  10  24  47  63  92 142 185 221 285 373 444
#     4  11  22  36  67 104 130 177 242 300 366 435
#     4  12  28  46  72  92 150 194 240 284 368 446
#     4  11  23  41  68 102 141 178 233 300 371 454
#     4  10  22  39  69 102 133 178 235 301 363 439
#     4  10  21  39  68 102 136 177 241 310 369 427
#
# _framework density 22.392865
#
# number of rings (size 3 to 8) (size 9 to 14) (size 15 to 20)
#    0.000    1.391    1.739    3.130    6.087    2.087 
#    0.000   11.739    0.000    1.043    0.000    0.000 
#    0.000    0.000    0.000    0.000    0.000    0.000 
#
# Total GULP energy -128071.324828 kJ/mol
# GULP energy per Si atom -5568.318471 kJ/mol
# Density = 2.234190 g / cm^3
# Si number density = 22.392865 Si / 1000 Ang^3
#
#
#
# Elastic Constant Matrix: (Units=GPa)
#
#
# Indices 1 2 3 4 5 6 
#
# 1 100.0205 40.5686 11.2872 0.0000 -15.8408 0.0000
# 2 40.5686 124.1523 6.4811 0.0000 -3.2364 0.0000
# 3 11.2872 6.4811 106.3125 0.0000 -11.8651 0.0000
# 4 0.0000 0.0000 0.0000 21.9577 0.0000 -6.1666
# 5 -15.8408 -3.2364 -11.8651 0.0000 25.1192 0.0000
# 6 0.0000 0.0000 0.0000 -6.1666 0.0000 39.3597
#
#
#
# Elastic Compliance Matrix: (Units=1/GPa)
#
#
# Indices 1 2 3 4 5 6 
#
# 1 0.012823 -0.003981 -0.000289 0.000000 0.007437 0.000000
# 2 -0.003981 0.009334 -0.000309 0.000000 -0.001454 0.000000
# 3 -0.000289 -0.000309 0.009956 0.000000 0.004481 0.000000
# 4 0.000000 0.000000 0.000000 0.047638 0.000000 0.007464
# 5 0.007437 -0.001454 0.004481 0.000000 0.046430 0.000000
# 6 0.000000 0.000000 0.000000 0.007464 0.000000 0.026576
#
#
# Mechanical properties :
#
#
# Convention : Reuss Voigt Hill
#
# Bulk Modulus (GPa) = 43.56205 49.68434 46.62320
# Shear Modulus (GPa) = 29.48712 35.43054 32.45883
#
# Velocity S-wave (km/s) = 3.63272 3.98203 3.81138
# Velocity P-wave (km/s) = 6.09027 6.58619 6.34308
#
# Compressibility (1/GPa) = 0.02295576
#
# Stress axis : x y z
#
# Youngs Moduli (GPa) = 77.98358 107.13798 100.44421
#
# Poissons Ratio (x) = 0.42654 0.02900
# Poissons Ratio (y) = 0.31047 0.03099
# Poissons Ratio (z) = 0.02251 0.03306
#
# Static dielectric constant tensor:
#      x y z
#    x 1.943650 0.000000 0.011170 
#    y 0.000000 1.806640 0.000000 
#    z 0.011170 0.000000 1.882570 
# 
# From -- ./inp_files/25553.got.cif
#   From: 2010.05.17/outbox.cif.g08.bks.cpg/sg12_13_cif.got.tgz:25553.got - 2010.06.03 13:09:07.
