data_PCOD9211413
_publ_section_title
;
Structure prediction by ZEFSAII (Michael W. Deem and Ramdas Pophale) SiO2 
 PCOD9211413
Probable space group: C 2/M
;
_chemical_formula_sum "Si O2"
_cell_formula_units_Z 44
_cell_length_a 5.576766
_cell_length_b 23.943311
_cell_length_c 15.464610
_cell_angle_alpha 90.000000
_cell_angle_beta 113.989433
_cell_angle_gamma 90.000000
_cell_volume 1886.563447
_symmetry_space_group_name_H-M "C 2/M"
_symmetry_group_IT_number 12
_symmetry_cell_setting 'monoclinic'
loop_
_space_group_symop_operation_xyz
x,y,z
-x,y,-z
-x,-y,-z
x,-y,z
1/2+x,1/2+y,z
1/2-x,1/2+y,-z
1/2-x,1/2-y,-z
1/2+x,1/2-y,z
loop_
_atom_site_type_symbol
_atom_site_label
_atom_site_fract_x
_atom_site_fract_y
_atom_site_fract_z
Si Si1 0.061023 0.598875 0.110043
Si Si2 0.539053 0.227928 0.146700
Si Si3 0.281359 0.230982 0.636368
Si Si4 0.295242 0.500000 0.889888
Si Si5 0.318731 0.117352 0.558147
Si Si6 0.070507 0.000000 0.775832
Si Si7 0.238155 0.000000 0.604059
O O1 0.077902 0.661215 0.148393
O O2 0.300651 0.556531 0.164890
O O3 0.834713 0.560056 0.114047
O O4 0.000000 0.604270 0.000000
O O5 0.232477 0.244779 0.104062
O O6 0.637581 0.249264 0.255269
O O7 0.463664 0.264418 0.594465
O O8 0.365751 0.167767 0.630513
O O9 0.302151 0.500000 0.786406
O O10 0.500000 0.500000 0.000000
O O11 0.500000 0.126013 0.500000
O O12 0.000000 0.117650 0.500000
O O13 0.388159 0.057179 0.606982
O O14 0.112781 0.000000 0.680901
O O15 0.000000 0.000000 0.500000
#
# Coordination Sequence:
#
# PCOD9211413 Si02
#       7
#     8   8   8   4   8   4   4
#     4  11  23  40  66 100 134 174 226 282 337 402
#     4  10  24  42  62  94 134 180 223 266 327 401
#     4  10  21  40  62  91 126 164 218 273 321 391
#     4  11  21  41  68 101 134 171 220 291 337 403
#     4  11  23  41  63  91 126 165 212 274 336 395
#     4  11  22  44  69  95 134 174 223 282 349 386
#     4  10  24  46  63  95 131 172 222 269 329 411
#
# _framework density 23.322832999999999
#
# number of rings (size 3 to 8) (size 9 to 14) (size 15 to 20)
#    0.000    1.455    1.818    3.000    2.545    2.909 
#   22.909    0.000    0.000    0.000    0.000    0.000 
#    0.000    0.000    0.000    0.000    0.000    0.000 
#
# Total GULP energy -122640.884476 kJ/mol
# GULP energy per Si atom -5574.585658 kJ/mol
# Density = 2.326975 g / cm^3
# Si number density = 23.322833 Si / 1000 Ang^3
#
#
#
# Elastic Constant Matrix: (Units=GPa)
#
#
# Indices 1 2 3 4 5 6 
#
# 1 140.3738 31.5568 41.4928 0.0000 -31.3778 0.0000
# 2 31.5568 152.3946 -7.4635 0.0000 -10.6523 0.0000
# 3 41.4928 -7.4635 87.2861 0.0000 -21.3732 0.0000
# 4 0.0000 0.0000 0.0000 55.2621 0.0000 -48.1775
# 5 -31.3778 -10.6523 -21.3732 0.0000 36.0808 0.0000
# 6 0.0000 0.0000 0.0000 -48.1775 0.0000 137.2182
#
#
#
# Elastic Compliance Matrix: (Units=1/GPa)
#
#
# Indices 1 2 3 4 5 6 
#
# 1 0.009875 -0.001785 -0.003361 0.000000 0.006070 0.000000
# 2 -0.001785 0.007139 0.001866 0.000000 0.001660 0.000000
# 3 -0.003361 0.001866 0.014776 0.000000 0.006381 0.000000
# 4 0.000000 0.000000 0.000000 0.026078 0.000000 0.009156
# 5 0.006070 0.001660 0.006381 0.000000 0.037265 0.000000
# 6 0.000000 0.000000 0.000000 0.009156 0.000000 0.010502
#
#
# Mechanical properties :
#
#
# Convention : Reuss Voigt Hill
#
# Bulk Modulus (GPa) = 39.63525 56.80296 48.21911
# Shear Modulus (GPa) = 41.45725 66.67678 54.06701
#
# Velocity S-wave (km/s) = 4.22066 5.35263 4.81999
# Velocity P-wave (km/s) = 6.38616 7.91258 7.18999
#
# Compressibility (1/GPa) = 0.02523006
#
# Stress axis : x y z
#
# Youngs Moduli (GPa) = 101.26115 140.07561 67.67660
#
# Poissons Ratio (x) = 0.25006 0.22744
# Poissons Ratio (y) = 0.18077 -0.12626
# Poissons Ratio (z) = 0.34031 -0.26133
#
# Static dielectric constant tensor:
#      x y z
#    x 1.990860 0.000000 -0.004860 
#    y 0.000000 1.818030 0.000000 
#    z -0.004860 0.000000 1.849650 
# 
# From -- ./inp_files/252928.got.cif
#   From: 2010.05.17/outbox.cif.g08.bks.cpg/sg12_127_cif.got.tgz:252928.got - 2010.06.03 13:09:07.
