data_PCOD9211231
_publ_section_title
;
Structure prediction by ZEFSAII (Michael W. Deem and Ramdas Pophale) SiO2 
 PCOD9211231
Probable space group: C 2/M
;
_chemical_formula_sum "Si O2"
_cell_formula_units_Z 52
_cell_length_a 26.268811
_cell_length_b 18.006862
_cell_length_c 4.930601
_cell_angle_alpha 90.000000
_cell_angle_beta 98.521316
_cell_angle_gamma 90.000000
_cell_volume 2306.520884
_symmetry_space_group_name_H-M "C 2/M"
_symmetry_group_IT_number 12
_symmetry_cell_setting 'monoclinic'
loop_
_space_group_symop_operation_xyz
x,y,z
-x,y,-z
-x,-y,-z
x,-y,z
1/2+x,1/2+y,z
1/2-x,1/2+y,-z
1/2-x,1/2-y,-z
1/2+x,1/2-y,z
loop_
_atom_site_type_symbol
_atom_site_label
_atom_site_fract_x
_atom_site_fract_y
_atom_site_fract_z
Si Si1 0.048552 0.375214 0.858319
Si Si2 0.330575 0.208047 0.621967
Si Si3 0.909478 0.169137 0.770338
Si Si4 0.109253 0.581629 0.426845
Si Si5 0.732383 0.682540 0.798630
Si Si6 0.635040 0.411625 0.781294
Si Si7 0.000000 0.759735 0.500000
O O1 0.061821 0.418793 0.596110
O O2 0.033878 0.293840 0.724858
O O3 0.093423 0.392046 0.112685
O O4 0.000000 0.398837 0.000000
O O5 0.375673 0.256218 0.795922
O O6 0.356748 0.150191 0.438507
O O7 0.299149 0.274114 0.457090
O O8 0.288063 0.157113 0.737660
O O9 0.881498 0.116194 0.528637
O O10 0.962196 0.194596 0.667707
O O11 0.906660 0.123871 0.046244
O O12 0.132482 0.500000 0.437596
O O13 0.691816 0.623876 0.884996
O O14 0.750000 0.750000 0.000000
O O15 0.636540 0.500000 0.801538
#
# Coordination Sequence:
#
# PCOD9211231 Si02
#       7
#     8   8   8   8   8   8   4
#     4  12  24  43  64  92 129 173 233 275 325 388
#     4  10  22  41  65  98 132 171 229 276 324 402
#     4  11  24  42  71  96 133 176 228 278 332 395
#     4  12  27  42  62  95 140 180 215 276 342 397
#     4  10  21  39  71  98 125 174 224 273 328 404
#     4  11  25  45  67 100 140 174 212 278 352 407
#     4  12  26  42  74 102 124 180 240 292 318 402
#
# _framework density 22.544777
#
# number of rings (size 3 to 8) (size 9 to 14) (size 15 to 20)
#    0.000    0.923    4.615    0.923    6.462    2.462 
#    0.000    3.077    0.000    0.000    0.000    0.000 
#    0.000    0.000    0.000    0.000    0.000    0.000 
#
# Total GULP energy -144969.853917 kJ/mol
# GULP energy per Si atom -5575.763612 kJ/mol
# Density = 2.249346 g / cm^3
# Si number density = 22.544777 Si / 1000 Ang^3
#
#
#
# Elastic Constant Matrix: (Units=GPa)
#
#
# Indices 1 2 3 4 5 6 
#
# 1 94.7580 41.4038 3.5516 0.0000 -22.6619 0.0000
# 2 41.4038 144.8132 11.7904 0.0000 -17.2556 0.0000
# 3 3.5516 11.7904 92.6006 0.0000 -13.5781 0.0000
# 4 0.0000 0.0000 0.0000 10.0270 0.0000 -0.9185
# 5 -22.6619 -17.2556 -13.5781 0.0000 26.4000 0.0000
# 6 0.0000 0.0000 0.0000 -0.9185 0.0000 22.1080
#
#
#
# Elastic Compliance Matrix: (Units=1/GPa)
#
#
# Indices 1 2 3 4 5 6 
#
# 1 0.014466 -0.002913 0.001468 0.000000 0.011269 0.000000
# 2 -0.002913 0.008081 -0.000551 0.000000 0.002498 0.000000
# 3 0.001468 -0.000551 0.011838 0.000000 0.006989 0.000000
# 4 0.000000 0.000000 0.000000 0.100111 0.000000 0.004159
# 5 0.011269 0.002498 0.006989 0.000000 0.052780 0.000000
# 6 0.000000 0.000000 0.000000 0.004159 0.000000 0.045405
#
#
# Mechanical properties :
#
#
# Convention : Reuss Voigt Hill
#
# Bulk Modulus (GPa) = 32.90128 49.51816 41.20972
# Shear Modulus (GPa) = 20.25914 30.06873 25.16394
#
# Velocity S-wave (km/s) = 3.00095 3.65599 3.34455
# Velocity P-wave (km/s) = 5.16072 6.31140 5.76484
#
# Compressibility (1/GPa) = 0.03039395
#
# Stress axis : x y z
#
# Youngs Moduli (GPa) = 69.12800 123.75085 84.47615
#
# Poissons Ratio (x) = 0.36045 -0.12405
# Poissons Ratio (y) = 0.20135 0.04654
# Poissons Ratio (z) = -0.10151 0.06817
#
# Static dielectric constant tensor:
#      x y z
#    x 2.113590 0.000000 0.001300 
#    y 0.000000 1.841280 0.000000 
#    z 0.001300 0.000000 2.078110 
# 
# From -- ./inp_files/28534.got.cif
#   From: 2010.05.17/outbox.cif.g08.bks.cpg/sg12_15_cif.got.tgz:28534.got - 2010.06.03 13:09:07.
