data_PCOD9211595
_publ_section_title
;
Structure prediction by ZEFSAII (Michael W. Deem and Ramdas Pophale) SiO2 
 PCOD9211595
Probable space group: C 2/M
;
_chemical_formula_sum "Si O2"
_cell_formula_units_Z 44
_cell_length_a 8.590893
_cell_length_b 12.668290
_cell_length_c 24.508175
_cell_angle_alpha 90.000000
_cell_angle_beta 50.876911
_cell_angle_gamma 90.000000
_cell_volume 2069.248672
_symmetry_space_group_name_H-M "C 2/M"
_symmetry_group_IT_number 12
_symmetry_cell_setting 'monoclinic'
loop_
_space_group_symop_operation_xyz
x,y,z
-x,y,-z
-x,-y,-z
x,-y,z
1/2+x,1/2+y,z
1/2-x,1/2+y,-z
1/2-x,1/2-y,-z
1/2+x,1/2-y,z
loop_
_atom_site_type_symbol
_atom_site_label
_atom_site_fract_x
_atom_site_fract_y
_atom_site_fract_z
Si Si1 0.500000 0.817024 0.000000
Si Si2 0.486989 0.378460 0.789685
Si Si3 0.231692 0.000000 0.013538
Si Si4 0.746593 0.000000 0.117183
Si Si5 0.678845 0.290209 0.854145
Si Si6 0.860363 0.381102 0.625363
Si Si7 0.784038 0.200037 0.551869
O O1 0.676238 0.896378 0.979074
O O2 0.434965 0.746586 0.065782
O O3 0.426227 0.500000 0.810049
O O4 0.539622 0.327837 0.836117
O O5 0.310159 0.307762 0.805111
O O6 0.683882 0.374710 0.708770
O O7 0.305699 0.000000 0.934567
O O8 0.991304 0.000000 0.066723
O O9 0.686171 0.108243 0.159545
O O10 0.859303 0.500000 0.601934
O O11 0.814834 0.292742 0.589655
O O12 0.076904 0.362342 0.605911
O O13 0.750000 0.250000 0.500000
O O14 0.000000 0.141900 0.500000
#
# Coordination Sequence:
#
# PCOD9211595 Si02
#       7
#     4   8   4   4   8   8   8
#     4  11  24  37  62  92 118 159 201 282 326 384
#     4  11  25  44  65  90 124 172 217 258 313 381
#     4  10  22  38  58  88 120 144 202 247 338 401
#     4  11  22  38  60  86 118 158 193 259 327 389
#     4  12  24  42  64  90 125 162 213 271 330 381
#     4  10  21  40  64  90 130 173 207 253 306 360
#     4   9  19  36  63  99 131 161 204 249 298 358
#
# _framework density 21.263756000000001
#
# number of rings (size 3 to 8) (size 9 to 14) (size 15 to 20)
#    0.000    1.455    0.909    4.364    2.545    5.818 
#    1.636    2.727    2.000    0.000    0.000    0.000 
#    0.000    0.000    0.000    0.000    0.000    0.000 
#
# Total GULP energy -123000.021280 kJ/mol
# GULP energy per Si atom -5590.910058 kJ/mol
# Density = 2.121536 g / cm^3
# Si number density = 21.263756 Si / 1000 Ang^3
#
#
#
# Elastic Constant Matrix: (Units=GPa)
#
#
# Indices 1 2 3 4 5 6 
#
# 1 76.9135 40.1253 18.5101 -0.0009 0.7558 0.0009
# 2 40.1253 142.5921 30.3758 -0.0013 -8.5568 0.0012
# 3 18.5101 30.3758 59.5854 -0.0051 -15.9756 0.0051
# 4 -0.0009 -0.0013 -0.0051 -429.0146 0.0018 453.3044
# 5 0.7558 -8.5568 -15.9756 0.0018 31.5614 -0.0017
# 6 0.0009 0.0012 0.0051 453.3044 -0.0017 -414.9411
#
#
#
# Elastic Compliance Matrix: (Units=1/GPa)
#
#
# Indices 1 2 3 4 5 6 
#
# 1 0.015997 -0.003873 -0.003910 0.000000 -0.003412 0.000000
# 2 -0.003873 0.008806 -0.003032 0.000000 0.000945 0.000000
# 3 -0.003910 -0.003032 0.022386 0.000000 0.010603 0.000000
# 4 0.000000 0.000000 0.000000 0.015106 0.000000 0.016502
# 5 -0.003412 0.000945 0.010603 0.000000 0.037389 0.000000
# 6 0.000000 0.000000 0.000000 0.016502 0.000000 0.015618
#
#
# Mechanical properties :
#
#
# Convention : Reuss Voigt Hill
#
# Bulk Modulus (GPa) = 39.12751 50.79038 44.95894
# Shear Modulus (GPa) = 34.37594 -149.80686 -57.71546
#
# Velocity S-wave (km/s) = 4.02511 -8.40266 -5.21551
# Velocity P-wave (km/s) = 6.32796 8.37865 3.88322
#
# Compressibility (1/GPa) = 0.02555747
#
# Stress axis : x y z
#
# Youngs Moduli (GPa) = 62.51275 113.56333 44.67153
#
# Poissons Ratio (x) = 0.43987 0.17465
# Poissons Ratio (y) = 0.24214 0.13546
# Poissons Ratio (z) = 0.24440 0.34436
#
# Static dielectric constant tensor:
#      x y z
#    x 1.801480 0.000000 -0.043500 
#    y 0.000000 1.863780 0.000000 
#    z -0.043500 0.000000 1.781750 
# 
# From -- ./inp_files/355686.got.cif
#   From: 2010.05.17/outbox.cif.g08.bks.cpg/sg12_178_cif.got.tgz:355686.got - 2010.06.03 13:09:07.
