data_PCOD9211698
_publ_section_title
;
Structure prediction by ZEFSAII (Michael W. Deem and Ramdas Pophale) SiO2 
 PCOD9211698
Probable space group: C 2/M
;
_chemical_formula_sum "Si O2"
_cell_formula_units_Z 44
_cell_length_a 8.806352
_cell_length_b 25.312343
_cell_length_c 12.199486
_cell_angle_alpha 90.000000
_cell_angle_beta 125.792603
_cell_angle_gamma 90.000000
_cell_volume 2205.796184
_symmetry_space_group_name_H-M "C 2/M"
_symmetry_group_IT_number 12
_symmetry_cell_setting 'monoclinic'
loop_
_space_group_symop_operation_xyz
x,y,z
-x,y,-z
-x,-y,-z
x,-y,z
1/2+x,1/2+y,z
1/2-x,1/2+y,-z
1/2-x,1/2-y,-z
1/2+x,1/2-y,z
loop_
_atom_site_type_symbol
_atom_site_label
_atom_site_fract_x
_atom_site_fract_y
_atom_site_fract_z
Si Si1 0.026060 0.912648 0.726896
Si Si2 0.438666 0.000000 0.223499
Si Si3 0.829366 0.000000 0.511491
Si Si4 0.963855 0.306957 0.670926
Si Si5 0.543296 0.500000 0.142710
Si Si6 0.947350 0.396306 0.849609
Si Si7 0.191954 0.807969 0.350861
O O1 0.869617 0.946600 0.596238
O O2 0.046168 0.948733 0.841459
O O3 0.953553 0.855061 0.723567
O O4 0.225563 0.909898 0.752271
O O5 0.443536 0.052529 0.150762
O O6 0.630236 0.000000 0.372438
O O7 0.268770 0.000000 0.238030
O O8 0.000000 0.000000 0.500000
O O9 0.974775 0.347780 0.776422
O O10 0.912795 0.248046 0.689041
O O11 0.799911 0.318294 0.512091
O O12 0.153935 0.307678 0.680094
O O13 0.500000 0.500000 0.000000
O O14 0.000000 0.385869 0.000000
#
# Coordination Sequence:
#
# PCOD9211698 Si02
#       7
#     8   4   4   8   4   8   8
#     4  11  23  38  61  89 124 157 204 252 311 362
#     4  12  22  38  66  87 125 166 206 256 310 365
#     4  11  21  39  60  96 122 154 201 260 310 358
#     4  10  22  40  63  92 122 155 204 250 311 367
#     4  11  24  42  58  87 127 167 207 249 300 374
#     4  12  24  40  61  90 124 167 206 247 304 377
#     4  10  21  40  65  91 118 155 199 259 312 360
#
# _framework density 19.947444999999998
#
# number of rings (size 3 to 8) (size 9 to 14) (size 15 to 20)
#    0.000    1.091    1.818    5.182    0.000    4.364 
#    0.000    4.545    0.000    0.000    0.000    0.000 
#    0.000    0.000    0.000    0.000    0.000    0.000 
#
# Total GULP energy -122898.647034 kJ/mol
# GULP energy per Si atom -5586.302138 kJ/mol
# Density = 1.990204 g / cm^3
# Si number density = 19.947445 Si / 1000 Ang^3
#
#
#
# Elastic Constant Matrix: (Units=GPa)
#
#
# Indices 1 2 3 4 5 6 
#
# 1 91.5171 50.3557 12.3314 0.0000 -4.9112 0.0000
# 2 50.3557 166.5340 44.5970 0.0000 -23.0937 0.0000
# 3 12.3314 44.5970 88.6579 0.0000 -16.0874 0.0000
# 4 0.0000 0.0000 0.0000-3601.7480 0.0000 -56.7234
# 5 -4.9112 -23.0937 -16.0874 0.0000 37.1625 0.0000
# 6 0.0000 0.0000 0.0000 -56.7234 0.0000 38.2729
#
#
#
# Elastic Compliance Matrix: (Units=1/GPa)
#
#
# Indices 1 2 3 4 5 6 
#
# 1 0.013130 -0.004104 0.000098 0.000000 -0.000773 0.000000
# 2 -0.004104 0.008554 -0.003110 0.000000 0.003427 0.000000
# 3 0.000098 -0.003110 0.013546 0.000000 0.003944 0.000000
# 4 0.000000 0.000000 0.000000 -0.000271 0.000000 -0.000402
# 5 -0.000773 0.003427 0.003944 0.000000 0.030644 0.000000
# 6 0.000000 0.000000 0.000000 -0.000402 0.000000 0.025532
#
#
# Mechanical properties :
#
#
# Convention : Reuss Voigt Hill
#
# Bulk Modulus (GPa) = 47.62391 62.36415 54.99403
# Shear Modulus (GPa) = 44.49764 -689.30089 -322.40162
#
# Velocity S-wave (km/s) = 4.72820 -18.60937 -12.72699
# Velocity P-wave (km/s) = 7.33037 20.74639 13.72367
#
# Compressibility (1/GPa) = 0.02099786
#
# Stress axis : x y z
#
# Youngs Moduli (GPa) = 76.16030 116.90891 73.82320
#
# Poissons Ratio (x) = 0.47974 -0.00721
# Poissons Ratio (y) = 0.31253 0.22960
# Poissons Ratio (z) = -0.00744 0.36360
#
# Static dielectric constant tensor:
#      x y z
#    x 1.637460 0.000000 -0.030280 
#    y 0.000000 1.668510 0.000000 
#    z -0.030280 0.000000 1.732720 
# 
# From -- ./inp_files/122399.got.cif
#   From: 2010.05.17/outbox.cif.g08.bks.cpg/sg12_62_cif.got.tgz:122399.got - 2010.06.03 13:09:07.
