data_PCOD9211149
_publ_section_title
;
Structure prediction by ZEFSAII (Michael W. Deem and Ramdas Pophale) SiO2 
 PCOD9211149
Probable space group: C 2/M
;
_chemical_formula_sum "Si O2"
_cell_formula_units_Z 52
_cell_length_a 23.146211
_cell_length_b 21.723167
_cell_length_c 5.338642
_cell_angle_alpha 90.000000
_cell_angle_beta 61.681465
_cell_angle_gamma 90.000000
_cell_volume 2363.068770
_symmetry_space_group_name_H-M "C 2/M"
_symmetry_group_IT_number 12
_symmetry_cell_setting 'monoclinic'
loop_
_space_group_symop_operation_xyz
x,y,z
-x,y,-z
-x,-y,-z
x,-y,z
1/2+x,1/2+y,z
1/2-x,1/2+y,-z
1/2-x,1/2-y,-z
1/2+x,1/2-y,z
loop_
_atom_site_type_symbol
_atom_site_label
_atom_site_fract_x
_atom_site_fract_y
_atom_site_fract_z
Si Si1 0.542100 0.500000 0.169224
Si Si2 0.076467 0.123524 0.907977
Si Si3 0.174067 0.631120 0.864592
Si Si4 0.311076 0.573847 0.684947
Si Si5 0.534641 0.926505 0.178228
Si Si6 0.686763 0.790646 0.351297
Si Si7 0.170357 0.813965 0.040689
O O1 0.500000 0.500000 0.500000
O O2 0.500000 0.500000 0.000000
O O3 0.578215 0.564342 0.088004
O O4 0.123974 0.098920 0.590322
O O5 0.109119 0.180392 0.984230
O O6 0.000000 0.134397 0.000000
O O7 0.243012 0.594564 0.689350
O O8 0.163266 0.676163 0.649769
O O9 0.111498 0.587221 0.011031
O O10 0.175967 0.667559 0.124838
O O11 0.313961 0.500000 0.708238
O O12 0.308514 0.616402 0.936435
O O13 0.500000 0.901501 0.500000
O O14 0.525319 0.000000 0.198845
O O15 0.500000 0.901528 0.000000
O O16 0.658701 0.724928 0.318368
O O17 0.765643 0.783906 0.215162
#
# Coordination Sequence:
#
# PCOD9211149 Si02
#       7
#     4   8   8   8   8   8   8
#     4  10  24  40  60  86 124 180 218 259 334 403
#     4  11  24  39  62  93 134 180 226 278 335 402
#     4  11  22  43  69 102 133 174 225 286 331 407
#     4  11  24  40  65 101 136 174 224 287 341 400
#     4  10  21  39  67 100 137 177 213 266 349 431
#     4  10  23  42  69  94 130 179 231 277 339 397
#     4  10  24  40  65  92 131 181 233 282 337 411
#
# _framework density 22.005286000000002
#
# number of rings (size 3 to 8) (size 9 to 14) (size 15 to 20)
#    0.000    1.538    2.308    1.385    7.538    1.846 
#    0.000    2.308    6.769    0.000    0.000    0.000 
#    0.000    0.000    0.000    0.000    0.000    0.000 
#
# Total GULP energy -145170.993449 kJ/mol
# GULP energy per Si atom -5583.499748 kJ/mol
# Density = 2.195520 g / cm^3
# Si number density = 22.005286 Si / 1000 Ang^3
#
#
#
# Elastic Constant Matrix: (Units=GPa)
#
#
# Indices 1 2 3 4 5 6 
#
# 1 140.8490 39.7755 38.4734 0.0000 -3.9657 0.0000
# 2 39.7755 86.6433 22.1865 0.0000 14.4854 0.0000
# 3 38.4734 22.1865 114.0733 0.0000 13.4084 0.0000
# 4 0.0000 0.0000 0.0000 23.5130 0.0000 1.0007
# 5 -3.9657 14.4854 13.4084 0.0000 33.8621 0.0000
# 6 0.0000 0.0000 0.0000 1.0007 0.0000 31.5672
#
#
#
# Elastic Compliance Matrix: (Units=1/GPa)
#
#
# Indices 1 2 3 4 5 6 
#
# 1 0.009128 -0.004147 -0.002733 0.000000 0.003925 0.000000
# 2 -0.004147 0.014711 -0.000698 0.000000 -0.006502 0.000000
# 3 -0.002733 -0.000698 0.010306 0.000000 -0.004102 0.000000
# 4 0.000000 0.000000 0.000000 0.042587 0.000000 -0.001350
# 5 0.003925 -0.006502 -0.004102 0.000000 0.034397 0.000000
# 6 0.000000 0.000000 0.000000 -0.001350 0.000000 0.031721
#
#
# Mechanical properties :
#
#
# Convention : Reuss Voigt Hill
#
# Bulk Modulus (GPa) = 52.66420 60.27073 56.46746
# Shear Modulus (GPa) = 30.42523 33.86381 32.14452
#
# Velocity S-wave (km/s) = 3.72241 3.92713 3.82614
# Velocity P-wave (km/s) = 6.51610 6.92905 6.72575
#
# Compressibility (1/GPa) = 0.01898823
#
# Stress axis : x y z
#
# Youngs Moduli (GPa) = 109.55308 67.97588 97.02867
#
# Poissons Ratio (x) = 0.28188 0.26522
# Poissons Ratio (y) = 0.45428 0.06776
# Poissons Ratio (z) = 0.29946 0.04747
#
# Static dielectric constant tensor:
#      x y z
#    x 1.844630 0.000000 0.011300 
#    y 0.000000 1.839370 0.000000 
#    z 0.011300 0.000000 1.839790 
# 
# From -- ./inp_files/21819.got.cif
#   From: 2010.05.17/outbox.cif.g08.bks.cpg/sg12_11_cif.got.tgz:21819.got - 2010.06.03 13:09:07.
