data_PCOD9211282
_publ_section_title
;
Structure prediction by ZEFSAII (Michael W. Deem and Ramdas Pophale) SiO2 
 PCOD9211282
Probable space group: C 2/M
;
_chemical_formula_sum "Si O2"
_cell_formula_units_Z 52
_cell_length_a 16.437785
_cell_length_b 26.309717
_cell_length_c 12.015448
_cell_angle_alpha 90.000000
_cell_angle_beta 148.426788
_cell_angle_gamma 90.000000
_cell_volume 2720.751147
_symmetry_space_group_name_H-M "C 2/M"
_symmetry_group_IT_number 12
_symmetry_cell_setting 'monoclinic'
loop_
_space_group_symop_operation_xyz
x,y,z
-x,y,-z
-x,-y,-z
x,-y,z
1/2+x,1/2+y,z
1/2-x,1/2+y,-z
1/2-x,1/2-y,-z
1/2+x,1/2-y,z
loop_
_atom_site_type_symbol
_atom_site_label
_atom_site_fract_x
_atom_site_fract_y
_atom_site_fract_z
Si Si1 0.371250 0.316962 0.086315
Si Si2 0.270014 0.915583 0.015725
Si Si3 0.964965 0.390344 0.833861
Si Si4 0.025904 0.000000 0.662110
Si Si5 0.822797 0.235783 0.269611
Si Si6 0.499415 0.000000 0.369855
Si Si7 0.307190 0.000000 0.608078
Si Si8 0.773929 0.197226 0.462268
O O1 0.334893 0.298015 0.170947
O O2 0.556179 0.321029 0.301746
O O3 0.293122 0.371409 0.980704
O O4 0.298754 0.278698 0.911455
O O5 0.368957 0.891475 0.031703
O O6 0.398447 0.951510 0.218711
O O7 0.128765 0.950707 0.811161
O O8 0.889837 0.447281 0.743037
O O9 0.851051 0.346522 0.655564
O O10 0.000000 0.377014 0.000000
O O11 0.000000 0.000000 0.500000
O O12 0.866012 0.000000 0.545199
O O13 0.774776 0.208817 0.329631
O O14 0.000000 0.254971 0.500000
O O15 0.500000 0.000000 0.500000
O O16 0.658957 0.000000 0.485493
O O17 0.750000 0.250000 0.500000
#
# Coordination Sequence:
#
# PCOD9211282 Si02
#       8
#     8   8   8   4   8   4   4   8
#     4  10  21  40  60  85 120 156 219 251 308 382
#     4  10  22  37  62  91 120 164 208 256 318 378
#     4  11  22  37  63  92 130 163 206 266 327 386
#     4  11  21  37  64  96 136 159 201 263 326 394
#     4   9  21  38  61  84 116 163 205 259 309 374
#     4   9  21  43  62  90 124 167 211 259 310 376
#     4  10  21  40  65  96 128 164 214 261 325 392
#     4  11  25  38  59  89 126 166 210 261 325 368
#
# _framework density 19.112369000000001
#
# number of rings (size 3 to 8) (size 9 to 14) (size 15 to 20)
#    0.000    1.846    0.000    3.462    8.615    2.462 
#    2.769    1.538    3.385    0.000    0.000    0.000 
#    0.000    0.000    0.000    0.000    0.000    0.000 
#
# Total GULP energy -144981.579907 kJ/mol
# GULP energy per Si atom -5576.214612 kJ/mol
# Density = 1.906887 g / cm^3
# Si number density = 19.112369 Si / 1000 Ang^3
#
#
#
# Elastic Constant Matrix: (Units=GPa)
#
#
# Indices 1 2 3 4 5 6 
#
# 1 87.2331 12.4847 40.7256 0.0000 22.0669 0.0000
# 2 12.4847 84.7796 23.0582 0.0000 26.0616 0.0000
# 3 40.7256 23.0582 75.2213 0.0000 10.6113 0.0000
# 4 0.0000 0.0000 0.0000 122.8277 0.0000 55.1199
# 5 22.0669 26.0616 10.6113 0.0000 37.7582 0.0000
# 6 0.0000 0.0000 0.0000 55.1199 0.0000 44.8820
#
#
#
# Elastic Compliance Matrix: (Units=1/GPa)
#
#
# Indices 1 2 3 4 5 6 
#
# 1 0.017802 0.002884 -0.009136 0.000000 -0.009827 0.000000
# 2 0.002884 0.016249 -0.004917 0.000000 -0.011519 0.000000
# 3 -0.009136 -0.004917 0.019280 0.000000 0.003315 0.000000
# 4 0.000000 0.000000 0.000000 0.018137 0.000000 -0.022275
# 5 -0.009827 -0.011519 0.003315 0.000000 0.039247 0.000000
# 6 0.000000 0.000000 0.000000 -0.022275 0.000000 0.049636
#
#
# Mechanical properties :
#
#
# Convention : Reuss Voigt Hill
#
# Bulk Modulus (GPa) = 32.26586 44.41900 38.34243
# Shear Modulus (GPa) = 25.90394 52.49128 39.19761
#
# Velocity S-wave (km/s) = 3.68550 5.24635 4.53360
# Velocity P-wave (km/s) = 5.91856 7.74534 6.89274
#
# Compressibility (1/GPa) = 0.03099251
#
# Stress axis : x y z
#
# Youngs Moduli (GPa) = 56.17382 61.54222 51.86687
#
# Poissons Ratio (x) = -0.17750 0.47385
# Poissons Ratio (y) = -0.16201 0.25505
# Poissons Ratio (z) = 0.51320 0.30263
#
# Static dielectric constant tensor:
#      x y z
#    x 1.470010 0.000000 0.061100 
#    y 0.000000 1.692230 0.000000 
#    z 0.061100 0.000000 1.631680 
# 
# From -- ./inp_files/160871.got.cif
#   From: 2010.05.17/outbox.cif.g08.bks.cpg/sg12_81_cif.got.tgz:160871.got - 2010.06.03 13:09:07.
