data_PCOD9211855
_publ_section_title
;
Structure prediction by ZEFSAII (Michael W. Deem and Ramdas Pophale) SiO2 
 PCOD9211855
Probable space group: C 2/M
;
_chemical_formula_sum "Si O2"
_cell_formula_units_Z 44
_cell_length_a 7.971548
_cell_length_b 21.785354
_cell_length_c 13.826221
_cell_angle_alpha 90.000000
_cell_angle_beta 60.864803
_cell_angle_gamma 90.000000
_cell_volume 2097.299319
_symmetry_space_group_name_H-M "C 2/M"
_symmetry_group_IT_number 12
_symmetry_cell_setting 'monoclinic'
loop_
_space_group_symop_operation_xyz
x,y,z
-x,y,-z
-x,-y,-z
x,-y,z
1/2+x,1/2+y,z
1/2-x,1/2+y,-z
1/2-x,1/2-y,-z
1/2+x,1/2-y,z
loop_
_atom_site_type_symbol
_atom_site_label
_atom_site_fract_x
_atom_site_fract_y
_atom_site_fract_z
Si Si1 0.605513 0.872476 0.232207
Si Si2 0.209207 0.929321 0.348302
Si Si3 0.528130 0.631723 0.761389
Si Si4 0.581502 0.749192 0.629176
Si Si5 0.795842 0.678290 0.003031
Si Si6 0.500000 0.335224 0.500000
O O1 0.431325 0.918712 0.262209
O O2 0.779869 0.897834 0.248230
O O3 0.506861 0.811876 0.308622
O O4 0.690754 0.851462 0.106067
O O5 0.169394 0.885742 0.453338
O O6 0.073854 0.904413 0.298503
O O7 0.169848 0.000000 0.377575
O O8 0.605534 0.698848 0.705497
O O9 0.366816 0.646245 0.886341
O O10 0.750000 0.750000 0.500000
O O11 0.432247 0.709438 0.604870
O O12 0.750000 0.750000 0.000000
O O13 0.000000 0.673160 0.000000
#
# Coordination Sequence:
#
# PCOD9211855 Si02
#       6
#     8   8   8   8   8   4
#     4  12  24  41  67 100 136 174 220 272 338 394
#     4  11  25  46  67  93 135 184 230 271 320 395
#     4  11  25  41  64  99 132 172 219 274 328 396
#     4  11  21  37  63 101 137 166 210 275 342 396
#     4  12  23  39  63  99 141 173 213 267 337 409
#     4  10  21  40  66  96 137 176 216 274 340 392
#
# _framework density 20.979361000000001
#
# number of rings (size 3 to 8) (size 9 to 14) (size 15 to 20)
#    0.000    0.727    5.455    3.000    2.545    0.727 
#    0.000    1.818    0.000    5.455    0.000    0.000 
#    0.000    0.000    0.000    0.000    0.000    0.000 
#
# Total GULP energy -122576.694560 kJ/mol
# GULP energy per Si atom -5571.667935 kJ/mol
# Density = 2.093161 g / cm^3
# Si number density = 20.979361 Si / 1000 Ang^3
#
#
#
# Elastic Constant Matrix: (Units=GPa)
#
#
# Indices 1 2 3 4 5 6 
#
# 1 142.7730 14.1971 24.2535 0.0000 -4.5006 0.0000
# 2 14.1971 89.4188 30.2933 0.0000 -0.5995 0.0000
# 3 24.2535 30.2933 133.4312 0.0000 -14.4098 0.0000
# 4 0.0000 0.0000 0.0000 16.6211 0.0000 -1.6629
# 5 -4.5006 -0.5995 -14.4098 0.0000 30.2797 0.0000
# 6 0.0000 0.0000 0.0000 -1.6629 0.0000 21.4295
#
#
#
# Elastic Compliance Matrix: (Units=1/GPa)
#
#
# Indices 1 2 3 4 5 6 
#
# 1 0.007284 -0.000785 -0.001086 0.000000 0.000550 0.000000
# 2 -0.000785 0.012236 -0.002764 0.000000 -0.001190 0.000000
# 3 -0.001086 -0.002764 0.008746 0.000000 0.003946 0.000000
# 4 0.000000 0.000000 0.000000 0.060635 0.000000 0.004705
# 5 0.000550 -0.001190 0.003946 0.000000 0.034961 0.000000
# 6 0.000000 0.000000 0.000000 0.004705 0.000000 0.047030
#
#
# Mechanical properties :
#
#
# Convention : Reuss Voigt Hill
#
# Bulk Modulus (GPa) = 52.64316 55.90120 54.27218
# Shear Modulus (GPa) = 26.81044 33.45799 30.13421
#
# Velocity S-wave (km/s) = 3.57871 3.99783 3.79406
# Velocity P-wave (km/s) = 6.49796 6.92920 6.71705
#
# Compressibility (1/GPa) = 0.01899582
#
# Stress axis : x y z
#
# Youngs Moduli (GPa) = 137.28613 81.72402 114.34336
#
# Poissons Ratio (x) = 0.06413 0.12423
# Poissons Ratio (y) = 0.10773 0.31603
# Poissons Ratio (z) = 0.14915 0.22588
#
# Static dielectric constant tensor:
#      x y z
#    x 2.108320 0.000000 0.086590 
#    y 0.000000 1.784370 0.000000 
#    z 0.086590 0.000000 1.813980 
# 
# From -- ./inp_files/196841.got.cif
#   From: 2010.05.17/outbox.cif.g08.bks.cpg/sg12_99_cif.got.tgz:196841.got - 2010.06.03 13:09:07.
