data_PCOD9211754
_publ_section_title
;
Structure prediction by ZEFSAII (Michael W. Deem and Ramdas Pophale) SiO2 
 PCOD9211754
Probable space group: C 2/M
;
_chemical_formula_sum "Si O2"
_cell_formula_units_Z 48
_cell_length_a 14.653789
_cell_length_b 26.757742
_cell_length_c 9.186010
_cell_angle_alpha 90.000000
_cell_angle_beta 41.504992
_cell_angle_gamma 90.000000
_cell_volume 2386.896823
_symmetry_space_group_name_H-M "C 2/M"
_symmetry_group_IT_number 12
_symmetry_cell_setting 'monoclinic'
loop_
_space_group_symop_operation_xyz
x,y,z
-x,y,-z
-x,-y,-z
x,-y,z
1/2+x,1/2+y,z
1/2-x,1/2+y,-z
1/2-x,1/2-y,-z
1/2+x,1/2-y,z
loop_
_atom_site_type_symbol
_atom_site_label
_atom_site_fract_x
_atom_site_fract_y
_atom_site_fract_z
Si Si1 0.140840 0.712102 0.415159
Si Si2 0.107257 0.352554 0.741069
Si Si3 0.594211 0.340857 0.028662
Si Si4 0.077801 0.557862 0.558900
Si Si5 0.365696 0.446532 0.060099
Si Si6 0.392839 0.674741 0.510650
O O1 0.124742 0.691182 0.598669
O O2 0.165517 0.771368 0.373334
O O3 0.000000 0.700812 0.500000
O O4 0.265957 0.684820 0.185714
O O5 0.058269 0.401424 0.708529
O O6 0.262479 0.358275 0.620042
O O7 0.000000 0.341908 0.000000
O O8 0.496733 0.312499 0.255532
O O9 0.500000 0.346507 0.000000
O O10 0.625022 0.397014 0.047135
O O11 0.043648 0.500000 0.638621
O O12 0.237563 0.559963 0.321777
O O13 0.000000 0.569893 0.500000
O O14 0.348396 0.500000 0.003839
O O15 0.500000 0.449259 0.000000
O O16 0.500000 0.653458 0.500000
#
# Coordination Sequence:
#
# PCOD9211754 Si02
#       6
#     8   8   8   8   8   8
#     4  11  25  41  63  91 122 168 221 260 315 375
#     4  12  25  40  62  93 131 165 205 263 323 378
#     4  11  21  39  66  85 123 167 209 267 310 379
#     4  10  21  40  65  94 125 161 209 256 311 384
#     4   9  17  32  58  89 116 150 203 253 299 362
#     4  11  27  42  60  92 126 169 215 264 320 371
#
# _framework density 20.109793
#
# number of rings (size 3 to 8) (size 9 to 14) (size 15 to 20)
#    0.000    1.333    3.333    2.000    4.667    1.667 
#    0.000    0.000    0.000    2.000    0.000    0.000 
#    0.000    0.000    0.000    0.000    0.000    0.000 
#
# Total GULP energy -133864.776306 kJ/mol
# GULP energy per Si atom -5577.699013 kJ/mol
# Density = 2.006402 g / cm^3
# Si number density = 20.109793 Si / 1000 Ang^3
#
#
#
# Elastic Constant Matrix: (Units=GPa)
#
#
# Indices 1 2 3 4 5 6 
#
# 1 92.4926 1.4396 42.9069 0.0000 -2.7814 0.0000
# 2 1.4396 72.3708 7.8117 0.0000 -4.7357 0.0000
# 3 42.9069 7.8117 98.9796 0.0000 -20.6798 0.0000
# 4 0.0000 0.0000 0.0000 22.5330 0.0000 -3.3640
# 5 -2.7814 -4.7357 -20.6798 0.0000 23.4383 0.0000
# 6 0.0000 0.0000 0.0000 -3.3640 0.0000 23.4099
#
#
#
# Elastic Compliance Matrix: (Units=1/GPa)
#
#
# Indices 1 2 3 4 5 6 
#
# 1 0.013912 0.000184 -0.006979 0.000000 -0.004470 0.000000
# 2 0.000184 0.014037 -0.000724 0.000000 0.002219 0.000000
# 3 -0.006979 -0.000724 0.015916 0.000000 0.013068 0.000000
# 4 0.000000 0.000000 0.000000 0.045352 0.000000 0.006517
# 5 -0.004470 0.002219 0.013068 0.000000 0.054114 0.000000
# 6 0.000000 0.000000 0.000000 0.006517 0.000000 0.043653
#
#
# Mechanical properties :
#
#
# Convention : Reuss Voigt Hill
#
# Bulk Modulus (GPa) = 34.68917 40.90660 37.79789
# Shear Modulus (GPa) = 23.62594 27.98855 25.80725
#
# Velocity S-wave (km/s) = 3.43132 3.73471 3.58623
# Velocity P-wave (km/s) = 5.74334 6.24366 5.99872
#
# Compressibility (1/GPa) = 0.02882744
#
# Stress axis : x y z
#
# Youngs Moduli (GPa) = 71.88054 71.23801 62.82999
#
# Poissons Ratio (x) = -0.01312 0.43850
# Poissons Ratio (y) = -0.01323 0.04549
# Poissons Ratio (z) = 0.50166 0.05158
#
# Static dielectric constant tensor:
#      x y z
#    x 1.742720 0.000000 -0.027920 
#    y 0.000000 1.782270 0.000000 
#    z -0.027920 0.000000 1.306470 
# 
# From -- ./inp_files/67326.got.cif
#   From: 2010.05.17/outbox.cif.g08.bks.cpg/sg12_34_cif.got.tgz:67326.got - 2010.06.03 13:09:07.
