data_PCOD9211917
_publ_section_title
;
Structure prediction by ZEFSAII (Michael W. Deem and Ramdas Pophale) SiO2 
 PCOD9211917
Probable space group: C 2/M
;
_chemical_formula_sum "Si O2"
_cell_formula_units_Z 48
_cell_length_a 23.086370
_cell_length_b 23.572758
_cell_length_c 15.632923
_cell_angle_alpha 90.000000
_cell_angle_beta 16.155617
_cell_angle_gamma 90.000000
_cell_volume 2367.210965
_symmetry_space_group_name_H-M "C 2/M"
_symmetry_group_IT_number 12
_symmetry_cell_setting 'monoclinic'
loop_
_space_group_symop_operation_xyz
x,y,z
-x,y,-z
-x,-y,-z
x,-y,z
1/2+x,1/2+y,z
1/2-x,1/2+y,-z
1/2-x,1/2-y,-z
1/2+x,1/2-y,z
loop_
_atom_site_type_symbol
_atom_site_label
_atom_site_fract_x
_atom_site_fract_y
_atom_site_fract_z
Si Si1 0.535034 0.853310 0.284716
Si Si2 0.477531 0.234222 0.217171
Si Si3 0.188585 0.642554 0.796761
Si Si4 0.898786 0.147442 0.902357
Si Si5 0.356012 0.567407 0.118953
Si Si6 0.252228 0.561717 0.849745
O O1 0.469671 0.797654 0.321543
O O2 0.340415 0.892808 0.582623
O O3 0.681292 0.848237 0.160210
O O4 0.675475 0.891315 0.023112
O O5 0.250000 0.250000 0.500000
O O6 0.587506 0.294502 0.065241
O O7 0.619755 0.193134 0.957713
O O8 0.409233 0.649745 0.437130
O O9 0.189964 0.583750 0.845641
O O10 0.000000 0.640995 0.000000
O O11 0.933048 0.095011 0.919513
O O12 0.313304 0.500000 0.168312
O O13 0.500000 0.572496 0.000000
O O14 0.500000 0.559476 0.500000
O O15 0.164776 0.500000 0.994711
#
# Coordination Sequence:
#
# PCOD9211917 Si02
#       6
#     8   8   8   8   8   8
#     4  11  24  45  69  99 137 178 232 283 341 412
#     4  11  24  42  69  98 139 181 222 281 341 411
#     4  11  24  42  66  99 135 172 225 275 335 410
#     4  12  25  44  69 102 132 180 230 283 345 408
#     4  11  27  48  71  99 137 184 234 287 350 419
#     4  10  21  40  67  97 133 172 213 275 339 400
#
# _framework density 20.277028000000001
#
# number of rings (size 3 to 8) (size 9 to 14) (size 15 to 20)
#    0.000    1.000    3.333    2.500    4.667    3.667 
#    3.000    0.000    0.000    0.000    0.000    0.000 
#    0.000    0.000    0.000    0.000    0.000    0.000 
#
# Total GULP energy -133877.848743 kJ/mol
# GULP energy per Si atom -5578.243698 kJ/mol
# Density = 2.023088 g / cm^3
# Si number density = 20.277028 Si / 1000 Ang^3
#
#
#
# Elastic Constant Matrix: (Units=GPa)
#
#
# Indices 1 2 3 4 5 6 
#
# 1 112.6327 49.6394 34.8026 0.0032 -18.6447 -0.0241
# 2 49.6394 117.3240 22.1219 0.0039 -19.7516 0.0192
# 3 34.8026 22.1219 92.1350 -0.1204 -9.9008 -0.0291
# 4 0.0032 0.0039 -0.1204 33.6604 -0.0018 -1.5297
# 5 -18.6447 -19.7516 -9.9008 -0.0018 32.0226 0.0453
# 6 -0.0241 0.0192 -0.0291 -1.5297 0.0453 31.2355
#
#
#
# Elastic Compliance Matrix: (Units=1/GPa)
#
#
# Indices 1 2 3 4 5 6 
#
# 1 0.012238 -0.003939 -0.003281 -0.000012 0.003681 0.000003
# 2 -0.003939 0.011047 -0.000702 -0.000004 0.004303 -0.000017
# 3 -0.003281 -0.000702 0.012423 0.000045 0.001497 0.000010
# 4 -0.000012 -0.000004 0.000045 0.029775 0.000004 0.001458
# 5 0.003681 0.004303 0.001497 0.000004 0.036488 -0.000051
# 6 0.000003 -0.000017 0.000010 0.001458 -0.000051 0.032086
#
#
# Mechanical properties :
#
#
# Convention : Reuss Voigt Hill
#
# Bulk Modulus (GPa) = 50.34702 59.46882 54.90792
# Shear Modulus (GPa) = 31.94423 33.75224 32.84824
#
# Velocity S-wave (km/s) = 3.97342 4.08432 4.02926
# Velocity P-wave (km/s) = 6.77748 7.18569 6.98457
#
# Compressibility (1/GPa) = 0.01986215
#
# Stress axis : x y z
#
# Youngs Moduli (GPa) = 81.71406 90.52277 80.49848
#
# Poissons Ratio (x) = 0.35660 0.26414
# Poissons Ratio (y) = 0.32190 0.05651
# Poissons Ratio (z) = 0.26812 0.06354
#
# Static dielectric constant tensor:
#      x y z
#    x 1.761630 -0.000060 0.011490 
#    y -0.000060 1.710130 0.000040 
#    z 0.011490 0.000040 1.728410 
# 
# From -- ./inp_files/235531.got.cif
#   From: 2010.05.17/outbox.cif.g08.bks.cpg/sg12_118_cif.got.tgz:235531.got - 2010.06.03 13:09:07.
