data_PCOD9211025
_publ_section_title
;
Structure prediction by ZEFSAII (Michael W. Deem and Ramdas Pophale) SiO2 
 PCOD9211025
Probable space group: C 2/M
;
_chemical_formula_sum "Si O2"
_cell_formula_units_Z 64
_cell_length_a 20.832303
_cell_length_b 24.263674
_cell_length_c 15.970280
_cell_angle_alpha 90.000000
_cell_angle_beta 158.481944
_cell_angle_gamma 90.000000
_cell_volume 2960.936497
_symmetry_space_group_name_H-M "C 2/M"
_symmetry_group_IT_number 12
_symmetry_cell_setting 'monoclinic'
loop_
_space_group_symop_operation_xyz
x,y,z
-x,y,-z
-x,-y,-z
x,-y,z
1/2+x,1/2+y,z
1/2-x,1/2+y,-z
1/2-x,1/2-y,-z
1/2+x,1/2-y,z
loop_
_atom_site_type_symbol
_atom_site_label
_atom_site_fract_x
_atom_site_fract_y
_atom_site_fract_z
Si Si1 0.794945 0.939344 0.922439
Si Si2 0.418024 0.775733 0.491378
Si Si3 0.792128 0.883645 0.751956
Si Si4 0.851669 0.938583 0.392381
Si Si5 0.562746 0.937859 0.907486
Si Si6 0.180653 0.349362 0.913123
Si Si7 0.082763 0.168830 0.418210
Si Si8 0.196568 0.096464 0.422643
O O1 0.748510 0.928054 0.769581
O O2 0.703003 0.893171 0.865423
O O3 0.744237 0.000000 0.887260
O O4 0.005787 0.931973 0.189157
O O5 0.500000 0.762297 0.500000
O O6 0.281816 0.824803 0.311353
O O7 0.551995 0.802858 0.721372
O O8 0.342436 0.720787 0.441838
O O9 0.735757 0.899132 0.590350
O O10 0.000000 0.879932 0.000000
O O11 0.883465 0.888501 0.492873
O O12 0.000000 0.935179 0.500000
O O13 0.867733 0.000000 0.449482
O O14 0.667250 0.933419 0.121030
O O15 0.624248 0.886836 0.923802
O O16 0.354026 0.932797 0.662114
O O17 0.604921 0.000000 0.925853
O O18 0.373184 0.324678 0.161900
O O19 0.160074 0.156153 0.420243
#
# Coordination Sequence:
#
# PCOD9211025 Si02
#       8
#     8   8   8   8   8   8   8   8
#     4  10  21  39  65  94 131 173 210 251 316 378
#     4  12  24  44  67  93 125 167 212 267 310 367
#     4  10  22  43  61  90 133 170 207 259 312 370
#     4  10  21  40  64  92 125 160 204 266 322 373
#     4  11  22  38  64  94 128 165 207 259 319 374
#     4  11  22  41  64  97 126 162 215 268 305 368
#     4  11  25  43  66  93 122 169 214 255 320 377
#     4  10  23  41  61  91 128 164 212 257 309 376
#
# _framework density 21.614784
#
# number of rings (size 3 to 8) (size 9 to 14) (size 15 to 20)
#    0.000    1.375    3.750    1.500    0.000    6.250 
#    2.250    1.875    0.000    0.000    0.000    0.000 
#    0.000    0.000    0.000    0.000    0.000    0.000 
#
# Total GULP energy -178813.929125 kJ/mol
# GULP energy per Si atom -5587.935285 kJ/mol
# Density = 2.156559 g / cm^3
# Si number density = 21.614784 Si / 1000 Ang^3
#
#
#
# Elastic Constant Matrix: (Units=GPa)
#
#
# Indices 1 2 3 4 5 6 
#
# 1 37.6190 11.1101 -12.4249 0.0000 -3.4749 0.0000
# 2 11.1101 95.9858 6.4256 0.0000 -8.4154 0.0000
# 3 -12.4249 6.4256 44.2797 0.0000 -8.0286 0.0000
# 4 0.0000 0.0000 0.0000 9.1693 0.0000 -23.7606
# 5 -3.4749 -8.4154 -8.0286 0.0000 16.6169 0.0000
# 6 0.0000 0.0000 0.0000 -23.7606 0.0000 0.3643
#
#
#
# Elastic Compliance Matrix: (Units=1/GPa)
#
#
# Indices 1 2 3 4 5 6 
#
# 1 0.032427 -0.003602 0.011531 0.000000 0.010528 0.000000
# 2 -0.003602 0.011319 -0.001919 0.000000 0.004052 0.000000
# 3 0.011531 -0.001919 0.028889 0.000000 0.015398 0.000000
# 4 0.000000 0.000000 0.000000 -0.000649 0.000000 -0.042337
# 5 0.010528 0.004052 0.015398 0.000000 0.071873 0.000000
# 6 0.000000 0.000000 0.000000 -0.042337 0.000000 -0.016338
#
#
# Mechanical properties :
#
#
# Convention : Reuss Voigt Hill
#
# Bulk Modulus (GPa) = 11.81266 20.90069 16.35668
# Shear Modulus (GPa) = 34.78994 16.74836 25.76915
#
# Velocity S-wave (km/s) = 4.01626 2.78664 3.45657
# Velocity P-wave (km/s) = 5.19462 4.47711 4.84915
#
# Compressibility (1/GPa) = 0.08465495
#
# Stress axis : x y z
#
# Youngs Moduli (GPa) = 30.83848 88.34828 34.61466
#
# Poissons Ratio (x) = 0.31825 -0.39913
# Poissons Ratio (y) = 0.11109 0.06641
# Poissons Ratio (z) = -0.35559 0.16951
#
# Static dielectric constant tensor:
#      x y z
#    x 1.822460 0.000000 -0.020240 
#    y 0.000000 1.733020 0.000000 
#    z -0.020240 0.000000 1.812880 
# 
# From -- ./inp_files/290968.got.cif
#   From: 2010.05.17/outbox.cif.g08.bks.cpg/sg12_146_cif.got.tgz:290968.got - 2010.06.03 13:09:07.
