data_PCOD9211177
_publ_section_title
;
Structure prediction by ZEFSAII (Michael W. Deem and Ramdas Pophale) SiO2 
 PCOD9211177
Probable space group: C 2/M
;
_chemical_formula_sum "Si O2"
_cell_formula_units_Z 56
_cell_length_a 19.240096
_cell_length_b 17.776754
_cell_length_c 19.778842
_cell_angle_alpha 90.000000
_cell_angle_beta 157.743626
_cell_angle_gamma 90.000000
_cell_volume 2562.211702
_symmetry_space_group_name_H-M "C 2/M"
_symmetry_group_IT_number 12
_symmetry_cell_setting 'monoclinic'
loop_
_space_group_symop_operation_xyz
x,y,z
-x,y,-z
-x,-y,-z
x,-y,z
1/2+x,1/2+y,z
1/2-x,1/2+y,-z
1/2-x,1/2-y,-z
1/2+x,1/2-y,z
loop_
_atom_site_type_symbol
_atom_site_label
_atom_site_fract_x
_atom_site_fract_y
_atom_site_fract_z
Si Si1 0.277625 0.322603 0.619028
Si Si2 0.208932 0.157093 0.604448
Si Si3 0.691200 0.320765 0.748619
Si Si4 0.685802 0.413222 0.209277
Si Si5 0.374828 0.848551 0.258535
Si Si6 0.919556 0.414654 0.050860
Si Si7 0.319621 0.663574 0.052594
O O1 0.262221 0.232768 0.612799
O O2 0.295594 0.358639 0.710203
O O3 0.461208 0.340030 0.743256
O O4 0.081623 0.351572 0.416627
O O5 0.208855 0.177280 0.684231
O O6 0.369352 0.097710 0.738716
O O7 0.997640 0.136881 0.400129
O O8 0.662711 0.235645 0.747727
O O9 0.861589 0.358697 0.938654
O O10 0.679922 0.500000 0.226165
O O11 0.843503 0.400857 0.295128
O O12 0.500000 0.396087 0.000000
O O13 0.234538 0.861599 0.071648
O O14 0.888130 0.500000 0.002264
O O15 0.788430 0.388756 0.993331
O O16 0.250000 0.750000 0.000000
#
# Coordination Sequence:
#
# PCOD9211177 Si02
#       7
#     8   8   8   8   8   8   8
#     4  11  22  39  67  97 124 163 212 256 308 371
#     4  10  21  39  67  98 122 153 204 259 309 371
#     4  10  21  39  67  98 122 153 204 259 309 371
#     4  11  23  39  65 100 137 166 198 258 324 375
#     4  11  22  39  67  97 124 163 212 256 308 371
#     4  12  27  43  61  88 126 167 206 255 314 361
#     4  12  24  41  63  90 122 168 213 261 298 364
#
# _framework density 21.856117999999999
#
# number of rings (size 3 to 8) (size 9 to 14) (size 15 to 20)
#    0.000    1.000    5.714    0.857    0.000    5.714 
#    0.000    1.429    0.000    0.000    0.000    0.000 
#    0.000    0.000    0.000    0.000    0.000    0.000 
#
# Total GULP energy -156633.344281 kJ/mol
# GULP energy per Si atom -5594.048010 kJ/mol
# Density = 2.180637 g / cm^3
# Si number density = 21.856118 Si / 1000 Ang^3
#
#
#
# Elastic Constant Matrix: (Units=GPa)
#
#
# Indices 1 2 3 4 5 6 
#
# 1 63.1003 -16.9306 7.1801 0.0125 20.1423 -0.0253
# 2 -16.9306 31.6019 8.6167 0.0053 5.0791 -0.0566
# 3 7.1801 8.6167 79.0504 -0.0065 32.4144 -0.0313
# 4 0.0125 0.0053 -0.0065 6.9755 0.0035 14.7905
# 5 20.1423 5.0791 32.4144 0.0035 42.7684 -0.0177
# 6 -0.0253 -0.0566 -0.0313 14.7905 -0.0177 -0.8175
#
#
#
# Elastic Compliance Matrix: (Units=1/GPa)
#
#
# Indices 1 2 3 4 5 6 
#
# 1 0.024341 0.014816 0.002316 0.000082 -0.014979 -0.000060
# 2 0.014816 0.041718 -0.001451 0.000163 -0.010832 -0.000102
# 3 0.002316 -0.001451 0.018825 0.000020 -0.015186 0.000001
# 4 0.000082 0.000163 0.000020 0.003643 -0.000046 0.065893
# 5 -0.014979 -0.010832 -0.015186 -0.000046 0.043232 0.000021
# 6 -0.000060 -0.000102 0.000001 0.065893 0.000021 -0.031076
#
#
# Mechanical properties :
#
#
# Convention : Reuss Voigt Hill
#
# Bulk Modulus (GPa) = 8.60243 19.05388 13.82815
# Shear Modulus (GPa) = 46.26665 21.44437 33.85551
#
# Velocity S-wave (km/s) = 4.60594 3.13575 3.94003
# Velocity P-wave (km/s) = 5.67721 4.67411 5.19991
#
# Compressibility (1/GPa) = 0.11624628
#
# Stress axis : x y z
#
# Youngs Moduli (GPa) = 41.08290 23.97038 53.12100
#
# Poissons Ratio (x) = -0.35516 -0.12303
# Poissons Ratio (y) = -0.60870 0.07710
# Poissons Ratio (z) = -0.09515 0.03479
#
# Static dielectric constant tensor:
#      x y z
#    x 1.833400 -0.000010 -0.002090 
#    y -0.000010 1.728420 -0.000010 
#    z -0.002090 -0.000010 1.847790 
# 
# From -- ./inp_files/322753.got.cif
#   From: 2010.05.17/outbox.cif.g08.bks.cpg/sg12_162_cif.got.tgz:322753.got - 2010.06.03 13:09:07.
