data_PCOD9211811
_publ_section_title
;
Structure prediction by ZEFSAII (Michael W. Deem and Ramdas Pophale) SiO2 
 PCOD9211811
Probable space group: C 2/M
;
_chemical_formula_sum "Si O2"
_cell_formula_units_Z 64
_cell_length_a 15.011460
_cell_length_b 14.916644
_cell_length_c 16.079557
_cell_angle_alpha 90.000000
_cell_angle_beta 125.388935
_cell_angle_gamma 90.000000
_cell_volume 2935.306340
_symmetry_space_group_name_H-M "C 2/M"
_symmetry_group_IT_number 12
_symmetry_cell_setting 'monoclinic'
loop_
_space_group_symop_operation_xyz
x,y,z
-x,y,-z
-x,-y,-z
x,-y,z
1/2+x,1/2+y,z
1/2-x,1/2+y,-z
1/2-x,1/2-y,-z
1/2+x,1/2-y,z
loop_
_atom_site_type_symbol
_atom_site_label
_atom_site_fract_x
_atom_site_fract_y
_atom_site_fract_z
Si Si1 0.846422 0.101485 0.245758
Si Si2 0.718298 0.900119 0.671701
Si Si3 0.594824 0.398935 0.985504
Si Si4 0.709138 0.200123 0.841832
Si Si5 0.764734 0.901708 0.391261
Si Si6 0.955727 0.870698 0.748797
Si Si7 0.094872 0.742115 0.493192
Si Si8 0.034884 0.326413 0.280865
O O1 0.801821 0.192290 0.177156
O O2 0.811283 0.107737 0.322806
O O3 0.976632 0.109058 0.298313
O O4 0.813024 0.000000 0.199854
O O5 0.732548 0.846518 0.765524
O O6 0.645816 0.839689 0.572418
O O7 0.836658 0.909141 0.693953
O O8 0.673088 0.000000 0.661931
O O9 0.633986 0.500000 0.027475
O O10 0.537072 0.400778 0.865438
O O11 0.500000 0.375805 0.000000
O O12 0.693302 0.329591 0.045760
O O13 0.592321 0.158369 0.806029
O O14 0.814352 0.819112 0.470033
O O15 0.633172 0.893630 0.316827
O O16 0.795005 0.000000 0.440026
O O17 0.937863 0.765121 0.751706
O O18 0.044624 0.701620 0.382782
O O19 0.000000 0.781619 0.500000
#
# Coordination Sequence:
#
# PCOD9211811 Si02
#       8
#     8   8   8   8   8   8   8   8
#     4  10  21  40  66  92 124 173 224 267 313 377
#     4  12  23  39  67  99 134 173 213 268 342 398
#     4  11  23  39  66 104 136 164 212 274 336 401
#     4  11  22  42  67  98 136 175 212 272 338 396
#     4  11  24  43  65  91 130 177 224 268 316 382
#     4  11  22  42  69  97 130 169 215 277 327 384
#     4  12  23  45  66  95 133 171 221 277 328 393
#     4  11  24  43  68  93 136 177 217 265 327 397
#
# _framework density 21.803515999999998
#
# number of rings (size 3 to 8) (size 9 to 14) (size 15 to 20)
#    0.000    0.875    5.000    2.625    0.000    4.000 
#    0.000    3.125    0.000    1.125    0.000    0.000 
#    0.000    0.000    0.000    0.000    0.000    0.000 
#
# Total GULP energy -178836.922117 kJ/mol
# GULP energy per Si atom -5588.653816 kJ/mol
# Density = 2.175389 g / cm^3
# Si number density = 21.803516 Si / 1000 Ang^3
#
#
#
# Elastic Constant Matrix: (Units=GPa)
#
#
# Indices 1 2 3 4 5 6 
#
# 1 97.4909 14.0324 3.8808 0.0000 9.4569 0.0000
# 2 14.0324 124.2557 20.2670 0.0000 15.0206 0.0000
# 3 3.8808 20.2670 63.7985 0.0000 14.8131 0.0000
# 4 0.0000 0.0000 0.0000 127.2500 0.0000 -10.0558
# 5 9.4569 15.0206 14.8131 0.0000 29.4998 0.0000
# 6 0.0000 0.0000 0.0000 -10.0558 0.0000 3.2272
#
#
#
# Elastic Compliance Matrix: (Units=1/GPa)
#
#
# Indices 1 2 3 4 5 6 
#
# 1 0.010676 -0.000884 0.000364 0.000000 -0.003155 0.000000
# 2 -0.000884 0.008866 -0.002015 0.000000 -0.003219 0.000000
# 3 0.000364 -0.002015 0.018204 0.000000 -0.008231 0.000000
# 4 0.000000 0.000000 0.000000 0.010426 0.000000 0.032487
# 5 -0.003155 -0.003219 -0.008231 0.000000 0.040682 0.000000
# 6 0.000000 0.000000 0.000000 0.032487 0.000000 0.411100
#
#
# Mechanical properties :
#
#
# Convention : Reuss Voigt Hill
#
# Bulk Modulus (GPa) = 30.60400 40.21172 35.40786
# Shear Modulus (GPa) = 9.69152 48.48640 29.08896
#
# Velocity S-wave (km/s) = 2.11059 4.72082 3.65655
# Velocity P-wave (km/s) = 4.47283 6.94246 5.83969
#
# Compressibility (1/GPa) = 0.03267547
#
# Stress axis : x y z
#
# Youngs Moduli (GPa) = 93.66680 112.79662 54.93423
#
# Poissons Ratio (x) = 0.09967 -0.01999
# Poissons Ratio (y) = 0.08276 0.11070
# Poissons Ratio (z) = -0.03409 0.22731
#
# Static dielectric constant tensor:
#      x y z
#    x 1.832190 0.000000 -0.019660 
#    y 0.000000 1.837620 0.000000 
#    z -0.019660 0.000000 1.796760 
# 
# From -- ./inp_files/270713.got.cif
#   From: 2010.05.17/outbox.cif.g08.bks.cpg/sg12_136_cif.got.tgz:270713.got - 2010.06.03 13:09:07.
