data_PCOD9211689
_publ_section_title
;
Structure prediction by ZEFSAII (Michael W. Deem and Ramdas Pophale) SiO2 
 PCOD9211689
Probable space group: C 2/M
;
_chemical_formula_sum "Si O2"
_cell_formula_units_Z 48
_cell_length_a 9.336428
_cell_length_b 29.297151
_cell_length_c 17.971555
_cell_angle_alpha 90.000000
_cell_angle_beta 148.929107
_cell_angle_gamma 90.000000
_cell_volume 2537.021802
_symmetry_space_group_name_H-M "C 2/M"
_symmetry_group_IT_number 12
_symmetry_cell_setting 'monoclinic'
loop_
_space_group_symop_operation_xyz
x,y,z
-x,y,-z
-x,-y,-z
x,-y,z
1/2+x,1/2+y,z
1/2-x,1/2+y,-z
1/2-x,1/2-y,-z
1/2+x,1/2-y,z
loop_
_atom_site_type_symbol
_atom_site_label
_atom_site_fract_x
_atom_site_fract_y
_atom_site_fract_z
Si Si1 0.167190 0.682037 0.851078
Si Si2 0.337668 0.821344 0.855109
Si Si3 0.813178 0.240718 0.612171
Si Si4 0.894335 0.000000 0.663525
Si Si5 0.362159 0.070170 0.860239
Si Si6 0.080406 0.500000 0.673964
Si Si7 0.672843 0.926329 0.842912
O O1 0.129875 0.628368 0.813073
O O2 0.031737 0.690035 0.871539
O O3 0.983199 0.715684 0.719167
O O4 0.500000 0.690793 0.000000
O O5 0.319082 0.875863 0.847295
O O6 0.032583 0.800144 0.718047
O O7 0.500000 0.805244 0.000000
O O8 0.500000 0.232262 0.500000
O O9 0.750000 0.250000 0.500000
O O10 0.074909 0.955640 0.728048
O O11 0.828103 0.000000 0.722995
O O12 0.661626 0.000000 0.495749
O O13 0.529113 0.060993 0.857892
O O14 0.500000 0.055528 0.000000
O O15 0.081116 0.456767 0.731130
O O16 0.000000 0.934000 0.000000
#
# Coordination Sequence:
#
# PCOD9211689 Si02
#       7
#     8   8   8   4   8   4   8
#     4  10  23  42  65  91 123 163 210 257 301 364
#     4  10  23  42  64  93 122 163 211 253 304 367
#     4  12  25  42  61  92 128 164 203 255 314 366
#     4  11  24  41  58  89 129 159 196 249 306 359
#     4  10  21  40  65  90 120 158 204 251 298 356
#     4  11  24  41  58  91 125 161 200 245 304 365
#     4  10  21  40  66  90 117 159 207 250 297 356
#
# _framework density 18.919820999999999
#
# number of rings (size 3 to 8) (size 9 to 14) (size 15 to 20)
#    0.000    1.500    1.667    2.500    2.333    5.333 
#    3.000    0.000    0.000    0.000    0.000    0.000 
#    0.000    0.000    0.000    0.000    0.000    0.000 
#
# Total GULP energy -133781.203379 kJ/mol
# GULP energy per Si atom -5574.216807 kJ/mol
# Density = 1.887676 g / cm^3
# Si number density = 18.919821 Si / 1000 Ang^3
#
#
#
# Elastic Constant Matrix: (Units=GPa)
#
#
# Indices 1 2 3 4 5 6 
#
# 1 178.7599 65.5187 81.2018 0.0000 1.9777 0.0000
# 2 65.5187 73.6029 51.5967 0.0000 -5.4826 0.0000
# 3 81.2018 51.5967 126.1825 0.0001 1.3095 -0.0001
# 4 0.0000 0.0000 0.0001 17.8076 0.0000 -17.6397
# 5 1.9777 -5.4826 1.3095 0.0000 43.6221 0.0000
# 6 0.0000 0.0000 -0.0001 -17.6397 0.0000 25.8768
#
#
#
# Elastic Compliance Matrix: (Units=1/GPa)
#
#
# Indices 1 2 3 4 5 6 
#
# 1 0.009428 -0.005924 -0.003633 0.000000 -0.001063 0.000000
# 2 -0.005924 0.023075 -0.005658 0.000000 0.003339 0.000000
# 3 -0.003633 -0.005658 0.012586 0.000000 -0.000924 0.000000
# 4 0.000000 0.000000 0.000000 0.172921 0.000000 0.117877
# 5 -0.001063 0.003339 -0.000924 0.000000 0.023420 0.000000
# 6 0.000000 0.000000 0.000000 0.117877 0.000000 0.118998
#
#
# Mechanical properties :
#
#
# Convention : Reuss Voigt Hill
#
# Bulk Modulus (GPa) = 68.22202 86.13108 77.17655
# Shear Modulus (GPa) = 12.63440 29.47650 21.05545
#
# Velocity S-wave (km/s) = 2.58696 3.95139 3.33960
# Velocity P-wave (km/s) = 6.71267 8.15114 7.46663
#
# Compressibility (1/GPa) = 0.01465802
#
# Stress axis : x y z
#
# Youngs Moduli (GPa) = 106.07000 43.33741 79.45155
#
# Poissons Ratio (x) = 0.25674 0.28869
# Poissons Ratio (y) = 0.62839 0.44950
# Poissons Ratio (z) = 0.38541 0.24519
#
# Static dielectric constant tensor:
#      x y z
#    x 1.644920 0.000000 -0.001100 
#    y 0.000000 1.666150 0.000000 
#    z -0.001100 0.000000 1.621710 
# 
# From -- ./inp_files/260455.got.cif
#   From: 2010.05.17/outbox.cif.g08.bks.cpg/sg12_131_cif.got.tgz:260455.got - 2010.06.03 13:09:07.
