data_PCOD9211517
_publ_section_title
;
Structure prediction by ZEFSAII (Michael W. Deem and Ramdas Pophale) SiO2 
 PCOD9211517
Probable space group: C 2/M
;
_chemical_formula_sum "Si O2"
_cell_formula_units_Z 56
_cell_length_a 14.258230
_cell_length_b 23.647943
_cell_length_c 9.370687
_cell_angle_alpha 90.000000
_cell_angle_beta 115.651958
_cell_angle_gamma 90.000000
_cell_volume 2848.179781
_symmetry_space_group_name_H-M "C 2/M"
_symmetry_group_IT_number 12
_symmetry_cell_setting 'monoclinic'
loop_
_space_group_symop_operation_xyz
x,y,z
-x,y,-z
-x,-y,-z
x,-y,z
1/2+x,1/2+y,z
1/2-x,1/2+y,-z
1/2-x,1/2-y,-z
1/2+x,1/2-y,z
loop_
_atom_site_type_symbol
_atom_site_label
_atom_site_fract_x
_atom_site_fract_y
_atom_site_fract_z
Si Si1 0.192426 0.935388 0.972063
Si Si2 0.480696 0.830340 0.322994
Si Si3 0.323733 0.269640 0.178128
Si Si4 0.822805 0.265060 0.681075
Si Si5 0.026357 0.874107 0.685159
Si Si6 0.069292 0.435487 0.905426
Si Si7 0.391414 0.355241 0.843942
O O1 0.107427 0.920511 0.795760
O O2 0.177309 0.000000 0.010478
O O3 0.307714 0.929562 0.985147
O O4 0.179270 0.893163 0.098672
O O5 0.500000 0.842892 0.500000
O O6 0.383971 0.787242 0.259482
O O7 0.577304 0.798304 0.310152
O O8 0.459214 0.887453 0.224936
O O9 0.249087 0.295848 0.250189
O O10 0.415942 0.315841 0.226132
O O11 0.250000 0.250000 0.000000
O O12 0.750000 0.250000 0.500000
O O13 0.852680 0.207384 0.783192
O O14 0.000000 0.872666 0.500000
O O15 0.921690 0.880808 0.709858
O O16 0.052175 0.500000 0.842668
O O17 0.000000 0.427483 0.000000
O O18 0.500000 0.352341 0.000000
#
# Coordination Sequence:
#
# PCOD9211517 Si02
#       7
#     8   8   8   8   8   8   8
#     4  10  23  44  68  92 123 171 220 265 319 387
#     4  12  25  42  64  98 132 171 212 261 329 391
#     4  12  24  39  61  92 131 171 215 258 323 387
#     4  12  24  38  61  92 133 168 206 261 322 387
#     4  11  22  39  61  93 134 164 203 271 332 384
#     4  10  24  47  69  93 126 167 224 278 313 372
#     4  10  21  40  63  91 129 164 212 262 316 384
#
# _framework density 19.661678999999999
#
# number of rings (size 3 to 8) (size 9 to 14) (size 15 to 20)
#    0.000    1.000    2.857    4.714    4.000    3.143 
#    0.000    0.000    0.000    0.000    0.000    0.000 
#    0.000    0.000    0.000    0.000    0.000    0.000 
#
# Total GULP energy -156333.376559 kJ/mol
# GULP energy per Si atom -5583.334877 kJ/mol
# Density = 1.961693 g / cm^3
# Si number density = 19.661679 Si / 1000 Ang^3
#
#
#
# Elastic Constant Matrix: (Units=GPa)
#
#
# Indices 1 2 3 4 5 6 
#
# 1 115.5042 29.9738 18.5867 0.0000 -16.0764 0.0000
# 2 29.9738 101.0384 21.4485 0.0000 -2.3405 0.0000
# 3 18.5867 21.4485 70.2715 0.0000 -15.8949 0.0000
# 4 0.0000 0.0000 0.0000 17.9759 0.0000 4.2080
# 5 -16.0764 -2.3405 -15.8949 0.0000 29.3765 0.0000
# 6 0.0000 0.0000 0.0000 4.2080 0.0000 29.0128
#
#
#
# Elastic Compliance Matrix: (Units=1/GPa)
#
#
# Indices 1 2 3 4 5 6 
#
# 1 0.010179 -0.002749 -0.000732 0.000000 0.004955 0.000000
# 2 -0.002749 0.011353 -0.003274 0.000000 -0.002372 0.000000
# 3 -0.000732 -0.003274 0.017404 0.000000 0.008755 0.000000
# 4 0.000000 0.000000 0.000000 0.057585 0.000000 -0.008352
# 5 0.004955 -0.002372 0.008755 0.000000 0.041301 0.000000
# 6 0.000000 0.000000 0.000000 -0.008352 0.000000 0.035679
#
#
# Mechanical properties :
#
#
# Convention : Reuss Voigt Hill
#
# Bulk Modulus (GPa) = 39.33375 47.42580 43.37977
# Shear Modulus (GPa) = 25.57710 29.72672 27.65191
#
# Velocity S-wave (km/s) = 3.61066 3.89255 3.75425
# Velocity P-wave (km/s) = 6.11810 6.66152 6.39559
#
# Compressibility (1/GPa) = 0.02542346
#
# Stress axis : x y z
#
# Youngs Moduli (GPa) = 98.24482 88.08232 57.45796
#
# Poissons Ratio (x) = 0.24217 0.04208
# Poissons Ratio (y) = 0.27011 0.18815
# Poissons Ratio (z) = 0.07194 0.28843
#
# Static dielectric constant tensor:
#      x y z
#    x 1.747020 0.000000 -0.016820 
#    y 0.000000 1.701990 0.000000 
#    z -0.016820 0.000000 1.665780 
# 
# From -- ./inp_files/65980.got.cif
#   From: 2010.05.17/outbox.cif.g08.bks.cpg/sg12_33_cif.got.tgz:65980.got - 2010.06.03 13:09:07.
