data_PCOD9211518
_publ_section_title
;
Structure prediction by ZEFSAII (Michael W. Deem and Ramdas Pophale) SiO2 
 PCOD9211518
Probable space group: C 2/M
;
_chemical_formula_sum "Si O2"
_cell_formula_units_Z 34
_cell_length_a 16.783629
_cell_length_b 12.459590
_cell_length_c 8.263303
_cell_angle_alpha 90.000000
_cell_angle_beta 110.696919
_cell_angle_gamma 90.000000
_cell_volume 1616.478498
_symmetry_space_group_name_H-M "C 2/M"
_symmetry_group_IT_number 12
_symmetry_cell_setting 'monoclinic'
loop_
_space_group_symop_operation_xyz
x,y,z
-x,y,-z
-x,-y,-z
x,-y,z
1/2+x,1/2+y,z
1/2-x,1/2+y,-z
1/2-x,1/2-y,-z
1/2+x,1/2-y,z
loop_
_atom_site_type_symbol
_atom_site_label
_atom_site_fract_x
_atom_site_fract_y
_atom_site_fract_z
Si Si1 0.851880 0.344478 0.765455
Si Si2 0.897484 0.618947 0.427441
Si Si3 0.601482 0.383966 0.069561
Si Si4 0.000000 0.500000 0.000000
Si Si5 0.190525 0.809904 0.828214
O O1 0.865842 0.372337 0.588640
O O2 0.863498 0.217079 0.805356
O O3 0.756871 0.370070 0.759601
O O4 0.925822 0.406996 0.915479
O O5 0.874818 0.500000 0.344185
O O6 0.860053 0.717409 0.301630
O O7 0.000000 0.624521 0.500000
O O8 0.630537 0.500000 0.154552
O O9 0.500000 0.378675 0.000000
O O10 0.629454 0.375753 0.901968
O O11 0.250000 0.750000 0.000000
#
# Coordination Sequence:
#
# PCOD9211518 Si02
#       5
#     8   8   8   2   8
#     4  11  23  42  67 102 137 176 225 284 345 410
#     4  11  24  41  68 102 140 183 228 289 347 403
#     4  10  21  40  63  91 130 179 224 267 330 406
#     4  12  24  40  76 104 136 176 224 292 362 408
#     4  10  24  41  63  95 135 178 232 276 333 406
#
# _framework density 21.033377999999999
#
# number of rings (size 3 to 8) (size 9 to 14) (size 15 to 20)
#    0.000    1.412    2.353    2.118    4.941    3.765 
#    0.000    1.176    0.000    4.235    0.000    0.000 
#    0.000    0.000    0.000    0.000    0.000    0.000 
#
# Total GULP energy -94692.668292 kJ/mol
# GULP energy per Si atom -5570.156958 kJ/mol
# Density = 2.098551 g / cm^3
# Si number density = 21.033378 Si / 1000 Ang^3
#
#
#
# Elastic Constant Matrix: (Units=GPa)
#
#
# Indices 1 2 3 4 5 6 
#
# 1 126.4753 22.6923 29.7620 0.0000 -19.8370 0.0000
# 2 22.6923 151.8944 16.9173 0.0000 9.0465 0.0000
# 3 29.7620 16.9173 37.8921 0.0000 -10.1947 0.0000
# 4 0.0000 0.0000 0.0000 17.9742 0.0000 22.6381
# 5 -19.8370 9.0465 -10.1947 0.0000 32.8511 0.0000
# 6 0.0000 0.0000 0.0000 22.6381 0.0000 227.5875
#
#
#
# Elastic Compliance Matrix: (Units=1/GPa)
#
#
# Indices 1 2 3 4 5 6 
#
# 1 0.010322 -0.001102 -0.006391 0.000000 0.004553 0.000000
# 2 -0.001102 0.007353 -0.003428 0.000000 -0.003754 0.000000
# 3 -0.006391 -0.003428 0.035086 0.000000 0.007973 0.000000
# 4 0.000000 0.000000 0.000000 0.063603 0.000000 -0.006327
# 5 0.004553 -0.003754 0.007973 0.000000 0.036698 0.000000
# 6 0.000000 0.000000 0.000000 -0.006327 0.000000 0.005023
#
#
# Mechanical properties :
#
#
# Convention : Reuss Voigt Hill
#
# Bulk Modulus (GPa) = 32.34010 50.55611 41.44811
# Shear Modulus (GPa) = 26.28351 72.14191 49.21271
#
# Velocity S-wave (km/s) = 3.53882 5.86287 4.84234
# Velocity P-wave (km/s) = 5.66627 8.36178 7.14234
#
# Compressibility (1/GPa) = 0.03092137
#
# Stress axis : x y z
#
# Youngs Moduli (GPa) = 96.87737 135.99100 28.50153
#
# Poissons Ratio (x) = 0.14979 0.18215
# Poissons Ratio (y) = 0.10671 0.09770
# Poissons Ratio (z) = 0.61912 0.46615
#
# Static dielectric constant tensor:
#      x y z
#    x 1.811740 0.000000 -0.052950 
#    y 0.000000 1.783380 0.000000 
#    z -0.052950 0.000000 1.731790 
# 
# From -- ./inp_files/70901.got.cif
#   From: 2010.05.17/outbox.cif.g08.bks.cpg/sg12_36_cif.got.tgz:70901.got - 2010.06.03 13:09:07.
