data_PCOD9211725
_publ_section_title
;
Structure prediction by ZEFSAII (Michael W. Deem and Ramdas Pophale) SiO2 
 PCOD9211725
Probable space group: C 2/M
;
_chemical_formula_sum "Si O2"
_cell_formula_units_Z 48
_cell_length_a 17.233162
_cell_length_b 11.804815
_cell_length_c 30.900049
_cell_angle_alpha 90.000000
_cell_angle_beta 23.893047
_cell_angle_gamma 90.000000
_cell_volume 2546.075036
_symmetry_space_group_name_H-M "C 2/M"
_symmetry_group_IT_number 12
_symmetry_cell_setting 'monoclinic'
loop_
_space_group_symop_operation_xyz
x,y,z
-x,y,-z
-x,-y,-z
x,-y,z
1/2+x,1/2+y,z
1/2-x,1/2+y,-z
1/2-x,1/2-y,-z
1/2+x,1/2-y,z
loop_
_atom_site_type_symbol
_atom_site_label
_atom_site_fract_x
_atom_site_fract_y
_atom_site_fract_z
Si Si1 0.815172 0.871224 0.232033
Si Si2 0.057648 0.727848 0.177226
Si Si3 0.968241 0.214866 0.391590
Si Si4 0.549011 0.500000 0.538510
Si Si5 0.318115 0.634118 0.803085
Si Si6 0.660895 0.000000 0.681384
Si Si7 0.995702 0.187416 0.953468
O O1 0.604260 0.817259 0.337355
O O2 0.896469 0.870597 0.141429
O O3 0.941130 0.788992 0.198408
O O4 0.816776 0.000000 0.247446
O O5 0.086583 0.812795 0.202787
O O6 0.955844 0.612745 0.245941
O O7 0.275261 0.700156 0.052639
O O8 0.750000 0.250000 0.500000
O O9 0.975016 0.111872 0.421247
O O10 0.051752 0.169836 0.303764
O O11 0.362637 0.500000 0.603284
O O12 0.758127 0.500000 0.408916
O O13 0.298270 0.500000 0.816195
O O14 0.113021 0.695110 0.900060
O O15 0.000000 0.135123 0.000000
#
# Coordination Sequence:
#
# PCOD9211725 Si02
#       7
#     8   8   8   4   8   4   8
#     4  11  24  40  61  93 126 163 205 257 310 370
#     4  11  22  42  61  95 126 167 205 256 307 371
#     4  11  23  42  64  91 123 160 210 260 314 366
#     4  11  22  44  68  88 121 168 210 264 304 374
#     4  10  21  40  65  92 125 165 210 254 307 372
#     4  11  24  40  67  92 124 164 217 254 311 373
#     4   9  22  41  61  92 126 165 208 248 309 366
#
# _framework density 18.852547999999999
#
# number of rings (size 3 to 8) (size 9 to 14) (size 15 to 20)
#    0.000    1.500    2.500    2.000    2.333    4.000 
#   12.000    0.000    0.000    3.000    0.000    0.000 
#    0.000    0.000    0.000    0.000    0.000    0.000 
#
# Total GULP energy -133954.763580 kJ/mol
# GULP energy per Si atom -5581.448483 kJ/mol
# Density = 1.880964 g / cm^3
# Si number density = 18.852548 Si / 1000 Ang^3
#
#
#
# Elastic Constant Matrix: (Units=GPa)
#
#
# Indices 1 2 3 4 5 6 
#
# 1 50.1858 15.1442 39.3144 -0.0008 -15.1383 0.0001
# 2 15.1442 114.6108 54.2518 -0.0082 -5.6801 -0.0016
# 3 39.3144 54.2518 148.1663 -0.0281 -14.2408 -0.0058
# 4 -0.0008 -0.0082 -0.0281 9.7426 0.0052 -2.3819
# 5 -15.1383 -5.6801 -14.2408 0.0052 38.0978 0.0022
# 6 0.0001 -0.0016 -0.0058 -2.3819 0.0022 26.7415
#
#
#
# Elastic Compliance Matrix: (Units=1/GPa)
#
#
# Indices 1 2 3 4 5 6 
#
# 1 0.027596 -0.000176 -0.006438 -0.000022 0.008533 -0.000004
# 2 -0.000176 0.010556 -0.003811 -0.000002 0.000079 0.000000
# 3 -0.006438 -0.003811 0.009908 0.000026 0.000577 0.000004
# 4 -0.000022 -0.000002 0.000026 0.104927 -0.000014 0.009346
# 5 0.008533 0.000079 0.000577 -0.000014 0.029866 -0.000004
# 6 -0.000004 0.000000 0.000004 0.009346 -0.000004 0.038228
#
#
# Mechanical properties :
#
#
# Convention : Reuss Voigt Hill
#
# Bulk Modulus (GPa) = 36.74977 58.93154 47.84065
# Shear Modulus (GPa) = 19.92024 28.53322 24.22673
#
# Velocity S-wave (km/s) = 3.25412 3.89459 3.58867
# Velocity P-wave (km/s) = 5.80126 7.17989 6.52707
#
# Compressibility (1/GPa) = 0.02721105
#
# Stress axis : x y z
#
# Youngs Moduli (GPa) = 36.23697 94.73028 100.92631
#
# Poissons Ratio (x) = 0.01669 0.64974
# Poissons Ratio (y) = 0.00639 0.38461
# Poissons Ratio (z) = 0.23328 0.36100
#
# Static dielectric constant tensor:
#      x y z
#    x 1.706100 0.000010 0.027890 
#    y 0.000010 1.676890 0.000000 
#    z 0.027890 0.000000 1.648360 
# 
# From -- ./inp_files/360979.got.cif
#   From: 2010.05.17/outbox.cif.g08.bks.cpg/sg12_181_cif.got.tgz:360979.got - 2010.06.03 13:09:07.
