data_PCOD9211562
_publ_section_title
;
Structure prediction by ZEFSAII (Michael W. Deem and Ramdas Pophale) SiO2 
 PCOD9211562
Probable space group: C 2/M
;
_chemical_formula_sum "Si O2"
_cell_formula_units_Z 40
_cell_length_a 23.956019
_cell_length_b 7.949006
_cell_length_c 9.828712
_cell_angle_alpha 90.000000
_cell_angle_beta 103.707776
_cell_angle_gamma 90.000000
_cell_volume 1818.337408
_symmetry_space_group_name_H-M "C 2/M"
_symmetry_group_IT_number 12
_symmetry_cell_setting 'monoclinic'
loop_
_space_group_symop_operation_xyz
x,y,z
-x,y,-z
-x,-y,-z
x,-y,z
1/2+x,1/2+y,z
1/2-x,1/2+y,-z
1/2-x,1/2-y,-z
1/2+x,1/2-y,z
loop_
_atom_site_type_symbol
_atom_site_label
_atom_site_fract_x
_atom_site_fract_y
_atom_site_fract_z
Si Si1 0.944845 0.802149 0.382481
Si Si2 0.822570 0.696880 0.414973
Si Si3 0.766418 0.200267 0.857373
Si Si4 0.361592 0.202283 0.721243
Si Si5 0.990937 0.296255 0.838472
O O1 0.886616 0.711950 0.391516
O O2 0.000000 0.739410 0.500000
O O3 0.961675 0.774984 0.235788
O O4 0.937554 0.000000 0.406758
O O5 0.808063 0.500000 0.421073
O O6 0.778368 0.772179 0.280636
O O7 0.826776 0.769927 0.569915
O O8 0.828892 0.254120 0.840659
O O9 0.763490 0.000000 0.851137
O O10 0.750000 0.250000 0.000000
O O11 0.427325 0.261624 0.756751
O O12 0.363711 0.000000 0.711725
O O13 0.993122 0.500000 0.831167
O O14 0.000000 0.248752 0.000000
#
# Coordination Sequence:
#
# PCOD9211562 Si02
#       5
#     8   8   8   8   8
#     4  11  23  38  60  93 126 156 196 247 299 351
#     4  10  22  41  65  88 116 161 206 243 293 359
#     4  11  25  42  62  89 121 157 199 249 303 357
#     4  10  21  40  64  89 119 156 201 249 296 351
#     4  10  22  39  62  90 122 161 199 241 296 360
#
# _framework density 21.998116
#
# number of rings (size 3 to 8) (size 9 to 14) (size 15 to 20)
#    0.000    1.600    2.000    1.800    2.800    4.400 
#    0.000    0.000    0.000    0.000    0.000    0.000 
#    0.000    0.000    0.000    0.000    0.000    0.000 
#
# Total GULP energy -111822.862985 kJ/mol
# GULP energy per Si atom -5591.143149 kJ/mol
# Density = 2.194805 g / cm^3
# Si number density = 21.998116 Si / 1000 Ang^3
#
#
#
# Elastic Constant Matrix: (Units=GPa)
#
#
# Indices 1 2 3 4 5 6 
#
# 1 67.3156 -9.0479 13.8856 0.0000 -20.1752 0.0000
# 2 -9.0479 24.2574 2.6498 0.0000 7.1792 0.0000
# 3 13.8856 2.6498 105.0146 0.0000 -20.3515 0.0000
# 4 0.0000 0.0000 0.0000 19.8178 0.0000 -6.8465
# 5 -20.1752 7.1792 -20.3515 0.0000 41.5433 0.0000
# 6 0.0000 0.0000 0.0000 -6.8465 0.0000 21.3994
#
#
#
# Elastic Compliance Matrix: (Units=1/GPa)
#
#
# Indices 1 2 3 4 5 6 
#
# 1 0.017905 0.004608 -0.001053 0.000000 0.007383 0.000000
# 2 0.004608 0.045401 -0.003140 0.000000 -0.007146 0.000000
# 3 -0.001053 -0.003140 0.010769 0.000000 0.005307 0.000000
# 4 0.000000 0.000000 0.000000 0.056730 0.000000 0.018150
# 5 0.007383 -0.007146 0.005307 0.000000 0.031492 0.000000
# 6 0.000000 0.000000 0.000000 0.018150 0.000000 0.052537
#
#
# Mechanical properties :
#
#
# Convention : Reuss Voigt Hill
#
# Bulk Modulus (GPa) = 13.34992 23.50695 18.42844
# Shear Modulus (GPa) = 20.92293 29.15877 25.04085
#
# Velocity S-wave (km/s) = 3.08738 3.64471 3.37756
# Velocity P-wave (km/s) = 4.33486 5.33113 4.85860
#
# Compressibility (1/GPa) = 0.07490680
#
# Stress axis : x y z
#
# Youngs Moduli (GPa) = 55.85090 22.02577 92.85550
#
# Poissons Ratio (x) = -0.10150 0.09777
# Poissons Ratio (y) = -0.25738 0.29155
# Poissons Ratio (z) = 0.05881 0.06916
#
# Static dielectric constant tensor:
#      x y z
#    x 1.829700 0.000000 -0.014130 
#    y 0.000000 1.786130 0.000000 
#    z -0.014130 0.000000 1.874370 
# 
# From -- ./inp_files/92737.got.cif
#   From: 2010.05.17/outbox.cif.g08.bks.cpg/sg12_47_cif.got.tgz:92737.got - 2010.06.03 13:09:07.
