data_PCOD9211099
_publ_section_title
;
Structure prediction by ZEFSAII (Michael W. Deem and Ramdas Pophale) SiO2 
 PCOD9211099
Probable space group: C 2/M
;
_chemical_formula_sum "Si O2"
_cell_formula_units_Z 48
_cell_length_a 10.772764
_cell_length_b 17.990347
_cell_length_c 19.413764
_cell_angle_alpha 90.000000
_cell_angle_beta 149.316986
_cell_angle_gamma 90.000000
_cell_volume 1919.958194
_symmetry_space_group_name_H-M "C 2/M"
_symmetry_group_IT_number 12
_symmetry_cell_setting 'monoclinic'
loop_
_space_group_symop_operation_xyz
x,y,z
-x,y,-z
-x,-y,-z
x,-y,z
1/2+x,1/2+y,z
1/2-x,1/2+y,-z
1/2-x,1/2-y,-z
1/2+x,1/2-y,z
loop_
_atom_site_type_symbol
_atom_site_label
_atom_site_fract_x
_atom_site_fract_y
_atom_site_fract_z
Si Si1 0.728587 0.584256 0.568938
Si Si2 0.002622 0.627979 0.832230
Si Si3 0.737002 0.413318 0.838350
Si Si4 0.472922 0.417613 0.904840
Si Si5 0.588097 0.721770 0.279862
Si Si6 0.043549 0.687006 0.650001
O O1 0.500000 0.618940 0.500000
O O2 0.669122 0.500000 0.523410
O O3 0.933242 0.588392 0.726927
O O4 0.832361 0.625544 0.552161
O O5 0.033606 0.714526 0.826939
O O6 0.788714 0.612072 0.784231
O O7 0.248263 0.596734 0.982406
O O8 0.666507 0.500000 0.807216
O O9 0.545427 0.357220 0.780822
O O10 0.000000 0.405023 0.000000
O O11 0.392415 0.500000 0.843508
O O12 0.286154 0.354108 0.794633
O O13 0.500000 0.417112 0.000000
O O14 0.853411 0.715872 0.372205
O O15 0.555765 0.754765 0.341228
#
# Coordination Sequence:
#
# PCOD9211099 Si02
#       6
#     8   8   8   8   8   8
#     4  10  21  39  66  94 121 158 208 263 317 374
#     4  11  22  39  61  89 128 167 208 256 315 382
#     4  11  24  38  58  89 129 171 210 255 316 381
#     4  11  20  32  56  88 120 158 198 255 314 369
#     4  11  23  38  60  86 125 163 212 252 311 370
#     4  11  23  39  59  90 122 162 207 258 308 383
#
# _framework density 25.000543
#
# number of rings (size 3 to 8) (size 9 to 14) (size 15 to 20)
#    0.000    1.167    5.000    3.000    2.333    4.000 
#    0.000    3.333    0.000    0.000    0.000    3.500 
#    0.000    0.000    0.000    0.000    0.000    0.000 
#
# Total GULP energy -134307.196853 kJ/mol
# GULP energy per Si atom -5596.133202 kJ/mol
# Density = 2.494364 g / cm^3
# Si number density = 25.000543 Si / 1000 Ang^3
#
#
#
# Elastic Constant Matrix: (Units=GPa)
#
#
# Indices 1 2 3 4 5 6 
#
# 1 189.8685 73.6812 34.7848 0.0003 40.2411 0.0001
# 2 73.6812 164.5610 24.2352 0.0006 12.3964 -0.0002
# 3 34.7848 24.2352 65.3011 0.0066 8.2714 0.0021
# 4 0.0003 0.0006 0.0066 23.5379 0.0006 15.5031
# 5 40.2411 12.3964 8.2714 0.0006 48.8506 0.0001
# 6 0.0001 -0.0002 0.0021 15.5031 0.0001 32.5230
#
#
#
# Elastic Compliance Matrix: (Units=1/GPa)
#
#
# Indices 1 2 3 4 5 6 
#
# 1 0.007958 -0.002784 -0.002519 0.000001 -0.005422 0.000000
# 2 -0.002784 0.007478 -0.001372 0.000000 0.000628 0.000000
# 3 -0.002519 -0.001372 0.017227 -0.000006 -0.000494 0.000002
# 4 0.000001 0.000000 -0.000006 0.061928 -0.000001 -0.029520
# 5 -0.005422 0.000628 -0.000494 -0.000001 0.024862 0.000000
# 6 0.000000 0.000000 0.000002 -0.029520 0.000000 0.044819
#
#
# Mechanical properties :
#
#
# Convention : Reuss Voigt Hill
#
# Bulk Modulus (GPa) = 51.77703 76.12590 63.95147
# Shear Modulus (GPa) = 27.16530 40.11759 33.64145
#
# Velocity S-wave (km/s) = 3.29992 4.01018 3.67226
# Velocity P-wave (km/s) = 5.93924 7.20818 6.60426
#
# Compressibility (1/GPa) = 0.01931358
#
# Stress axis : x y z
#
# Youngs Moduli (GPa) = 125.66385 133.72776 58.04755
#
# Poissons Ratio (x) = 0.37224 0.14623
# Poissons Ratio (y) = 0.34980 0.07964
# Poissons Ratio (z) = 0.31655 0.18348
#
# Static dielectric constant tensor:
#      x y z
#    x 2.028020 0.000000 -0.008810 
#    y 0.000000 1.980390 0.000000 
#    z -0.008810 0.000000 1.969940 
# 
# From -- ./inp_files/336481.got.cif
#   From: 2010.05.17/outbox.cif.g08.bks.cpg/sg12_169_cif.got.tgz:336481.got - 2010.06.03 13:09:07.
