data_PCOD9211801
_publ_section_title
;
Structure prediction by ZEFSAII (Michael W. Deem and Ramdas Pophale) SiO2 
 PCOD9211801
Probable space group: C 2/M
;
_chemical_formula_sum "Si O2"
_cell_formula_units_Z 48
_cell_length_a 19.513694
_cell_length_b 8.870577
_cell_length_c 30.411636
_cell_angle_alpha 90.000000
_cell_angle_beta 149.447970
_cell_angle_gamma 90.000000
_cell_volume 2675.893654
_symmetry_space_group_name_H-M "C 2/M"
_symmetry_group_IT_number 12
_symmetry_cell_setting 'monoclinic'
loop_
_space_group_symop_operation_xyz
x,y,z
-x,y,-z
-x,-y,-z
x,-y,z
1/2+x,1/2+y,z
1/2-x,1/2+y,-z
1/2-x,1/2-y,-z
1/2+x,1/2-y,z
loop_
_atom_site_type_symbol
_atom_site_label
_atom_site_fract_x
_atom_site_fract_y
_atom_site_fract_z
Si Si1 0.642831 0.321254 0.723213
Si Si2 0.914543 0.679581 0.216768
Si Si3 0.831626 0.822046 0.758192
Si Si4 0.204505 0.820318 0.360570
Si Si5 0.144534 0.178860 0.908179
Si Si6 0.631648 0.819884 0.464397
O O1 0.631309 0.500000 0.720908
O O2 0.651277 0.248056 0.776018
O O3 0.766203 0.273753 0.760469
O O4 0.508239 0.254936 0.626229
O O5 0.908186 0.500000 0.213928
O O6 0.849758 0.744263 0.136434
O O7 0.070868 0.733109 0.302116
O O8 0.769011 0.783514 0.675705
O O9 0.991578 0.798967 0.841042
O O10 0.806913 0.000000 0.752709
O O11 0.324565 0.792761 0.460922
O O12 0.172427 0.000000 0.344339
O O13 0.165969 0.000000 0.915676
O O14 0.250000 0.250000 0.000000
O O15 0.750000 0.750000 0.500000
O O16 0.624496 0.000000 0.453404
#
# Coordination Sequence:
#
# PCOD9211801 Si02
#       6
#     8   8   8   8   8   8
#     4  12  24  37  54  81 118 155 193 241 288 333
#     4  11  21  35  59  85 113 150 192 235 283 340
#     4   9  20  39  59  82 114 151 187 231 287 341
#     4   9  19  36  57  80 111 150 194 240 286 337
#     4  10  21  40  66  92 118 146 183 229 280 344
#     4  11  21  34  55  82 113 152 197 243 285 335
#
# _framework density 17.937933000000001
#
# number of rings (size 3 to 8) (size 9 to 14) (size 15 to 20)
#    0.000    1.667    1.667    5.000    0.000    4.667 
#    0.000    4.167    0.000    5.000    0.000    0.000 
#    0.000    0.000    0.000    0.000    0.000    0.000 
#
# Total GULP energy -134092.741820 kJ/mol
# GULP energy per Si atom -5587.197576 kJ/mol
# Density = 1.789711 g / cm^3
# Si number density = 17.937933 Si / 1000 Ang^3
#
#
#
# Elastic Constant Matrix: (Units=GPa)
#
#
# Indices 1 2 3 4 5 6 
#
# 1 130.9156 82.5285 53.2298 0.0000 -24.5553 0.0000
# 2 82.5285 127.9012 60.8711 0.0000 -19.1854 0.0001
# 3 53.2298 60.8711 94.0385 0.0000 -33.1945 0.0000
# 4 0.0000 0.0000 0.0000 31.3016 0.0000 -0.0489
# 5 -24.5553 -19.1854 -33.1945 0.0000 22.0265 0.0000
# 6 0.0000 0.0001 0.0000 -0.0489 0.0000 31.9279
#
#
#
# Elastic Compliance Matrix: (Units=1/GPa)
#
#
# Indices 1 2 3 4 5 6 
#
# 1 0.014312 -0.008029 0.000554 0.000000 0.009797 0.000000
# 2 -0.008029 0.015870 -0.008563 0.000000 -0.008033 0.000000
# 3 0.000554 -0.008563 0.028734 0.000000 0.036462 0.000000
# 4 0.000000 0.000000 0.000000 0.031947 0.000000 0.000049
# 5 0.009797 -0.008033 0.036462 0.000000 0.104274 0.000000
# 6 0.000000 0.000000 0.000000 0.000049 0.000000 0.031321
#
#
# Mechanical properties :
#
#
# Convention : Reuss Voigt Hill
#
# Bulk Modulus (GPa) = 37.25881 82.90157 60.08019
# Shear Modulus (GPa) = 18.69292 27.46624 23.07958
#
# Velocity S-wave (km/s) = 3.23164 3.91728 3.59086
# Velocity P-wave (km/s) = 5.89413 8.17167 7.12450
#
# Compressibility (1/GPa) = 0.02683929
#
# Stress axis : x y z
#
# Youngs Moduli (GPa) = 69.86955 63.01235 34.80214
#
# Poissons Ratio (x) = 0.50594 -0.01929
# Poissons Ratio (y) = 0.56100 0.29802
# Poissons Ratio (z) = -0.03872 0.53960
#
# Static dielectric constant tensor:
#      x y z
#    x 1.607150 0.000000 -0.015170 
#    y 0.000000 1.596400 0.000000 
#    z -0.015170 0.000000 1.598240 
# 
# From -- ./inp_files/295359.got.cif
#   From: 2010.05.17/outbox.cif.g08.bks.cpg/sg12_148_cif.got.tgz:295359.got - 2010.06.03 13:09:07.
