data_PCOD9211341
_publ_section_title
;
Structure prediction by ZEFSAII (Michael W. Deem and Ramdas Pophale) SiO2 
 PCOD9211341
Probable space group: C 2/M
;
_chemical_formula_sum "Si O2"
_cell_formula_units_Z 32
_cell_length_a 6.971790
_cell_length_b 24.463771
_cell_length_c 9.936310
_cell_angle_alpha 90.000000
_cell_angle_beta 127.021814
_cell_angle_gamma 90.000000
_cell_volume 1353.059209
_symmetry_space_group_name_H-M "C 2/M"
_symmetry_group_IT_number 12
_symmetry_cell_setting 'monoclinic'
loop_
_space_group_symop_operation_xyz
x,y,z
-x,y,-z
-x,-y,-z
x,-y,z
1/2+x,1/2+y,z
1/2-x,1/2+y,-z
1/2-x,1/2-y,-z
1/2+x,1/2-y,z
loop_
_atom_site_type_symbol
_atom_site_label
_atom_site_fract_x
_atom_site_fract_y
_atom_site_fract_z
Si Si1 0.764565 0.081428 0.669129
Si Si2 0.660361 0.000000 0.857945
Si Si3 0.746887 0.207427 0.372686
Si Si4 0.146391 0.000000 0.753732
Si Si5 0.725607 0.311570 0.192292
O O1 0.500000 0.072302 0.500000
O O2 0.970477 0.051803 0.671882
O O3 0.813393 0.145363 0.705275
O O4 0.751840 0.051915 0.810366
O O5 0.371720 0.000000 0.750243
O O6 0.754301 0.000000 0.050099
O O7 0.750000 0.250000 0.500000
O O8 0.741322 0.248562 0.243490
O O9 0.498079 0.174942 0.260443
O O10 0.000000 0.177295 0.500000
O O11 0.500000 0.317984 0.000000
#
# Coordination Sequence:
#
# PCOD9211341 Si02
#       5
#     8   4   8   4   8
#     4  11  22  38  62  87 122 160 199 246 303 358
#     4  10  21  40  61  91 118 154 199 253 302 357
#     4   9  19  37  58  82 117 151 194 242 292 347
#     4  10  21  40  63  87 122 152 199 253 302 360
#     4  11  21  38  60  87 119 158 198 243 299 355
#
# _framework density 23.650109
#
# number of rings (size 3 to 8) (size 9 to 14) (size 15 to 20)
#    0.000    1.750    0.000    7.500    0.000    2.000 
#   13.500    0.000    0.000    0.000    0.000    0.000 
#    0.000    0.000    0.000    0.000    0.000    0.000 
#
# Total GULP energy -89390.413001 kJ/mol
# GULP energy per Si atom -5586.900813 kJ/mol
# Density = 2.359628 g / cm^3
# Si number density = 23.650109 Si / 1000 Ang^3
#
#
#
# Elastic Constant Matrix: (Units=GPa)
#
#
# Indices 1 2 3 4 5 6 
#
# 1 120.4237 20.9072 44.5281 0.0000 47.1386 0.0000
# 2 20.9072 80.6640 6.8512 0.0000 18.7490 0.0000
# 3 44.5281 6.8512 139.2989 0.0000 48.7972 0.0000
# 4 0.0000 0.0000 0.0000 6.5100 0.0000 -10.2085
# 5 47.1386 18.7490 48.7972 0.0000 57.1672 0.0000
# 6 0.0000 0.0000 0.0000 -10.2085 0.0000 6.1458
#
#
#
# Elastic Compliance Matrix: (Units=1/GPa)
#
#
# Indices 1 2 3 4 5 6 
#
# 1 0.012361 -0.000982 -0.000635 0.000000 -0.009328 0.000000
# 2 -0.000982 0.013654 0.001323 0.000000 -0.004798 0.000000
# 3 -0.000635 0.001323 0.010393 0.000000 -0.008781 0.000000
# 4 0.000000 0.000000 0.000000 -0.095723 0.000000 -0.159000
# 5 -0.009328 -0.004798 -0.008781 0.000000 0.034254 0.000000
# 6 0.000000 0.000000 0.000000 -0.159000 0.000000 -0.101395
#
#
# Mechanical properties :
#
#
# Convention : Reuss Voigt Hill
#
# Bulk Modulus (GPa) = 27.91702 53.88441 40.90072
# Shear Modulus (GPa) = -43.88720 31.83794 -6.02463
#
# Velocity S-wave (km/s) = -4.31244 3.67305 -1.59779
# Velocity P-wave (km/s) = 3.60089 6.38920 3.73199
#
# Compressibility (1/GPa) = 0.03582044
#
# Stress axis : x y z
#
# Youngs Moduli (GPa) = 80.90138 73.23650 96.21876
#
# Poissons Ratio (x) = 0.07189 0.06112
# Poissons Ratio (y) = 0.07942 -0.12730
# Poissons Ratio (z) = 0.05139 -0.09689
#
# Static dielectric constant tensor:
#      x y z
#    x 1.976420 0.000000 0.003140 
#    y 0.000000 1.883630 0.000000 
#    z 0.003140 0.000000 1.906130 
# 
# From -- ./inp_files/123265.got.cif
#   From: 2010.05.17/outbox.cif.g08.bks.cpg/sg12_62_cif.got.tgz:123265.got - 2010.06.03 13:09:07.
