data_PCOD9211789
_publ_section_title
;
Structure prediction by ZEFSAII (Michael W. Deem and Ramdas Pophale) SiO2 
 PCOD9211789
Probable space group: C 2/M
;
_chemical_formula_sum "Si O2"
_cell_formula_units_Z 48
_cell_length_a 15.120769
_cell_length_b 16.941490
_cell_length_c 14.223785
_cell_angle_alpha 90.000000
_cell_angle_beta 39.431435
_cell_angle_gamma 90.000000
_cell_volume 2314.301594
_symmetry_space_group_name_H-M "C 2/M"
_symmetry_group_IT_number 12
_symmetry_cell_setting 'monoclinic'
loop_
_space_group_symop_operation_xyz
x,y,z
-x,y,-z
-x,-y,-z
x,-y,z
1/2+x,1/2+y,z
1/2-x,1/2+y,-z
1/2-x,1/2-y,-z
1/2+x,1/2-y,z
loop_
_atom_site_type_symbol
_atom_site_label
_atom_site_fract_x
_atom_site_fract_y
_atom_site_fract_z
Si Si1 0.201304 0.336756 0.880902
Si Si2 0.477127 0.094062 0.362822
Si Si3 0.287396 0.346286 0.114275
Si Si4 0.797121 0.904759 0.310599
Si Si5 0.934609 0.092683 0.808713
Si Si6 0.922699 0.407929 0.192289
O O1 0.178397 0.245641 0.923627
O O2 0.350124 0.362668 0.797793
O O3 0.175895 0.354905 0.792134
O O4 0.080903 0.387019 0.031998
O O5 0.621537 0.139642 0.249872
O O6 0.359134 0.118611 0.533407
O O7 0.413555 0.103935 0.310866
O O8 0.506763 0.000000 0.351492
O O9 0.337832 0.374759 0.174634
O O10 0.351795 0.393595 0.974458
O O11 0.909749 0.878954 0.295563
O O12 0.800369 0.000000 0.306393
O O13 0.936999 0.000000 0.784610
O O14 0.895723 0.500000 0.193770
#
# Coordination Sequence:
#
# PCOD9211789 Si02
#       6
#     8   8   8   8   8   8
#     4  11  23  36  61  90 124 150 199 255 301 347
#     4  10  21  41  65  88 117 161 208 243 289 360
#     4  12  23  36  61  90 124 156 196 248 304 353
#     4  10  23  40  61  88 123 162 200 244 295 358
#     4  11  22  39  61  88 119 157 202 249 296 351
#     4  10  21  40  66  89 114 160 208 248 291 350
#
# _framework density 20.740597999999999
#
# number of rings (size 3 to 8) (size 9 to 14) (size 15 to 20)
#    0.000    1.333    1.667    5.000    4.667    2.667 
#    0.000    5.833    0.000    4.000    0.000    0.000 
#    0.000    0.000    0.000    0.000    0.000    0.000 
#
# Total GULP energy -134202.542254 kJ/mol
# GULP energy per Si atom -5591.772594 kJ/mol
# Density = 2.069339 g / cm^3
# Si number density = 20.740598 Si / 1000 Ang^3
#
#
#
# Elastic Constant Matrix: (Units=GPa)
#
#
# Indices 1 2 3 4 5 6 
#
# 1 81.9527 1.5026 -7.5273 0.0000 -11.5119 0.0000
# 2 1.5026 16.4031 -7.2363 0.0000 -0.1212 0.0001
# 3 -7.5273 -7.2363 43.1698 0.0000 -7.7855 0.0000
# 4 0.0000 0.0000 0.0000 -0.7882 0.0000 -18.9202
# 5 -11.5119 -0.1212 -7.7855 0.0000 29.3012 -0.0001
# 6 0.0000 0.0001 0.0000 -18.9202 -0.0001 68.3190
#
#
#
# Elastic Compliance Matrix: (Units=1/GPa)
#
#
# Indices 1 2 3 4 5 6 
#
# 1 0.013388 0.000369 0.003514 0.000000 0.006195 0.000000
# 2 0.000369 0.066160 0.011795 0.000000 0.003553 0.000000
# 3 0.003514 0.011795 0.027321 0.000000 0.008689 0.000000
# 4 0.000000 0.000000 0.000000 -0.165893 0.000000 -0.045942
# 5 0.006195 0.003553 0.008689 0.000000 0.038886 0.000000
# 6 0.000000 0.000000 0.000000 -0.045942 0.000000 0.001914
#
#
# Mechanical properties :
#
#
# Convention : Reuss Voigt Hill
#
# Bulk Modulus (GPa) = 7.23454 12.77817 10.00635
# Shear Modulus (GPa) = -1426.44413 29.68551 -698.37931
#
# Velocity S-wave (km/s) = -26.25353 3.78732 -18.36986
# Velocity P-wave (km/s) = 30.25725 5.02985 21.09741
#
# Compressibility (1/GPa) = 0.13822586
#
# Stress axis : x y z
#
# Youngs Moduli (GPa) = 74.69182 15.11490 36.60172
#
# Poissons Ratio (x) = -0.00558 -0.12861
# Poissons Ratio (y) = -0.02759 -0.43172
# Poissons Ratio (z) = -0.26244 -0.17828
#
# Static dielectric constant tensor:
#      x y z
#    x 1.765520 0.000000 -0.005450 
#    y 0.000000 1.701320 0.000000 
#    z -0.005450 0.000000 1.727720 
# 
# From -- ./inp_files/216220.got.cif
#   From: 2010.05.17/outbox.cif.g08.bks.cpg/sg12_109_cif.got.tgz:216220.got - 2010.06.03 13:09:07.
