data_PCOD9211041
_publ_section_title
;
Structure prediction by ZEFSAII (Michael W. Deem and Ramdas Pophale) SiO2 
 PCOD9211041
Probable space group: C 2/M
;
_chemical_formula_sum "Si O2"
_cell_formula_units_Z 26
_cell_length_a 17.109779
_cell_length_b 11.782398
_cell_length_c 7.203481
_cell_angle_alpha 90.000000
_cell_angle_beta 128.083578
_cell_angle_gamma 90.000000
_cell_volume 1143.028215
_symmetry_space_group_name_H-M "C 2/M"
_symmetry_group_IT_number 12
_symmetry_cell_setting 'monoclinic'
loop_
_space_group_symop_operation_xyz
x,y,z
-x,y,-z
-x,-y,-z
x,-y,z
1/2+x,1/2+y,z
1/2-x,1/2+y,-z
1/2-x,1/2-y,-z
1/2+x,1/2-y,z
loop_
_atom_site_type_symbol
_atom_site_label
_atom_site_fract_x
_atom_site_fract_y
_atom_site_fract_z
Si Si1 0.861055 0.625626 0.779520
Si Si2 0.639103 0.311866 0.509483
Si Si3 0.888476 0.374850 0.255454
Si Si4 0.000000 0.000000 0.500000
O O1 0.893922 0.500000 0.762927
O O2 0.741228 0.630800 0.594768
O O3 0.897768 0.729213 0.708419
O O4 0.888240 0.638651 0.034593
O O5 0.665804 0.225320 0.716142
O O6 0.560420 0.400804 0.470529
O O7 0.844276 0.500000 0.228931
O O8 0.000000 0.373404 0.500000
#
# Coordination Sequence:
#
# PCOD9211041 Si02
#       4
#     8   8   8   2
#     4  10  22  41  69  97 129 175 223 269 328 395
#     4  11  22  42  65  95 135 173 217 274 330 396
#     4  10  21  39  65  95 130 173 223 274 323 384
#     4  12  24  44  68  96 140 168 220 274 338 394
#
# _framework density 22.746594999999999
#
# number of rings (size 3 to 8) (size 9 to 14) (size 15 to 20)
#    0.000    1.538    3.077    1.846    0.000    1.231 
#    0.000    7.692    0.000    0.000    0.000    0.000 
#    0.000    0.000    0.000    0.000    0.000    0.000 
#
# Total GULP energy -72461.217424 kJ/mol
# GULP energy per Si atom -5573.939802 kJ/mol
# Density = 2.269482 g / cm^3
# Si number density = 22.746595 Si / 1000 Ang^3
#
#
#
# Elastic Constant Matrix: (Units=GPa)
#
#
# Indices 1 2 3 4 5 6 
#
# 1 89.0697 57.3010 -5.3544 0.0000 -12.0229 0.0000
# 2 57.3010 212.6427 54.9745 0.0000 -33.2628 0.0000
# 3 -5.3544 54.9745 121.3291 0.0000 -25.3394 0.0000
# 4 0.0000 0.0000 0.0000 14.3068 0.0000 -12.5766
# 5 -12.0229 -33.2628 -25.3394 0.0000 28.9692 0.0000
# 6 0.0000 0.0000 0.0000 -12.5766 0.0000 -3.2180
#
#
#
# Elastic Compliance Matrix: (Units=1/GPa)
#
#
# Indices 1 2 3 4 5 6 
#
# 1 0.014704 -0.004177 0.003443 0.000000 0.004318 0.000000
# 2 -0.004177 0.007150 -0.002534 0.000000 0.004259 0.000000
# 3 0.003443 -0.002534 0.011297 0.000000 0.008400 0.000000
# 4 0.000000 0.000000 0.000000 0.015758 0.000000 -0.061587
# 5 0.004318 0.004259 0.008400 0.000000 0.048550 0.000000
# 6 0.000000 0.000000 0.000000 -0.061587 0.000000 -0.070060
#
#
# Mechanical properties :
#
#
# Convention : Reuss Voigt Hill
#
# Bulk Modulus (GPa) = 37.57321 70.76485 54.16903
# Shear Modulus (GPa) = 116.80363 29.08631 72.94497
#
# Velocity S-wave (km/s) = 7.17366 3.57979 5.66905
# Velocity P-wave (km/s) = 9.22872 6.94724 8.16803
#
# Compressibility (1/GPa) = 0.02661471
#
# Stress axis : x y z
#
# Youngs Moduli (GPa) = 68.00715 139.86450 88.52097
#
# Poissons Ratio (x) = 0.58423 -0.30482
# Poissons Ratio (y) = 0.28407 0.22435
# Poissons Ratio (z) = -0.23418 0.35448
#
# Static dielectric constant tensor:
#      x y z
#    x 1.880530 0.000000 0.006970 
#    y 0.000000 1.846910 0.000000 
#    z 0.006970 0.000000 1.836890 
# 
# From -- ./inp_files/18911.got.cif
#   From: 2010.05.17/outbox.cif.g08.bks.cpg/sg12_10_cif.got.tgz:18911.got - 2010.06.03 13:09:07.
