data_PCOD9211344
_publ_section_title
;
Structure prediction by ZEFSAII (Michael W. Deem and Ramdas Pophale) SiO2 
 PCOD9211344
Probable space group: C 2/M
;
_chemical_formula_sum "Si O2"
_cell_formula_units_Z 48
_cell_length_a 30.986406
_cell_length_b 14.504270
_cell_length_c 5.124694
_cell_angle_alpha 90.000000
_cell_angle_beta 92.435526
_cell_angle_gamma 90.000000
_cell_volume 2301.137309
_symmetry_space_group_name_H-M "C 2/M"
_symmetry_group_IT_number 12
_symmetry_cell_setting 'monoclinic'
loop_
_space_group_symop_operation_xyz
x,y,z
-x,y,-z
-x,-y,-z
x,-y,z
1/2+x,1/2+y,z
1/2-x,1/2+y,-z
1/2-x,1/2-y,-z
1/2+x,1/2-y,z
loop_
_atom_site_type_symbol
_atom_site_label
_atom_site_fract_x
_atom_site_fract_y
_atom_site_fract_z
Si Si1 0.232150 0.325139 0.295048
Si Si2 0.358397 0.895103 0.601357
Si Si3 0.148382 0.000000 0.264593
Si Si4 0.112109 0.712140 0.885705
Si Si5 0.529338 0.676986 0.755902
Si Si6 0.088899 0.000000 0.744229
Si Si7 0.812282 0.836531 0.020091
O O1 0.250000 0.250000 0.500000
O O2 0.193756 0.385409 0.402217
O O3 0.273924 0.375864 0.189067
O O4 0.207804 0.260780 0.077988
O O5 0.374180 0.862713 0.323560
O O6 0.370387 0.000000 0.660819
O O7 0.378613 0.827076 0.823728
O O8 0.127625 0.000000 0.543483
O O9 0.109858 0.000000 0.038528
O O10 0.175940 0.091294 0.202324
O O11 0.063180 0.743064 0.835711
O O12 0.142952 0.801742 0.843883
O O13 0.500000 0.699926 0.500000
O O14 0.558354 0.588042 0.698659
O O15 0.500000 0.657143 0.000000
#
# Coordination Sequence:
#
# PCOD9211344 Si02
#       7
#     8   8   4   8   8   4   8
#     4  10  21  40  61  91 130 174 223 278 318 369
#     4  11  24  42  68  97 130 171 223 272 331 386
#     4  12  26  39  66  96 138 182 224 252 326 390
#     4  11  23  43  70  91 132 171 216 267 332 393
#     4  12  25  44  71 101 133 170 218 266 329 401
#     4  12  26  43  66 100 140 176 216 266 320 389
#     4  10  23  40  59  91 131 180 218 268 314 379
#
# _framework density 20.859248999999998
#
# number of rings (size 3 to 8) (size 9 to 14) (size 15 to 20)
#    0.000    1.000    3.333    3.000    8.167    0.000 
#    1.500    0.000    0.000   10.000    0.000    0.000 
#    0.000    0.000    0.000    0.000    0.000    0.000 
#
# Total GULP energy -134134.611355 kJ/mol
# GULP energy per Si atom -5588.942140 kJ/mol
# Density = 2.081177 g / cm^3
# Si number density = 20.859249 Si / 1000 Ang^3
#
#
#
# Elastic Constant Matrix: (Units=GPa)
#
#
# Indices 1 2 3 4 5 6 
#
# 1 92.1705 16.5613 15.3297 0.0000 -8.1980 0.0000
# 2 16.5613 59.5052 -10.3559 0.0000 -10.9784 0.0000
# 3 15.3297 -10.3559 64.5355 0.0000 -1.4848 0.0000
# 4 0.0000 0.0000 0.0000 24.6933 0.0000 -2.8142
# 5 -8.1980 -10.9784 -1.4848 0.0000 43.4238 0.0000
# 6 0.0000 0.0000 0.0000 -2.8142 0.0000 14.8505
#
#
#
# Elastic Compliance Matrix: (Units=1/GPa)
#
#
# Indices 1 2 3 4 5 6 
#
# 1 0.012217 -0.003778 -0.003480 0.000000 0.001232 0.000000
# 2 -0.003778 0.019369 0.004105 0.000000 0.004324 0.000000
# 3 -0.003480 0.004105 0.017003 0.000000 0.000962 0.000000
# 4 0.000000 0.000000 0.000000 0.041391 0.000000 0.007844
# 5 0.001232 0.004324 0.000962 0.000000 0.024388 0.000000
# 6 0.000000 0.000000 0.000000 0.007844 0.000000 0.068824
#
#
# Mechanical properties :
#
#
# Convention : Reuss Voigt Hill
#
# Bulk Modulus (GPa) = 23.65065 28.80905 26.22985
# Shear Modulus (GPa) = 24.55896 29.57193 27.06544
#
# Velocity S-wave (km/s) = 3.43500 3.76931 3.60603
# Velocity P-wave (km/s) = 5.20530 5.72579 5.47174
#
# Compressibility (1/GPa) = 0.04228214
#
# Stress axis : x y z
#
# Youngs Moduli (GPa) = 81.85494 51.62882 58.81372
#
# Poissons Ratio (x) = 0.19508 0.20467
# Poissons Ratio (y) = 0.30928 -0.24144
# Poissons Ratio (z) = 0.28485 -0.21194
#
# Static dielectric constant tensor:
#      x y z
#    x 1.801540 0.000000 0.018730 
#    y 0.000000 1.834720 0.000000 
#    z 0.018730 0.000000 1.764850 
# 
# From -- ./inp_files/28198.got.cif
#   From: 2010.05.17/outbox.cif.g08.bks.cpg/sg12_15_cif.got.tgz:28198.got - 2010.06.03 13:09:07.
