data_PCOD9211063
_publ_section_title
;
Structure prediction by ZEFSAII (Michael W. Deem and Ramdas Pophale) SiO2 
 PCOD9211063
Probable space group: C 2/M
;
_chemical_formula_sum "Si O2"
_cell_formula_units_Z 52
_cell_length_a 19.702286
_cell_length_b 15.359885
_cell_length_c 9.794771
_cell_angle_alpha 90.000000
_cell_angle_beta 51.214111
_cell_angle_gamma 90.000000
_cell_volume 2310.525037
_symmetry_space_group_name_H-M "C 2/M"
_symmetry_group_IT_number 12
_symmetry_cell_setting 'monoclinic'
loop_
_space_group_symop_operation_xyz
x,y,z
-x,y,-z
-x,-y,-z
x,-y,z
1/2+x,1/2+y,z
1/2-x,1/2+y,-z
1/2-x,1/2-y,-z
1/2+x,1/2-y,z
loop_
_atom_site_type_symbol
_atom_site_label
_atom_site_fract_x
_atom_site_fract_y
_atom_site_fract_z
Si Si1 0.284195 0.642011 0.137843
Si Si2 0.939749 0.000000 0.413376
Si Si3 0.752045 0.500000 0.293379
Si Si4 0.316545 0.500000 0.325842
Si Si5 0.464950 0.204539 0.233398
Si Si6 0.361132 0.167235 0.088847
Si Si7 0.934552 0.153921 0.764750
Si Si8 0.906429 0.680378 0.603966
O O1 0.306544 0.584492 0.242488
O O2 0.307214 0.745207 0.122297
O O3 0.181590 0.634112 0.241617
O O4 0.346434 0.614583 0.935789
O O5 0.998304 0.917466 0.364621
O O6 0.850393 0.000000 0.609745
O O7 0.906255 0.000000 0.297915
O O8 0.752327 0.500000 0.460768
O O9 0.798651 0.585584 0.180340
O O10 0.407069 0.185520 0.176354
O O11 0.511885 0.298297 0.179803
O O12 0.405952 0.198656 0.442341
O O13 0.554881 0.148316 0.114142
O O14 0.914740 0.229885 0.680184
O O15 0.000000 0.633988 0.500000
#
# Coordination Sequence:
#
# PCOD9211063 Si02
#       8
#     8   4   4   4   8   8   8   8
#     4  11  22  39  68  95 136 177 227 280 341 408
#     4  10  23  40  65 103 145 170 224 285 353 417
#     4  10  24  37  60 105 138 175 217 277 359 403
#     4  10  23  38  66 111 133 176 221 290 349 406
#     4   9  20  37  62  93 124 172 229 271 343 392
#     4  10  21  39  65  97 134 176 221 294 345 405
#     4  10  21  40  62  95 135 181 222 278 339 412
#     4  10  22  38  62  90 124 178 230 265 325 402
#
# _framework density 22.505707000000001
#
# number of rings (size 3 to 8) (size 9 to 14) (size 15 to 20)
#    0.462    1.538    0.000    2.769    4.308    4.923 
#    0.000    5.385    0.000   13.846    0.000    0.000 
#    0.000    0.000    0.000    0.000    0.000    0.000 
#
# Total GULP energy -145120.190398 kJ/mol
# GULP energy per Si atom -5581.545785 kJ/mol
# Density = 2.245448 g / cm^3
# Si number density = 22.505707 Si / 1000 Ang^3
#
#
#
# Elastic Constant Matrix: (Units=GPa)
#
#
# Indices 1 2 3 4 5 6 
#
# 1 109.4155 33.6101 48.5604 0.0000 -23.4262 0.0000
# 2 33.6101 91.4910 45.6569 0.0000 -7.8644 0.0000
# 3 48.5604 45.6569 117.6818 0.0000 -36.7392 0.0000
# 4 0.0000 0.0000 0.0000 17.5272 0.0000 -4.5985
# 5 -23.4262 -7.8644 -36.7392 0.0000 41.1488 0.0000
# 6 0.0000 0.0000 0.0000 -4.5985 0.0000 23.8710
#
#
#
# Elastic Compliance Matrix: (Units=1/GPa)
#
#
# Indices 1 2 3 4 5 6 
#
# 1 0.012006 -0.002744 -0.002661 0.000000 0.003935 0.000000
# 2 -0.002744 0.014439 -0.005679 0.000000 -0.003873 0.000000
# 3 -0.002661 -0.005679 0.015233 0.000000 0.011000 0.000000
# 4 0.000000 0.000000 0.000000 0.060091 0.000000 0.011576
# 5 0.003935 -0.003873 0.011000 0.000000 0.035623 0.000000
# 6 0.000000 0.000000 0.000000 0.011576 0.000000 0.044122
#
#
# Mechanical properties :
#
#
# Convention : Reuss Voigt Hill
#
# Bulk Modulus (GPa) = 51.25591 63.80480 57.53035
# Shear Modulus (GPa) = 23.78853 29.22679 26.50766
#
# Velocity S-wave (km/s) = 3.25468 3.60757 3.43566
# Velocity P-wave (km/s) = 6.07849 6.76497 6.43090
#
# Compressibility (1/GPa) = 0.01950995
#
# Stress axis : x y z
#
# Youngs Moduli (GPa) = 83.29231 69.25660 65.64771
#
# Poissons Ratio (x) = 0.19006 0.17469
# Poissons Ratio (y) = 0.22858 0.37278
# Poissons Ratio (z) = 0.22165 0.39327
#
# Static dielectric constant tensor:
#      x y z
#    x 1.846880 0.000000 0.013810 
#    y 0.000000 1.852280 0.000000 
#    z 0.013810 0.000000 1.907080 
# 
# From -- ./inp_files/167166.got.cif
#   From: 2010.05.17/outbox.cif.g08.bks.cpg/sg12_84_cif.got.tgz:167166.got - 2010.06.03 13:09:07.
