data_PCOD9211168
_publ_section_title
;
Structure prediction by ZEFSAII (Michael W. Deem and Ramdas Pophale) SiO2 
 PCOD9211168
Probable space group: C 2/M
;
_chemical_formula_sum "Si O2"
_cell_formula_units_Z 64
_cell_length_a 19.245219
_cell_length_b 15.967326
_cell_length_c 14.486267
_cell_angle_alpha 90.000000
_cell_angle_beta 37.739451
_cell_angle_gamma 90.000000
_cell_volume 2724.669494
_symmetry_space_group_name_H-M "C 2/M"
_symmetry_group_IT_number 12
_symmetry_cell_setting 'monoclinic'
loop_
_space_group_symop_operation_xyz
x,y,z
-x,y,-z
-x,-y,-z
x,-y,z
1/2+x,1/2+y,z
1/2-x,1/2+y,-z
1/2-x,1/2-y,-z
1/2+x,1/2-y,z
loop_
_atom_site_type_symbol
_atom_site_label
_atom_site_fract_x
_atom_site_fract_y
_atom_site_fract_z
Si Si1 0.510668 0.397867 0.673685
Si Si2 0.112664 0.668521 0.689553
Si Si3 0.285770 0.332931 0.836066
Si Si4 0.241638 0.093737 0.327965
Si Si5 0.395171 0.093357 0.844158
Si Si6 0.234529 0.355189 0.183936
Si Si7 0.778372 0.161523 0.344330
Si Si8 0.510195 0.367282 0.095153
O O1 0.501067 0.500000 0.692783
O O2 0.416541 0.360222 0.704558
O O3 0.635409 0.377435 0.502728
O O4 0.488641 0.352433 0.794301
O O5 0.146916 0.598703 0.727376
O O6 0.151823 0.753235 0.701701
O O7 0.189507 0.653076 0.519130
O O8 0.985076 0.659291 0.789608
O O9 0.242413 0.353799 0.780006
O O10 0.261303 0.234910 0.871814
O O11 0.220398 0.388104 0.979577
O O12 0.214017 0.000000 0.327622
O O13 0.363765 0.099577 0.769370
O O14 0.436911 0.000000 0.820101
O O15 0.216319 0.338374 0.311412
O O16 0.358977 0.397718 0.048217
O O17 0.881860 0.095001 0.231065
O O18 0.500000 0.325344 0.000000
#
# Coordination Sequence:
#
# PCOD9211168 Si02
#       8
#     8   8   8   8   8   8   8   8
#     4  11  23  40  65  96 129 166 214 277 338 391
#     4  11  23  42  68  95 135 172 227 268 330 406
#     4  12  24  42  66  98 131 176 224 282 333 399
#     4  11  23  42  65  95 131 172 220 277 338 398
#     4  12  27  44  66 100 143 186 221 272 346 420
#     4  11  24  43  69 101 131 174 226 275 336 402
#     4  10  22  43  68 100 124 171 223 287 327 386
#     4  10  21  39  67  96 127 158 216 275 329 382
#
# _framework density 23.489087999999999
#
# number of rings (size 3 to 8) (size 9 to 14) (size 15 to 20)
#    0.000    1.000    3.750    3.000    1.750    2.250 
#    2.250    5.000    0.000    0.000    0.000    0.000 
#    0.000    0.000    0.000    0.000    0.000    0.000 
#
# Total GULP energy -178230.375648 kJ/mol
# GULP energy per Si atom -5569.699239 kJ/mol
# Density = 2.343563 g / cm^3
# Si number density = 23.489088 Si / 1000 Ang^3
#
#
#
# Elastic Constant Matrix: (Units=GPa)
#
#
# Indices 1 2 3 4 5 6 
#
# 1 148.7792 18.7782 13.8773 0.0000 3.9757 0.0000
# 2 18.7782 85.0198 9.3486 0.0000 6.7712 0.0000
# 3 13.8773 9.3486 37.9622 0.0000 5.7239 0.0000
# 4 0.0000 0.0000 0.0000 0.8062 0.0000 1.6209
# 5 3.9757 6.7712 5.7239 0.0000 47.8654 0.0000
# 6 0.0000 0.0000 0.0000 1.6209 0.0000 15.0082
#
#
#
# Elastic Compliance Matrix: (Units=1/GPa)
#
#
# Indices 1 2 3 4 5 6 
#
# 1 0.007100 -0.001310 -0.002253 0.000000 -0.000135 0.000000
# 2 -0.001310 0.012421 -0.002374 0.000000 -0.001364 0.000000
# 3 -0.002253 -0.002374 0.028179 0.000000 -0.002847 0.000000
# 4 0.000000 0.000000 0.000000 1.584509 0.000000 -0.171130
# 5 -0.000135 -0.001364 -0.002847 0.000000 0.021437 0.000000
# 6 0.000000 0.000000 0.000000 -0.171130 0.000000 0.085113
#
#
# Mechanical properties :
#
#
# Convention : Reuss Voigt Hill
#
# Bulk Modulus (GPa) = 27.91169 39.52995 33.72082
# Shear Modulus (GPa) = 2.83676 28.05309 15.44493
#
# Velocity S-wave (km/s) = 1.10014 3.45962 2.56703
# Velocity P-wave (km/s) = 3.67728 5.72924 4.81387
#
# Compressibility (1/GPa) = 0.03582728
#
# Stress axis : x y z
#
# Youngs Moduli (GPa) = 140.83686 80.50886 35.48692
#
# Poissons Ratio (x) = 0.10545 0.07994
# Poissons Ratio (y) = 0.18447 0.08426
# Poissons Ratio (z) = 0.31726 0.19115
#
# Static dielectric constant tensor:
#      x y z
#    x 1.887950 0.000000 0.001380 
#    y 0.000000 2.075040 0.000000 
#    z 0.001380 0.000000 1.865210 
# 
# From -- ./inp_files/226838.got.cif
#   From: 2010.05.17/outbox.cif.g08.bks.cpg/sg12_114_cif.got.tgz:226838.got - 2010.06.03 13:09:07.
