data_PCOD9211431
_publ_section_title
;
Structure prediction by ZEFSAII (Michael W. Deem and Ramdas Pophale) SiO2 
 PCOD9211431
Probable space group: C 2/M
;
_chemical_formula_sum "Si O2"
_cell_formula_units_Z 44
_cell_length_a 14.106617
_cell_length_b 27.605109
_cell_length_c 7.718460
_cell_angle_alpha 90.000000
_cell_angle_beta 136.386497
_cell_angle_gamma 90.000000
_cell_volume 2073.289814
_symmetry_space_group_name_H-M "C 2/M"
_symmetry_group_IT_number 12
_symmetry_cell_setting 'monoclinic'
loop_
_space_group_symop_operation_xyz
x,y,z
-x,y,-z
-x,-y,-z
x,-y,z
1/2+x,1/2+y,z
1/2-x,1/2+y,-z
1/2-x,1/2-y,-z
1/2+x,1/2-y,z
loop_
_atom_site_type_symbol
_atom_site_label
_atom_site_fract_x
_atom_site_fract_y
_atom_site_fract_z
Si Si1 0.745456 0.882733 0.501036
Si Si2 0.115400 0.716911 0.845072
Si Si3 0.028587 0.196140 0.240610
Si Si4 0.335471 0.443883 0.304485
Si Si5 0.000000 0.338630 0.000000
Si Si6 0.734621 0.629787 0.079597
O O1 0.797406 0.924633 0.443926
O O2 0.768914 0.892550 0.733939
O O3 0.832725 0.834244 0.570457
O O4 0.589507 0.870641 0.248278
O O5 0.986351 0.754150 0.671473
O O6 0.145734 0.670333 0.767167
O O7 0.250000 0.750000 0.000000
O O8 0.100460 0.693574 0.015537
O O9 0.906957 0.159747 0.136392
O O10 0.000000 0.206966 0.000000
O O11 0.500000 0.439073 0.500000
O O12 0.299124 0.500000 0.233223
O O13 0.260591 0.409590 0.065284
#
# Coordination Sequence:
#
# PCOD9211431 Si02
#       6
#     8   8   8   8   4   8
#     4  11  24  42  65  94 138 179 225 283 330 403
#     4  10  21  40  62  95 134 178 232 270 331 399
#     4   9  18  37  63  92 128 178 222 267 331 388
#     4  11  23  42  73 105 131 168 219 288 359 407
#     4  12  24  42  63  94 138 186 233 274 332 394
#     4  10  21  42  65  94 135 173 215 280 339 400
#
# _framework density 21.222311999999999
#
# number of rings (size 3 to 8) (size 9 to 14) (size 15 to 20)
#    0.000    1.636    4.545    0.000    0.000    2.182 
#    3.273    2.273    0.000    1.091    0.000    0.000 
#    0.000    0.000    0.000    0.000    0.000    0.000 
#
# Total GULP energy -122875.894288 kJ/mol
# GULP energy per Si atom -5585.267922 kJ/mol
# Density = 2.117401 g / cm^3
# Si number density = 21.222312 Si / 1000 Ang^3
#
#
#
# Elastic Constant Matrix: (Units=GPa)
#
#
# Indices 1 2 3 4 5 6 
#
# 1 99.6974 44.0003 10.3279 0.0000 -20.7145 0.0000
# 2 44.0003 125.5291 33.0327 0.0000 -18.3752 0.0000
# 3 10.3279 33.0327 68.1892 0.0000 -2.9256 0.0000
# 4 0.0000 0.0000 0.0000 13.8166 0.0000 -10.6665
# 5 -20.7145 -18.3752 -2.9256 0.0000 34.2575 0.0000
# 6 0.0000 0.0000 0.0000 -10.6665 0.0000 6.0020
#
#
#
# Elastic Compliance Matrix: (Units=1/GPa)
#
#
# Indices 1 2 3 4 5 6 
#
# 1 0.012851 -0.003677 0.000084 0.000000 0.005805 0.000000
# 2 -0.003677 0.010943 -0.004605 0.000000 0.003253 0.000000
# 3 0.000084 -0.004605 0.016841 0.000000 -0.000981 0.000000
# 4 0.000000 0.000000 0.000000 -0.194571 0.000000 -0.345784
# 5 0.005805 0.003253 -0.000981 0.000000 0.034362 0.000000
# 6 0.000000 0.000000 0.000000 -0.345784 0.000000 -0.447901
#
#
# Mechanical properties :
#
#
# Convention : Reuss Voigt Hill
#
# Bulk Modulus (GPa) = 41.25501 52.01530 46.63515
# Shear Modulus (GPa) = -9.20809 24.55220 7.67206
#
# Velocity S-wave (km/s) = -2.08526 3.40502 1.90340
# Velocity P-wave (km/s) = 3.69918 6.32628 5.18198
#
# Compressibility (1/GPa) = 0.02423948
#
# Stress axis : x y z
#
# Youngs Moduli (GPa) = 77.81797 91.38354 59.37933
#
# Poissons Ratio (x) = 0.33598 -0.00497
# Poissons Ratio (y) = 0.28610 0.27342
# Poissons Ratio (z) = -0.00652 0.42078
#
# Static dielectric constant tensor:
#      x y z
#    x 1.790270 0.000000 0.005780 
#    y 0.000000 1.741870 0.000000 
#    z 0.005780 0.000000 1.869050 
# 
# From -- ./inp_files/67168.got.cif
#   From: 2010.05.17/outbox.cif.g08.bks.cpg/sg12_34_cif.got.tgz:67168.got - 2010.06.03 13:09:07.
