data_PCOD9211790
_publ_section_title
;
Structure prediction by ZEFSAII (Michael W. Deem and Ramdas Pophale) SiO2 
 PCOD9211790
Probable space group: C 2/M
;
_chemical_formula_sum "Si O2"
_cell_formula_units_Z 52
_cell_length_a 31.101622
_cell_length_b 7.820050
_cell_length_c 22.949031
_cell_angle_alpha 90.000000
_cell_angle_beta 151.786937
_cell_angle_gamma 90.000000
_cell_volume 2638.699926
_symmetry_space_group_name_H-M "C 2/M"
_symmetry_group_IT_number 12
_symmetry_cell_setting 'monoclinic'
loop_
_space_group_symop_operation_xyz
x,y,z
-x,y,-z
-x,-y,-z
x,-y,z
1/2+x,1/2+y,z
1/2-x,1/2+y,-z
1/2-x,1/2-y,-z
1/2+x,1/2-y,z
loop_
_atom_site_type_symbol
_atom_site_label
_atom_site_fract_x
_atom_site_fract_y
_atom_site_fract_z
Si Si1 0.453154 0.802005 0.632000
Si Si2 0.789344 0.000000 0.816190
Si Si3 0.767227 0.201192 0.170219
Si Si4 0.764101 0.808578 0.450657
Si Si5 0.474389 0.295694 0.404308
Si Si6 0.824578 0.000000 0.723627
Si Si7 0.514368 0.500000 0.891533
Si Si8 0.924562 0.298542 0.116904
O O1 0.369738 0.696547 0.558389
O O2 0.469932 0.774719 0.583788
O O3 0.542880 0.766438 0.778140
O O4 0.429255 0.000000 0.613108
O O5 0.745104 0.830064 0.790747
O O6 0.792884 0.000000 0.751829
O O7 0.892552 0.000000 0.961831
O O8 0.867424 0.235896 0.265203
O O9 0.764262 0.000000 0.183508
O O10 0.682099 0.232237 0.025003
O O11 0.750000 0.750000 0.500000
O O12 0.714598 0.669642 0.352492
O O13 0.728354 0.000000 0.400610
O O14 0.500000 0.232407 0.500000
O O15 0.488949 0.500000 0.422151
O O16 0.931016 0.000000 0.835972
O O17 0.518630 0.668791 0.855833
O O18 0.941868 0.500000 0.124578
#
# Coordination Sequence:
#
# PCOD9211790 Si02
#       8
#     8   4   8   8   8   4   4   8
#     4  11  23  39  61  93 125 160 210 256 309 371
#     4  10  23  40  64  94 119 163 213 250 302 376
#     4   9  20  41  63  87 125 164 207 253 307 364
#     4  12  25  43  63  90 127 165 206 255 312 368
#     4  10  23  39  59  87 123 166 207 256 308 367
#     4  12  25  40  63  94 126 160 205 264 305 370
#     4  10  21  40  66  89 123 164 198 254 315 360
#     4   9  20  38  63  91 120 161 204 254 307 368
#
# _framework density 19.706675000000001
#
# number of rings (size 3 to 8) (size 9 to 14) (size 15 to 20)
#    0.000    1.692    1.538    1.615    5.385    3.385 
#    0.000    0.000    0.000    4.615    0.000    0.000 
#    0.000    0.000    0.000    0.000    0.000    0.000 
#
# Total GULP energy -145179.189741 kJ/mol
# GULP energy per Si atom -5583.814990 kJ/mol
# Density = 1.966182 g / cm^3
# Si number density = 19.706675 Si / 1000 Ang^3
#
#
#
# Elastic Constant Matrix: (Units=GPa)
#
#
# Indices 1 2 3 4 5 6 
#
# 1 111.4677 32.6346 26.1537 0.0000 -6.7247 0.0000
# 2 32.6346 84.9620 22.9936 0.0000 -2.0548 0.0000
# 3 26.1537 22.9936 -4.1570 0.0000 8.5358 0.0000
# 4 0.0000 0.0000 0.0000 17.7467 0.0000 -0.4810
# 5 -6.7247 -2.0548 8.5358 0.0000 33.2367 0.0000
# 6 0.0000 0.0000 0.0000 -0.4810 0.0000 25.1789
#
#
#
# Elastic Compliance Matrix: (Units=1/GPa)
#
#
# Indices 1 2 3 4 5 6 
#
# 1 0.007951 -0.006265 0.011706 0.000000 -0.001785 0.000000
# 2 -0.006265 0.010752 0.012318 0.000000 -0.003767 0.000000
# 3 0.011706 0.012318 -0.060463 0.000000 0.018658 0.000000
# 4 0.000000 0.000000 0.000000 0.056378 0.000000 0.001077
# 5 -0.001785 -0.003767 0.018658 0.000000 0.024702 0.000000
# 6 0.000000 0.000000 0.000000 0.001077 0.000000 0.039736
#
#
# Mechanical properties :
#
#
# Convention : Reuss Voigt Hill
#
# Bulk Modulus (GPa) = -160.18674 39.53741 -60.32467
# Shear Modulus (GPa) = 120.60742 22.59852 71.60297
#
# Velocity S-wave (km/s) = 7.83161 3.39004 6.03434
# Velocity P-wave (km/s) = 0.56294 5.95228 4.22768
#
# Compressibility (1/GPa) = -0.00624271
#
# Stress axis : x y z
#
# Youngs Moduli (GPa) = 125.76495 93.00915 -16.53898
#
# Poissons Ratio (x) = 0.58273 0.19360
# Poissons Ratio (y) = 0.78795 0.20373
# Poissons Ratio (z) = -1.47216 -1.14573
#
# Static dielectric constant tensor:
#      x y z
#    x 1.666460 0.000000 0.016250 
#    y 0.000000 1.692310 0.000000 
#    z 0.016250 0.000000 1.717320 
# 
# From -- ./inp_files/329343.got.cif
#   From: 2010.05.17/outbox.cif.g08.bks.cpg/sg12_165_cif.got.tgz:329343.got - 2010.06.03 13:09:07.
