data_PCOD9211904
_publ_section_title
;
Structure prediction by ZEFSAII (Michael W. Deem and Ramdas Pophale) SiO2 
 PCOD9211904
Probable space group: C 2/M
;
_chemical_formula_sum "Si O2"
_cell_formula_units_Z 64
_cell_length_a 17.096768
_cell_length_b 24.379696
_cell_length_c 20.051687
_cell_angle_alpha 90.000000
_cell_angle_beta 157.910227
_cell_angle_gamma 90.000000
_cell_volume 3143.033902
_symmetry_space_group_name_H-M "C 2/M"
_symmetry_group_IT_number 12
_symmetry_cell_setting 'monoclinic'
loop_
_space_group_symop_operation_xyz
x,y,z
-x,y,-z
-x,-y,-z
x,-y,z
1/2+x,1/2+y,z
1/2-x,1/2+y,-z
1/2-x,1/2-y,-z
1/2+x,1/2-y,z
loop_
_atom_site_type_symbol
_atom_site_label
_atom_site_fract_x
_atom_site_fract_y
_atom_site_fract_z
Si Si1 0.266692 0.587670 0.014825
Si Si2 0.199928 0.063557 0.110986
Si Si3 0.286205 0.325271 0.365751
Si Si4 0.467290 0.141227 0.554074
Si Si5 0.556500 0.740535 0.395402
Si Si6 0.684518 0.791743 0.006510
Si Si7 0.823446 0.938724 0.600054
Si Si8 0.207386 0.560321 0.353952
O O1 0.340856 0.582440 0.996899
O O2 0.041746 0.560708 0.840127
O O3 0.237689 0.649463 0.017139
O O4 0.432371 0.561042 0.194280
O O5 0.358516 0.105725 0.269968
O O6 0.272733 0.000000 0.165698
O O7 0.000000 0.064223 0.000000
O O8 0.500000 0.307112 0.500000
O O9 0.348321 0.309775 0.489087
O O10 0.263623 0.390821 0.347945
O O11 0.064776 0.295832 0.174002
O O12 0.500000 0.138855 0.500000
O O13 0.468778 0.203958 0.580921
O O14 0.264301 0.108903 0.420927
O O15 0.750000 0.750000 0.500000
O O16 0.338711 0.723977 0.188897
O O17 0.750000 0.750000 0.000000
O O18 0.773533 0.928729 0.483105
O O19 0.743475 0.000000 0.554598
O O20 0.285496 0.500000 0.396886
#
# Coordination Sequence:
#
# PCOD9211904 Si02
#       8
#     8   8   8   8   8   8   8   8
#     4  11  21  38  62  94 124 162 221 268 317 390
#     4  11  23  39  59  88 132 174 211 266 326 384
#     4  11  25  44  66  99 135 168 214 277 340 392
#     4  12  25  41  59  91 129 171 218 271 326 392
#     4  12  24  45  68  93 128 171 225 278 324 393
#     4  11  23  41  71  93 122 174 218 267 336 393
#     4  11  22  37  63  93 127 172 218 268 323 384
#     4  10  21  40  67  96 128 170 219 266 321 397
#
# _framework density 20.362490999999999
#
# number of rings (size 3 to 8) (size 9 to 14) (size 15 to 20)
#    0.000    0.875    2.500    5.625    0.000    2.750 
#    6.750    0.000    0.000    0.000    0.000    7.000 
#    0.000    0.000    0.000    0.000    0.000    0.000 
#
# Total GULP energy -178518.250182 kJ/mol
# GULP energy per Si atom -5578.695318 kJ/mol
# Density = 2.031615 g / cm^3
# Si number density = 20.362491 Si / 1000 Ang^3
#
#
#
# Elastic Constant Matrix: (Units=GPa)
#
#
# Indices 1 2 3 4 5 6 
#
# 1 29.3616 8.0963 22.6965 0.0338 14.0567 -0.0311
# 2 8.0963 120.3639 24.1136 0.0262 -2.4669 -0.0409
# 3 22.6965 24.1136 163.7157 -0.0886 1.2983 -0.0964
# 4 0.0338 0.0262 -0.0886 65.8920 -0.0763 -25.1685
# 5 14.0567 -2.4669 1.2983 -0.0763 31.0012 0.0020
# 6 -0.0311 -0.0409 -0.0964 -25.1685 0.0020 35.1577
#
#
#
# Elastic Compliance Matrix: (Units=1/GPa)
#
#
# Indices 1 2 3 4 5 6 
#
# 1 0.050765 -0.002588 -0.006475 -0.000070 -0.022953 -0.000024
# 2 -0.002588 0.008709 -0.000939 0.000001 0.001906 0.000006
# 3 -0.006475 -0.000939 0.007124 0.000029 0.002563 0.000033
# 4 -0.000070 0.000001 0.000029 0.020888 0.000081 0.014953
# 5 -0.022953 0.001906 0.002563 0.000081 0.042709 0.000045
# 6 -0.000024 0.000006 0.000033 0.014953 0.000045 0.039148
#
#
# Mechanical properties :
#
#
# Convention : Reuss Voigt Hill
#
# Bulk Modulus (GPa) = 21.46157 47.02824 34.24490
# Shear Modulus (GPa) = 24.40469 43.64583 34.02526
#
# Velocity S-wave (km/s) = 3.46571 4.63476 4.09219
# Velocity P-wave (km/s) = 5.15534 7.19631 6.25957
#
# Compressibility (1/GPa) = 0.04659492
#
# Stress axis : x y z
#
# Youngs Moduli (GPa) = 19.69851 114.81810 140.37477
#
# Poissons Ratio (x) = 0.29715 0.90887
# Poissons Ratio (y) = 0.05098 0.13183
# Poissons Ratio (z) = 0.12754 0.10783
#
# Static dielectric constant tensor:
#      x y z
#    x 1.686840 -0.000090 0.025380 
#    y -0.000090 1.725060 -0.000740 
#    z 0.025380 -0.000740 1.804140 
# 
# From -- ./inp_files/318393.got.cif
#   From: 2010.05.17/outbox.cif.g08.bks.cpg/sg12_160_cif.got.tgz:318393.got - 2010.06.03 13:09:07.
