data_PCOD9211792
_publ_section_title
;
Structure prediction by ZEFSAII (Michael W. Deem and Ramdas Pophale) SiO2 
 PCOD9211792
Probable space group: C 2/M
;
_chemical_formula_sum "Si O2"
_cell_formula_units_Z 56
_cell_length_a 27.224737
_cell_length_b 15.888235
_cell_length_c 11.473883
_cell_angle_alpha 90.000000
_cell_angle_beta 37.114934
_cell_angle_gamma 90.000000
_cell_volume 2994.790746
_symmetry_space_group_name_H-M "C 2/M"
_symmetry_group_IT_number 12
_symmetry_cell_setting 'monoclinic'
loop_
_space_group_symop_operation_xyz
x,y,z
-x,y,-z
-x,-y,-z
x,-y,z
1/2+x,1/2+y,z
1/2-x,1/2+y,-z
1/2-x,1/2-y,-z
1/2+x,1/2-y,z
loop_
_atom_site_type_symbol
_atom_site_label
_atom_site_fract_x
_atom_site_fract_y
_atom_site_fract_z
Si Si1 0.541323 0.366263 0.544946
Si Si2 0.507723 0.500000 0.177183
Si Si3 0.378820 0.899833 0.789162
Si Si4 0.043976 0.669628 0.582703
Si Si5 0.361399 0.500000 0.267292
Si Si6 0.574986 0.099965 0.776824
Si Si7 0.253989 0.845800 0.446152
Si Si8 0.271490 0.400140 0.764912
O O1 0.500000 0.385602 0.500000
O O2 0.500173 0.420067 0.724352
O O3 0.531519 0.268433 0.591602
O O4 0.637238 0.387523 0.361929
O O5 0.429375 0.500000 0.240420
O O6 0.588463 0.500000 0.947310
O O7 0.392468 0.858725 0.637203
O O8 0.458408 0.875367 0.713905
O O9 0.377827 0.000000 0.775954
O O10 0.297134 0.874926 0.011871
O O11 0.072073 0.645479 0.658073
O O12 0.308556 0.414703 0.381363
O O13 0.657186 0.120185 0.689316
O O14 0.568539 0.000000 0.768277
O O15 0.500000 0.126513 0.000000
O O16 0.250000 0.750000 0.500000
O O17 0.239540 0.850394 0.334807
O O18 0.260044 0.500000 0.760625
#
# Coordination Sequence:
#
# PCOD9211792 Si02
#       8
#     8   4   8   8   4   8   8   8
#     4  12  23  44  65  93 127 168 216 273 321 381
#     4  11  25  44  74  90 129 176 220 269 328 382
#     4  10  21  40  66  89 123 175 209 258 323 387
#     4  11  22  41  59  97 134 161 211 266 320 386
#     4  11  24  48  67 100 132 172 220 272 324 393
#     4  11  23  39  66  97 131 171 211 265 324 394
#     4  12  23  43  66  96 135 172 214 272 329 386
#     4  11  22  42  68  90 123 171 219 260 322 393
#
# _framework density 18.699135999999999
#
# number of rings (size 3 to 8) (size 9 to 14) (size 15 to 20)
#    0.000    0.857    5.000    3.643    0.000    5.143 
#    2.571    0.000    0.000    0.000    0.000    0.000 
#    0.000    0.000    0.000    0.000    0.000    0.000 
#
# Total GULP energy -156523.118843 kJ/mol
# GULP energy per Si atom -5590.111387 kJ/mol
# Density = 1.865658 g / cm^3
# Si number density = 18.699136 Si / 1000 Ang^3
#
#
#
# Elastic Constant Matrix: (Units=GPa)
#
#
# Indices 1 2 3 4 5 6 
#
# 1 137.0241 33.9385 82.4915 0.0000 11.0894 0.0000
# 2 33.9385 110.8216 67.0759 0.0000 17.6479 0.0000
# 3 82.4915 67.0759 174.5766 0.0000 8.4584 0.0000
# 4 0.0000 0.0000 0.0000 20.7551 0.0000 -15.2083
# 5 11.0894 17.6479 8.4584 0.0000 20.2074 0.0000
# 6 0.0000 0.0000 0.0000 -15.2083 0.0000 26.6769
#
#
#
# Elastic Compliance Matrix: (Units=1/GPa)
#
#
# Indices 1 2 3 4 5 6 
#
# 1 0.010483 0.000410 -0.004915 0.000000 -0.004054 0.000000
# 2 0.000410 0.013425 -0.004871 0.000000 -0.009910 0.000000
# 3 -0.004915 -0.004871 0.009784 0.000000 0.002856 0.000000
# 4 0.000000 0.000000 0.000000 0.082748 0.000000 0.047174
# 5 -0.004054 -0.009910 0.002856 0.000000 0.059171 0.000000
# 6 0.000000 0.000000 0.000000 0.047174 0.000000 0.064379
#
#
# Mechanical properties :
#
#
# Convention : Reuss Voigt Hill
#
# Bulk Modulus (GPa) = 66.93913 87.71491 77.32702
# Shear Modulus (GPa) = 18.95936 29.45562 24.20749
#
# Velocity S-wave (km/s) = 3.18766 3.97323 3.60193
# Velocity P-wave (km/s) = 7.03021 8.24980 7.66430
#
# Compressibility (1/GPa) = 0.01493895
#
# Stress axis : x y z
#
# Youngs Moduli (GPa) = 95.39002 74.48945 102.21026
#
# Poissons Ratio (x) = -0.03052 0.50232
# Poissons Ratio (y) = -0.03908 0.49792
# Poissons Ratio (z) = 0.46880 0.36288
#
# Static dielectric constant tensor:
#      x y z
#    x 1.620720 0.000000 -0.000240 
#    y 0.000000 1.637500 0.000000 
#    z -0.000240 0.000000 1.636340 
# 
# From -- ./inp_files/183507.got.cif
#   From: 2010.05.17/outbox.cif.g08.bks.cpg/sg12_92_cif.got.tgz:183507.got - 2010.06.03 13:09:07.
