data_PCOD9211038
_publ_section_title
;
Structure prediction by ZEFSAII (Michael W. Deem and Ramdas Pophale) SiO2 
 PCOD9211038
Probable space group: C 2/M
;
_chemical_formula_sum "Si O2"
_cell_formula_units_Z 48
_cell_length_a 24.147656
_cell_length_b 14.779057
_cell_length_c 21.143576
_cell_angle_alpha 90.000000
_cell_angle_beta 161.081273
_cell_angle_gamma 90.000000
_cell_volume 2446.520300
_symmetry_space_group_name_H-M "C 2/M"
_symmetry_group_IT_number 12
_symmetry_cell_setting 'monoclinic'
loop_
_space_group_symop_operation_xyz
x,y,z
-x,y,-z
-x,-y,-z
x,-y,z
1/2+x,1/2+y,z
1/2-x,1/2+y,-z
1/2-x,1/2-y,-z
1/2+x,1/2-y,z
loop_
_atom_site_type_symbol
_atom_site_label
_atom_site_fract_x
_atom_site_fract_y
_atom_site_fract_z
Si Si1 0.956199 0.101847 0.862172
Si Si2 0.805518 0.603605 0.529931
Si Si3 0.854028 0.104740 0.506487
Si Si4 0.319544 0.221734 0.787253
Si Si5 0.588348 0.238113 0.780109
Si Si6 0.842764 0.666439 0.286837
O O1 0.870302 0.112918 0.700289
O O2 0.866808 0.180871 0.806286
O O3 0.912865 0.000000 0.837126
O O4 0.161430 0.113283 0.086091
O O5 0.866415 0.500000 0.584272
O O6 0.762327 0.613893 0.556694
O O7 0.941764 0.677090 0.654539
O O8 0.770426 0.157826 0.358834
O O9 0.024732 0.159769 0.703332
O O10 0.880531 0.000000 0.522441
O O11 0.209084 0.244559 0.729144
O O12 0.500000 0.179957 0.000000
O O13 0.611052 0.193108 0.735037
O O14 0.750000 0.250000 0.000000
O O15 0.000000 0.626915 0.500000
#
# Coordination Sequence:
#
# PCOD9211038 Si02
#       6
#     8   8   8   8   8   8
#     4  10  21  39  65  95 127 169 215 260 311 384
#     4  10  22  41  66  94 123 163 217 260 312 386
#     4  11  23  42  66  92 123 169 222 263 308 377
#     4  10  22  39  64  88 127 165 216 257 314 378
#     4  12  25  40  66  91 130 168 204 263 335 368
#     4  11  22  39  59  95 131 166 207 260 319 386
#
# _framework density 19.619703000000001
#
# number of rings (size 3 to 8) (size 9 to 14) (size 15 to 20)
#    0.000    1.333    3.333    1.500    4.667    5.000 
#    0.000    1.667    0.000    0.000    0.000    0.000 
#    0.000    0.000    0.000    0.000    0.000    0.000 
#
# Total GULP energy -133921.667673 kJ/mol
# GULP energy per Si atom -5580.069486 kJ/mol
# Density = 1.957505 g / cm^3
# Si number density = 19.619703 Si / 1000 Ang^3
#
#
#
# Elastic Constant Matrix: (Units=GPa)
#
#
# Indices 1 2 3 4 5 6 
#
# 1 47.3815 32.9354 22.0328 0.0283 -20.0236 0.0305
# 2 32.9354 119.2025 56.3032 0.0444 -10.6609 0.0680
# 3 22.0328 56.3032 159.0612 0.0165 -23.8290 0.0346
# 4 0.0283 0.0444 0.0165 7.9248 0.0092 2.5300
# 5 -20.0236 -10.6609 -23.8290 0.0092 28.6114 0.0253
# 6 0.0305 0.0680 0.0346 2.5300 0.0253 17.1473
#
#
#
# Elastic Compliance Matrix: (Units=1/GPa)
#
#
# Indices 1 2 3 4 5 6 
#
# 1 0.036342 -0.008675 0.001557 -0.000094 0.023498 -0.000054
# 2 -0.008675 0.012164 -0.003810 -0.000019 -0.004712 -0.000015
# 3 0.001557 -0.003810 0.008421 -0.000005 0.006684 -0.000014
# 4 -0.000094 -0.000019 -0.000005 0.132425 -0.000103 -0.019538
# 5 0.023498 -0.004712 0.006684 -0.000103 0.055207 -0.000103
# 6 -0.000054 -0.000015 -0.000014 -0.019538 -0.000103 0.061201
#
#
# Mechanical properties :
#
#
# Convention : Reuss Voigt Hill
#
# Bulk Modulus (GPa) = 28.51351 60.90979 44.71165
# Shear Modulus (GPa) = 14.73596 25.02829 19.88213
#
# Velocity S-wave (km/s) = 2.74356 3.57553 3.18681
# Velocity P-wave (km/s) = 4.95992 6.93963 6.03155
#
# Compressibility (1/GPa) = 0.03507109
#
# Stress axis : x y z
#
# Youngs Moduli (GPa) = 27.51656 82.20870 118.74903
#
# Poissons Ratio (x) = 0.71316 -0.18489
# Poissons Ratio (y) = 0.23870 0.45243
# Poissons Ratio (z) = -0.04284 0.31322
#
# Static dielectric constant tensor:
#      x y z
#    x 1.723930 -0.000070 -0.044340 
#    y -0.000070 1.670730 0.000070 
#    z -0.044340 0.000070 1.766200 
# 
# From -- ./inp_files/325641.got.cif
#   From: 2010.05.17/outbox.cif.g08.bks.cpg/sg12_163_cif.got.tgz:325641.got - 2010.06.03 13:09:07.
