data_PCOD9211954
_publ_section_title
;
Structure prediction by ZEFSAII (Michael W. Deem and Ramdas Pophale) SiO2 
 PCOD9211954
Probable space group: C 2/M
;
_chemical_formula_sum "Si O2"
_cell_formula_units_Z 42
_cell_length_a 16.425201
_cell_length_b 15.374042
_cell_length_c 7.969673
_cell_angle_alpha 90.000000
_cell_angle_beta 63.905315
_cell_angle_gamma 90.000000
_cell_volume 1807.376642
_symmetry_space_group_name_H-M "C 2/M"
_symmetry_group_IT_number 12
_symmetry_cell_setting 'monoclinic'
loop_
_space_group_symop_operation_xyz
x,y,z
-x,y,-z
-x,-y,-z
x,-y,z
1/2+x,1/2+y,z
1/2-x,1/2+y,-z
1/2-x,1/2-y,-z
1/2+x,1/2-y,z
loop_
_atom_site_type_symbol
_atom_site_label
_atom_site_fract_x
_atom_site_fract_y
_atom_site_fract_z
Si Si1 0.072516 0.857653 0.164328
Si Si2 0.040111 0.595950 0.778497
Si Si3 0.794696 0.096229 0.238256
Si Si4 0.117000 0.236979 0.637873
Si Si5 0.375468 0.811081 0.740141
Si Si6 0.000000 0.000000 0.500000
O O1 0.137067 0.773041 0.131938
O O2 0.975691 0.811432 0.224640
O O3 0.051714 0.923598 0.336604
O O4 0.119189 0.903466 0.964693
O O5 0.068658 0.500000 0.695314
O O6 0.961758 0.634575 0.728668
O O7 0.118087 0.668099 0.720187
O O8 0.000000 0.589679 0.000000
O O9 0.808045 0.170474 0.366211
O O10 0.706632 0.122911 0.211893
O O11 0.786853 0.000000 0.320104
O O12 0.110657 0.261429 0.449255
#
# Coordination Sequence:
#
# PCOD9211954 Si02
#       6
#     8   8   8   8   8   2
#     4  11  22  41  67  94 132 173 234 283 334 398
#     4  10  21  40  68  95 124 172 233 283 335 407
#     4  12  26  40  65  99 141 183 223 281 342 413
#     4  11  23  41  64  95 129 179 227 280 332 400
#     4  11  23  43  64  95 138 177 219 284 347 403
#     4  12  20  40  70 100 122 180 242 286 330 400
#
# _framework density 23.238099999999999
#
# number of rings (size 3 to 8) (size 9 to 14) (size 15 to 20)
#    0.000    0.952    2.857    6.286    1.333    3.048 
#    0.000    0.000    2.095    0.000    0.000    0.000 
#    0.000    0.000    0.000    0.000    0.000    0.000 
#
# Total GULP energy -116999.230459 kJ/mol
# GULP energy per Si atom -5571.391927 kJ/mol
# Density = 2.318521 g / cm^3
# Si number density = 23.238100 Si / 1000 Ang^3
#
#
#
# Elastic Constant Matrix: (Units=GPa)
#
#
# Indices 1 2 3 4 5 6 
#
# 1 78.9889 42.3986 21.0030 0.0000 -6.0840 0.0000
# 2 42.3986 233.7123 23.4654 0.0000 5.1658 0.0000
# 3 21.0030 23.4654 76.6122 0.0000 0.0762 0.0000
# 4 0.0000 0.0000 0.0000 25.0441 0.0000 0.9798
# 5 -6.0840 5.1658 0.0762 0.0000 27.4392 0.0000
# 6 0.0000 0.0000 0.0000 0.9798 0.0000 5.6666
#
#
#
# Elastic Compliance Matrix: (Units=1/GPa)
#
#
# Indices 1 2 3 4 5 6 
#
# 1 0.015205 -0.002502 -0.003406 0.000000 0.003852 0.000000
# 2 -0.002502 0.004845 -0.000797 0.000000 -0.001465 0.000000
# 3 -0.003406 -0.000797 0.014231 0.000000 -0.000645 0.000000
# 4 0.000000 0.000000 0.000000 0.040201 0.000000 -0.006951
# 5 0.003852 -0.001465 -0.000645 0.000000 0.037576 0.000000
# 6 0.000000 0.000000 0.000000 -0.006951 0.000000 0.177673
#
#
# Mechanical properties :
#
#
# Convention : Reuss Voigt Hill
#
# Bulk Modulus (GPa) = 47.90978 62.56081 55.23529
# Shear Modulus (GPa) = 16.12395 31.79309 23.95852
#
# Velocity S-wave (km/s) = 2.63698 3.70286 3.21440
# Velocity P-wave (km/s) = 5.47112 6.72768 6.13167
#
# Compressibility (1/GPa) = 0.02087257
#
# Stress axis : x y z
#
# Youngs Moduli (GPa) = 65.76733 206.40057 70.26831
#
# Poissons Ratio (x) = 0.51633 0.23934
# Poissons Ratio (y) = 0.16452 0.05598
# Poissons Ratio (z) = 0.22401 0.16444
#
# Static dielectric constant tensor:
#      x y z
#    x 1.931050 0.000000 0.009240 
#    y 0.000000 1.925850 0.000000 
#    z 0.009240 0.000000 1.933320 
# 
# From -- ./inp_files/73559.got.cif
#   From: 2010.05.17/outbox.cif.g08.bks.cpg/sg12_37_cif.got.tgz:73559.got - 2010.06.03 13:09:07.
