data_PCOD9211819
_publ_section_title
;
Structure prediction by ZEFSAII (Michael W. Deem and Ramdas Pophale) SiO2 
 PCOD9211819
Probable space group: C 2/M
;
_chemical_formula_sum "Si O2"
_cell_formula_units_Z 40
_cell_length_a 22.759225
_cell_length_b 13.948279
_cell_length_c 19.778415
_cell_angle_alpha 90.000000
_cell_angle_beta 161.733142
_cell_angle_gamma 90.000000
_cell_volume 1968.015259
_symmetry_space_group_name_H-M "C 2/M"
_symmetry_group_IT_number 12
_symmetry_cell_setting 'monoclinic'
loop_
_space_group_symop_operation_xyz
x,y,z
-x,y,-z
-x,-y,-z
x,-y,z
1/2+x,1/2+y,z
1/2-x,1/2+y,-z
1/2-x,1/2-y,-z
1/2+x,1/2-y,z
loop_
_atom_site_type_symbol
_atom_site_label
_atom_site_fract_x
_atom_site_fract_y
_atom_site_fract_z
Si Si1 0.378653 0.229466 0.048691
Si Si2 0.854047 0.392331 0.401438
Si Si3 0.022972 0.111369 0.605922
Si Si4 0.640248 0.208055 0.207245
Si Si5 0.630457 0.890083 0.830508
O O1 0.311140 0.333993 0.998994
O O2 0.192290 0.176708 0.816670
O O3 0.531957 0.228861 0.157909
O O4 0.437146 0.169127 0.178390
O O5 0.775349 0.500000 0.307152
O O6 0.707824 0.306783 0.246047
O O7 0.000000 0.376147 0.500000
O O8 0.974006 0.389159 0.601344
O O9 0.826670 0.146278 0.422390
O O10 0.000000 0.122332 0.500000
O O11 0.059610 0.000000 0.660701
O O12 0.500000 0.159288 0.000000
O O13 0.672288 0.000000 0.893392
#
# Coordination Sequence:
#
# PCOD9211819 Si02
#       5
#     8   8   8   8   8
#     4  11  23  41  66  92 128 163 205 259 311 365
#     4  10  21  40  66  93 127 165 204 254 310 370
#     4  11  23  41  63  91 128 167 208 253 309 366
#     4  12  23  38  66  96 124 160 210 257 305 367
#     4  10  22  42  65  90 126 167 205 254 314 370
#
# _framework density 20.325046
#
# number of rings (size 3 to 8) (size 9 to 14) (size 15 to 20)
#    0.000    1.200    4.000    2.400    0.000    4.000 
#    0.000    0.000    0.000    0.000    0.000    0.000 
#    0.000    0.000    0.000    0.000    0.000    0.000 
#
# Total GULP energy -111866.743161 kJ/mol
# GULP energy per Si atom -5593.337158 kJ/mol
# Density = 2.027879 g / cm^3
# Si number density = 20.325046 Si / 1000 Ang^3
#
#
#
# Elastic Constant Matrix: (Units=GPa)
#
#
# Indices 1 2 3 4 5 6 
#
# 1 85.9238 -11.5572 12.6325 -0.0057 13.4466 -0.0006
# 2 -11.5572 84.1203 9.1148 -0.0089 10.5441 -0.0001
# 3 12.6325 9.1148 54.2592 -0.0062 3.3246 0.0004
# 4 -0.0057 -0.0089 -0.0062 15.0583 -0.0027 -8.4595
# 5 13.4466 10.5441 3.3246 -0.0027 34.9935 0.0001
# 6 -0.0006 -0.0001 0.0004 -8.4595 0.0001 20.4803
#
#
#
# Elastic Compliance Matrix: (Units=1/GPa)
#
#
# Indices 1 2 3 4 5 6 
#
# 1 0.013404 0.002911 -0.003259 0.000006 -0.005718 0.000003
# 2 0.002911 0.013176 -0.002595 0.000009 -0.004842 0.000004
# 3 -0.003259 -0.002595 0.019614 0.000007 0.000171 0.000002
# 4 0.000006 0.000009 0.000007 0.086475 0.000001 0.035719
# 5 -0.005718 -0.004842 0.000171 0.000001 0.032217 0.000000
# 6 0.000003 0.000004 0.000002 0.035719 0.000000 0.063581
#
#
# Mechanical properties :
#
#
# Convention : Reuss Voigt Hill
#
# Bulk Modulus (GPa) = 24.80826 27.18707 25.99767
# Shear Modulus (GPa) = 20.17854 28.38062 24.27958
#
# Velocity S-wave (km/s) = 3.15428 3.74081 3.46000
# Velocity P-wave (km/s) = 5.04958 5.66246 5.36478
#
# Compressibility (1/GPa) = 0.04030915
#
# Stress axis : x y z
#
# Youngs Moduli (GPa) = 74.60524 75.89651 50.98324
#
# Poissons Ratio (x) = -0.22097 0.16617
# Poissons Ratio (y) = -0.21721 0.13228
# Poissons Ratio (z) = 0.24317 0.19691
#
# Static dielectric constant tensor:
#      x y z
#    x 1.699510 0.000000 -0.026120 
#    y 0.000000 1.728430 0.000000 
#    z -0.026120 0.000000 1.730160 
# 
# From -- ./inp_files/284405.got.cif
#   From: 2010.05.17/outbox.cif.g08.bks.cpg/sg12_143_cif.got.tgz:284405.got - 2010.06.03 13:09:07.
