data_PCOD9211620
_publ_section_title
;
Structure prediction by ZEFSAII (Michael W. Deem and Ramdas Pophale) SiO2 
 PCOD9211620
Probable space group: C 2/M
;
_chemical_formula_sum "Si O2"
_cell_formula_units_Z 60
_cell_length_a 18.450247
_cell_length_b 27.170765
_cell_length_c 5.384912
_cell_angle_alpha 90.000000
_cell_angle_beta 110.730155
_cell_angle_gamma 90.000000
_cell_volume 2524.724712
_symmetry_space_group_name_H-M "C 2/M"
_symmetry_group_IT_number 12
_symmetry_cell_setting 'monoclinic'
loop_
_space_group_symop_operation_xyz
x,y,z
-x,y,-z
-x,-y,-z
x,-y,z
1/2+x,1/2+y,z
1/2-x,1/2+y,-z
1/2-x,1/2-y,-z
1/2+x,1/2-y,z
loop_
_atom_site_type_symbol
_atom_site_label
_atom_site_fract_x
_atom_site_fract_y
_atom_site_fract_z
Si Si1 0.500000 0.671587 0.000000
Si Si2 0.315651 0.219247 0.438760
Si Si3 0.400806 0.238524 0.041848
Si Si4 0.529117 0.576992 0.789210
Si Si5 0.209762 0.617664 0.387380
Si Si6 0.140507 0.445220 0.679580
Si Si7 0.195497 0.057276 0.825256
Si Si8 0.065221 0.364651 0.886910
O O1 0.438809 0.708412 0.051693
O O2 0.487267 0.630704 0.769197
O O3 0.250000 0.250000 0.500000
O O4 0.381822 0.226044 0.728635
O O5 0.288761 0.161815 0.410470
O O6 0.337665 0.238431 0.190882
O O7 0.451752 0.191953 0.197462
O O8 0.500000 0.554986 0.500000
O O9 0.622116 0.576155 0.891582
O O10 0.500000 0.551138 0.000000
O O11 0.165092 0.569880 0.434450
O O12 0.289008 0.596527 0.375814
O O13 0.151726 0.638320 0.109444
O O14 0.110045 0.500000 0.666672
O O15 0.223085 0.442540 0.925472
O O16 0.080076 0.404352 0.694530
O O17 0.182538 0.000000 0.734169
O O18 0.000000 0.381215 0.000000
#
# Coordination Sequence:
#
# PCOD9211620 Si02
#       8
#     4   8   8   8   8   8   8   8
#     4  10  26  42  67  92 131 170 220 260 324 386
#     4  11  25  39  64  94 127 164 210 267 316 381
#     4  11  23  41  63  91 125 170 212 254 322 382
#     4  10  26  44  65 100 132 173 217 275 325 383
#     4  10  22  39  63  92 125 165 218 263 326 386
#     4  10  21  40  64  92 123 164 217 264 328 389
#     4  10  23  42  67  92 128 174 214 269 329 392
#     4  10  21  41  59  90 123 171 209 271 310 388
#
# _framework density 23.764968
#
# number of rings (size 3 to 8) (size 9 to 14) (size 15 to 20)
#    0.400    1.333    2.000    0.800    5.600    2.933 
#    0.000    0.667    0.000    0.000    0.000    0.000 
#    0.000    0.000    0.000    0.000    0.000    0.000 
#
# Total GULP energy -167056.934135 kJ/mol
# GULP energy per Si atom -5568.564471 kJ/mol
# Density = 2.371088 g / cm^3
# Si number density = 23.764968 Si / 1000 Ang^3
#
#
#
# Elastic Constant Matrix: (Units=GPa)
#
#
# Indices 1 2 3 4 5 6 
#
# 1 151.1298 48.6283 35.7615 0.0000 -43.6826 0.0000
# 2 48.6283 142.9980 20.8346 0.0000 -11.8558 0.0000
# 3 35.7615 20.8346 77.2477 0.0000 -22.3007 0.0000
# 4 0.0000 0.0000 0.0000 29.9685 0.0000 -8.1009
# 5 -43.6826 -11.8558 -22.3007 0.0000 42.2780 0.0000
# 6 0.0000 0.0000 0.0000 -8.1009 0.0000 60.7735
#
#
#
# Elastic Compliance Matrix: (Units=1/GPa)
#
#
# Indices 1 2 3 4 5 6 
#
# 1 0.010496 -0.002581 -0.001464 0.000000 0.009348 0.000000
# 2 -0.002581 0.007965 -0.001272 0.000000 -0.001104 0.000000
# 3 -0.001464 -0.001272 0.015838 0.000000 0.006485 0.000000
# 4 0.000000 0.000000 0.000000 0.034616 0.000000 0.004614
# 5 0.009348 -0.001104 0.006485 0.000000 0.036423 0.000000
# 6 0.000000 0.000000 0.000000 0.004614 0.000000 0.017070
#
#
# Mechanical properties :
#
#
# Convention : Reuss Voigt Hill
#
# Bulk Modulus (GPa) = 42.25696 64.64716 53.45206
# Shear Modulus (GPa) = 35.47878 44.34740 39.91309
#
# Velocity S-wave (km/s) = 3.86800 4.32450 4.10261
# Velocity P-wave (km/s) = 6.14560 7.22474 6.70691
#
# Compressibility (1/GPa) = 0.02366474
#
# Stress axis : x y z
#
# Youngs Moduli (GPa) = 95.27629 125.55631 63.13761
#
# Poissons Ratio (x) = 0.32404 0.09244
# Poissons Ratio (y) = 0.24589 0.08032
# Poissons Ratio (z) = 0.13949 0.15972
#
# Static dielectric constant tensor:
#      x y z
#    x -0.209620 0.000000 -2.074500 
#    y 0.000000 1.932070 0.000000 
#    z -2.074500 0.000000 -0.052370 
# 
# From -- ./inp_files/18146.got.cif
#   From: 2010.05.17/outbox.cif.g08.bks.cpg/sg12_10_cif.got.tgz:18146.got - 2010.06.03 13:09:07.
