data_PCOD9211221
_publ_section_title
;
Structure prediction by ZEFSAII (Michael W. Deem and Ramdas Pophale) SiO2 
 PCOD9211221
Probable space group: C 2/M
;
_chemical_formula_sum "Si O2"
_cell_formula_units_Z 52
_cell_length_a 19.882523
_cell_length_b 24.675522
_cell_length_c 5.737730
_cell_angle_alpha 90.000000
_cell_angle_beta 55.223403
_cell_angle_gamma 90.000000
_cell_volume 2312.188654
_symmetry_space_group_name_H-M "C 2/M"
_symmetry_group_IT_number 12
_symmetry_cell_setting 'monoclinic'
loop_
_space_group_symop_operation_xyz
x,y,z
-x,y,-z
-x,-y,-z
x,-y,z
1/2+x,1/2+y,z
1/2-x,1/2+y,-z
1/2-x,1/2-y,-z
1/2+x,1/2-y,z
loop_
_atom_site_type_symbol
_atom_site_label
_atom_site_fract_x
_atom_site_fract_y
_atom_site_fract_z
Si Si1 0.297254 0.118210 0.787458
Si Si2 0.685362 0.407942 0.383711
Si Si3 0.292702 0.693725 0.355577
Si Si4 0.039462 0.224815 0.169717
Si Si5 0.359050 0.059814 0.275608
Si Si6 0.936958 0.648866 0.823082
Si Si7 0.450820 0.500000 0.344135
O O1 0.278748 0.159733 0.621952
O O2 0.347342 0.069698 0.573500
O O3 0.348265 0.150413 0.876425
O O4 0.213563 0.097182 0.061192
O O5 0.674805 0.347356 0.508898
O O6 0.766934 0.433075 0.348045
O O7 0.608147 0.447093 0.551794
O O8 0.250000 0.750000 0.500000
O O9 0.367080 0.705385 0.033184
O O10 0.038126 0.290517 0.160894
O O11 0.000000 0.209740 0.500000
O O12 0.000000 0.206131 0.000000
O O13 0.388213 0.000000 0.162359
O O14 0.419209 0.105386 0.057013
O O15 0.000000 0.630141 0.500000
O O16 0.500000 0.500000 0.500000
O O17 0.500000 0.500000 0.000000
#
# Coordination Sequence:
#
# PCOD9211221 Si02
#       7
#     8   8   8   8   8   8   4
#     4  10  23  41  70 100 132 190 232 304 357 442
#     4  10  24  45  70 103 145 186 247 309 362 449
#     4  11  25  44  75 107 144 187 258 301 378 453
#     4  11  27  46  71 101 146 194 229 298 370 436
#     4  10  21  39  69  98 133 179 235 290 362 415
#     4  10  24  41  66  95 140 184 235 288 366 439
#     4  12  30  50  80 110 151 206 257 316 388 444
#
# _framework density 22.489515999999998
#
# number of rings (size 3 to 8) (size 9 to 14) (size 15 to 20)
#    0.000    1.538    0.769    2.769   16.154    2.769 
#    0.000    0.769    0.000    0.000    0.000    0.000 
#    0.000    0.000    0.000    0.000    0.000    0.000 
#
# Total GULP energy -145095.914313 kJ/mol
# GULP energy per Si atom -5580.612089 kJ/mol
# Density = 2.243833 g / cm^3
# Si number density = 22.489516 Si / 1000 Ang^3
#
#
#
# Elastic Constant Matrix: (Units=GPa)
#
#
# Indices 1 2 3 4 5 6 
#
# 1 86.3858 12.0739 11.9027 0.0000 1.5153 0.0000
# 2 12.0739 95.1761 51.9076 0.0000 -1.0486 0.0000
# 3 11.9027 51.9076 161.0363 0.0000 -10.4461 0.0000
# 4 0.0000 0.0000 0.0000 33.1000 0.0000 -13.3400
# 5 1.5153 -1.0486 -10.4461 0.0000 33.2584 0.0000
# 6 0.0000 0.0000 0.0000 -13.3400 0.0000 22.6055
#
#
#
# Elastic Compliance Matrix: (Units=1/GPa)
#
#
# Indices 1 2 3 4 5 6 
#
# 1 0.011833 -0.001221 -0.000529 0.000000 -0.000744 0.000000
# 2 -0.001221 0.012901 -0.004122 0.000000 -0.000832 0.000000
# 3 -0.000529 -0.004122 0.007728 0.000000 0.002322 0.000000
# 4 0.000000 0.000000 0.000000 0.039639 0.000000 0.023392
# 5 -0.000744 -0.000832 0.002322 0.000000 0.030804 0.000000
# 6 0.000000 0.000000 0.000000 0.023392 0.000000 0.058041
#
#
# Mechanical properties :
#
#
# Convention : Reuss Voigt Hill
#
# Bulk Modulus (GPa) = 48.26883 54.92964 51.59924
# Shear Modulus (GPa) = 27.84038 35.57371 31.70705
#
# Velocity S-wave (km/s) = 3.52224 3.98149 3.75888
# Velocity P-wave (km/s) = 6.16854 6.75381 6.46780
#
# Compressibility (1/GPa) = 0.02071730
#
# Stress axis : x y z
#
# Youngs Moduli (GPa) = 84.51254 77.51555 129.39620
#
# Poissons Ratio (x) = 0.09461 0.06851
# Poissons Ratio (y) = 0.10315 0.53339
# Poissons Ratio (z) = 0.04474 0.31953
#
# Static dielectric constant tensor:
#      x y z
#    x 1.916250 0.000000 0.020030 
#    y 0.000000 1.836530 0.000000 
#    z 0.020030 0.000000 1.911740 
# 
# From -- ./inp_files/22421.got.cif
#   From: 2010.05.17/outbox.cif.g08.bks.cpg/sg12_12_cif.got.tgz:22421.got - 2010.06.03 13:09:07.
