data_PCOD9211429
_publ_section_title
;
Structure prediction by ZEFSAII (Michael W. Deem and Ramdas Pophale) SiO2 
 PCOD9211429
Probable space group: C 2/M
;
_chemical_formula_sum "Si O2"
_cell_formula_units_Z 24
_cell_length_a 18.179599
_cell_length_b 7.944579
_cell_length_c 18.257950
_cell_angle_alpha 90.000000
_cell_angle_beta 31.054386
_cell_angle_gamma 90.000000
_cell_volume 1360.291175
_symmetry_space_group_name_H-M "C 2/M"
_symmetry_group_IT_number 12
_symmetry_cell_setting 'monoclinic'
loop_
_space_group_symop_operation_xyz
x,y,z
-x,y,-z
-x,-y,-z
x,-y,z
1/2+x,1/2+y,z
1/2-x,1/2+y,-z
1/2-x,1/2-y,-z
1/2+x,1/2-y,z
loop_
_atom_site_type_symbol
_atom_site_label
_atom_site_fract_x
_atom_site_fract_y
_atom_site_fract_z
Si Si1 0.870576 0.193411 0.954417
Si Si2 0.143967 0.500000 0.921550
Si Si3 0.168566 0.688644 0.641950
Si Si4 0.663753 0.500000 0.382731
O O1 0.856330 0.332028 0.029783
O O2 0.846932 0.000000 0.997166
O O3 0.750000 0.250000 0.000000
O O4 0.030136 0.207394 0.784073
O O5 0.261787 0.500000 0.758999
O O6 0.000000 0.500000 0.000000
O O7 0.111968 0.500000 0.674776
O O8 0.250000 0.750000 0.500000
O O9 0.279178 0.655798 0.615142
O O10 0.500000 0.500000 0.500000
#
# Coordination Sequence:
#
# PCOD9211429 Si02
#       4
#     8   4   8   4
#     4  12  24  41  69  98 131 178 223 272 333 395
#     4  12  22  48  64  98 142 164 226 280 327 398
#     4  10  21  40  62  94 132 170 220 264 322 396
#     4  10  24  42  66  94 136 176 206 285 335 374
#
# _framework density 17.643281999999999
#
# number of rings (size 3 to 8) (size 9 to 14) (size 15 to 20)
#    1.000    0.000    6.667    1.000    4.667    0.667 
#    0.000    0.000    0.000    5.000    0.000    0.000 
#    0.000    0.000    0.000    0.000    0.000    0.000 
#
# Total GULP energy -66828.247056 kJ/mol
# GULP energy per Si atom -5569.020588 kJ/mol
# Density = 1.760312 g / cm^3
# Si number density = 17.643282 Si / 1000 Ang^3
#
#
#
# Elastic Constant Matrix: (Units=GPa)
#
#
# Indices 1 2 3 4 5 6 
#
# 1 159.9977 65.1925 84.5086 0.0000 -6.1321 0.0000
# 2 65.1925 149.4166 41.2623 0.0000 13.3640 0.0000
# 3 84.5086 41.2623 163.5213 0.0000 4.6852 0.0000
# 4 0.0000 0.0000 0.0000 31.0448 0.0000 9.0595
# 5 -6.1321 13.3640 4.6852 0.0000 42.7879 0.0000
# 6 0.0000 0.0000 0.0000 9.0595 0.0000 40.2986
#
#
#
# Elastic Compliance Matrix: (Units=1/GPa)
#
#
# Indices 1 2 3 4 5 6 
#
# 1 0.010123 -0.003459 -0.004445 0.000000 0.003018 0.000000
# 2 -0.003459 0.008561 -0.000283 0.000000 -0.003139 0.000000
# 3 -0.004445 -0.000283 0.008527 0.000000 -0.001482 0.000000
# 4 0.000000 0.000000 0.000000 0.034473 0.000000 -0.007750
# 5 0.003018 -0.003139 -0.001482 0.000000 0.024946 0.000000
# 6 0.000000 0.000000 0.000000 -0.007750 0.000000 0.026557
#
#
# Mechanical properties :
#
#
# Convention : Reuss Voigt Hill
#
# Bulk Modulus (GPa) = 92.28163 94.98471 93.63317
# Shear Modulus (GPa) = 37.54516 41.62441 39.58478
#
# Velocity S-wave (km/s) = 4.61805 4.86245 4.74182
# Velocity P-wave (km/s) = 8.99182 9.24541 9.11950
#
# Compressibility (1/GPa) = 0.01083639
#
# Stress axis : x y z
#
# Youngs Moduli (GPa) = 98.78297 116.81225 117.28106
#
# Poissons Ratio (x) = 0.40408 0.52135
# Poissons Ratio (y) = 0.34171 0.03313
# Poissons Ratio (z) = 0.43912 0.03300
#
# Static dielectric constant tensor:
#      x y z
#    x 2.160710 0.000000 -0.776880 
#    y 0.000000 1.534340 0.000000 
#    z -0.776880 0.000000 2.626200 
# 
# From -- ./inp_files/273482.got.cif
#   From: 2010.05.17/outbox.cif.g08.bks.cpg/sg12_137_cif.got.tgz:273482.got - 2010.06.03 13:09:07.
