data_PCOD9211280
_publ_section_title
;
Structure prediction by ZEFSAII (Michael W. Deem and Ramdas Pophale) SiO2 
 PCOD9211280
Probable space group: C 2/M
;
_chemical_formula_sum "Si O2"
_cell_formula_units_Z 40
_cell_length_a 9.567846
_cell_length_b 30.535908
_cell_length_c 8.596070
_cell_angle_alpha 90.000000
_cell_angle_beta 58.406958
_cell_angle_gamma 90.000000
_cell_volume 2139.231483
_symmetry_space_group_name_H-M "C 2/M"
_symmetry_group_IT_number 12
_symmetry_cell_setting 'monoclinic'
loop_
_space_group_symop_operation_xyz
x,y,z
-x,y,-z
-x,-y,-z
x,-y,z
1/2+x,1/2+y,z
1/2-x,1/2+y,-z
1/2-x,1/2-y,-z
1/2+x,1/2-y,z
loop_
_atom_site_type_symbol
_atom_site_label
_atom_site_fract_x
_atom_site_fract_y
_atom_site_fract_z
Si Si1 0.202428 0.500000 0.709348
Si Si2 0.000000 0.574164 0.000000
Si Si3 0.998583 0.211433 0.812900
Si Si4 0.238521 0.136613 0.995286
Si Si5 0.539562 0.500000 0.713298
Si Si6 0.853756 0.710013 0.696703
Si Si7 0.500000 0.571080 0.000000
O O1 0.087270 0.458321 0.822577
O O2 0.367135 0.500000 0.720236
O O3 0.294405 0.500000 0.487890
O O4 0.142027 0.607111 0.973055
O O5 0.902247 0.246051 0.763309
O O6 0.193570 0.212591 0.679468
O O7 0.909208 0.164720 0.840124
O O8 0.000000 0.220959 0.000000
O O9 0.329248 0.173401 0.842314
O O10 0.153824 0.102335 0.931024
O O11 0.529486 0.541518 0.832500
O O12 0.000000 0.697948 0.500000
#
# Coordination Sequence:
#
# PCOD9211280 Si02
#       7
#     4   4   8   8   4   8   4
#     4  10  22  43  60  95 124 153 202 243 306 370
#     4  11  24  40  63  90 126 158 193 258 302 359
#     4  10  21  40  60  83 119 164 198 240 298 362
#     4  11  22  39  62  86 121 160 204 240 301 359
#     4  10  22  39  70  87 120 165 193 244 308 372
#     4  11  23  38  59  89 124 154 202 253 295 350
#     4  11  20  42  65  90 118 162 197 248 306 349
#
# _framework density 18.698302999999999
#
# number of rings (size 3 to 8) (size 9 to 14) (size 15 to 20)
#    0.000    1.400    5.000    3.000    4.200    1.600 
#    0.000    1.000    0.000    0.000    0.000    0.000 
#    0.000    0.000    0.000    0.000    0.000    0.000 
#
# Total GULP energy -111380.805478 kJ/mol
# GULP energy per Si atom -5569.040274 kJ/mol
# Density = 1.865575 g / cm^3
# Si number density = 18.698303 Si / 1000 Ang^3
#
#
#
# Elastic Constant Matrix: (Units=GPa)
#
#
# Indices 1 2 3 4 5 6 
#
# 1 110.2354 53.0173 18.4952 0.0000 -19.4632 0.0000
# 2 53.0173 117.3363 17.6387 0.0000 -5.7487 0.0000
# 3 18.4952 17.6387 73.7288 0.0000 -23.8285 0.0000
# 4 0.0000 0.0000 0.0000 -5.9187 0.0000 -16.5361
# 5 -19.4632 -5.7487 -23.8285 0.0000 28.9442 0.0000
# 6 0.0000 0.0000 0.0000 -16.5361 0.0000 37.7559
#
#
#
# Elastic Compliance Matrix: (Units=1/GPa)
#
#
# Indices 1 2 3 4 5 6 
#
# 1 0.013126 -0.005635 0.000744 0.000000 0.008320 0.000000
# 2 -0.005635 0.011260 -0.002428 0.000000 -0.003552 0.000000
# 3 0.000744 -0.002428 0.019025 0.000000 0.015681 0.000000
# 4 0.000000 0.000000 0.000000 -0.075982 0.000000 -0.033278
# 5 0.008320 -0.003552 0.015681 0.000000 0.052348 0.000000
# 6 0.000000 0.000000 0.000000 -0.033278 0.000000 0.011911
#
#
# Mechanical properties :
#
#
# Convention : Reuss Voigt Hill
#
# Bulk Modulus (GPa) = 34.75453 53.28920 44.02187
# Shear Modulus (GPa) = 89.41997 26.29959 57.85978
#
# Velocity S-wave (km/s) = 6.92288 3.75443 5.56876
# Velocity P-wave (km/s) = 9.08455 6.88155 8.05869
#
# Compressibility (1/GPa) = 0.02877323
#
# Stress axis : x y z
#
# Youngs Moduli (GPa) = 76.18658 88.81301 52.56146
#
# Poissons Ratio (x) = 0.50046 -0.03912
# Poissons Ratio (y) = 0.42931 0.12762
# Poissons Ratio (z) = -0.05671 0.21564
#
# Static dielectric constant tensor:
#      x y z
#    x 1.564170 0.000000 0.007470 
#    y 0.000000 1.636870 0.000000 
#    z 0.007470 0.000000 1.666990 
# 
# From -- ./inp_files/41507.got.cif
#   From: 2010.05.17/outbox.cif.g08.bks.cpg/sg12_21_cif.got.tgz:41507.got - 2010.06.03 13:09:07.
