data_PCOD9211704
_publ_section_title
;
Structure prediction by ZEFSAII (Michael W. Deem and Ramdas Pophale) SiO2 
 PCOD9211704
Probable space group: C 2/M
;
_chemical_formula_sum "Si O2"
_cell_formula_units_Z 64
_cell_length_a 19.926306
_cell_length_b 7.809989
_cell_length_c 19.930830
_cell_angle_alpha 90.000000
_cell_angle_beta 60.893409
_cell_angle_gamma 90.000000
_cell_volume 2710.023309
_symmetry_space_group_name_H-M "C 2/M"
_symmetry_group_IT_number 12
_symmetry_cell_setting 'monoclinic'
loop_
_space_group_symop_operation_xyz
x,y,z
-x,y,-z
-x,-y,-z
x,-y,z
1/2+x,1/2+y,z
1/2-x,1/2+y,-z
1/2-x,1/2-y,-z
1/2+x,1/2-y,z
loop_
_atom_site_type_symbol
_atom_site_label
_atom_site_fract_x
_atom_site_fract_y
_atom_site_fract_z
Si Si1 0.487319 0.792563 0.803269
Si Si2 0.975794 0.794793 0.584854
Si Si3 0.703538 0.806017 0.874927
Si Si4 0.064204 0.709710 0.022835
Si Si5 0.848380 0.798511 0.236311
Si Si6 0.372385 0.301221 0.436879
Si Si7 0.260173 0.791854 0.596754
Si Si8 0.628872 0.200823 0.253345
O O1 0.575365 0.732120 0.757347
O O2 0.430480 0.726319 0.773226
O O3 0.487634 0.000000 0.801609
O O4 0.457402 0.738913 0.891510
O O5 0.043044 0.725916 0.601639
O O6 0.000000 0.726695 0.500000
O O7 0.895727 0.761647 0.660532
O O8 0.984233 0.000000 0.577451
O O9 0.648519 0.728772 0.958523
O O10 0.650781 0.800832 0.833677
O O11 0.784448 0.728216 0.813692
O O12 0.720723 0.000000 0.885763
O O13 0.065690 0.500000 0.020186
O O14 0.000000 0.765092 0.000000
O O15 0.773013 0.748096 0.314832
O O16 0.843066 0.000000 0.223948
O O17 0.377693 0.500000 0.415173
O O18 0.337127 0.286572 0.529122
O O19 0.307791 0.226676 0.419979
O O20 0.267033 0.000000 0.589614
O O21 0.616836 0.000000 0.261536
#
# Coordination Sequence:
#
# PCOD9211704 Si02
#       8
#     8   8   8   8   8   8   8   8
#     4  10  21  40  65  91 122 165 208 248 304 372
#     4  10  22  40  61  84 113 156 208 251 295 359
#     4  11  23  40  64  89 121 164 207 251 304 366
#     4   9  17  36  65  93 120 156 205 252 299 363
#     4  11  22  36  58  90 124 158 201 255 309 360
#     4   9  18  34  54  78 107 142 190 242 288 345
#     4   9  19  33  51  77 112 148 183 234 297 354
#     4  11  25  42  61  91 129 162 202 257 310 365
#
# _framework density 23.616033000000002
#
# number of rings (size 3 to 8) (size 9 to 14) (size 15 to 20)
#    0.000    2.000    1.250    1.875    1.750    4.250 
#    0.000    4.375    0.000    0.000    0.000    0.000 
#    0.000    0.000    0.000    0.000    0.000    0.000 
#
# Total GULP energy -178767.029350 kJ/mol
# GULP energy per Si atom -5586.469667 kJ/mol
# Density = 2.356228 g / cm^3
# Si number density = 23.616033 Si / 1000 Ang^3
#
#
#
# Elastic Constant Matrix: (Units=GPa)
#
#
# Indices 1 2 3 4 5 6 
#
# 1 99.6196 -2.6908 35.4196 0.0003 -20.8053 -0.0004
# 2 -2.6908 31.1466 -0.9983 0.0009 2.0703 -0.0007
# 3 35.4196 -0.9983 135.4759 0.0001 -19.0778 -0.0001
# 4 0.0003 0.0009 0.0001 12.1207 -0.0003 -2.1295
# 5 -20.8053 2.0703 -19.0778 -0.0003 35.2239 0.0003
# 6 -0.0004 -0.0007 -0.0001 -2.1295 0.0003 16.0349
#
#
#
# Elastic Compliance Matrix: (Units=1/GPa)
#
#
# Indices 1 2 3 4 5 6 
#
# 1 0.012107 0.000582 -0.002337 0.000000 0.005851 0.000000
# 2 0.000582 0.032260 -0.000144 -0.000002 -0.001630 0.000001
# 3 -0.002337 -0.000144 0.008442 0.000000 0.003200 0.000000
# 4 0.000000 -0.000002 0.000000 0.084475 0.000001 0.011219
# 5 0.005851 -0.001630 0.003200 0.000001 0.033675 0.000000
# 6 0.000000 0.000001 0.000000 0.011219 0.000000 0.063854
#
#
# Mechanical properties :
#
#
# Convention : Reuss Voigt Hill
#
# Bulk Modulus (GPa) = 20.40354 36.63369 28.51862
# Shear Modulus (GPa) = 19.61187 28.30999 23.96093
#
# Velocity S-wave (km/s) = 2.88487 3.46607 3.18874
# Velocity P-wave (km/s) = 4.44467 5.61819 5.06553
#
# Compressibility (1/GPa) = 0.04901110
#
# Stress axis : x y z
#
# Youngs Moduli (GPa) = 82.59815 30.99790 118.45511
#
# Poissons Ratio (x) = -0.01804 0.27683
# Poissons Ratio (y) = -0.04808 0.01706
# Poissons Ratio (z) = 0.19304 0.00447
#
# Static dielectric constant tensor:
#      x y z
#    x 1.918660 0.000000 0.007450 
#    y 0.000000 1.843930 0.000000 
#    z 0.007450 0.000000 1.916180 
# 
# From -- ./inp_files/319885.got.cif
#   From: 2010.05.17/outbox.cif.g08.bks.cpg/sg12_160_cif.got.tgz:319885.got - 2010.06.03 13:09:07.
