data_PCOD9211830
_publ_section_title
;
Structure prediction by ZEFSAII (Michael W. Deem and Ramdas Pophale) SiO2 
 PCOD9211830
Probable space group: C 2/M
;
_chemical_formula_sum "Si O2"
_cell_formula_units_Z 40
_cell_length_a 23.552881
_cell_length_b 8.934667
_cell_length_c 17.829204
_cell_angle_alpha 90.000000
_cell_angle_beta 148.837217
_cell_angle_gamma 90.000000
_cell_volume 1941.514430
_symmetry_space_group_name_H-M "C 2/M"
_symmetry_group_IT_number 12
_symmetry_cell_setting 'monoclinic'
loop_
_space_group_symop_operation_xyz
x,y,z
-x,y,-z
-x,-y,-z
x,-y,z
1/2+x,1/2+y,z
1/2-x,1/2+y,-z
1/2-x,1/2-y,-z
1/2+x,1/2-y,z
loop_
_atom_site_type_symbol
_atom_site_label
_atom_site_fract_x
_atom_site_fract_y
_atom_site_fract_z
Si Si1 0.624948 0.324258 0.442875
Si Si2 0.795308 0.176702 0.898963
Si Si3 0.982065 0.322185 0.820624
Si Si4 0.064160 0.175584 0.647666
Si Si5 0.671680 0.322251 0.240941
O O1 0.650196 0.500000 0.460245
O O2 0.593939 0.246375 0.330251
O O3 0.519753 0.312851 0.378552
O O4 0.725028 0.243631 0.597289
O O5 0.675272 0.233800 0.785338
O O6 0.808773 0.204201 0.824876
O O7 0.806697 0.000000 0.925728
O O8 0.894320 0.263895 0.050122
O O9 0.977706 0.500000 0.814950
O O10 0.934326 0.257699 0.844343
O O11 0.000000 0.226497 0.500000
O O12 0.092309 0.000000 0.668306
O O13 0.661511 0.500000 0.241179
#
# Coordination Sequence:
#
# PCOD9211830 Si02
#       5
#     8   8   8   8   8
#     4  11  23  41  66  93 126 164 205 254 307 365
#     4  11  24  41  65  94 126 163 205 255 309 366
#     4  12  26  42  62  90 127 166 208 256 309 366
#     4  10  21  40  66  94 123 159 206 254 304 366
#     4  11  23  41  65  93 126 163 207 254 306 368
#
# _framework density 20.602473
#
# number of rings (size 3 to 8) (size 9 to 14) (size 15 to 20)
#    0.000    1.000    2.000    4.800    0.000    7.600 
#    0.000    0.000    0.000    0.000    0.000    0.000 
#    0.000    0.000    0.000    0.000    0.000    0.000 
#
# Total GULP energy -111979.877756 kJ/mol
# GULP energy per Si atom -5598.993888 kJ/mol
# Density = 2.055558 g / cm^3
# Si number density = 20.602473 Si / 1000 Ang^3
#
#
#
# Elastic Constant Matrix: (Units=GPa)
#
#
# Indices 1 2 3 4 5 6 
#
# 1 33.2169 17.3101 -8.6491 0.0000 4.3568 0.0000
# 2 17.3101 73.3597 21.7928 0.0000 -10.5883 0.0000
# 3 -8.6491 21.7928 73.2644 0.0000 2.9788 0.0000
# 4 0.0000 0.0000 0.0000 4.3259 0.0000 42.3256
# 5 4.3568 -10.5883 2.9788 0.0000 29.4574 0.0000
# 6 0.0000 0.0000 0.0000 42.3256 0.0000 -8.0509
#
#
#
# Elastic Compliance Matrix: (Units=1/GPa)
#
#
# Indices 1 2 3 4 5 6 
#
# 1 0.041884 -0.014584 0.009788 0.000000 -0.012427 0.000000
# 2 -0.014584 0.021107 -0.008431 0.000000 0.010596 0.000000
# 3 0.009788 -0.008431 0.017567 0.000000 -0.006254 0.000000
# 4 0.000000 0.000000 0.000000 0.004408 0.000000 0.023176
# 5 -0.012427 0.010596 -0.006254 0.000000 0.040227 0.000000
# 6 0.000000 0.000000 0.000000 0.023176 0.000000 -0.002369
#
#
# Mechanical properties :
#
#
# Convention : Reuss Voigt Hill
#
# Bulk Modulus (GPa) = 18.48326 26.74984 22.61655
# Shear Modulus (GPa) = 29.88423 15.10562 22.49492
#
# Velocity S-wave (km/s) = 3.81270 2.71069 3.30791
# Velocity P-wave (km/s) = 5.32664 4.77589 5.05876
#
# Compressibility (1/GPa) = 0.05410301
#
# Stress axis : x y z
#
# Youngs Moduli (GPa) = 23.87554 47.37822 56.92567
#
# Poissons Ratio (x) = 0.69098 -0.55718
# Poissons Ratio (y) = 0.34821 0.47993
# Poissons Ratio (z) = -0.23369 0.39944
#
# Static dielectric constant tensor:
#      x y z
#    x 1.734020 0.000000 -0.002360 
#    y 0.000000 1.687920 0.000000 
#    z -0.002360 0.000000 1.720060 
# 
# From -- ./inp_files/151648.got.cif
#   From: 2010.05.17/outbox.cif.g08.bks.cpg/sg12_76_cif.got.tgz:151648.got - 2010.06.03 13:09:07.
