data_PCOD9211377
_publ_section_title
;
Structure prediction by ZEFSAII (Michael W. Deem and Ramdas Pophale) SiO2 
 PCOD9211377
Probable space group: C 2/M
;
_chemical_formula_sum "Si O2"
_cell_formula_units_Z 44
_cell_length_a 19.456889
_cell_length_b 22.243714
_cell_length_c 5.027403
_cell_angle_alpha 90.000000
_cell_angle_beta 99.175794
_cell_angle_gamma 90.000000
_cell_volume 2147.984722
_symmetry_space_group_name_H-M "C 2/M"
_symmetry_group_IT_number 12
_symmetry_cell_setting 'monoclinic'
loop_
_space_group_symop_operation_xyz
x,y,z
-x,y,-z
-x,-y,-z
x,-y,z
1/2+x,1/2+y,z
1/2-x,1/2+y,-z
1/2-x,1/2-y,-z
1/2+x,1/2-y,z
loop_
_atom_site_type_symbol
_atom_site_label
_atom_site_fract_x
_atom_site_fract_y
_atom_site_fract_z
Si Si1 0.066733 0.832643 0.892256
Si Si2 0.257067 0.930208 0.256448
Si Si3 0.678225 0.758353 0.115426
Si Si4 0.163002 0.070830 0.700559
Si Si5 0.359833 0.172708 0.412813
Si Si6 0.500000 0.772377 0.500000
O O1 0.033114 0.775197 0.724565
O O2 0.130244 0.801496 0.094741
O O3 0.101807 0.882559 0.726923
O O4 0.000000 0.860034 0.000000
O O5 0.225344 0.915508 0.948167
O O6 0.322310 0.890812 0.384577
O O7 0.275858 0.000000 0.270810
O O8 0.194484 0.921566 0.427933
O O9 0.684143 0.785591 0.411863
O O10 0.750000 0.750000 0.000000
O O11 0.641591 0.805592 0.893492
O O12 0.144032 0.000000 0.726154
O O13 0.437993 0.184970 0.560717
#
# Coordination Sequence:
#
# PCOD9211377 Si02
#       6
#     8   8   8   8   8   4
#     4  11  22  38  57  82 123 156 191 235 287 346
#     4  10  21  40  62  87 112 148 196 247 290 336
#     4  11  22  35  57  86 112 149 198 239 288 340
#     4  10  23  40  61  85 114 150 197 242 285 336
#     4  11  21  37  57  82 117 151 184 241 293 341
#     4  10  24  38  54  88 122 156 192 232 292 358
#
# _framework density 20.484317999999998
#
# number of rings (size 3 to 8) (size 9 to 14) (size 15 to 20)
#    0.000    1.455    1.818    3.818    2.545    1.818 
#    0.000    0.909    0.000    0.000    0.000    7.636 
#    0.000    0.000    0.000    0.000    0.000    0.000 
#
# Total GULP energy -122756.289861 kJ/mol
# GULP energy per Si atom -5579.831357 kJ/mol
# Density = 2.043769 g / cm^3
# Si number density = 20.484318 Si / 1000 Ang^3
#
#
#
# Elastic Constant Matrix: (Units=GPa)
#
#
# Indices 1 2 3 4 5 6 
#
# 1 106.2659 41.9252 -7.5847 0.0000 1.3842 0.0000
# 2 41.9252 64.4309 1.8249 0.0000 5.7460 0.0000
# 3 -7.5847 1.8249 61.4117 0.0000 -6.0433 0.0000
# 4 0.0000 0.0000 0.0000 25.6119 0.0000 1.9870
# 5 1.3842 5.7460 -6.0433 0.0000 21.1506 0.0000
# 6 0.0000 0.0000 0.0000 1.9870 0.0000 14.3588
#
#
#
# Elastic Compliance Matrix: (Units=1/GPa)
#
#
# Indices 1 2 3 4 5 6 
#
# 1 0.012952 -0.008674 0.002064 0.000000 0.002098 0.000000
# 2 -0.008674 0.021765 -0.002309 0.000000 -0.006005 0.000000
# 3 0.002064 -0.002309 0.017137 0.000000 0.005389 0.000000
# 4 0.000000 0.000000 0.000000 0.039468 0.000000 -0.005462
# 5 0.002098 -0.006005 0.005389 0.000000 0.050314 0.000000
# 6 0.000000 0.000000 0.000000 -0.005462 0.000000 0.070399
#
#
# Mechanical properties :
#
#
# Convention : Reuss Voigt Hill
#
# Bulk Modulus (GPa) = 29.39650 33.82660 31.61155
# Shear Modulus (GPa) = 20.72855 25.28713 23.00784
#
# Velocity S-wave (km/s) = 3.18452 3.51730 3.35504
# Velocity P-wave (km/s) = 5.28238 5.74843 5.52033
#
# Compressibility (1/GPa) = 0.03401765
#
# Stress axis : x y z
#
# Youngs Moduli (GPa) = 77.20590 45.94447 58.35205
#
# Poissons Ratio (x) = 0.39851 -0.12044
# Poissons Ratio (y) = 0.66966 0.13473
# Poissons Ratio (z) = -0.15935 0.10608
#
# Static dielectric constant tensor:
#      x y z
#    x 1.816380 0.000000 0.017970 
#    y 0.000000 1.732250 0.000000 
#    z 0.017970 0.000000 1.797530 
# 
# From -- ./inp_files/16164.got.cif
#   From: 2010.05.17/outbox.cif.g08.bks.cpg/sg12_9_cif.got.tgz:16164.got - 2010.06.03 13:09:07.
