data_PCOD9211637
_publ_section_title
;
Structure prediction by ZEFSAII (Michael W. Deem and Ramdas Pophale) SiO2 
 PCOD9211637
Probable space group: C 2/M
;
_chemical_formula_sum "Si O2"
_cell_formula_units_Z 48
_cell_length_a 11.967616
_cell_length_b 28.952345
_cell_length_c 6.897740
_cell_angle_alpha 90.000000
_cell_angle_beta 115.858355
_cell_angle_gamma 90.000000
_cell_volume 2150.702852
_symmetry_space_group_name_H-M "C 2/M"
_symmetry_group_IT_number 12
_symmetry_cell_setting 'monoclinic'
loop_
_space_group_symop_operation_xyz
x,y,z
-x,y,-z
-x,-y,-z
x,-y,z
1/2+x,1/2+y,z
1/2-x,1/2+y,-z
1/2-x,1/2-y,-z
1/2+x,1/2-y,z
loop_
_atom_site_type_symbol
_atom_site_label
_atom_site_fract_x
_atom_site_fract_y
_atom_site_fract_z
Si Si1 0.610877 0.272017 0.681620
Si Si2 0.605485 0.447559 0.244719
Si Si3 0.700364 0.305435 0.110169
Si Si4 0.671155 0.639005 0.477235
Si Si5 0.133885 0.633695 0.053981
Si Si6 0.883478 0.446110 0.270202
O O1 0.500000 0.243948 0.500000
O O2 0.731601 0.240312 0.763491
O O3 0.623817 0.317730 0.563925
O O4 0.590153 0.287965 0.887175
O O5 0.594529 0.500000 0.311051
O O6 0.591053 0.407028 0.389460
O O7 0.746681 0.442374 0.267232
O O8 0.500000 0.441825 0.000000
O O9 0.682292 0.340474 0.270111
O O10 0.789499 0.331387 0.023466
O O11 0.794127 0.625277 0.690237
O O12 0.117052 0.587279 0.915388
O O13 0.000000 0.653850 0.000000
O O14 0.898859 0.500000 0.228025
O O15 0.000000 0.434268 0.500000
#
# Coordination Sequence:
#
# PCOD9211637 Si02
#       6
#     8   8   8   8   8   8
#     4  10  24  40  63  93 122 168 218 265 329 396
#     4  10  22  40  67  98 130 174 219 270 335 394
#     4  10  23  44  58  92 131 160 216 274 322 400
#     4  11  23  40  66  91 127 172 213 268 335 391
#     4  11  24  37  64  96 122 173 219 266 336 395
#     4  10  21  40  64  92 133 175 218 274 333 393
#
# _framework density 22.318283999999998
#
# number of rings (size 3 to 8) (size 9 to 14) (size 15 to 20)
#    0.000    1.667    1.667    1.500    4.667    1.000 
#    0.000    0.000    0.000    3.500    0.000    0.000 
#    0.000    0.000    0.000    0.000    0.000    0.000 
#
# Total GULP energy -134038.710709 kJ/mol
# GULP energy per Si atom -5584.946280 kJ/mol
# Density = 2.226749 g / cm^3
# Si number density = 22.318284 Si / 1000 Ang^3
#
#
#
# Elastic Constant Matrix: (Units=GPa)
#
#
# Indices 1 2 3 4 5 6 
#
# 1 61.1986 11.2931 40.8447 0.0000 6.1923 0.0000
# 2 11.2931 123.0712 57.4860 0.0000 4.7884 0.0000
# 3 40.8447 57.4860 141.9322 0.0000 20.6166 0.0000
# 4 0.0000 0.0000 0.0000 -53.9160 0.0000 86.7640
# 5 6.1923 4.7884 20.6166 0.0000 37.1013 0.0000
# 6 0.0000 0.0000 0.0000 86.7640 0.0000 -63.1525
#
#
#
# Elastic Compliance Matrix: (Units=1/GPa)
#
#
# Indices 1 2 3 4 5 6 
#
# 1 0.020338 0.001068 -0.006279 0.000000 -0.000043 0.000000
# 2 0.001068 0.010115 -0.004557 0.000000 0.001048 0.000000
# 3 -0.006279 -0.004557 0.011379 0.000000 -0.004687 0.000000
# 4 0.000000 0.000000 0.000000 0.015317 0.000000 0.021044
# 5 -0.000043 0.001048 -0.004687 0.000000 0.029430 0.000000
# 6 0.000000 0.000000 0.000000 0.021044 0.000000 0.013077
#
#
# Mechanical properties :
#
#
# Convention : Reuss Voigt Hill
#
# Bulk Modulus (GPa) = 44.84828 60.60551 52.72690
# Shear Modulus (GPa) = 39.48736 -1.55489 18.96623
#
# Velocity S-wave (km/s) = 4.21085 -0.83559 2.91831
# Velocity P-wave (km/s) = 6.61666 5.12671 5.91875
#
# Compressibility (1/GPa) = 0.02229740
#
# Stress axis : x y z
#
# Youngs Moduli (GPa) = 49.16810 98.86430 87.88122
#
# Poissons Ratio (x) = -0.10564 0.55184
# Poissons Ratio (y) = -0.05254 0.40043
# Poissons Ratio (z) = 0.30875 0.45048
#
# Static dielectric constant tensor:
#      x y z
#    x 1.894810 0.000000 0.029050 
#    y 0.000000 1.813620 0.000000 
#    z 0.029050 0.000000 1.868100 
# 
# From -- ./inp_files/13237.got.cif
#   From: 2010.05.17/outbox.cif.g08.bks.cpg/sg12_7_cif.got.tgz:13237.got - 2010.06.03 13:09:07.
