data_PCOD9211694
_publ_section_title
;
Structure prediction by ZEFSAII (Michael W. Deem and Ramdas Pophale) SiO2 
 PCOD9211694
Probable space group: C 2/M
;
_chemical_formula_sum "Si O2"
_cell_formula_units_Z 64
_cell_length_a 18.672265
_cell_length_b 8.980586
_cell_length_c 30.226515
_cell_angle_alpha 90.000000
_cell_angle_beta 141.061553
_cell_angle_gamma 90.000000
_cell_volume 3185.552511
_symmetry_space_group_name_H-M "C 2/M"
_symmetry_group_IT_number 12
_symmetry_cell_setting 'monoclinic'
loop_
_space_group_symop_operation_xyz
x,y,z
-x,y,-z
-x,-y,-z
x,-y,z
1/2+x,1/2+y,z
1/2-x,1/2+y,-z
1/2-x,1/2-y,-z
1/2+x,1/2-y,z
loop_
_atom_site_type_symbol
_atom_site_label
_atom_site_fract_x
_atom_site_fract_y
_atom_site_fract_z
Si Si1 0.374553 0.821631 0.564146
Si Si2 0.449591 0.828773 0.927087
Si Si3 0.029292 0.322060 0.292199
Si Si4 0.034083 0.178407 0.566297
Si Si5 0.707463 0.327461 0.847739
Si Si6 0.473875 0.325784 0.849660
Si Si7 0.698435 0.177432 0.292296
Si Si8 0.197135 0.324433 0.931440
O O1 0.250000 0.750000 0.500000
O O2 0.424489 0.786291 0.636793
O O3 0.457502 0.759227 0.566014
O O4 0.365903 0.000000 0.556475
O O5 0.312669 0.820002 0.864654
O O6 0.488071 0.717260 0.907676
O O7 0.481642 0.000000 0.930507
O O8 0.500000 0.800997 0.000000
O O9 0.009255 0.500000 0.279939
O O10 0.124559 0.286305 0.300802
O O11 0.910190 0.240189 0.226061
O O12 0.168294 0.207339 0.637143
O O13 0.000000 0.221377 0.500000
O O14 0.015704 0.000000 0.561650
O O15 0.690422 0.500000 0.851490
O O16 0.747104 0.239877 0.910409
O O17 0.492598 0.500000 0.851606
O O18 0.353486 0.272187 0.772715
O O19 0.566020 0.227478 0.867845
O O20 0.684693 0.000000 0.277065
O O21 0.207831 0.500000 0.938909
O O22 0.250000 0.250000 0.000000
#
# Coordination Sequence:
#
# PCOD9211694 Si02
#       8
#     8   8   8   8   8   8   8   8
#     4  11  24  42  66  98 133 171 215 261 317 374
#     4  10  23  43  64  87 122 166 210 263 324 384
#     4  10  22  41  64  90 126 172 212 259 319 378
#     4  10  22  42  68  97 130 171 216 261 315 378
#     4  11  23  39  63  95 125 163 215 264 319 381
#     4  12  25  40  62  93 127 166 215 264 317 378
#     4  10  21  40  65  90 124 171 213 259 319 378
#     4  12  24  41  65  92 126 165 211 264 321 379
#
# _framework density 20.090706999999998
#
# number of rings (size 3 to 8) (size 9 to 14) (size 15 to 20)
#    0.000    1.250    1.250    4.500    1.750    6.000 
#    0.000    1.250    0.000    0.000    0.000    0.000 
#    0.000    0.000    0.000    0.000    0.000    0.000 
#
# Total GULP energy -178982.976704 kJ/mol
# GULP energy per Si atom -5593.218022 kJ/mol
# Density = 2.004498 g / cm^3
# Si number density = 20.090707 Si / 1000 Ang^3
#
#
#
# Elastic Constant Matrix: (Units=GPa)
#
#
# Indices 1 2 3 4 5 6 
#
# 1 86.0714 38.9531 33.1370 0.0000 0.0506 0.0000
# 2 38.9531 79.7823 45.1878 0.0000 -6.6204 -0.0001
# 3 33.1370 45.1878 105.5297 0.0000 -0.7680 0.0000
# 4 0.0000 0.0000 0.0000 31.1470 0.0000 -2.2841
# 5 0.0506 -6.6204 -0.7680 0.0000 34.4943 0.0000
# 6 0.0000 -0.0001 0.0000 -2.2841 0.0000 32.7937
#
#
#
# Elastic Compliance Matrix: (Units=1/GPa)
#
#
# Indices 1 2 3 4 5 6 
#
# 1 0.015320 -0.006413 -0.002074 0.000000 -0.001299 0.000000
# 2 -0.006413 0.019552 -0.006332 0.000000 0.003621 0.000000
# 3 -0.002074 -0.006332 0.012832 0.000000 -0.000927 0.000000
# 4 0.000000 0.000000 0.000000 0.032271 0.000000 0.002248
# 5 -0.001299 0.003621 -0.000927 0.000000 0.029667 0.000000
# 6 0.000000 0.000000 0.000000 0.002248 0.000000 0.030650
#
#
# Mechanical properties :
#
#
# Convention : Reuss Voigt Hill
#
# Bulk Modulus (GPa) = 55.35342 56.21547 55.78444
# Shear Modulus (GPa) = 28.41698 29.96071 29.18884
#
# Velocity S-wave (km/s) = 3.76498 3.86589 3.81577
# Velocity P-wave (km/s) = 6.81994 6.92592 6.87314
#
# Compressibility (1/GPa) = 0.01806573
#
# Stress axis : x y z
#
# Youngs Moduli (GPa) = 65.27515 51.14539 77.93071
#
# Poissons Ratio (x) = 0.32799 0.16162
# Poissons Ratio (y) = 0.41861 0.49347
# Poissons Ratio (z) = 0.13538 0.32386
#
# Static dielectric constant tensor:
#      x y z
#    x 1.721440 0.000000 0.019330 
#    y 0.000000 1.674350 0.000000 
#    z 0.019330 0.000000 1.724850 
# 
# From -- ./inp_files/378432.got.cif
#   From: 2010.05.17/outbox.cif.g08.bks.cpg/sg12_190_cif.got.tgz:378432.got - 2010.06.03 13:09:07.
