data_PCOD9211420
_publ_section_title
;
Structure prediction by ZEFSAII (Michael W. Deem and Ramdas Pophale) SiO2 
 PCOD9211420
Probable space group: C 2/M
;
_chemical_formula_sum "Si O2"
_cell_formula_units_Z 40
_cell_length_a 23.877691
_cell_length_b 15.233855
_cell_length_c 5.345856
_cell_angle_alpha 90.000000
_cell_angle_beta 67.984389
_cell_angle_gamma 90.000000
_cell_volume 1802.758014
_symmetry_space_group_name_H-M "C 2/M"
_symmetry_group_IT_number 12
_symmetry_cell_setting 'monoclinic'
loop_
_space_group_symop_operation_xyz
x,y,z
-x,y,-z
-x,-y,-z
x,-y,z
1/2+x,1/2+y,z
1/2-x,1/2+y,-z
1/2-x,1/2-y,-z
1/2+x,1/2-y,z
loop_
_atom_site_type_symbol
_atom_site_label
_atom_site_fract_x
_atom_site_fract_y
_atom_site_fract_z
Si Si1 0.459778 0.902551 0.319641
Si Si2 0.104629 0.247700 0.820277
Si Si3 0.055211 0.900920 0.211012
Si Si4 0.772671 0.700923 0.208580
Si Si5 0.663821 0.405340 0.405013
O O1 0.500000 0.891047 0.500000
O O2 0.418329 0.818944 0.338816
O O3 0.430577 0.000000 0.388732
O O4 0.500000 0.904477 0.000000
O O5 0.154893 0.297440 0.903637
O O6 0.138539 0.170482 0.619340
O O7 0.056136 0.189764 0.054080
O O8 0.121168 0.900946 0.233030
O O9 0.000000 0.895396 0.500000
O O10 0.049194 0.000000 0.106970
O O11 0.750000 0.750000 0.500000
O O12 0.734935 0.611102 0.254734
O O13 0.750000 0.750000 0.000000
O O14 0.653649 0.500000 0.538130
#
# Coordination Sequence:
#
# PCOD9211420 Si02
#       5
#     8   8   8   8   8
#     4  10  25  45  66  94 129 170 224 289 348 401
#     4  11  23  38  70  93 135 178 234 280 346 414
#     4  10  22  38  60  97 142 183 226 274 336 413
#     4  10  21  40  62  92 127 171 222 276 327 393
#     4  10  22  39  61  96 138 178 219 276 337 404
#
# _framework density 22.188224000000002
#
# number of rings (size 3 to 8) (size 9 to 14) (size 15 to 20)
#    0.000    1.800    2.000    0.600    5.600    0.800 
#    0.000    3.000    0.000    3.000    0.000    0.000 
#    0.000    0.000    0.000    0.000    0.000    0.000 
#
# Total GULP energy -111529.786677 kJ/mol
# GULP energy per Si atom -5576.489334 kJ/mol
# Density = 2.213772 g / cm^3
# Si number density = 22.188224 Si / 1000 Ang^3
#
#
#
# Elastic Constant Matrix: (Units=GPa)
#
#
# Indices 1 2 3 4 5 6 
#
# 1 131.5671 76.9598 35.4770 0.0000 17.6822 0.0000
# 2 76.9598 178.9216 35.5180 0.0000 -2.9141 0.0000
# 3 35.4770 35.5180 77.4267 0.0000 14.5154 0.0000
# 4 0.0000 0.0000 0.0000 34.8359 0.0000 0.4624
# 5 17.6822 -2.9141 14.5154 0.0000 29.9387 0.0000
# 6 0.0000 0.0000 0.0000 0.4624 0.0000 37.8133
#
#
#
# Elastic Compliance Matrix: (Units=1/GPa)
#
#
# Indices 1 2 3 4 5 6 
#
# 1 0.011811 -0.004788 -0.002002 0.000000 -0.006471 0.000000
# 2 -0.004788 0.008220 -0.002483 0.000000 0.004832 0.000000
# 3 -0.002002 -0.002483 0.016275 0.000000 -0.006950 0.000000
# 4 0.000000 0.000000 0.000000 0.028711 0.000000 -0.000351
# 5 -0.006471 0.004832 -0.006950 0.000000 0.041063 0.000000
# 6 0.000000 0.000000 0.000000 -0.000351 0.000000 0.026450
#
#
# Mechanical properties :
#
#
# Convention : Reuss Voigt Hill
#
# Bulk Modulus (GPa) = 56.30749 75.98056 66.14403
# Shear Modulus (GPa) = 31.84790 36.51495 34.18142
#
# Velocity S-wave (km/s) = 3.79271 4.06111 3.92921
# Velocity P-wave (km/s) = 6.67921 7.50388 7.10352
#
# Compressibility (1/GPa) = 0.01775963
#
# Stress axis : x y z
#
# Youngs Moduli (GPa) = 84.66552 121.65186 61.44546
#
# Poissons Ratio (x) = 0.58251 0.12302
# Poissons Ratio (y) = 0.40540 0.15255
# Poissons Ratio (z) = 0.16952 0.30202
#
# Static dielectric constant tensor:
#      x y z
#    x 1.887140 0.000000 -0.026930 
#    y 0.000000 1.849420 0.000000 
#    z -0.026930 0.000000 1.896320 
# 
# From -- ./inp_files/20135.got.cif
#   From: 2010.05.17/outbox.cif.g08.bks.cpg/sg12_11_cif.got.tgz:20135.got - 2010.06.03 13:09:07.
