data_PCOD9211451
_publ_section_title
;
Structure prediction by ZEFSAII (Michael W. Deem and Ramdas Pophale) SiO2 
 PCOD9211451
Probable space group: C 2/M
;
_chemical_formula_sum "Si O2"
_cell_formula_units_Z 56
_cell_length_a 11.712630
_cell_length_b 14.821531
_cell_length_c 30.991925
_cell_angle_alpha 90.000000
_cell_angle_beta 28.100723
_cell_angle_gamma 90.000000
_cell_volume 2534.184143
_symmetry_space_group_name_H-M "C 2/M"
_symmetry_group_IT_number 12
_symmetry_cell_setting 'monoclinic'
loop_
_space_group_symop_operation_xyz
x,y,z
-x,y,-z
-x,-y,-z
x,-y,z
1/2+x,1/2+y,z
1/2-x,1/2+y,-z
1/2-x,1/2-y,-z
1/2+x,1/2-y,z
loop_
_atom_site_type_symbol
_atom_site_label
_atom_site_fract_x
_atom_site_fract_y
_atom_site_fract_z
Si Si1 0.307242 0.668611 0.806362
Si Si2 0.863257 0.605751 0.388565
Si Si3 0.761519 0.719135 0.343156
Si Si4 0.359092 0.894662 0.001040
Si Si5 0.558961 0.103970 0.541465
Si Si6 0.922899 0.893825 0.198016
Si Si7 0.447506 0.396221 0.665051
O O1 0.450856 0.762730 0.758381
O O2 0.447263 0.618730 0.799123
O O3 0.357892 0.625910 0.742821
O O4 0.026402 0.660864 0.912652
O O5 0.845576 0.500000 0.383872
O O6 0.146223 0.636042 0.292647
O O7 0.728845 0.661396 0.397135
O O8 0.797492 0.614924 0.460712
O O9 0.629250 0.814768 0.394655
O O10 0.666874 0.669698 0.332185
O O11 0.344946 0.000000 0.991328
O O12 0.500000 0.896061 0.000000
O O13 0.096266 0.856723 0.102436
O O14 0.760885 0.112250 0.437245
O O15 0.461684 0.000000 0.574172
O O16 0.913781 0.000000 0.192880
O O17 0.389188 0.500000 0.673903
#
# Coordination Sequence:
#
# PCOD9211451 Si02
#       7
#     8   8   8   8   8   8   8
#     4  11  21  34  61  89 120 150 193 245 299 345
#     4  10  21  40  63  86 117 161 203 241 287 351
#     4  12  24  40  62  88 125 156 198 245 300 351
#     4   8  15  30  57  89 114 147 195 243 290 342
#     4  10  23  42  62  87 117 157 205 246 293 349
#     4   9  17  35  63  89 114 151 201 245 288 348
#     4  11  25  42  61  89 121 157 198 245 302 355
#
# _framework density 22.097842
#
# number of rings (size 3 to 8) (size 9 to 14) (size 15 to 20)
#    0.000    1.857    1.429    3.857    0.000    3.429 
#    0.000    4.286    3.143    0.000    0.000    4.000 
#    0.000    0.000    0.000    0.000    0.000    0.000 
#
# Total GULP energy -156487.593033 kJ/mol
# GULP energy per Si atom -5588.842608 kJ/mol
# Density = 2.204755 g / cm^3
# Si number density = 22.097842 Si / 1000 Ang^3
#
#
#
# Elastic Constant Matrix: (Units=GPa)
#
#
# Indices 1 2 3 4 5 6 
#
# 1 92.2872 62.7091 43.9516 0.0204 19.4224 0.0006
# 2 62.7091 94.1113 38.2630 -0.0174 20.6138 0.0049
# 3 43.9516 38.2630 162.0742 0.0351 30.1223 0.0035
# 4 0.0204 -0.0174 0.0351 -1.6544 -0.0281 2.1896
# 5 19.4224 20.6138 30.1223 -0.0281 25.1867 0.0005
# 6 0.0006 0.0049 0.0035 2.1896 0.0005 38.9367
#
#
#
# Elastic Compliance Matrix: (Units=1/GPa)
#
#
# Indices 1 2 3 4 5 6 
#
# 1 0.020973 -0.012338 -0.002116 0.000377 -0.003544 -0.000020
# 2 -0.012338 0.020456 -0.000180 -0.000237 -0.007013 0.000011
# 3 -0.002116 -0.000180 0.008301 0.000270 -0.008148 -0.000016
# 4 0.000377 -0.000237 0.000270 -0.562561 -0.001048 0.031635
# 5 -0.003544 -0.007013 -0.008148 -0.001048 0.057919 0.000060
# 6 -0.000020 0.000011 -0.000016 0.031635 0.000060 0.023904
#
#
# Mechanical properties :
#
#
# Convention : Reuss Voigt Hill
#
# Bulk Modulus (GPa) = 48.87364 70.92444 59.89904
# Shear Modulus (GPa) = -12.66082 26.06376 6.70147
#
# Velocity S-wave (km/s) = -2.39622 3.43807 1.74334
# Velocity P-wave (km/s) = 3.80908 6.92284 5.58726
#
# Compressibility (1/GPa) = 0.02046093
#
# Stress axis : x y z
#
# Youngs Moduli (GPa) = 47.67988 48.88461 120.47303
#
# Poissons Ratio (x) = 0.60316 0.25494
# Poissons Ratio (y) = 0.58829 0.02169
# Poissons Ratio (z) = 0.10090 0.00880
#
# Static dielectric constant tensor:
#      x y z
#    x 1.838920 0.000000 -0.032800 
#    y 0.000000 1.811930 0.000000 
#    z -0.032800 0.000000 1.883470 
# 
# From -- ./inp_files/374219.got.cif
#   From: 2010.05.17/outbox.cif.g08.bks.cpg/sg12_188_cif.got.tgz:374219.got - 2010.06.03 13:09:07.
