data_PCOD9211797
_publ_section_title
;
Structure prediction by ZEFSAII (Michael W. Deem and Ramdas Pophale) SiO2 
 PCOD9211797
Probable space group: C 2/M
;
_chemical_formula_sum "Si O2"
_cell_formula_units_Z 52
_cell_length_a 29.490297
_cell_length_b 9.479587
_cell_length_c 13.933742
_cell_angle_alpha 90.000000
_cell_angle_beta 139.822411
_cell_angle_gamma 90.000000
_cell_volume 2513.060876
_symmetry_space_group_name_H-M "C 2/M"
_symmetry_group_IT_number 12
_symmetry_cell_setting 'monoclinic'
loop_
_space_group_symop_operation_xyz
x,y,z
-x,y,-z
-x,-y,-z
x,-y,z
1/2+x,1/2+y,z
1/2-x,1/2+y,-z
1/2-x,1/2-y,-z
1/2+x,1/2-y,z
loop_
_atom_site_type_symbol
_atom_site_label
_atom_site_fract_x
_atom_site_fract_y
_atom_site_fract_z
Si Si1 0.565377 0.337232 0.175213
Si Si2 0.922870 0.167447 0.239376
Si Si3 0.784917 0.834178 0.892511
Si Si4 0.548027 0.168043 0.340232
Si Si5 0.624197 0.164991 0.659972
Si Si6 0.210682 0.238006 0.310398
Si Si7 0.724484 0.000000 0.474947
O O1 0.556873 0.500000 0.193295
O O2 0.568290 0.235279 0.271157
O O3 0.637360 0.325327 0.232374
O O4 0.500000 0.302016 0.000000
O O5 0.978860 0.251545 0.265954
O O6 0.918312 0.235239 0.337242
O O7 0.937970 0.000000 0.266117
O O8 0.846831 0.189756 0.067592
O O9 0.707092 0.810139 0.806492
O O10 0.794910 0.745386 0.812090
O O11 0.789310 0.000000 0.871704
O O12 0.603339 0.190196 0.515812
O O13 0.537466 0.000000 0.312041
O O14 0.608639 0.000000 0.656240
O O15 0.269244 0.123619 0.432402
O O16 0.224270 0.378243 0.391085
#
# Coordination Sequence:
#
# PCOD9211797 Si02
#       7
#     8   8   8   8   8   8   4
#     4  11  24  42  64  91 127 169 209 253 306 367
#     4  11  23  43  64  90 124 163 204 256 316 375
#     4  10  21  40  66  90 124 165 202 250 315 371
#     4  11  25  41  66  91 123 164 210 256 311 368
#     4  10  23  41  65  92 121 158 207 259 311 365
#     4  11  22  41  61  92 126 164 205 252 304 368
#     4  10  24  36  64  88 128 162 204 254 308 354
#
# _framework density 20.691898999999999
#
# number of rings (size 3 to 8) (size 9 to 14) (size 15 to 20)
#    0.000    1.385    1.538    2.769    5.385    5.846 
#    6.923    0.000    0.000    0.000    0.000    0.000 
#    0.000    0.000    0.000    0.000    0.000    0.000 
#
# Total GULP energy -144884.850461 kJ/mol
# GULP energy per Si atom -5572.494248 kJ/mol
# Density = 2.064480 g / cm^3
# Si number density = 20.691899 Si / 1000 Ang^3
#
#
#
# Elastic Constant Matrix: (Units=GPa)
#
#
# Indices 1 2 3 4 5 6 
#
# 1 73.0994 29.1657 14.4572 0.0000 -15.8583 0.0000
# 2 29.1657 86.5154 34.5370 0.0000 -10.9439 0.0000
# 3 14.4572 34.5370 57.6767 0.0000 -1.3638 0.0000
# 4 0.0000 0.0000 0.0000 -25.4741 0.0000 -43.6657
# 5 -15.8583 -10.9439 -1.3638 0.0000 34.1871 0.0000
# 6 0.0000 0.0000 0.0000 -43.6657 0.0000 -3.1150
#
#
#
# Elastic Compliance Matrix: (Units=1/GPa)
#
#
# Indices 1 2 3 4 5 6 
#
# 1 0.017124 -0.004335 -0.001543 0.000000 0.006494 0.000000
# 2 -0.004335 0.017013 -0.009028 0.000000 0.003075 0.000000
# 3 -0.001543 -0.009028 0.023067 0.000000 -0.002685 0.000000
# 4 0.000000 0.000000 0.000000 0.001705 0.000000 -0.023896
# 5 0.006494 0.003075 -0.002685 0.000000 0.033140 0.000000
# 6 0.000000 0.000000 0.000000 -0.023896 0.000000 0.013941
#
#
# Mechanical properties :
#
#
# Convention : Reuss Voigt Hill
#
# Bulk Modulus (GPa) = 36.50728 41.51237 39.00982
# Shear Modulus (GPa) = 34.49888 10.39505 22.44697
#
# Velocity S-wave (km/s) = 4.08765 2.24380 3.29723
# Velocity P-wave (km/s) = 6.32139 5.17866 5.77835
#
# Compressibility (1/GPa) = 0.02739180
#
# Stress axis : x y z
#
# Youngs Moduli (GPa) = 58.39899 58.77795 43.35149
#
# Poissons Ratio (x) = 0.25483 0.06687
# Poissons Ratio (y) = 0.25318 0.39138
# Poissons Ratio (z) = 0.09009 0.53066
#
# Static dielectric constant tensor:
#      x y z
#    x 1.736350 0.000000 0.034070 
#    y 0.000000 1.693240 0.000000 
#    z 0.034070 0.000000 1.772660 
# 
# From -- ./inp_files/250162.got.cif
#   From: 2010.05.17/outbox.cif.g08.bks.cpg/sg12_126_cif.got.tgz:250162.got - 2010.06.03 13:09:07.
