data_PCOD9211228
_publ_section_title
;
Structure prediction by ZEFSAII (Michael W. Deem and Ramdas Pophale) SiO2 
 PCOD9211228
Probable space group: C 2/M
;
_chemical_formula_sum "Si O2"
_cell_formula_units_Z 48
_cell_length_a 8.793671
_cell_length_b 25.344199
_cell_length_c 11.137667
_cell_angle_alpha 90.000000
_cell_angle_beta 119.458699
_cell_angle_gamma 90.000000
_cell_volume 2161.308481
_symmetry_space_group_name_H-M "C 2/M"
_symmetry_group_IT_number 12
_symmetry_cell_setting 'monoclinic'
loop_
_space_group_symop_operation_xyz
x,y,z
-x,y,-z
-x,-y,-z
x,-y,z
1/2+x,1/2+y,z
1/2-x,1/2+y,-z
1/2-x,1/2-y,-z
1/2+x,1/2-y,z
loop_
_atom_site_type_symbol
_atom_site_label
_atom_site_fract_x
_atom_site_fract_y
_atom_site_fract_z
Si Si1 0.807320 0.389751 0.798034
Si Si2 0.736934 0.500000 0.476815
Si Si3 0.335243 0.500000 0.813753
Si Si4 0.019534 0.500000 0.202364
Si Si5 0.277396 0.690161 0.649432
Si Si6 0.068163 0.304893 0.326481
Si Si7 0.000000 0.086956 0.500000
Si Si8 0.472704 0.388694 0.123253
O O1 0.903852 0.446341 0.825822
O O2 0.923469 0.343613 0.784556
O O3 0.639542 0.387194 0.642745
O O4 0.720835 0.384638 0.895603
O O5 0.774292 0.500000 0.352177
O O6 0.892439 0.500000 0.631382
O O7 0.617065 0.549769 0.461182
O O8 0.456714 0.448595 0.856162
O O9 0.189642 0.500000 0.862140
O O10 0.202120 0.679573 0.486772
O O11 0.378448 0.745615 0.686653
O O12 0.400844 0.644257 0.742159
O O13 0.117203 0.694183 0.679567
O O14 0.500000 0.366903 0.000000
#
# Coordination Sequence:
#
# PCOD9211228 Si02
#       8
#     8   4   4   4   8   8   4   8
#     4  11  20  38  58  89 122 164 206 256 314 367
#     4   9  17  31  53  89 123 155 194 256 315 367
#     4  12  22  41  58  88 126 170 213 254 302 373
#     4  10  23  34  60  93 128 156 204 261 330 370
#     4  10  22  42  63  98 128 157 204 252 319 373
#     4  10  21  39  70  96 125 157 195 264 324 376
#     4   9  16  30  56  88 120 154 196 251 314 366
#     4  12  26  43  63  87 125 174 218 254 298 369
#
# _framework density 22.208769
#
# number of rings (size 3 to 8) (size 9 to 14) (size 15 to 20)
#    0.000    1.500    1.667    4.500    2.333    2.667 
#    0.000    7.500    0.000    0.000    0.000    0.000 
#    0.000    0.000    0.000    0.000    0.000    0.000 
#
# Total GULP energy -134163.839891 kJ/mol
# GULP energy per Si atom -5590.159995 kJ/mol
# Density = 2.215822 g / cm^3
# Si number density = 22.208769 Si / 1000 Ang^3
#
#
#
# Elastic Constant Matrix: (Units=GPa)
#
#
# Indices 1 2 3 4 5 6 
#
# 1 154.2109 76.2481 37.4017 0.0000 -42.3481 0.0000
# 2 76.2481 127.5323 38.4042 0.0000 -15.3369 0.0000
# 3 37.4017 38.4042 57.4024 0.0000 -14.9909 0.0000
# 4 0.0000 0.0000 0.0000 -0.4894 0.0000 1.4840
# 5 -42.3481 -15.3369 -14.9909 0.0000 37.1501 0.0000
# 6 0.0000 0.0000 0.0000 1.4840 0.0000 37.8292
#
#
#
# Elastic Compliance Matrix: (Units=1/GPa)
#
#
# Indices 1 2 3 4 5 6 
#
# 1 0.012999 -0.005924 -0.001426 0.000000 0.011797 0.000000
# 2 -0.005924 0.012601 -0.005562 0.000000 -0.003795 0.000000
# 3 -0.001426 -0.005562 0.023526 0.000000 0.005572 0.000000
# 4 0.000000 0.000000 0.000000 -1.826031 0.000000 0.071633
# 5 0.011797 -0.003795 0.005572 0.000000 0.041047 0.000000
# 6 0.000000 0.000000 0.000000 0.071633 0.000000 0.023625
#
#
# Mechanical properties :
#
#
# Convention : Reuss Voigt Hill
#
# Bulk Modulus (GPa) = 42.91203 71.47265 57.19234
# Shear Modulus (GPa) = -2.97860 27.37076 12.19608
#
# Velocity S-wave (km/s) = -1.15935 3.51441 2.34595
# Velocity P-wave (km/s) = 4.19189 6.97998 5.75726
#
# Compressibility (1/GPa) = 0.02330349
#
# Stress axis : x y z
#
# Youngs Moduli (GPa) = 76.92989 79.35681 42.50585
#
# Poissons Ratio (x) = 0.47008 0.06060
# Poissons Ratio (y) = 0.45571 0.23642
# Poissons Ratio (z) = 0.10968 0.44138
#
# Static dielectric constant tensor:
#      x y z
#    x 1.802620 0.000000 0.002800 
#    y 0.000000 1.777620 0.000000 
#    z 0.002800 0.000000 1.871030 
# 
# From -- ./inp_files/122537.got.cif
#   From: 2010.05.17/outbox.cif.g08.bks.cpg/sg12_62_cif.got.tgz:122537.got - 2010.06.03 13:09:07.
