data_PCOD9211308
_publ_section_title
;
Structure prediction by ZEFSAII (Michael W. Deem and Ramdas Pophale) SiO2 
 PCOD9211308
Probable space group: C 2/M
;
_chemical_formula_sum "Si O2"
_cell_formula_units_Z 44
_cell_length_a 27.399511
_cell_length_b 12.898621
_cell_length_c 6.620966
_cell_angle_alpha 90.000000
_cell_angle_beta 76.771033
_cell_angle_gamma 90.000000
_cell_volume 2277.860107
_symmetry_space_group_name_H-M "C 2/M"
_symmetry_group_IT_number 12
_symmetry_cell_setting 'monoclinic'
loop_
_space_group_symop_operation_xyz
x,y,z
-x,y,-z
-x,-y,-z
x,-y,z
1/2+x,1/2+y,z
1/2-x,1/2+y,-z
1/2-x,1/2-y,-z
1/2+x,1/2-y,z
loop_
_atom_site_type_symbol
_atom_site_label
_atom_site_fract_x
_atom_site_fract_y
_atom_site_fract_z
Si Si1 0.274526 0.379880 0.776406
Si Si2 0.578148 0.881640 0.242898
Si Si3 0.000000 0.697547 0.000000
Si Si4 0.327656 0.774063 0.041563
Si Si5 0.354073 0.616137 0.355347
Si Si6 0.047453 0.801599 0.572796
O O1 0.276183 0.500000 0.839322
O O2 0.217440 0.341074 0.821533
O O3 0.304242 0.372345 0.537740
O O4 0.302937 0.305823 0.906828
O O5 0.538734 0.868185 0.096958
O O6 0.561611 0.801758 0.432832
O O7 0.578737 0.000000 0.312770
O O8 0.631948 0.845405 0.108619
O O9 0.029174 0.768361 0.811442
O O10 0.353764 0.704520 0.187464
O O11 0.354906 0.500000 0.267591
O O12 0.402667 0.631159 0.450948
O O13 0.000000 0.849920 0.500000
#
# Coordination Sequence:
#
# PCOD9211308 Si02
#       6
#     8   8   4   8   8   8
#     4  10  22  39  61  88 120 157 194 242 298 347
#     4  11  22  37  61  89 119 156 196 239 298 354
#     4  10  21  40  61  82 124 152 197 246 299 344
#     4  11  21  39  62  88 123 153 198 244 288 352
#     4  11  22  40  63  88 118 159 200 240 294 348
#     4  10  22  40  60  88 122 155 197 248 288 350
#
# _framework density 19.316376999999999
#
# number of rings (size 3 to 8) (size 9 to 14) (size 15 to 20)
#    0.000    1.455    3.636    1.909    0.000    4.364 
#    0.000    0.455    0.000    0.000    0.000    0.000 
#    0.000    0.000    0.000    0.000    0.000    0.000 
#
# Total GULP energy -122880.933823 kJ/mol
# GULP energy per Si atom -5585.496992 kJ/mol
# Density = 1.927241 g / cm^3
# Si number density = 19.316377 Si / 1000 Ang^3
#
#
#
# Elastic Constant Matrix: (Units=GPa)
#
#
# Indices 1 2 3 4 5 6 
#
# 1 94.0729 4.7000 11.5861 0.0000 -12.3212 0.0000
# 2 4.7000 46.4465 -0.6580 0.0000 -2.1047 0.0000
# 3 11.5861 -0.6580 58.5522 0.0000 -9.4257 0.0000
# 4 0.0000 0.0000 0.0000 37.1411 0.0000 5.7799
# 5 -12.3212 -2.1047 -9.4257 0.0000 28.6281 0.0000
# 6 0.0000 0.0000 0.0000 5.7799 0.0000 8.6998
#
#
#
# Elastic Compliance Matrix: (Units=1/GPa)
#
#
# Indices 1 2 3 4 5 6 
#
# 1 0.011441 -0.000984 -0.001578 0.000000 0.004332 0.000000
# 2 -0.000984 0.021702 0.000662 0.000000 0.001390 0.000000
# 3 -0.001578 0.000662 0.018265 0.000000 0.005383 0.000000
# 4 0.000000 0.000000 0.000000 0.030029 0.000000 -0.019950
# 5 0.004332 0.001390 0.005383 0.000000 0.038670 0.000000
# 6 0.000000 0.000000 0.000000 -0.019950 0.000000 0.128199
#
#
# Mechanical properties :
#
#
# Convention : Reuss Voigt Hill
#
# Bulk Modulus (GPa) = 21.00396 25.59198 23.29797
# Shear Modulus (GPa) = 18.65854 27.12337 22.89095
#
# Velocity S-wave (km/s) = 3.11134 3.75128 3.44620
# Velocity P-wave (km/s) = 4.87898 5.66043 5.28417
#
# Compressibility (1/GPa) = 0.04761007
#
# Stress axis : x y z
#
# Youngs Moduli (GPa) = 87.40558 46.07850 54.74952
#
# Poissons Ratio (x) = 0.04533 0.08637
# Poissons Ratio (y) = 0.08599 -0.03626
# Poissons Ratio (z) = 0.13788 -0.03052
#
# Static dielectric constant tensor:
#      x y z
#    x 1.682100 0.000000 0.001940 
#    y 0.000000 1.643440 0.000000 
#    z 0.001940 0.000000 1.652210 
# 
# From -- ./inp_files/30807.got.cif
#   From: 2010.05.17/outbox.cif.g08.bks.cpg/sg12_16_cif.got.tgz:30807.got - 2010.06.03 13:09:07.
