data_PCOD9211363
_publ_section_title
;
Structure prediction by ZEFSAII (Michael W. Deem and Ramdas Pophale) SiO2 
 PCOD9211363
Probable space group: C 2/M
;
_chemical_formula_sum "Si O2"
_cell_formula_units_Z 48
_cell_length_a 14.402884
_cell_length_b 14.056281
_cell_length_c 11.621897
_cell_angle_alpha 90.000000
_cell_angle_beta 66.897905
_cell_angle_gamma 90.000000
_cell_volume 2164.181585
_symmetry_space_group_name_H-M "C 2/M"
_symmetry_group_IT_number 12
_symmetry_cell_setting 'monoclinic'
loop_
_space_group_symop_operation_xyz
x,y,z
-x,y,-z
-x,-y,-z
x,-y,z
1/2+x,1/2+y,z
1/2-x,1/2+y,-z
1/2-x,1/2-y,-z
1/2+x,1/2-y,z
loop_
_atom_site_type_symbol
_atom_site_label
_atom_site_fract_x
_atom_site_fract_y
_atom_site_fract_z
Si Si1 0.191974 0.110190 0.235595
Si Si2 0.913637 0.299237 0.736517
Si Si3 0.619031 0.810797 0.709248
Si Si4 0.263040 0.604795 0.055646
Si Si5 0.161728 0.606339 0.449730
Si Si6 0.119972 0.102441 0.780712
O O1 0.102362 0.187860 0.292837
O O2 0.293450 0.149635 0.250486
O O3 0.172736 0.000000 0.282347
O O4 0.212474 0.107748 0.089271
O O5 0.816080 0.318478 0.862777
O O6 0.905347 0.354134 0.620259
O O7 0.006019 0.350782 0.757351
O O8 0.660086 0.825393 0.560306
O O9 0.583747 0.703465 0.755830
O O10 0.219369 0.500000 0.103885
O O11 0.359411 0.611557 0.092855
O O12 0.133825 0.500000 0.500860
O O13 0.271826 0.600127 0.337042
O O14 0.068706 0.000000 0.783346
#
# Coordination Sequence:
#
# PCOD9211363 Si02
#       6
#     8   8   8   8   8   8
#     4  11  24  41  61  89 126 159 194 251 305 349
#     4  11  23  38  62  88 119 159 200 245 297 361
#     4  12  23  37  61  91 120 154 202 249 297 352
#     4   9  19  40  63  83 117 158 196 242 300 353
#     4  10  21  40  62  85 118 156 197 246 298 355
#     4   9  19  37  63  85 112 159 202 238 289 358
#
# _framework density 22.179285
#
# number of rings (size 3 to 8) (size 9 to 14) (size 15 to 20)
#    0.000    1.667    3.333    3.500    0.000    4.667 
#    0.000    1.667    0.000    5.000    0.000    0.000 
#    0.000    0.000    0.000    0.000    0.000    0.000 
#
# Total GULP energy -133673.211017 kJ/mol
# GULP energy per Si atom -5569.717126 kJ/mol
# Density = 2.212880 g / cm^3
# Si number density = 22.179285 Si / 1000 Ang^3
#
#
#
# Elastic Constant Matrix: (Units=GPa)
#
#
# Indices 1 2 3 4 5 6 
#
# 1 -4.5809 -42.9111 -17.9468 0.0000 55.9318 0.0000
# 2 -42.9111 1.3904 -37.4553 0.0000 54.0355 0.0000
# 3 -17.9468 -37.4553 43.7569 0.0000 49.2737 0.0000
# 4 0.0000 0.0000 0.0000 21.8075 0.0000 7.1361
# 5 55.9318 54.0355 49.2737 0.0000 3.4959 0.0000
# 6 0.0000 0.0000 0.0000 7.1361 0.0000 4.0008
#
#
#
# Elastic Compliance Matrix: (Units=1/GPa)
#
#
# Indices 1 2 3 4 5 6 
#
# 1 0.018783 -0.010532 -0.010341 0.000000 0.008019 0.000000
# 2 -0.010532 0.012690 -0.002534 0.000000 0.008060 0.000000
# 3 -0.010341 -0.002534 0.014387 0.000000 0.001826 0.000000
# 4 0.000000 0.000000 0.000000 0.110142 0.000000 -0.196456
# 5 0.008019 0.008060 0.001826 0.000000 0.007427 0.000000
# 6 0.000000 0.000000 0.000000 -0.196456 0.000000 0.600360
#
#
# Mechanical properties :
#
#
# Convention : Reuss Voigt Hill
#
# Bulk Modulus (GPa) = -1050.64207 -17.34000 -533.99103
# Shear Modulus (GPa) = 6.17067 15.11949 10.64508
#
# Velocity S-wave (km/s) = 1.66980 2.61376 2.19317
# Velocity P-wave (km/s) = 21.70288 1.12868 15.32549
#
# Compressibility (1/GPa) = -0.00095180
#
# Stress axis : x y z
#
# Youngs Moduli (GPa) = 53.23842 78.80267 69.50504
#
# Poissons Ratio (x) = 0.82991 0.71877
# Poissons Ratio (y) = 0.56068 0.17610
# Poissons Ratio (z) = 0.55055 0.19965
#
# Static dielectric constant tensor:
#      x y z
#    x 1.868800 0.000000 -0.012600 
#    y 0.000000 1.990790 0.000000 
#    z -0.012600 0.000000 1.761130 
# 
# From -- ./inp_files/142704.got.cif
#   From: 2010.05.17/outbox.cif.g08.bks.cpg/sg12_72_cif.got.tgz:142704.got - 2010.06.03 13:09:07.
