data_PCOD9211472
_publ_section_title
;
Structure prediction by ZEFSAII (Michael W. Deem and Ramdas Pophale) SiO2 
 PCOD9211472
Probable space group: C 2/M
;
_chemical_formula_sum "Si O2"
_cell_formula_units_Z 34
_cell_length_a 17.166226
_cell_length_b 13.769659
_cell_length_c 20.655392
_cell_angle_alpha 90.000000
_cell_angle_beta 20.498949
_cell_angle_gamma 90.000000
_cell_volume 1709.761133
_symmetry_space_group_name_H-M "C 2/M"
_symmetry_group_IT_number 12
_symmetry_cell_setting 'monoclinic'
loop_
_space_group_symop_operation_xyz
x,y,z
-x,y,-z
-x,-y,-z
x,-y,z
1/2+x,1/2+y,z
1/2-x,1/2+y,-z
1/2-x,1/2-y,-z
1/2+x,1/2-y,z
loop_
_atom_site_type_symbol
_atom_site_label
_atom_site_fract_x
_atom_site_fract_y
_atom_site_fract_z
Si Si1 0.095214 0.216149 0.771849
Si Si2 0.134472 0.609437 0.128320
Si Si3 0.562742 0.203430 0.600286
Si Si4 0.000000 0.000000 0.500000
Si Si5 0.226702 0.665450 0.791546
O O1 0.307085 0.178293 0.566711
O O2 0.161060 0.249497 0.792031
O O3 0.002404 0.314535 0.809183
O O4 0.891311 0.141502 0.927237
O O5 0.099738 0.500000 0.132311
O O6 0.048763 0.621703 0.268689
O O7 0.750000 0.250000 0.500000
O O8 0.380685 0.284891 0.725826
O O9 0.134685 0.915115 0.354201
O O10 0.000000 0.627901 0.000000
#
# Coordination Sequence:
#
# PCOD9211472 Si02
#       5
#     8   8   8   2   8
#     4  10  21  40  64  91 134 169 203 273 327 374
#     4  10  22  39  65  95 125 168 220 263 321 388
#     4  10  21  40  63  87 126 171 207 261 325 375
#     4  12  26  40  64 102 130 168 214 262 328 398
#     4  12  23  41  64  96 131 168 215 264 325 389
#
# _framework density 19.885819000000001
#
# number of rings (size 3 to 8) (size 9 to 14) (size 15 to 20)
#    0.000    1.412    4.706    0.353    1.647    0.941 
#    0.000    2.353    0.000    2.824    0.000    0.000 
#    0.000    0.000    0.000    0.000    0.000    0.000 
#
# Total GULP energy -94663.700616 kJ/mol
# GULP energy per Si atom -5568.452977 kJ/mol
# Density = 1.984056 g / cm^3
# Si number density = 19.885819 Si / 1000 Ang^3
#
#
#
# Elastic Constant Matrix: (Units=GPa)
#
#
# Indices 1 2 3 4 5 6 
#
# 1 65.5841 6.9932 19.0569 -0.0027 -10.5224 0.0001
# 2 6.9932 52.0351 32.2404 -0.0183 1.6448 0.0061
# 3 19.0569 32.2404 116.7039 -0.0232 11.0705 0.0014
# 4 -0.0027 -0.0183 -0.0232 21.2530 0.0118 16.3423
# 5 -10.5224 1.6448 11.0705 0.0118 32.9165 -0.0050
# 6 0.0001 0.0061 0.0014 16.3423 -0.0050 4.7894
#
#
#
# Elastic Compliance Matrix: (Units=1/GPa)
#
#
# Indices 1 2 3 4 5 6 
#
# 1 0.017340 -0.000476 -0.003335 0.000007 0.006688 -0.000017
# 2 -0.000476 0.023233 -0.006421 -0.000020 0.000846 0.000043
# 3 -0.003335 -0.006421 0.011319 -0.000005 -0.004552 0.000019
# 4 0.000007 -0.000020 -0.000005 -0.028977 0.000031 0.098875
# 5 0.006688 0.000846 -0.004552 0.000031 0.034007 -0.000069
# 6 -0.000017 0.000043 0.000019 0.098875 -0.000069 -0.128586
#
#
# Mechanical properties :
#
#
# Convention : Reuss Voigt Hill
#
# Bulk Modulus (GPa) = 31.81690 38.98935 35.40313
# Shear Modulus (GPa) = -122.77839 23.52727 -49.62556
#
# Velocity S-wave (km/s) = -7.86611 3.44338 -5.00094
# Velocity P-wave (km/s) = 8.15269 5.95469 3.93752
#
# Compressibility (1/GPa) = 0.03142983
#
# Stress axis : x y z
#
# Youngs Moduli (GPa) = 57.66884 43.04151 88.34820
#
# Poissons Ratio (x) = 0.02048 0.29460
# Poissons Ratio (y) = 0.02744 0.56729
# Poissons Ratio (z) = 0.19230 0.27637
#
# Static dielectric constant tensor:
#      x y z
#    x 1.725420 -0.000320 0.019040 
#    y -0.000320 1.243420 -0.000100 
#    z 0.019040 -0.000100 1.730770 
# 
# From -- ./inp_files/284176.got.cif
#   From: 2010.05.17/outbox.cif.g08.bks.cpg/sg12_143_cif.got.tgz:284176.got - 2010.06.03 13:09:07.
