data_PCOD9211159
_publ_section_title
;
Structure prediction by ZEFSAII (Michael W. Deem and Ramdas Pophale) SiO2 
 PCOD9211159
Probable space group: C 2/M
;
_chemical_formula_sum "Si O2"
_cell_formula_units_Z 42
_cell_length_a 18.744652
_cell_length_b 17.249424
_cell_length_c 6.557603
_cell_angle_alpha 90.000000
_cell_angle_beta 100.344982
_cell_angle_gamma 90.000000
_cell_volume 2085.832143
_symmetry_space_group_name_H-M "C 2/M"
_symmetry_group_IT_number 12
_symmetry_cell_setting 'monoclinic'
loop_
_space_group_symop_operation_xyz
x,y,z
-x,y,-z
-x,-y,-z
x,-y,z
1/2+x,1/2+y,z
1/2-x,1/2+y,-z
1/2-x,1/2-y,-z
1/2+x,1/2-y,z
loop_
_atom_site_type_symbol
_atom_site_label
_atom_site_fract_x
_atom_site_fract_y
_atom_site_fract_z
Si Si1 0.213357 0.658341 0.240712
Si Si2 0.500000 0.000000 0.000000
Si Si3 0.567820 0.153845 0.930701
Si Si4 0.197472 0.171986 0.342494
Si Si5 0.919020 0.215994 0.373820
Si Si6 0.152966 0.089690 0.931642
O O1 0.222311 0.751790 0.231209
O O2 0.236844 0.640579 0.485200
O O3 0.269898 0.612263 0.130893
O O4 0.132483 0.642276 0.125411
O O5 0.534773 0.930501 0.873989
O O6 0.593825 0.203801 0.753449
O O7 0.500000 0.198988 0.000000
O O8 0.137274 0.202321 0.471469
O O9 0.162640 0.111008 0.172725
O O10 0.903795 0.146745 0.206263
O O11 0.000000 0.215405 0.500000
O O12 0.136375 0.000000 0.891060
#
# Coordination Sequence:
#
# PCOD9211159 Si02
#       6
#     8   2   8   8   8   8
#     4  10  21  39  67  92 126 168 215 259 313 381
#     4   8  24  40  66  96 134 158 206 252 326 388
#     4  10  21  42  67  94 129 169 204 259 318 383
#     4  10  22  39  66  97 121 167 223 259 312 386
#     4  11  24  41  71  95 123 171 220 263 316 389
#     4  11  25  42  63  95 135 169 215 272 321 369
#
# _framework density 20.135846999999998
#
# number of rings (size 3 to 8) (size 9 to 14) (size 15 to 20)
#    0.571    1.143    1.905    1.714    6.667    3.429 
#    0.000    1.429    2.095    0.000    0.000    0.000 
#    0.000    0.000    0.000    0.000    0.000    0.000 
#
# Total GULP energy -116902.126870 kJ/mol
# GULP energy per Si atom -5566.767946 kJ/mol
# Density = 2.009002 g / cm^3
# Si number density = 20.135847 Si / 1000 Ang^3
#
#
#
# Elastic Constant Matrix: (Units=GPa)
#
#
# Indices 1 2 3 4 5 6 
#
# 1 63.6744 16.4676 36.2048 0.0000 12.2612 0.0000
# 2 16.4676 137.8346 46.4398 0.0000 -7.2215 0.0000
# 3 36.2048 46.4398 97.7210 0.0000 7.2724 0.0000
# 4 0.0000 0.0000 0.0000 5.1043 0.0000 -0.8459
# 5 12.2612 -7.2215 7.2724 0.0000 35.9298 0.0000
# 6 0.0000 0.0000 0.0000 -0.8459 0.0000 12.4393
#
#
#
# Elastic Compliance Matrix: (Units=1/GPa)
#
#
# Indices 1 2 3 4 5 6 
#
# 1 0.020994 -0.000401 -0.007156 0.000000 -0.005796 0.000000
# 2 -0.000401 0.008893 -0.004286 0.000000 0.002792 0.000000
# 3 -0.007156 -0.004286 0.015030 0.000000 -0.001461 0.000000
# 4 0.000000 0.000000 0.000000 0.198145 0.000000 0.013475
# 5 -0.005796 0.002792 -0.001461 0.000000 0.030667 0.000000
# 6 0.000000 0.000000 0.000000 0.013475 0.000000 0.081307
#
#
# Mechanical properties :
#
#
# Convention : Reuss Voigt Hill
#
# Bulk Modulus (GPa) = 47.09939 55.27272 51.18605
# Shear Modulus (GPa) = 12.96019 24.03588 18.49803
#
# Velocity S-wave (km/s) = 2.53975 3.45872 3.03423
# Velocity P-wave (km/s) = 5.66057 6.59241 6.14418
#
# Compressibility (1/GPa) = 0.02123170
#
# Stress axis : x y z
#
# Youngs Moduli (GPa) = 47.63349 112.44656 66.53420
#
# Poissons Ratio (x) = 0.04507 0.47613
# Poissons Ratio (y) = 0.01909 0.28513
# Poissons Ratio (z) = 0.34087 0.48189
#
# Static dielectric constant tensor:
#      x y z
#    x 1.762830 0.000000 -0.019490 
#    y 0.000000 1.688310 0.000000 
#    z -0.019490 0.000000 1.761850 
# 
# From -- ./inp_files/20511.got.cif
#   From: 2010.05.17/outbox.cif.g08.bks.cpg/sg12_11_cif.got.tgz:20511.got - 2010.06.03 13:09:07.
