data_PCOD9211661
_publ_section_title
;
Structure prediction by ZEFSAII (Michael W. Deem and Ramdas Pophale) SiO2 
 PCOD9211661
Probable space group: C 2/M
;
_chemical_formula_sum "Si O2"
_cell_formula_units_Z 52
_cell_length_a 27.537530
_cell_length_b 16.287855
_cell_length_c 5.599963
_cell_angle_alpha 90.000000
_cell_angle_beta 93.487204
_cell_angle_gamma 90.000000
_cell_volume 2507.085549
_symmetry_space_group_name_H-M "C 2/M"
_symmetry_group_IT_number 12
_symmetry_cell_setting 'monoclinic'
loop_
_space_group_symop_operation_xyz
x,y,z
-x,y,-z
-x,-y,-z
x,-y,z
1/2+x,1/2+y,z
1/2-x,1/2+y,-z
1/2-x,1/2-y,-z
1/2+x,1/2-y,z
loop_
_atom_site_type_symbol
_atom_site_label
_atom_site_fract_x
_atom_site_fract_y
_atom_site_fract_z
Si Si1 0.969420 0.500000 0.244855
Si Si2 0.205337 0.838332 0.072318
Si Si3 0.901853 0.000000 0.279651
Si Si4 0.627243 0.771234 0.315477
Si Si5 0.842620 0.000000 0.764097
Si Si6 0.944377 0.174675 0.401389
Si Si7 0.944040 0.331141 0.068829
Si Si8 0.292477 0.765585 0.323502
O O1 0.940804 0.413900 0.223105
O O2 0.000000 0.500000 0.500000
O O3 0.000000 0.500000 0.000000
O O4 0.168619 0.769618 0.165197
O O5 0.262623 0.821443 0.129218
O O6 0.190054 0.920293 0.197778
O O7 0.195939 0.823400 0.789027
O O8 0.867330 0.000000 0.508907
O O9 0.932415 0.083984 0.308228
O O10 0.878051 0.000000 0.008430
O O11 0.591248 0.699451 0.393238
O O12 0.659236 0.802453 0.548133
O O13 0.593512 0.833528 0.161803
O O14 0.934868 0.246668 0.206865
O O15 0.000000 0.180477 0.500000
O O16 0.000000 0.325650 0.000000
O O17 0.250000 0.750000 0.500000
#
# Coordination Sequence:
#
# PCOD9211661 Si02
#       8
#     4   8   4   8   4   8   8   8
#     4  10  24  44  67  95 129 171 229 297 357 421
#     4  10  21  40  64  97 129 177 227 284 345 424
#     4  12  27  42  64 100 148 194 243 293 338 403
#     4  11  20  38  64  94 133 177 229 282 349 419
#     4  12  24  42  68  99 141 187 230 285 353 416
#     4  12  24  41  63  96 141 197 242 291 340 409
#     4  11  23  40  66  96 131 182 236 294 354 420
#     4   9  20  38  66  92 123 165 225 282 349 419
#
# _framework density 20.741215
#
# number of rings (size 3 to 8) (size 9 to 14) (size 15 to 20)
#    0.000    1.231    3.077    3.462    4.308    0.000 
#    0.000    1.923    0.000   12.923    0.000    0.000 
#    0.000    0.000    0.000    0.000    0.000    0.000 
#
# Total GULP energy -144964.393458 kJ/mol
# GULP energy per Si atom -5575.553595 kJ/mol
# Density = 2.069401 g / cm^3
# Si number density = 20.741215 Si / 1000 Ang^3
#
#
#
# Elastic Constant Matrix: (Units=GPa)
#
#
# Indices 1 2 3 4 5 6 
#
# 1 121.5083 25.1896 41.5562 0.0000 24.9553 0.0000
# 2 25.1896 102.2275 38.6072 0.0000 16.0279 0.0000
# 3 41.5562 38.6072 88.8238 0.0000 26.6133 0.0000
# 4 0.0000 0.0000 0.0000 35.7582 0.0000 -10.0161
# 5 24.9553 16.0279 26.6133 0.0000 54.8102 0.0000
# 6 0.0000 0.0000 0.0000 -10.0161 0.0000 33.8925
#
#
#
# Elastic Compliance Matrix: (Units=1/GPa)
#
#
# Indices 1 2 3 4 5 6 
#
# 1 0.010172 -0.000710 -0.003657 0.000000 -0.002648 0.000000
# 2 -0.000710 0.011811 -0.004521 0.000000 -0.000935 0.000000
# 3 -0.003657 -0.004521 0.016429 0.000000 -0.004990 0.000000
# 4 0.000000 0.000000 0.000000 0.030490 0.000000 0.009010
# 5 -0.002648 -0.000935 -0.004990 0.000000 0.022147 0.000000
# 6 0.000000 0.000000 0.000000 0.009010 0.000000 0.032168
#
#
# Mechanical properties :
#
#
# Convention : Reuss Voigt Hill
#
# Bulk Modulus (GPa) = 48.45935 58.14062 53.29998
# Shear Modulus (GPa) = 33.81315 38.70594 36.25954
#
# Velocity S-wave (km/s) = 4.04200 4.32457 4.18567
# Velocity P-wave (km/s) = 6.72296 7.28204 7.00808
#
# Compressibility (1/GPa) = 0.02063585
#
# Stress axis : x y z
#
# Youngs Moduli (GPa) = 98.31341 84.66511 60.86652
#
# Poissons Ratio (x) = 0.06013 0.22257
# Poissons Ratio (y) = 0.06982 0.27519
# Poissons Ratio (z) = 0.35950 0.38279
#
# Static dielectric constant tensor:
#      x y z
#    x 1.745260 0.000000 0.000230 
#    y 0.000000 1.760650 0.000000 
#    z 0.000230 0.000000 1.963920 
# 
# From -- ./inp_files/28582.got.cif
#   From: 2010.05.17/outbox.cif.g08.bks.cpg/sg12_15_cif.got.tgz:28582.got - 2010.06.03 13:09:07.
