data_PCOD9211668
_publ_section_title
;
Structure prediction by ZEFSAII (Michael W. Deem and Ramdas Pophale) SiO2 
 PCOD9211668
Probable space group: C 2/M
;
_chemical_formula_sum "Si O2"
_cell_formula_units_Z 30
_cell_length_a 7.473257
_cell_length_b 16.577794
_cell_length_c 10.460599
_cell_angle_alpha 90.000000
_cell_angle_beta 76.209959
_cell_angle_gamma 90.000000
_cell_volume 1258.609569
_symmetry_space_group_name_H-M "C 2/M"
_symmetry_group_IT_number 12
_symmetry_cell_setting 'monoclinic'
loop_
_space_group_symop_operation_xyz
x,y,z
-x,y,-z
-x,-y,-z
x,-y,z
1/2+x,1/2+y,z
1/2-x,1/2+y,-z
1/2-x,1/2-y,-z
1/2+x,1/2-y,z
loop_
_atom_site_type_symbol
_atom_site_label
_atom_site_fract_x
_atom_site_fract_y
_atom_site_fract_z
Si Si1 0.095931 0.704191 0.730255
Si Si2 0.244174 0.865385 0.650619
Si Si3 0.640803 0.409486 0.174524
Si Si4 0.500000 0.000000 0.500000
Si Si5 0.500000 0.302926 0.000000
O O1 0.156305 0.778379 0.629169
O O2 0.251545 0.639189 0.734954
O O3 0.912450 0.661256 0.713771
O O4 0.061303 0.748237 0.871914
O O5 0.074891 0.908264 0.751541
O O6 0.339244 0.928285 0.539355
O O7 0.710030 0.500000 0.151785
O O8 0.651136 0.361530 0.038800
#
# Coordination Sequence:
#
# PCOD9211668 Si02
#       5
#     8   8   8   2   4
#     4  11  23  43  71  97 138 176 219 260 331 408
#     4  11  24  45  68  96 132 170 226 282 321 392
#     4  11  23  40  65 102 138 177 216 266 319 395
#     4  12  28  48  70  96 130 162 232 300 330 366
#     4  10  21  40  65 102 140 180 212 257 322 403
#
# _framework density 23.835826999999998
#
# number of rings (size 3 to 8) (size 9 to 14) (size 15 to 20)
#    0.000    1.067    6.667    1.200    5.600    1.067 
#    0.000    2.000    0.000    0.000    0.000    0.000 
#    0.000    0.000    0.000    0.000    0.000    0.000 
#
# Total GULP energy -83523.197308 kJ/mol
# GULP energy per Si atom -5568.213154 kJ/mol
# Density = 2.378158 g / cm^3
# Si number density = 23.835827 Si / 1000 Ang^3
#
#
#
# Elastic Constant Matrix: (Units=GPa)
#
#
# Indices 1 2 3 4 5 6 
#
# 1 104.8300 45.4064 -13.3489 0.0000 -9.3032 0.0000
# 2 45.4064 172.2509 24.5455 0.0000 6.5873 0.0000
# 3 -13.3489 24.5455 68.1161 0.0000 -20.6480 0.0000
# 4 0.0000 0.0000 0.0000 8.2378 0.0000 -6.6408
# 5 -9.3032 6.5873 -20.6480 0.0000 19.4482 0.0000
# 6 0.0000 0.0000 0.0000 -6.6408 0.0000 2.3044
#
#
#
# Elastic Compliance Matrix: (Units=1/GPa)
#
#
# Indices 1 2 3 4 5 6 
#
# 1 0.016459 -0.007140 0.013150 0.000000 0.024253 0.000000
# 2 -0.007140 0.009832 -0.010303 0.000000 -0.017684 0.000000
# 3 0.013150 -0.010303 0.035293 0.000000 0.047251 0.000000
# 4 0.000000 0.000000 0.000000 -0.091748 0.000000 -0.264395
# 5 0.024253 -0.017684 0.047251 0.000000 0.119175 0.000000
# 6 0.000000 0.000000 0.000000 -0.264395 0.000000 -0.327976
#
#
# Mechanical properties :
#
#
# Convention : Reuss Voigt Hill
#
# Bulk Modulus (GPa) = 18.86831 50.93368 34.90100
# Shear Modulus (GPa) = -23.50579 25.23770 0.86596
#
# Velocity S-wave (km/s) = -3.14371 3.25747 0.60340
# Velocity P-wave (km/s) = 2.29001 5.96348 3.89352
#
# Compressibility (1/GPa) = 0.05299890
#
# Stress axis : x y z
#
# Youngs Moduli (GPa) = 60.75818 101.70870 28.33390
#
# Poissons Ratio (x) = 0.72619 -0.37259
# Poissons Ratio (y) = 0.43381 0.29191
# Poissons Ratio (z) = -0.79897 1.04787
#
# Static dielectric constant tensor:
#      x y z
#    x 1.887160 0.000000 -0.025540 
#    y 0.000000 1.145700 0.000000 
#    z -0.025540 0.000000 1.960030 
# 
# From -- ./inp_files/117694.got.cif
#   From: 2010.05.17/outbox.cif.g08.bks.cpg/sg12_59_cif.got.tgz:117694.got - 2010.06.03 13:09:07.
