data_PCOD9211693
_publ_section_title
;
Structure prediction by ZEFSAII (Michael W. Deem and Ramdas Pophale) SiO2 
 PCOD9211693
Probable space group: C 2/M
;
_chemical_formula_sum "Si O2"
_cell_formula_units_Z 48
_cell_length_a 17.253756
_cell_length_b 16.964132
_cell_length_c 15.071275
_cell_angle_alpha 90.000000
_cell_angle_beta 27.883588
_cell_angle_gamma 90.000000
_cell_volume 2063.055793
_symmetry_space_group_name_H-M "C 2/M"
_symmetry_group_IT_number 12
_symmetry_cell_setting 'monoclinic'
loop_
_space_group_symop_operation_xyz
x,y,z
-x,y,-z
-x,-y,-z
x,-y,z
1/2+x,1/2+y,z
1/2-x,1/2+y,-z
1/2-x,1/2-y,-z
1/2+x,1/2-y,z
loop_
_atom_site_type_symbol
_atom_site_label
_atom_site_fract_x
_atom_site_fract_y
_atom_site_fract_z
Si Si1 0.662178 0.411800 0.276563
Si Si2 0.432418 0.903700 0.300457
Si Si3 0.342117 0.786352 0.040288
Si Si4 0.078346 0.657844 0.324239
Si Si5 0.931553 0.088398 0.354713
Si Si6 0.564791 0.616791 0.028189
O O1 0.500000 0.410643 0.500000
O O2 0.732609 0.500000 0.204995
O O3 0.788305 0.343646 0.175099
O O4 0.589856 0.388573 0.252697
O O5 0.450740 0.880220 0.385186
O O6 0.250535 0.875785 0.451783
O O7 0.452495 0.000000 0.269787
O O8 0.569112 0.848992 0.114136
O O9 0.172799 0.735794 0.190476
O O10 0.458049 0.712230 0.943566
O O11 0.000000 0.673367 0.500000
O O12 0.238501 0.601428 0.169251
O O13 0.980326 0.087251 0.202714
O O14 0.904383 0.000000 0.415672
O O15 0.500000 0.588814 0.000000
#
# Coordination Sequence:
#
# PCOD9211693 Si02
#       6
#     8   8   8   8   8   8
#     4  10  21  40  65  90 123 168 209 255 315 375
#     4  11  23  41  65  92 127 168 212 262 313 375
#     4  10  23  39  59  92 124 161 210 257 310 371
#     4  10  22  40  63  92 128 161 211 256 320 376
#     4  10  23  41  63  93 126 165 212 259 315 379
#     4  10  23  40  62  93 126 169 206 258 319 373
#
# _framework density 23.266458
#
# number of rings (size 3 to 8) (size 9 to 14) (size 15 to 20)
#    1.000    0.833    0.000    3.500    2.333    4.667 
#    0.000    0.000    0.000    5.000    0.000    0.000 
#    0.000    0.000    0.000    0.000    0.000    0.000 
#
# Total GULP energy -133606.653219 kJ/mol
# GULP energy per Si atom -5566.943884 kJ/mol
# Density = 2.321350 g / cm^3
# Si number density = 23.266458 Si / 1000 Ang^3
#
#
#
# Elastic Constant Matrix: (Units=GPa)
#
#
# Indices 1 2 3 4 5 6 
#
# 1 27.4172 2.8833 9.2830 0.0007 10.3242 0.0006
# 2 2.8833 121.8836 18.1600 -0.0007 1.4415 0.0005
# 3 9.2830 18.1600 104.7163 0.0005 2.7258 0.0007
# 4 0.0007 -0.0007 0.0005 34.1420 -0.0010 2.7163
# 5 10.3242 1.4415 2.7258 -0.0010 34.4637 0.0002
# 6 0.0006 0.0005 0.0007 2.7163 0.0002 0.3557
#
#
#
# Elastic Compliance Matrix: (Units=1/GPa)
#
#
# Indices 1 2 3 4 5 6 
#
# 1 0.042319 -0.000353 -0.003368 0.000008 -0.012396 -0.000114
# 2 -0.000353 0.008427 -0.001427 0.000002 -0.000134 -0.000027
# 3 -0.003368 -0.001427 0.010089 0.000003 0.000271 -0.000033
# 4 0.000008 0.000002 0.000003 0.074632 0.000004 -0.569932
# 5 -0.012396 -0.000134 0.000271 0.000004 0.032714 -0.000030
# 6 -0.000114 -0.000027 -0.000033 -0.569932 -0.000030 7.163733
#
#
# Mechanical properties :
#
#
# Convention : Reuss Voigt Hill
#
# Bulk Modulus (GPa) = 19.78627 34.96332 27.37479
# Shear Modulus (GPa) = 0.67944 28.70499 14.69221
#
# Velocity S-wave (km/s) = 0.54098 3.51629 2.51564
# Velocity P-wave (km/s) = 2.98544 5.61655 4.49770
#
# Compressibility (1/GPa) = 0.05054009
#
# Stress axis : x y z
#
# Youngs Moduli (GPa) = 23.63022 118.66558 99.12248
#
# Poissons Ratio (x) = 0.04186 0.33381
# Poissons Ratio (y) = 0.00834 0.14142
# Poissons Ratio (z) = 0.07958 0.16930
#
# Static dielectric constant tensor:
#      x y z
#    x 1.993850 0.000000 -0.042330 
#    y 0.000000 1.893780 0.000000 
#    z -0.042330 0.000000 1.903220 
# 
# From -- ./inp_files/226733.got.cif
#   From: 2010.05.17/outbox.cif.g08.bks.cpg/sg12_114_cif.got.tgz:226733.got - 2010.06.03 13:09:07.
