data_PCOD9211010
_publ_section_title
;
Structure prediction by ZEFSAII (Michael W. Deem and Ramdas Pophale) SiO2 
 PCOD9211010
Probable space group: C 2/M
;
_chemical_formula_sum "Si O2"
_cell_formula_units_Z 40
_cell_length_a 14.020626
_cell_length_b 22.722395
_cell_length_c 8.130860
_cell_angle_alpha 90.000000
_cell_angle_beta 40.574618
_cell_angle_gamma 90.000000
_cell_volume 1684.859780
_symmetry_space_group_name_H-M "C 2/M"
_symmetry_group_IT_number 12
_symmetry_cell_setting 'monoclinic'
loop_
_space_group_symop_operation_xyz
x,y,z
-x,y,-z
-x,-y,-z
x,-y,z
1/2+x,1/2+y,z
1/2-x,1/2+y,-z
1/2-x,1/2-y,-z
1/2+x,1/2-y,z
loop_
_atom_site_type_symbol
_atom_site_label
_atom_site_fract_x
_atom_site_fract_y
_atom_site_fract_z
Si Si1 0.672721 0.567840 0.744472
Si Si2 0.664042 0.672631 0.236571
Si Si3 0.683440 0.066785 0.083420
Si Si4 0.070846 0.638192 0.725201
Si Si5 0.587994 0.746035 0.034211
O O1 0.685642 0.500000 0.662939
O O2 0.749843 0.568313 0.822040
O O3 0.764044 0.614748 0.515216
O O4 0.500000 0.579486 0.000000
O O5 0.500000 0.681214 0.500000
O O6 0.663968 0.699303 0.052373
O O7 0.709558 0.605415 0.169861
O O8 0.778366 0.710782 0.191233
O O9 0.528579 0.098973 0.266251
O O10 0.669513 0.000000 0.047836
O O11 0.028202 0.706148 0.738821
O O12 0.000000 0.627864 0.000000
O O13 0.500000 0.718484 0.000000
#
# Coordination Sequence:
#
# PCOD9211010 Si02
#       5
#     8   8   8   8   8
#     4  10  22  39  60  90 127 166 207 250 301 363
#     4  10  22  39  60  89 121 156 206 260 306 361
#     4  10  22  39  59  86 123 165 204 246 304 370
#     4  10  21  39  65  94 123 161 208 252 301 366
#     4   9  21  40  61  87 118 156 203 254 311 370
#
# _framework density 23.740848
#
# number of rings (size 3 to 8) (size 9 to 14) (size 15 to 20)
#    0.000    2.200    0.000    1.200    0.000   14.800 
#    0.000    2.000    0.000    0.000    0.000    0.000 
#    0.000    0.000    0.000    0.000    0.000    0.000 
#
# Total GULP energy -111725.062481 kJ/mol
# GULP energy per Si atom -5586.253124 kJ/mol
# Density = 2.368681 g / cm^3
# Si number density = 23.740848 Si / 1000 Ang^3
#
#
#
# Elastic Constant Matrix: (Units=GPa)
#
#
# Indices 1 2 3 4 5 6 
#
# 1 100.6597 3.4976 7.8924 0.0000 -16.1240 0.0000
# 2 3.4976 108.2372 7.2849 0.0000 -4.5851 0.0000
# 3 7.8924 7.2849 85.5594 0.0000 -30.8916 0.0000
# 4 0.0000 0.0000 0.0000 32.9355 0.0000 -17.4517
# 5 -16.1240 -4.5851 -30.8916 0.0000 28.6208 0.0000
# 6 0.0000 0.0000 0.0000 -17.4517 0.0000 29.9460
#
#
#
# Elastic Compliance Matrix: (Units=1/GPa)
#
#
# Indices 1 2 3 4 5 6 
#
# 1 0.011133 -0.000139 0.002034 0.000000 0.008445 0.000000
# 2 -0.000139 0.009313 -0.000442 0.000000 0.000937 0.000000
# 3 0.002034 -0.000442 0.019541 0.000000 0.022167 0.000000
# 4 0.000000 0.000000 0.000000 0.043927 0.000000 0.025599
# 5 0.008445 0.000937 0.022167 0.000000 0.063773 0.000000
# 6 0.000000 0.000000 0.000000 0.025599 0.000000 0.048312
#
#
# Mechanical properties :
#
#
# Convention : Reuss Voigt Hill
#
# Bulk Modulus (GPa) = 23.31394 36.86734 30.09064
# Shear Modulus (GPa) = 24.10924 36.68589 30.39757
#
# Velocity S-wave (km/s) = 3.19018 3.93525 3.58214
# Velocity P-wave (km/s) = 4.83850 6.01756 5.45995
#
# Compressibility (1/GPa) = 0.04289279
#
# Stress axis : x y z
#
# Youngs Moduli (GPa) = 89.82685 107.37812 51.17408
#
# Poissons Ratio (x) = 0.01491 -0.10408
# Poissons Ratio (y) = 0.01248 0.02261
# Poissons Ratio (z) = -0.18270 0.04745
#
# Static dielectric constant tensor:
#      x y z
#    x 1.983100 0.000000 0.103870 
#    y 0.000000 1.914200 0.000000 
#    z 0.103870 0.000000 2.014140 
# 
# From -- ./inp_files/65084.got.cif
#   From: 2010.05.17/outbox.cif.g08.bks.cpg/sg12_33_cif.got.tgz:65084.got - 2010.06.03 13:09:07.
