data_PCOD9211565
_publ_section_title
;
Structure prediction by ZEFSAII (Michael W. Deem and Ramdas Pophale) SiO2 
 PCOD9211565
Probable space group: C 2/M
;
_chemical_formula_sum "Si O2"
_cell_formula_units_Z 32
_cell_length_a 17.496575
_cell_length_b 23.002378
_cell_length_c 8.275882
_cell_angle_alpha 90.000000
_cell_angle_beta 27.508545
_cell_angle_gamma 90.000000
_cell_volume 1538.402821
_symmetry_space_group_name_H-M "C 2/M"
_symmetry_group_IT_number 12
_symmetry_cell_setting 'monoclinic'
loop_
_space_group_symop_operation_xyz
x,y,z
-x,y,-z
-x,-y,-z
x,-y,z
1/2+x,1/2+y,z
1/2-x,1/2+y,-z
1/2-x,1/2-y,-z
1/2+x,1/2-y,z
loop_
_atom_site_type_symbol
_atom_site_label
_atom_site_fract_x
_atom_site_fract_y
_atom_site_fract_z
Si Si1 0.929592 0.432693 0.451407
Si Si2 0.710165 0.337391 0.768214
Si Si3 0.143238 0.345388 0.841980
Si Si4 0.088121 0.226714 0.507524
O O1 0.910158 0.500000 0.443858
O O2 0.758284 0.396839 0.767305
O O3 0.000000 0.429008 0.500000
O O4 0.053969 0.400089 0.092923
O O5 0.726722 0.353717 0.548435
O O6 0.852268 0.291289 0.558953
O O7 0.543816 0.304880 0.129174
O O8 0.241358 0.309731 0.793462
O O9 0.000000 0.315452 0.000000
O O10 0.000000 0.225927 0.500000
#
# Coordination Sequence:
#
# PCOD9211565 Si02
#       4
#     8   8   8   8
#     4  10  21  40  64  89 120 160 205 251 303 362
#     4  11  22  37  60  91 126 160 202 248 305 362
#     4  10  22  39  61  89 122 160 199 245 302 361
#     4  12  23  39  63  93 127 160 202 252 305 361
#
# _framework density 20.800792999999999
#
# number of rings (size 3 to 8) (size 9 to 14) (size 15 to 20)
#    0.000    1.250    0.000    7.500    0.000    6.500 
#    0.000    1.250    0.000   12.000    0.000    0.000 
#    0.000    0.000    0.000    0.000    0.000    0.000 
#
# Total GULP energy -89177.070031 kJ/mol
# GULP energy per Si atom -5573.566877 kJ/mol
# Density = 2.075345 g / cm^3
# Si number density = 20.800793 Si / 1000 Ang^3
#
#
#
# Elastic Constant Matrix: (Units=GPa)
#
#
# Indices 1 2 3 4 5 6 
#
# 1 115.3101 48.9962 22.1539 -0.0014 -17.4714 0.0002
# 2 48.9962 148.6498 36.9569 -0.0002 -12.7960 -0.0005
# 3 22.1539 36.9569 87.6820 -0.0034 -5.0394 0.0008
# 4 -0.0014 -0.0002 -0.0034 18.9918 0.0015 16.9766
# 5 -17.4714 -12.7960 -5.0394 0.0015 36.8026 -0.0001
# 6 0.0002 -0.0005 0.0008 16.9766 -0.0001 13.5006
#
#
#
# Elastic Compliance Matrix: (Units=1/GPa)
#
#
# Indices 1 2 3 4 5 6 
#
# 1 0.010736 -0.002885 -0.001271 -0.000003 0.003920 0.000003
# 2 -0.002885 0.008470 -0.002772 0.000009 0.001196 -0.000011
# 3 -0.001271 -0.002772 0.012906 -0.000024 0.000200 0.000029
# 4 -0.000003 0.000009 -0.000024 -0.424485 0.000017 0.533777
# 5 0.003920 0.001196 0.000200 0.000017 0.029476 -0.000022
# 6 0.000003 -0.000011 0.000029 0.533777 -0.000022 -0.597139
#
#
# Mechanical properties :
#
#
# Convention : Reuss Voigt Hill
#
# Bulk Modulus (GPa) = 54.78002 63.09508 58.93755
# Shear Modulus (GPa) = -5.31863 30.09465 12.38801
#
# Velocity S-wave (km/s) = -1.60078 3.80781 2.44305
# Velocity P-wave (km/s) = 4.79334 7.05205 6.02941
#
# Compressibility (1/GPa) = 0.01825483
#
# Stress axis : x y z
#
# Youngs Moduli (GPa) = 93.14101 118.05728 77.48285
#
# Poissons Ratio (x) = 0.34064 0.09850
# Poissons Ratio (y) = 0.26874 0.21482
# Poissons Ratio (z) = 0.11841 0.32731
#
# Static dielectric constant tensor:
#      x y z
#    x 1.787790 0.000000 0.004060 
#    y 0.000000 1.727800 0.000000 
#    z 0.004060 0.000000 1.901450 
# 
# From -- ./inp_files/37664.got.cif
#   From: 2010.05.17/outbox.cif.g08.bks.cpg/sg12_19_cif.got.tgz:37664.got - 2010.06.03 13:09:07.
