data_PCOD9211651
_publ_section_title
;
Structure prediction by ZEFSAII (Michael W. Deem and Ramdas Pophale) SiO2 
 PCOD9211651
Probable space group: C 2/M
;
_chemical_formula_sum "Si O2"
_cell_formula_units_Z 64
_cell_length_a 31.013820
_cell_length_b 14.183404
_cell_length_c 9.212247
_cell_angle_alpha 90.000000
_cell_angle_beta 134.071485
_cell_angle_gamma 90.000000
_cell_volume 2911.464440
_symmetry_space_group_name_H-M "C 2/M"
_symmetry_group_IT_number 12
_symmetry_cell_setting 'monoclinic'
loop_
_space_group_symop_operation_xyz
x,y,z
-x,y,-z
-x,-y,-z
x,-y,z
1/2+x,1/2+y,z
1/2-x,1/2+y,-z
1/2-x,1/2-y,-z
1/2+x,1/2-y,z
loop_
_atom_site_type_symbol
_atom_site_label
_atom_site_fract_x
_atom_site_fract_y
_atom_site_fract_z
Si Si1 0.265671 0.611184 0.410601
Si Si2 0.051534 0.213431 0.448470
Si Si3 0.578877 0.270654 0.956766
Si Si4 0.627462 0.104085 0.585352
Si Si5 0.403037 0.386968 0.734531
Si Si6 0.250348 0.140316 0.967115
Si Si7 0.853645 0.612129 0.714898
Si Si8 0.128251 0.104654 0.845218
O O1 0.270172 0.500000 0.450947
O O2 0.333437 0.646027 0.587241
O O3 0.247804 0.623561 0.200437
O O4 0.212839 0.645031 0.391840
O O5 0.089663 0.308999 0.558666
O O6 0.070691 0.167088 0.340946
O O7 0.073286 0.135979 0.614710
O O8 0.982030 0.240543 0.276397
O O9 0.629696 0.316061 0.972750
O O10 0.565921 0.349719 0.047957
O O11 0.600098 0.176261 0.086712
O O12 0.637187 0.121179 0.436056
O O13 0.599286 0.000000 0.536213
O O14 0.691456 0.102003 0.815056
O O15 0.406223 0.500000 0.725091
O O16 0.188035 0.103778 0.888248
O O17 0.250000 0.250000 0.000000
O O18 0.859793 0.500000 0.764095
O O19 0.119441 0.000000 0.886595
#
# Coordination Sequence:
#
# PCOD9211651 Si02
#       8
#     8   8   8   8   8   8   8   8
#     4  10  21  40  64  94 128 164 209 264 330 395
#     4  12  25  46  65  93 131 177 226 271 325 390
#     4  12  27  43  65  95 132 174 229 273 322 394
#     4  11  24  43  69 101 133 171 221 274 332 398
#     4  11  23  41  66  95 128 169 217 273 334 396
#     4  12  22  41  69  99 133 172 213 269 335 399
#     4  10  24  44  68  98 134 172 215 277 337 393
#     4  12  26  45  69  99 135 175 220 274 334 396
#
# _framework density 21.982064999999999
#
# number of rings (size 3 to 8) (size 9 to 14) (size 15 to 20)
#    0.000    0.750    3.750    3.375    1.750    4.000 
#    0.000    1.250    0.000    1.500    0.000    0.000 
#    0.000    0.000    0.000    0.000    0.000    0.000 
#
# Total GULP energy -179002.958718 kJ/mol
# GULP energy per Si atom -5593.842460 kJ/mol
# Density = 2.193203 g / cm^3
# Si number density = 21.982065 Si / 1000 Ang^3
#
#
#
# Elastic Constant Matrix: (Units=GPa)
#
#
# Indices 1 2 3 4 5 6 
#
# 1 41.8794 14.3487 0.6725 0.0000 11.7472 0.0000
# 2 14.3487 113.1065 13.0664 0.0000 15.6566 0.0000
# 3 0.6725 13.0664 85.9427 0.0000 19.4020 0.0000
# 4 0.0000 0.0000 0.0000 30.8940 0.0000 -9.3668
# 5 11.7472 15.6566 19.4020 0.0000 35.6736 0.0000
# 6 0.0000 0.0000 0.0000 -9.3668 0.0000 7.6058
#
#
#
# Elastic Compliance Matrix: (Units=1/GPa)
#
#
# Indices 1 2 3 4 5 6 
#
# 1 0.027234 -0.002451 0.002213 0.000000 -0.009096 0.000000
# 2 -0.002451 0.009658 -0.000769 0.000000 -0.003013 0.000000
# 3 0.002213 -0.000769 0.013478 0.000000 -0.007722 0.000000
# 4 0.000000 0.000000 0.000000 0.051657 0.000000 0.063618
# 5 -0.009096 -0.003013 -0.007722 0.000000 0.036549 0.000000
# 6 0.000000 0.000000 0.000000 0.063618 0.000000 0.209828
#
#
# Mechanical properties :
#
#
# Convention : Reuss Voigt Hill
#
# Bulk Modulus (GPa) = 20.68010 33.01154 26.84582
# Shear Modulus (GPa) = 13.64113 29.02407 21.33260
#
# Velocity S-wave (km/s) = 2.49380 3.63761 3.11859
# Velocity P-wave (km/s) = 4.20954 5.71778 5.02062
#
# Compressibility (1/GPa) = 0.04835567
#
# Stress axis : x y z
#
# Youngs Moduli (GPa) = 36.71902 103.53925 74.19231
#
# Poissons Ratio (x) = 0.25383 -0.16419
# Poissons Ratio (y) = 0.09002 0.05705
# Poissons Ratio (z) = -0.08126 0.07961
#
# Static dielectric constant tensor:
#      x y z
#    x 1.822400 0.000000 0.007620 
#    y 0.000000 1.778680 0.000000 
#    z 0.007620 0.000000 1.778370 
# 
# From -- ./inp_files/112039.got.cif
#   From: 2010.05.17/outbox.cif.g08.bks.cpg/sg12_57_cif.got.tgz:112039.got - 2010.06.03 13:09:07.
