data_PCOD9211436
_publ_section_title
;
Structure prediction by ZEFSAII (Michael W. Deem and Ramdas Pophale) SiO2 
 PCOD9211436
Probable space group: C 2/M
;
_chemical_formula_sum "Si O2"
_cell_formula_units_Z 56
_cell_length_a 18.149389
_cell_length_b 13.738041
_cell_length_c 10.476542
_cell_angle_alpha 90.000000
_cell_angle_beta 107.853667
_cell_angle_gamma 90.000000
_cell_volume 2486.393903
_symmetry_space_group_name_H-M "C 2/M"
_symmetry_group_IT_number 12
_symmetry_cell_setting 'monoclinic'
loop_
_space_group_symop_operation_xyz
x,y,z
-x,y,-z
-x,-y,-z
x,-y,z
1/2+x,1/2+y,z
1/2-x,1/2+y,-z
1/2-x,1/2-y,-z
1/2+x,1/2-y,z
loop_
_atom_site_type_symbol
_atom_site_label
_atom_site_fract_x
_atom_site_fract_y
_atom_site_fract_z
Si Si1 0.547814 0.112702 0.656219
Si Si2 0.557834 0.500000 0.910347
Si Si3 0.174735 0.166520 0.478545
Si Si4 0.406512 0.105693 0.969191
Si Si5 0.079445 0.292828 0.253508
Si Si6 0.048635 0.000000 0.398263
Si Si7 0.718146 0.186572 0.691615
Si Si8 0.863734 0.810078 0.948554
O O1 0.500000 0.124326 0.500000
O O2 0.502522 0.178377 0.733856
O O3 0.636382 0.140529 0.682403
O O4 0.540851 0.000000 0.691288
O O5 0.507348 0.500000 0.754352
O O6 0.500000 0.500000 0.000000
O O7 0.609610 0.402011 0.955812
O O8 0.239401 0.137661 0.408886
O O9 0.203401 0.203014 0.631271
O O10 0.134845 0.261987 0.395771
O O11 0.106038 0.090859 0.436853
O O12 0.382923 0.120118 0.808337
O O13 0.372237 0.202603 0.015497
O O14 0.384827 0.000000 0.007730
O O15 0.500000 0.111043 0.000000
O O16 0.080137 0.206597 0.147259
O O17 0.000000 0.000000 0.500000
O O18 0.779458 0.180404 0.839464
#
# Coordination Sequence:
#
# PCOD9211436 Si02
#       8
#     8   4   8   8   8   4   8   8
#     4  11  22  34  59  94 135 190 247 303 372 427
#     4  12  22  44  76 116 144 191 262 305 364 456
#     4  10  22  42  63  97 140 190 239 305 371 439
#     4   9  18  35  61  93 128 173 234 295 357 430
#     4   9  19  36  58  94 131 172 239 293 363 417
#     4  12  30  46  78 114 144 193 252 317 378 430
#     4  10  21  40  62  97 141 187 240 296 365 450
#     4   9  22  37  66 103 134 189 238 298 369 435
#
# _framework density 22.522576999999998
#
# number of rings (size 3 to 8) (size 9 to 14) (size 15 to 20)
#    0.857    1.143    1.429    2.571    6.000    0.000 
#    1.286    0.000    0.000    3.429    0.000    0.000 
#    0.000    0.000    0.000    0.000    0.000    0.000 
#
# Total GULP energy -156139.768341 kJ/mol
# GULP energy per Si atom -5576.420298 kJ/mol
# Density = 2.247131 g / cm^3
# Si number density = 22.522577 Si / 1000 Ang^3
#
#
#
# Elastic Constant Matrix: (Units=GPa)
#
#
# Indices 1 2 3 4 5 6 
#
# 1 135.3456 40.8071 50.0512 0.0000 17.2182 0.0000
# 2 40.8071 122.8176 55.5112 0.0000 23.4198 0.0000
# 3 50.0512 55.5112 126.7623 0.0000 22.0369 0.0000
# 4 0.0000 0.0000 0.0000 31.6514 0.0000 52.2630
# 5 17.2182 23.4198 22.0369 0.0000 34.4328 0.0000
# 6 0.0000 0.0000 0.0000 52.2630 0.0000 115.7876
#
#
#
# Elastic Compliance Matrix: (Units=1/GPa)
#
#
# Indices 1 2 3 4 5 6 
#
# 1 0.009029 -0.001473 -0.002598 0.000000 -0.001850 0.000000
# 2 -0.001473 0.011073 -0.003473 0.000000 -0.004572 0.000000
# 3 -0.002598 -0.003473 0.011026 0.000000 -0.003395 0.000000
# 4 0.000000 0.000000 0.000000 0.124047 0.000000 -0.055991
# 5 -0.001850 -0.004572 -0.003395 0.000000 0.035250 0.000000
# 6 0.000000 0.000000 0.000000 -0.055991 0.000000 0.033909
#
#
# Mechanical properties :
#
#
# Convention : Reuss Voigt Hill
#
# Bulk Modulus (GPa) = 62.34400 75.29605 68.82003
# Shear Modulus (GPa) = 20.42754 52.27810 36.35282
#
# Velocity S-wave (km/s) = 3.01488 4.82305 4.02190
# Velocity P-wave (km/s) = 6.31348 8.03241 7.22426
#
# Compressibility (1/GPa) = 0.01604003
#
# Stress axis : x y z
#
# Youngs Moduli (GPa) = 110.75694 90.31029 90.69720
#
# Poissons Ratio (x) = 0.13299 0.23567
# Poissons Ratio (y) = 0.16310 0.31496
# Poissons Ratio (z) = 0.28779 0.31362
#
# Static dielectric constant tensor:
#      x y z
#    x 1.842500 0.000000 0.012690 
#    y 0.000000 1.773310 0.000000 
#    z 0.012690 0.000000 1.928110 
# 
# From -- ./inp_files/156776.got.cif
#   From: 2010.05.17/outbox.cif.g08.bks.cpg/sg12_79_cif.got.tgz:156776.got - 2010.06.03 13:09:07.
