data_PCOD9211186
_publ_section_title
;
Structure prediction by ZEFSAII (Michael W. Deem and Ramdas Pophale) SiO2 
 PCOD9211186
Probable space group: C 2/M
;
_chemical_formula_sum "Si O2"
_cell_formula_units_Z 56
_cell_length_a 8.956681
_cell_length_b 17.942677
_cell_length_c 23.060666
_cell_angle_alpha 90.000000
_cell_angle_beta 135.315374
_cell_angle_gamma 90.000000
_cell_volume 2606.078502
_symmetry_space_group_name_H-M "C 2/M"
_symmetry_group_IT_number 12
_symmetry_cell_setting 'monoclinic'
loop_
_space_group_symop_operation_xyz
x,y,z
-x,y,-z
-x,-y,-z
x,-y,z
1/2+x,1/2+y,z
1/2-x,1/2+y,-z
1/2-x,1/2-y,-z
1/2+x,1/2-y,z
loop_
_atom_site_type_symbol
_atom_site_label
_atom_site_fract_x
_atom_site_fract_y
_atom_site_fract_z
Si Si1 0.245083 0.810167 0.585898
Si Si2 0.803081 0.082944 0.899221
Si Si3 0.750512 0.728136 0.065316
Si Si4 0.866958 0.177461 0.801675
Si Si5 0.362318 0.584621 0.339785
Si Si6 0.015721 0.807071 0.719601
Si Si7 0.145647 0.415946 0.484735
O O1 0.253628 0.861071 0.646442
O O2 0.356889 0.732693 0.630214
O O3 0.363446 0.854954 0.567958
O O4 0.000000 0.801101 0.500000
O O5 0.664868 0.148377 0.890036
O O6 0.854561 0.114230 0.848418
O O7 0.714363 0.000000 0.870533
O O8 0.000000 0.077933 0.000000
O O9 0.893773 0.790746 0.132419
O O10 0.500000 0.727108 0.000000
O O11 0.750000 0.750000 0.000000
O O12 0.698761 0.241658 0.775109
O O13 0.865393 0.166246 0.731691
O O14 0.280399 0.500000 0.317750
O O15 0.371241 0.623252 0.279718
O O16 0.607415 0.581376 0.428447
O O17 0.091156 0.500000 0.448277
O O18 0.000000 0.400869 0.500000
#
# Coordination Sequence:
#
# PCOD9211186 Si02
#       7
#     8   8   8   8   8   8   8
#     4  10  22  41  64  88 121 173 224 271 317 385
#     4  10  21  39  68 100 131 168 213 258 308 379
#     4  11  19  38  68  96 121 169 208 250 306 381
#     4  12  23  41  63  97 133 165 210 260 323 385
#     4  10  22  41  61  84 121 166 214 269 325 381
#     4  12  25  40  61  94 129 172 214 269 326 384
#     4   9  19  35  60  91 120 158 216 278 329 378
#
# _framework density 21.488223999999999
#
# number of rings (size 3 to 8) (size 9 to 14) (size 15 to 20)
#    0.000    1.429    5.714    0.429    2.000    5.143 
#    0.000    3.571    0.000    3.429    0.000    0.000 
#    0.000    0.000    0.000    0.000    0.000    0.000 
#
# Total GULP energy -155957.768109 kJ/mol
# GULP energy per Si atom -5569.920290 kJ/mol
# Density = 2.143932 g / cm^3
# Si number density = 21.488224 Si / 1000 Ang^3
#
#
#
# Elastic Constant Matrix: (Units=GPa)
#
#
# Indices 1 2 3 4 5 6 
#
# 1 92.9234 35.1804 19.4768 0.0003 -26.7660 -0.0006
# 2 35.1804 98.5432 16.3792 -0.0001 -11.3054 0.0002
# 3 19.4768 16.3792 51.6520 -0.0003 -2.5644 0.0011
# 4 0.0003 -0.0001 -0.0003 71.0517 0.0000 -128.2002
# 5 -26.7660 -11.3054 -2.5644 0.0000 42.6819 0.0002
# 6 -0.0006 0.0002 0.0011 -128.2002 0.0002 276.2170
#
#
#
# Elastic Compliance Matrix: (Units=1/GPa)
#
#
# Indices 1 2 3 4 5 6 
#
# 1 0.015555 -0.003881 -0.004214 0.000000 0.008473 0.000000
# 2 -0.003881 0.011986 -0.002308 0.000000 0.000603 0.000000
# 3 -0.004214 -0.002308 0.021584 0.000000 -0.001957 0.000000
# 4 0.000000 0.000000 0.000000 0.086577 0.000000 0.040183
# 5 0.008473 0.000603 -0.001957 0.000000 0.028785 0.000000
# 6 0.000000 0.000000 0.000000 0.040183 0.000000 0.022270
#
#
# Mechanical properties :
#
#
# Convention : Reuss Voigt Hill
#
# Bulk Modulus (GPa) = 35.31072 42.79905 39.05489
# Shear Modulus (GPa) = 23.04129 89.46226 56.25178
#
# Velocity S-wave (km/s) = 3.27811 6.45938 5.12199
# Velocity P-wave (km/s) = 5.54944 8.69437 7.29343
#
# Compressibility (1/GPa) = 0.02832001
#
# Stress axis : x y z
#
# Youngs Moduli (GPa) = 64.28934 83.43131 46.33069
#
# Poissons Ratio (x) = 0.32376 0.19524
# Poissons Ratio (y) = 0.24948 0.10691
# Poissons Ratio (z) = 0.27092 0.19253
#
# Static dielectric constant tensor:
#      x y z
#    x 1.757710 0.000000 -0.004480 
#    y 0.000000 1.851960 0.000000 
#    z -0.004480 0.000000 1.834280 
# 
# From -- ./inp_files/333369.got.cif
#   From: 2010.05.17/outbox.cif.g08.bks.cpg/sg12_167_cif.got.tgz:333369.got - 2010.06.03 13:09:07.
