data_PCOD9211265
_publ_section_title
;
Structure prediction by ZEFSAII (Michael W. Deem and Ramdas Pophale) SiO2 
 PCOD9211265
Probable space group: C 2/M
;
_chemical_formula_sum "Si O2"
_cell_formula_units_Z 56
_cell_length_a 9.199495
_cell_length_b 30.487723
_cell_length_c 11.698816
_cell_angle_alpha 90.000000
_cell_angle_beta 123.827528
_cell_angle_gamma 90.000000
_cell_volume 2725.737554
_symmetry_space_group_name_H-M "C 2/M"
_symmetry_group_IT_number 12
_symmetry_cell_setting 'monoclinic'
loop_
_space_group_symop_operation_xyz
x,y,z
-x,y,-z
-x,-y,-z
x,-y,z
1/2+x,1/2+y,z
1/2-x,1/2+y,-z
1/2-x,1/2-y,-z
1/2+x,1/2-y,z
loop_
_atom_site_type_symbol
_atom_site_label
_atom_site_fract_x
_atom_site_fract_y
_atom_site_fract_z
Si Si1 0.191268 0.613187 0.601421
Si Si2 0.536145 0.571529 0.640954
Si Si3 0.301518 0.950450 0.956687
Si Si4 0.841771 0.167868 0.300110
Si Si5 0.676904 0.796936 0.005731
Si Si6 0.708641 0.372886 0.092815
Si Si7 0.265204 0.698432 0.492794
O O1 0.349605 0.586099 0.612604
O O2 0.235892 0.616908 0.754022
O O3 0.183418 0.661827 0.539836
O O4 0.000000 0.592796 0.500000
O O5 0.500000 0.551154 0.500000
O O6 0.660810 0.549759 0.790690
O O7 0.639982 0.616963 0.664059
O O8 0.303348 0.000000 0.005860
O O9 0.500000 0.940895 0.000000
O O10 0.247409 0.913690 0.024963
O O11 0.794393 0.177735 0.150544
O O12 0.716011 0.188140 0.340166
O O13 0.030565 0.188735 0.400140
O O14 0.500000 0.790704 0.000000
O O15 0.750000 0.750000 0.000000
O O16 0.683587 0.830695 0.903982
O O17 0.500000 0.363520 0.000000
O O18 0.250000 0.750000 0.500000
#
# Coordination Sequence:
#
# PCOD9211265 Si02
#       7
#     8   8   8   8   8   8   8
#     4  11  25  38  63 103 130 179 227 279 346 415
#     4  11  21  45  70  96 138 176 223 280 347 418
#     4  11  26  47  76 107 135 181 236 285 355 435
#     4  10  21  40  59  86 122 176 220 273 334 394
#     4  12  28  40  64  95 134 183 233 285 341 408
#     4  12  24  46  70  98 140 181 226 289 349 418
#     4  10  22  36  59  85 124 170 225 280 328 398
#
# _framework density 20.544896999999999
#
# number of rings (size 3 to 8) (size 9 to 14) (size 15 to 20)
#    0.000    1.000    5.714    1.714   10.000    0.571 
#    0.000    0.000    0.000    0.857    0.000    0.000 
#    0.000    0.000    0.000    0.000    0.000    0.000 
#
# Total GULP energy -156262.355219 kJ/mol
# GULP energy per Si atom -5580.798401 kJ/mol
# Density = 2.049814 g / cm^3
# Si number density = 20.544897 Si / 1000 Ang^3
#
#
#
# Elastic Constant Matrix: (Units=GPa)
#
#
# Indices 1 2 3 4 5 6 
#
# 1 141.6349 45.2429 48.4679 0.0000 -0.8234 0.0000
# 2 45.2429 103.0159 -2.9542 0.0000 -11.7121 0.0000
# 3 48.4679 -2.9542 110.8020 0.0000 -14.5096 0.0000
# 4 0.0000 0.0000 0.0000 20.6616 0.0000 -0.4623
# 5 -0.8234 -11.7121 -14.5096 0.0000 39.6718 0.0000
# 6 0.0000 0.0000 0.0000 -0.4623 0.0000 13.7523
#
#
#
# Elastic Compliance Matrix: (Units=1/GPa)
#
#
# Indices 1 2 3 4 5 6 
#
# 1 0.010409 -0.005076 -0.005101 0.000000 -0.003148 0.000000
# 2 -0.005076 0.012570 0.003180 0.000000 0.004769 0.000000
# 3 -0.005101 0.003180 0.012026 0.000000 0.005231 0.000000
# 4 0.000000 0.000000 0.000000 0.048435 0.000000 0.001628
# 5 -0.003148 0.004769 0.005231 0.000000 0.028463 0.000000
# 6 0.000000 0.000000 0.000000 0.001628 0.000000 0.072770
#
#
# Mechanical properties :
#
#
# Convention : Reuss Voigt Hill
#
# Bulk Modulus (GPa) = 47.59255 59.66289 53.62772
# Shear Modulus (GPa) = 24.31089 32.46356 28.38722
#
# Velocity S-wave (km/s) = 3.44365 3.97939 3.72118
# Velocity P-wave (km/s) = 6.24717 7.08642 6.67999
#
# Compressibility (1/GPa) = 0.02101169
#
# Stress axis : x y z
#
# Youngs Moduli (GPa) = 96.07172 79.55649 83.15236
#
# Poissons Ratio (x) = 0.40380 0.42413
# Poissons Ratio (y) = 0.48762 -0.26441
# Poissons Ratio (z) = 0.49003 -0.25297
#
# Static dielectric constant tensor:
#      x y z
#    x 1.819030 0.000000 -0.156820 
#    y 0.000000 -0.436510 0.000000 
#    z -0.156820 0.000000 2.346800 
# 
# From -- ./inp_files/125836.got.cif
#   From: 2010.05.17/outbox.cif.g08.bks.cpg/sg12_63_cif.got.tgz:125836.got - 2010.06.03 13:09:07.
