data_PCOD9211438
_publ_section_title
;
Structure prediction by ZEFSAII (Michael W. Deem and Ramdas Pophale) SiO2 
 PCOD9211438
Probable space group: C 2/M
;
_chemical_formula_sum "Si O2"
_cell_formula_units_Z 64
_cell_length_a 28.806115
_cell_length_b 9.665507
_cell_length_c 16.098883
_cell_angle_alpha 90.000000
_cell_angle_beta 135.362753
_cell_angle_gamma 90.000000
_cell_volume 3149.364832
_symmetry_space_group_name_H-M "C 2/M"
_symmetry_group_IT_number 12
_symmetry_cell_setting 'monoclinic'
loop_
_space_group_symop_operation_xyz
x,y,z
-x,y,-z
-x,-y,-z
x,-y,z
1/2+x,1/2+y,z
1/2-x,1/2+y,-z
1/2-x,1/2-y,-z
1/2+x,1/2-y,z
loop_
_atom_site_type_symbol
_atom_site_label
_atom_site_fract_x
_atom_site_fract_y
_atom_site_fract_z
Si Si1 0.597773 0.654319 0.186933
Si Si2 0.866958 0.340614 0.198966
Si Si3 0.618853 0.161165 0.488970
Si Si4 0.157979 0.338387 0.016331
Si Si5 0.772192 0.661238 0.237677
Si Si6 0.186588 0.659553 0.398870
Si Si7 0.495570 0.661770 0.394173
Si Si8 0.953560 0.845490 0.067461
O O1 0.625187 0.500000 0.238180
O O2 0.649190 0.771616 0.274334
O O3 0.573766 0.657925 0.061685
O O4 0.531913 0.671903 0.158724
O O5 0.891896 0.500000 0.229919
O O6 0.820502 0.325695 0.219740
O O7 0.927879 0.236164 0.281906
O O8 0.827122 0.321190 0.062589
O O9 0.683447 0.198697 0.626222
O O10 0.638938 0.168276 0.418554
O O11 0.557834 0.258019 0.434694
O O12 0.603330 0.000000 0.490012
O O13 0.158776 0.500000 0.037742
O O14 0.209171 0.254669 0.138063
O O15 0.085451 0.272810 0.935082
O O16 0.751918 0.500000 0.220079
O O17 0.203345 0.500000 0.406035
O O18 0.250000 0.750000 0.500000
O O19 0.500000 0.671253 0.500000
O O20 0.496125 0.500000 0.371721
O O21 0.939774 0.000000 0.083598
#
# Coordination Sequence:
#
# PCOD9211438 Si02
#       8
#     8   8   8   8   8   8   8   8
#     4   9  20  41  65  87 116 155 200 244 293 357
#     4  10  22  40  61  85 120 163 200 238 295 360
#     4  10  23  42  64  88 119 163 207 243 295 370
#     4  11  24  37  57  91 123 151 195 252 299 346
#     4  10  21  40  63  83 113 163 206 239 289 357
#     4  11  25  42  63  93 125 159 200 252 307 361
#     4  11  23  38  61  94 125 156 200 255 304 349
#     4   9  20  40  64  87 115 157 199 240 296 360
#
# _framework density 20.321558
#
# number of rings (size 3 to 8) (size 9 to 14) (size 15 to 20)
#    0.000    1.875    1.250    2.250    3.500    4.500 
#    0.000    1.250    0.000    0.000    0.000    0.000 
#    0.000    0.000    0.000    0.000    0.000    0.000 
#
# Total GULP energy -178868.821648 kJ/mol
# GULP energy per Si atom -5589.650676 kJ/mol
# Density = 2.027530 g / cm^3
# Si number density = 20.321558 Si / 1000 Ang^3
#
#
#
# Elastic Constant Matrix: (Units=GPa)
#
#
# Indices 1 2 3 4 5 6 
#
# 1 31.1240 23.3511 -6.3091 0.0000 3.3249 0.0000
# 2 23.3511 123.4090 46.6201 0.0000 20.6934 0.0000
# 3 -6.3091 46.6201 56.9654 0.0000 5.4377 0.0000
# 4 0.0000 0.0000 0.0000 25.9259 0.0000 5.6987
# 5 3.3249 20.6934 5.4377 0.0000 24.5566 0.0000
# 6 0.0000 0.0000 0.0000 5.6987 0.0000 30.8771
#
#
#
# Elastic Compliance Matrix: (Units=1/GPa)
#
#
# Indices 1 2 3 4 5 6 
#
# 1 0.048123 -0.016754 0.018711 0.000000 0.003460 0.000000
# 2 -0.016754 0.019296 -0.016664 0.000000 -0.010302 0.000000
# 3 0.018711 -0.016664 0.032860 0.000000 0.004232 0.000000
# 4 0.000000 0.000000 0.000000 0.040202 0.000000 -0.007420
# 5 0.003460 -0.010302 0.004232 0.000000 0.047998 0.000000
# 6 0.000000 0.000000 0.000000 -0.007420 0.000000 0.033756
#
#
# Mechanical properties :
#
#
# Convention : Reuss Voigt Hill
#
# Bulk Modulus (GPa) = 14.11129 37.64697 25.87913
# Shear Modulus (GPa) = 18.16392 26.12767 22.14580
#
# Velocity S-wave (km/s) = 2.99293 3.58957 3.30475
# Velocity P-wave (km/s) = 4.34771 5.97879 5.22726
#
# Compressibility (1/GPa) = 0.07086523
#
# Stress axis : x y z
#
# Youngs Moduli (GPa) = 20.78010 51.82466 30.43183
#
# Poissons Ratio (x) = 0.86829 -0.56941
# Poissons Ratio (y) = 0.34816 0.50711
# Poissons Ratio (z) = -0.38882 0.86359
#
# Static dielectric constant tensor:
#      x y z
#    x 1.728750 0.000000 -0.017520 
#    y 0.000000 1.691170 0.000000 
#    z -0.017520 0.000000 1.709570 
# 
# From -- ./inp_files/295878.got.cif
#   From: 2010.05.17/outbox.cif.g08.bks.cpg/sg12_148_cif.got.tgz:295878.got - 2010.06.03 13:09:07.
