data_PCOD9211690
_publ_section_title
;
Structure prediction by ZEFSAII (Michael W. Deem and Ramdas Pophale) SiO2 
 PCOD9211690
Probable space group: C 2/M
;
_chemical_formula_sum "Si O2"
_cell_formula_units_Z 36
_cell_length_a 24.536321
_cell_length_b 10.057741
_cell_length_c 7.676739
_cell_angle_alpha 90.000000
_cell_angle_beta 118.051055
_cell_angle_gamma 90.000000
_cell_volume 1671.920440
_symmetry_space_group_name_H-M "C 2/M"
_symmetry_group_IT_number 12
_symmetry_cell_setting 'monoclinic'
loop_
_space_group_symop_operation_xyz
x,y,z
-x,y,-z
-x,-y,-z
x,-y,z
1/2+x,1/2+y,z
1/2-x,1/2+y,-z
1/2-x,1/2-y,-z
1/2+x,1/2-y,z
loop_
_atom_site_type_symbol
_atom_site_label
_atom_site_fract_x
_atom_site_fract_y
_atom_site_fract_z
Si Si1 0.161478 0.852883 0.033604
Si Si2 0.625034 0.644510 0.577164
Si Si3 0.053928 0.654052 0.943218
Si Si4 0.283173 0.845937 0.414643
Si Si5 0.000000 0.251131 0.500000
O O1 0.233809 0.839103 0.182861
O O2 0.142966 0.000000 0.071047
O O3 0.151751 0.851889 0.812692
O O4 0.115188 0.744819 0.045466
O O5 0.641122 0.500000 0.522781
O O6 0.652794 0.773741 0.528248
O O7 0.552501 0.661459 0.491763
O O8 0.069049 0.500000 0.999158
O O9 0.029291 0.668938 0.706455
O O10 0.000000 0.692785 0.000000
O O11 0.250000 0.750000 0.500000
O O12 0.290116 0.000000 0.475474
#
# Coordination Sequence:
#
# PCOD9211690 Si02
#       5
#     8   8   8   8   4
#     4   9  21  41  61  86 118 158 204 248 307 371
#     4  10  21  40  65  90 120 159 204 254 306 366
#     4  10  22  38  60  90 123 162 207 257 308 364
#     4  11  24  40  60  90 124 161 204 251 306 365
#     4  10  22  40  62  92 128 164 206 254 308 374
#
# _framework density 21.532124
#
# number of rings (size 3 to 8) (size 9 to 14) (size 15 to 20)
#    0.000    2.000    0.000    2.000    3.111    7.556 
#    0.000    0.000    0.000    0.000    0.000    0.000 
#    0.000    0.000    0.000    0.000    0.000    0.000 
#
# Total GULP energy -100477.638097 kJ/mol
# GULP energy per Si atom -5582.091005 kJ/mol
# Density = 2.148312 g / cm^3
# Si number density = 21.532124 Si / 1000 Ang^3
#
#
#
# Elastic Constant Matrix: (Units=GPa)
#
#
# Indices 1 2 3 4 5 6 
#
# 1 93.7652 68.5453 -2.6469 0.0000 0.6315 0.0000
# 2 68.5453 168.8794 7.2314 0.0000 -1.0032 0.0000
# 3 -2.6469 7.2314 39.3282 0.0000 2.1935 0.0000
# 4 0.0000 0.0000 0.0000 17.5274 0.0000 -0.8917
# 5 0.6315 -1.0032 2.1935 0.0000 26.1237 0.0000
# 6 0.0000 0.0000 0.0000 -0.8917 0.0000 35.4846
#
#
#
# Elastic Compliance Matrix: (Units=1/GPa)
#
#
# Indices 1 2 3 4 5 6 
#
# 1 0.015367 -0.006338 0.002244 0.000000 -0.000803 0.000000
# 2 -0.006338 0.008585 -0.002042 0.000000 0.000654 0.000000
# 3 0.002244 -0.002042 0.026083 0.000000 -0.002323 0.000000
# 4 0.000000 0.000000 0.000000 0.057127 0.000000 0.001436
# 5 -0.000803 0.000654 -0.002323 0.000000 0.038519 0.000000
# 6 0.000000 0.000000 0.000000 0.001436 0.000000 0.028217
#
#
# Mechanical properties :
#
#
# Convention : Reuss Voigt Hill
#
# Bulk Modulus (GPa) = 26.47972 49.80359 38.14165
# Shear Modulus (GPa) = 25.15634 31.08336 28.11985
#
# Velocity S-wave (km/s) = 3.42177 3.80357 3.61771
# Velocity P-wave (km/s) = 5.28544 6.51687 5.93319
#
# Compressibility (1/GPa) = 0.03776476
#
# Stress axis : x y z
#
# Youngs Moduli (GPa) = 65.07419 116.47911 38.33906
#
# Poissons Ratio (x) = 0.73826 -0.08605
# Poissons Ratio (y) = 0.41245 0.07828
# Poissons Ratio (z) = -0.14606 0.23781
#
# Static dielectric constant tensor:
#      x y z
#    x 1.795460 0.000000 0.002060 
#    y 0.000000 1.797510 0.000000 
#    z 0.002060 0.000000 1.827060 
# 
# From -- ./inp_files/93129.got.cif
#   From: 2010.05.17/outbox.cif.g08.bks.cpg/sg12_47_cif.got.tgz:93129.got - 2010.06.03 13:09:07.
