data_PCOD9211388
_publ_section_title
;
Structure prediction by ZEFSAII (Michael W. Deem and Ramdas Pophale) SiO2 
 PCOD9211388
Probable space group: C 2/M
;
_chemical_formula_sum "Si O2"
_cell_formula_units_Z 54
_cell_length_a 9.067620
_cell_length_b 25.561775
_cell_length_c 16.967503
_cell_angle_alpha 90.000000
_cell_angle_beta 129.627862
_cell_angle_gamma 90.000000
_cell_volume 3029.057818
_symmetry_space_group_name_H-M "C 2/M"
_symmetry_group_IT_number 12
_symmetry_cell_setting 'monoclinic'
loop_
_space_group_symop_operation_xyz
x,y,z
-x,y,-z
-x,-y,-z
x,-y,z
1/2+x,1/2+y,z
1/2-x,1/2+y,-z
1/2-x,1/2-y,-z
1/2+x,1/2-y,z
loop_
_atom_site_type_symbol
_atom_site_label
_atom_site_fract_x
_atom_site_fract_y
_atom_site_fract_z
Si Si1 0.847811 0.648050 0.379268
Si Si2 0.000000 0.500000 0.000000
Si Si3 0.919443 0.058996 0.639235
Si Si4 0.406288 0.742639 0.767815
Si Si5 0.195358 0.297542 0.110393
Si Si6 0.652255 0.911326 0.168021
Si Si7 0.404718 0.145803 0.690683
Si Si8 0.500000 0.394167 0.500000
O O1 0.714806 0.600876 0.363835
O O2 0.715356 0.698285 0.317178
O O3 0.000000 0.659665 0.500000
O O4 0.961267 0.633473 0.338011
O O5 0.033614 0.453846 0.079323
O O6 0.928703 0.071836 0.549477
O O7 0.136904 0.065561 0.743445
O O8 0.853121 0.000000 0.630167
O O9 0.607202 0.717420 0.863904
O O10 0.298200 0.765429 0.806350
O O11 0.438705 0.794261 0.726564
O O12 0.183327 0.358564 0.128029
O O13 0.000000 0.283514 0.000000
O O14 0.566521 0.891256 0.222704
O O15 0.181966 0.139108 0.590856
#
# Coordination Sequence:
#
# PCOD9211388 Si02
#       8
#     8   2   8   8   8   8   8   4
#     4  12  24  40  61  92 131 171 204 245 316 378
#     4  12  20  44  72  92 108 164 216 258 310 358
#     4  11  22  40  61  88 120 162 204 261 304 361
#     4  11  23  38  61  89 128 163 203 258 307 373
#     4  11  21  39  61  90 117 160 206 257 315 369
#     4  10  22  38  66  89 119 153 210 263 299 364
#     4  10  23  41  58  95 129 161 202 257 309 365
#     4  10  21  40  62  88 120 158 215 250 300 376
#
# _framework density 17.827324000000001
#
# number of rings (size 3 to 8) (size 9 to 14) (size 15 to 20)
#    0.000    1.185    5.926    0.667    1.037    0.889 
#    1.333    0.000    0.000    0.889    0.000    0.000 
#    0.000    0.000    0.000    0.000    0.000    0.000 
#
# Total GULP energy -150401.861805 kJ/mol
# GULP energy per Si atom -5570.439326 kJ/mol
# Density = 1.778675 g / cm^3
# Si number density = 17.827324 Si / 1000 Ang^3
#
#
#
# Elastic Constant Matrix: (Units=GPa)
#
#
# Indices 1 2 3 4 5 6 
#
# 1 77.7868 49.8648 23.9085 0.0000 -8.6011 0.0000
# 2 49.8648 149.5174 54.5507 0.0000 -7.7969 0.0000
# 3 23.9085 54.5507 93.2265 0.0000 -4.4938 0.0000
# 4 0.0000 0.0000 0.0000 13.3003 0.0000 11.7377
# 5 -8.6011 -7.7969 -4.4938 0.0000 21.9362 0.0000
# 6 0.0000 0.0000 0.0000 11.7377 0.0000 -55.4986
#
#
#
# Elastic Compliance Matrix: (Units=1/GPa)
#
#
# Indices 1 2 3 4 5 6 
#
# 1 0.016919 -0.004958 -0.001215 0.000000 0.004623 0.000000
# 2 -0.004958 0.010046 -0.004574 0.000000 0.000690 0.000000
# 3 -0.001215 -0.004574 0.013749 0.000000 0.000715 0.000000
# 4 0.000000 0.000000 0.000000 0.063360 0.000000 0.013400
# 5 0.004623 0.000690 0.000715 0.000000 0.047791 0.000000
# 6 0.000000 0.000000 0.000000 0.013400 0.000000 -0.015184
#
#
# Mechanical properties :
#
#
# Convention : Reuss Voigt Hill
#
# Bulk Modulus (GPa) = 52.02821 64.13096 58.07959
# Shear Modulus (GPa) = 30.38019 8.76135 19.57077
#
# Velocity S-wave (km/s) = 4.13260 2.21929 3.31690
# Velocity P-wave (km/s) = 7.21242 6.52828 6.87886
#
# Compressibility (1/GPa) = 0.01922034
#
# Stress axis : x y z
#
# Youngs Moduli (GPa) = 59.10663 99.53767 72.73321
#
# Poissons Ratio (x) = 0.49352 0.08836
# Poissons Ratio (y) = 0.29306 0.33267
# Poissons Ratio (z) = 0.07181 0.45526
#
# Static dielectric constant tensor:
#      x y z
#    x 1.612060 0.000000 -0.002780 
#    y 0.000000 1.583640 0.000000 
#    z -0.002780 0.000000 1.616690 
# 
# From -- ./inp_files/259287.got.cif
#   From: 2010.05.17/outbox.cif.g08.bks.cpg/sg12_130_cif.got.tgz:259287.got - 2010.06.03 13:09:07.
