data_PCOD9211939
_publ_section_title
;
Structure prediction by ZEFSAII (Michael W. Deem and Ramdas Pophale) SiO2 
 PCOD9211939
Probable space group: C 2/M
;
_chemical_formula_sum "Si O2"
_cell_formula_units_Z 56
_cell_length_a 24.071121
_cell_length_b 13.546146
_cell_length_c 7.644315
_cell_angle_alpha 90.000000
_cell_angle_beta 109.891517
_cell_angle_gamma 90.000000
_cell_volume 2343.877263
_symmetry_space_group_name_H-M "C 2/M"
_symmetry_group_IT_number 12
_symmetry_cell_setting 'monoclinic'
loop_
_space_group_symop_operation_xyz
x,y,z
-x,y,-z
-x,-y,-z
x,-y,z
1/2+x,1/2+y,z
1/2-x,1/2+y,-z
1/2-x,1/2-y,-z
1/2+x,1/2-y,z
loop_
_atom_site_type_symbol
_atom_site_label
_atom_site_fract_x
_atom_site_fract_y
_atom_site_fract_z
Si Si1 0.850642 0.613258 0.327903
Si Si2 0.542942 0.233223 0.402648
Si Si3 0.771861 0.202681 0.741078
Si Si4 0.051403 0.743893 0.947632
Si Si5 0.156144 0.613564 0.102572
Si Si6 0.357611 0.615429 0.541042
Si Si7 0.351735 0.614898 0.118531
O O1 0.843415 0.500000 0.373068
O O2 0.911734 0.656986 0.462783
O O3 0.796423 0.676513 0.344038
O O4 0.846943 0.617529 0.112797
O O5 0.500000 0.282765 0.500000
O O6 0.493193 0.184352 0.226711
O O7 0.584596 0.317716 0.367379
O O8 0.791299 0.316643 0.775260
O O9 0.692138 0.346748 0.378871
O O10 0.796206 0.153752 0.947426
O O11 0.093880 0.819321 0.892522
O O12 0.095536 0.668742 0.092101
O O13 0.000000 0.798553 0.000000
O O14 0.160937 0.500000 0.161989
O O15 0.368042 0.500000 0.586844
O O16 0.344542 0.624968 0.319033
O O17 0.360733 0.500000 0.089036
#
# Coordination Sequence:
#
# PCOD9211939 Si02
#       7
#     8   8   8   8   8   8   8
#     4  11  24  43  73 107 139 184 232 283 349 418
#     4  12  22  42  66  95 140 186 231 284 337 400
#     4  11  23  46  73 104 145 179 226 295 351 415
#     4  11  23  41  65  94 137 185 235 291 339 402
#     4  10  22  42  69 101 137 183 233 286 351 415
#     4  11  24  42  70 106 142 185 233 287 351 415
#     4  10  21  40  68 103 140 182 229 283 350 417
#
# _framework density 23.892035
#
# number of rings (size 3 to 8) (size 9 to 14) (size 15 to 20)
#    0.000    1.143    2.857    4.286    0.000    2.857 
#    0.000    5.714    0.000    5.143    0.000    0.000 
#    0.000    0.000    0.000    0.000    0.000    0.000 
#
# Total GULP energy -156705.446914 kJ/mol
# GULP energy per Si atom -5596.623104 kJ/mol
# Density = 2.383766 g / cm^3
# Si number density = 23.892035 Si / 1000 Ang^3
#
#
#
# Elastic Constant Matrix: (Units=GPa)
#
#
# Indices 1 2 3 4 5 6 
#
# 1 134.1929 51.8478 22.3736 0.0000 24.3727 0.0000
# 2 51.8478 204.6990 32.3611 0.0000 15.5293 0.0000
# 3 22.3736 32.3611 96.0856 0.0000 19.3607 0.0000
# 4 0.0000 0.0000 0.0000 21.3918 0.0000 -11.4511
# 5 24.3727 15.5293 19.3607 0.0000 41.6892 0.0000
# 6 0.0000 0.0000 0.0000 -11.4511 0.0000 8.4364
#
#
#
# Elastic Compliance Matrix: (Units=1/GPa)
#
#
# Indices 1 2 3 4 5 6 
#
# 1 0.009061 -0.001871 -0.000610 0.000000 -0.004317 0.000000
# 2 -0.001871 0.005604 -0.001381 0.000000 -0.000352 0.000000
# 3 -0.000610 -0.001381 0.011958 0.000000 -0.004683 0.000000
# 4 0.000000 0.000000 0.000000 0.170977 0.000000 0.232076
# 5 -0.004317 -0.000352 -0.004683 0.000000 0.028817 0.000000
# 6 0.000000 0.000000 0.000000 0.232076 0.000000 0.433542
#
#
# Mechanical properties :
#
#
# Convention : Reuss Voigt Hill
#
# Bulk Modulus (GPa) = 52.91137 72.01583 62.46360
# Shear Modulus (GPa) = 7.41859 36.19648 21.80753
#
# Velocity S-wave (km/s) = 1.76403 3.89652 3.02446
# Velocity P-wave (km/s) = 5.13256 7.10292 6.19656
#
# Compressibility (1/GPa) = 0.01889953
#
# Stress axis : x y z
#
# Youngs Moduli (GPa) = 110.36803 178.43897 83.62668
#
# Poissons Ratio (x) = 0.33387 0.05099
# Poissons Ratio (y) = 0.20650 0.11547
# Poissons Ratio (z) = 0.06730 0.24638
#
# Static dielectric constant tensor:
#      x y z
#    x 1.907120 0.000000 -0.106730 
#    y 0.000000 1.857230 0.000000 
#    z -0.106730 0.000000 2.069700 
# 
# From -- ./inp_files/96992.got.cif
#   From: 2010.05.17/outbox.cif.g08.bks.cpg/sg12_49_cif.got.tgz:96992.got - 2010.06.03 13:09:07.
