data_PCOD9211215
_publ_section_title
;
Structure prediction by ZEFSAII (Michael W. Deem and Ramdas Pophale) SiO2 
 PCOD9211215
Probable space group: C 2/M
;
_chemical_formula_sum "Si O2"
_cell_formula_units_Z 64
_cell_length_a 22.242077
_cell_length_b 21.307489
_cell_length_c 19.603700
_cell_angle_alpha 90.000000
_cell_angle_beta 161.199622
_cell_angle_gamma 90.000000
_cell_volume 2994.112779
_symmetry_space_group_name_H-M "C 2/M"
_symmetry_group_IT_number 12
_symmetry_cell_setting 'monoclinic'
loop_
_space_group_symop_operation_xyz
x,y,z
-x,y,-z
-x,-y,-z
x,-y,z
1/2+x,1/2+y,z
1/2-x,1/2+y,-z
1/2-x,1/2-y,-z
1/2+x,1/2-y,z
loop_
_atom_site_type_symbol
_atom_site_label
_atom_site_fract_x
_atom_site_fract_y
_atom_site_fract_z
Si Si1 0.413586 0.210269 0.590768
Si Si2 0.723608 0.931982 0.312943
Si Si3 0.539129 0.068921 0.333690
Si Si4 0.568082 0.570341 0.327639
Si Si5 0.984133 0.202187 0.174740
Si Si6 0.208987 0.847219 0.733916
Si Si7 0.661376 0.067036 0.017937
Si Si8 0.632629 0.783043 0.698502
O O1 0.464360 0.136376 0.634276
O O2 0.189764 0.212329 0.361196
O O3 0.511821 0.242880 0.762413
O O4 0.493018 0.241587 0.607969
O O5 0.886022 0.922376 0.542828
O O6 0.694432 0.879066 0.226250
O O7 0.540020 0.935751 0.161878
O O8 0.747541 0.000000 0.304289
O O9 0.734957 0.068970 0.502429
O O10 0.377051 0.071208 0.102991
O O11 0.527556 0.000000 0.356309
O O12 0.486807 0.500000 0.229515
O O13 0.477991 0.634412 0.205074
O O14 0.816045 0.198082 0.939515
O O15 0.213276 0.773370 0.739907
O O16 0.000000 0.870146 0.500000
O O17 0.259189 0.872110 0.862133
O O18 0.755682 0.000000 0.134568
O O19 0.500000 0.819474 0.500000
#
# Coordination Sequence:
#
# PCOD9211215 Si02
#       8
#     8   8   8   8   8   8   8   8
#     4  10  21  40  65  91 120 156 211 256 305 370
#     4   9  18  34  55  81 115 154 196 241 285 353
#     4   8  15  32  59  89 114 142 190 253 312 358
#     4   8  16  32  60  93 117 141 191 254 304 358
#     4  10  21  39  69  90 115 165 205 252 315 360
#     4  11  23  34  45  70 114 163 197 229 289 341
#     4   9  17  32  54  80 111 150 197 242 288 352
#     4  11  26  43  55  84 125 161 204 258 302 360
#
# _framework density 21.37528
#
# number of rings (size 3 to 8) (size 9 to 14) (size 15 to 20)
#    0.000    2.500    0.000    3.375    3.500    3.500 
#    4.500    0.625    0.000    1.500    0.000    3.500 
#    0.000    0.000    0.000    0.000    0.000    0.000 
#
# Total GULP energy -178183.133107 kJ/mol
# GULP energy per Si atom -5568.222910 kJ/mol
# Density = 2.132663 g / cm^3
# Si number density = 21.375280 Si / 1000 Ang^3
#
#
#
# Elastic Constant Matrix: (Units=GPa)
#
#
# Indices 1 2 3 4 5 6 
#
# 1 56.2434 20.9684 29.7700 -0.0059 -2.5864 -0.0034
# 2 20.9684 113.3730 33.4963 -0.0019 -12.4863 -0.0033
# 3 29.7700 33.4963 113.7599 0.0141 -17.6825 0.0041
# 4 -0.0059 -0.0019 0.0141 36.8324 0.0036 1.5462
# 5 -2.5864 -12.4863 -17.6825 0.0036 23.6894 -0.0031
# 6 -0.0034 -0.0033 0.0041 1.5462 -0.0031 17.9213
#
#
#
# Elastic Compliance Matrix: (Units=1/GPa)
#
#
# Indices 1 2 3 4 5 6 
#
# 1 0.021458 -0.002744 -0.005281 0.000005 -0.003045 0.000004
# 2 -0.002744 0.010254 -0.001706 0.000000 0.003832 0.000002
# 3 -0.005281 -0.001706 0.011816 -0.000006 0.007344 -0.000002
# 4 0.000005 0.000000 -0.000006 0.027249 -0.000008 -0.002351
# 5 -0.003045 0.003832 0.007344 -0.000008 0.049382 0.000008
# 6 0.000004 0.000002 -0.000002 -0.002351 0.000008 0.056002
#
#
# Mechanical properties :
#
#
# Convention : Reuss Voigt Hill
#
# Bulk Modulus (GPa) = 41.54956 50.20506 45.87731
# Shear Modulus (GPa) = 24.55263 28.96474 26.75869
#
# Velocity S-wave (km/s) = 3.39285 3.68510 3.54199
# Velocity P-wave (km/s) = 5.90160 6.45330 6.18361
#
# Compressibility (1/GPa) = 0.02406765
#
# Stress axis : x y z
#
# Youngs Moduli (GPa) = 46.60286 97.52431 84.62982
#
# Poissons Ratio (x) = 0.26759 0.44691
# Poissons Ratio (y) = 0.12787 0.14434
# Poissons Ratio (z) = 0.24610 0.16633
#
# Static dielectric constant tensor:
#      x y z
#    x 1.825690 0.000010 0.041530 
#    y 0.000010 1.812390 -0.000010 
#    z 0.041530 -0.000010 1.874950 
# 
# From -- ./inp_files/286455.got.cif
#   From: 2010.05.17/outbox.cif.g08.bks.cpg/sg12_144_cif.got.tgz:286455.got - 2010.06.03 13:09:07.
