data_PCOD9211738
_publ_section_title
;
Structure prediction by ZEFSAII (Michael W. Deem and Ramdas Pophale) SiO2 
 PCOD9211738
Probable space group: C 2/M
;
_chemical_formula_sum "Si O2"
_cell_formula_units_Z 64
_cell_length_a 18.558605
_cell_length_b 15.899700
_cell_length_c 15.463726
_cell_angle_alpha 90.000000
_cell_angle_beta 141.046091
_cell_angle_gamma 90.000000
_cell_volume 2868.721741
_symmetry_space_group_name_H-M "C 2/M"
_symmetry_group_IT_number 12
_symmetry_cell_setting 'monoclinic'
loop_
_space_group_symop_operation_xyz
x,y,z
-x,y,-z
-x,-y,-z
x,-y,z
1/2+x,1/2+y,z
1/2-x,1/2+y,-z
1/2-x,1/2-y,-z
1/2+x,1/2-y,z
loop_
_atom_site_type_symbol
_atom_site_label
_atom_site_fract_x
_atom_site_fract_y
_atom_site_fract_z
Si Si1 0.166610 0.834599 0.233911
Si Si2 0.577709 0.640648 0.489967
Si Si3 0.615026 0.906331 0.794733
Si Si4 0.005365 0.096684 0.230340
Si Si5 0.830321 0.367994 0.776424
Si Si6 0.088678 0.368698 0.963043
Si Si7 0.665238 0.674769 0.043430
Si Si8 0.921424 0.344134 0.507452
O O1 0.086550 0.852500 0.240288
O O2 0.174593 0.733921 0.228985
O O3 0.128653 0.862385 0.102422
O O4 0.291317 0.870866 0.372118
O O5 0.500000 0.616026 0.500000
O O6 0.526355 0.614219 0.350146
O O7 0.708129 0.607014 0.622684
O O8 0.579634 0.742646 0.489446
O O9 0.627988 0.904438 0.909338
O O10 0.697543 0.835067 0.831005
O O11 0.485262 0.882008 0.649506
O O12 0.642434 0.000000 0.787288
O O13 0.027602 0.000000 0.234139
O O14 0.880393 0.121659 0.079713
O O15 0.952821 0.387149 0.846965
O O16 0.845746 0.397884 0.889605
O O17 0.115965 0.268375 0.986941
O O18 0.000000 0.369948 0.500000
#
# Coordination Sequence:
#
# PCOD9211738 Si02
#       8
#     8   8   8   8   8   8   8   8
#     4  10  21  40  65  93 123 157 212 264 309 369
#     4  10  24  42  67  93 124 161 215 269 309 367
#     4  12  26  39  60  96 133 168 205 256 320 380
#     4  12  26  40  61  94 128 170 208 252 322 380
#     4   9  20  41  67  96 116 157 214 267 313 354
#     4  10  21  40  70  92 121 161 216 263 303 373
#     4  11  22  43  66  91 125 168 214 260 305 371
#     4  10  21  42  64  90 120 164 209 255 312 373
#
# _framework density 22.309588000000002
#
# number of rings (size 3 to 8) (size 9 to 14) (size 15 to 20)
#    0.000    1.500    2.500    1.875    5.250    3.500 
#    0.000    1.875    0.000    0.000    0.000    0.000 
#    0.000    0.000    0.000    0.000    0.000    0.000 
#
# Total GULP energy -178775.187086 kJ/mol
# GULP energy per Si atom -5586.724596 kJ/mol
# Density = 2.225881 g / cm^3
# Si number density = 22.309588 Si / 1000 Ang^3
#
#
#
# Elastic Constant Matrix: (Units=GPa)
#
#
# Indices 1 2 3 4 5 6 
#
# 1 69.0878 14.7906 44.6344 0.0000 -8.4103 0.0000
# 2 14.7906 55.2185 19.0789 0.0000 -4.3765 0.0000
# 3 44.6344 19.0789 141.5646 0.0000 -3.4485 0.0000
# 4 0.0000 0.0000 0.0000 133.7398 0.0000 -89.1621
# 5 -8.4103 -4.3765 -3.4485 0.0000 36.3460 0.0000
# 6 0.0000 0.0000 0.0000 -89.1621 0.0000 55.7359
#
#
#
# Elastic Compliance Matrix: (Units=1/GPa)
#
#
# Indices 1 2 3 4 5 6 
#
# 1 0.019115 -0.002923 -0.005547 0.000000 0.003545 0.000000
# 2 -0.002923 0.019595 -0.001682 0.000000 0.001524 0.000000
# 3 -0.005547 -0.001682 0.009024 0.000000 -0.000630 0.000000
# 4 0.000000 0.000000 0.000000 -0.112425 0.000000 -0.179849
# 5 0.003545 0.001524 -0.000630 0.000000 0.028457 0.000000
# 6 0.000000 0.000000 0.000000 -0.179849 0.000000 -0.269768
#
#
# Mechanical properties :
#
#
# Convention : Reuss Voigt Hill
#
# Bulk Modulus (GPa) = 36.45527 46.98652 41.72089
# Shear Modulus (GPa) = -18.07956 57.65548 19.78796
#
# Velocity S-wave (km/s) = -2.84983 5.08915 2.98144
# Velocity P-wave (km/s) = 2.35529 7.45919 5.53113
#
# Compressibility (1/GPa) = 0.02743088
#
# Stress axis : x y z
#
# Youngs Moduli (GPa) = 52.31504 51.03419 110.81452
#
# Poissons Ratio (x) = 0.14916 0.61464
# Poissons Ratio (y) = 0.15290 0.18641
# Poissons Ratio (z) = 0.29017 0.08585
#
# Static dielectric constant tensor:
#      x y z
#    x 1.819770 0.000000 0.014240 
#    y 0.000000 1.806180 0.000000 
#    z 0.014240 0.000000 1.850920 
# 
# From -- ./inp_files/226886.got.cif
#   From: 2010.05.17/outbox.cif.g08.bks.cpg/sg12_114_cif.got.tgz:226886.got - 2010.06.03 13:09:07.
