data_PCOD9211243
_publ_section_title
;
Structure prediction by ZEFSAII (Michael W. Deem and Ramdas Pophale) SiO2 
 PCOD9211243
Probable space group: C 2/M
;
_chemical_formula_sum "Si O2"
_cell_formula_units_Z 64
_cell_length_a 36.167926
_cell_length_b 7.653756
_cell_length_c 15.874285
_cell_angle_alpha 90.000000
_cell_angle_beta 42.796627
_cell_angle_gamma 90.000000
_cell_volume 2985.497590
_symmetry_space_group_name_H-M "C 2/M"
_symmetry_group_IT_number 12
_symmetry_cell_setting 'monoclinic'
loop_
_space_group_symop_operation_xyz
x,y,z
-x,y,-z
-x,-y,-z
x,-y,z
1/2+x,1/2+y,z
1/2-x,1/2+y,-z
1/2-x,1/2-y,-z
1/2+x,1/2-y,z
loop_
_atom_site_type_symbol
_atom_site_label
_atom_site_fract_x
_atom_site_fract_y
_atom_site_fract_z
Si Si1 0.509004 0.286666 0.118700
Si Si2 0.784900 0.291668 0.025317
Si Si3 0.289039 0.710304 0.356720
Si Si4 0.609727 0.794972 0.238267
Si Si5 0.772134 0.704681 0.705477
Si Si6 0.912154 0.213210 0.162488
Si Si7 0.505099 0.293249 0.314140
Si Si8 0.385634 0.788204 0.579348
O O1 0.508729 0.500000 0.120784
O O2 0.451799 0.232013 0.172298
O O3 0.515373 0.223528 0.202959
O O4 0.557125 0.234661 0.974908
O O5 0.785159 0.500000 0.036953
O O6 0.758877 0.216968 0.153567
O O7 0.750000 0.250000 0.000000
O O8 0.845707 0.225175 0.902130
O O9 0.293694 0.500000 0.341913
O O10 0.250000 0.750000 0.500000
O O11 0.262326 0.778539 0.314655
O O12 0.350407 0.776012 0.268901
O O13 0.548781 0.778454 0.306809
O O14 0.616443 0.721671 0.320827
O O15 0.622544 0.000000 0.224073
O O16 0.779374 0.500000 0.674107
O O17 0.832794 0.778060 0.617747
O O18 0.911833 0.000000 0.164391
O O19 0.513871 0.500000 0.298222
O O20 0.443224 0.259158 0.443427
O O21 0.382967 0.000000 0.586143
#
# Coordination Sequence:
#
# PCOD9211243 Si02
#       8
#     8   8   8   8   8   8   8   8
#     4   8  16  31  52  79 108 140 179 230 287 334
#     4  11  22  39  63  90 119 156 198 244 293 350
#     4  10  22  37  60  87 117 155 193 237 291 349
#     4  10  22  40  58  79 113 157 190 221 287 355
#     4  10  22  40  60  87 118 158 203 241 292 358
#     4   8  15  32  54  76 108 146 181 221 281 343
#     4  11  23  34  55  89 113 139 191 249 285 325
#     4  10  21  40  58  74 112 159 191 227 286 356
#
# _framework density 21.436962000000001
#
# number of rings (size 3 to 8) (size 9 to 14) (size 15 to 20)
#    0.000    2.250    1.250    1.875    3.500    4.000 
#    0.000    0.000    0.000    0.000    0.000    4.375 
#    0.000    0.000    0.000    0.000    0.000    0.000 
#
# Total GULP energy -178724.965729 kJ/mol
# GULP energy per Si atom -5585.155179 kJ/mol
# Density = 2.138817 g / cm^3
# Si number density = 21.436962 Si / 1000 Ang^3
#
#
#
# Elastic Constant Matrix: (Units=GPa)
#
#
# Indices 1 2 3 4 5 6 
#
# 1 106.4123 0.1790 46.3912 -0.0001 -4.3770 -0.0005
# 2 0.1790 32.6192 -14.7911 0.0010 -2.7230 -0.0015
# 3 46.3912 -14.7911 81.3583 0.0001 -16.0368 -0.0003
# 4 -0.0001 0.0010 0.0001 23.1879 0.0000 -1.2635
# 5 -4.3770 -2.7230 -16.0368 0.0000 34.6119 0.0000
# 6 -0.0005 -0.0015 -0.0003 -1.2635 0.0000 7.4787
#
#
#
# Elastic Compliance Matrix: (Units=1/GPa)
#
#
# Indices 1 2 3 4 5 6 
#
# 1 0.013134 -0.004300 -0.008815 0.000000 -0.002762 0.000000
# 2 -0.004300 0.035987 0.010394 -0.000001 0.007103 0.000007
# 3 -0.008815 0.010394 0.021074 0.000000 0.009467 0.000002
# 4 0.000000 -0.000001 0.000000 0.043527 0.000000 0.007354
# 5 -0.002762 0.007103 0.009467 0.000000 0.033488 0.000002
# 6 0.000000 0.000007 0.000002 0.007354 0.000002 0.134956
#
#
# Mechanical properties :
#
#
# Convention : Reuss Voigt Hill
#
# Bulk Modulus (GPa) = 15.44328 31.54976 23.49652
# Shear Modulus (GPa) = 16.17126 25.62976 20.90051
#
# Velocity S-wave (km/s) = 2.74955 3.46148 3.12585
# Velocity P-wave (km/s) = 4.15929 5.54303 4.90025
#
# Compressibility (1/GPa) = 0.06475309
#
# Stress axis : x y z
#
# Youngs Moduli (GPa) = 76.13749 27.78806 47.45252
#
# Poissons Ratio (x) = 0.11949 0.41831
# Poissons Ratio (y) = 0.32738 -0.49324
# Poissons Ratio (z) = 0.67117 -0.28884
#
# Static dielectric constant tensor:
#      x y z
#    x 1.774700 0.000000 -0.003520 
#    y 0.000000 1.808800 0.000000 
#    z -0.003520 0.000000 1.750350 
# 
# From -- ./inp_files/249892.got.cif
#   From: 2010.05.17/outbox.cif.g08.bks.cpg/sg12_125_cif.got.tgz:249892.got - 2010.06.03 13:09:07.
