data_PCOD9211776
_publ_section_title
;
Structure prediction by ZEFSAII (Michael W. Deem and Ramdas Pophale) SiO2 
 PCOD9211776
Probable space group: C 2/M
;
_chemical_formula_sum "Si O2"
_cell_formula_units_Z 60
_cell_length_a 13.835283
_cell_length_b 14.462845
_cell_length_c 14.120823
_cell_angle_alpha 90.000000
_cell_angle_beta 106.643286
_cell_angle_gamma 90.000000
_cell_volume 2707.170197
_symmetry_space_group_name_H-M "C 2/M"
_symmetry_group_IT_number 12
_symmetry_cell_setting 'monoclinic'
loop_
_space_group_symop_operation_xyz
x,y,z
-x,y,-z
-x,-y,-z
x,-y,z
1/2+x,1/2+y,z
1/2-x,1/2+y,-z
1/2-x,1/2-y,-z
1/2+x,1/2-y,z
loop_
_atom_site_type_symbol
_atom_site_label
_atom_site_fract_x
_atom_site_fract_y
_atom_site_fract_z
Si Si1 0.322504 0.500000 0.127830
Si Si2 0.198676 0.841210 0.032061
Si Si3 0.070857 0.237761 0.163191
Si Si4 0.388789 0.164812 0.196764
Si Si5 0.872524 0.600814 0.385121
Si Si6 0.614221 0.701413 0.520740
Si Si7 0.222636 0.163439 0.737307
Si Si8 0.638841 0.394461 0.332169
O O1 0.296435 0.578401 0.201067
O O2 0.337093 0.417218 0.051787
O O3 0.110314 0.804638 0.075957
O O4 0.293639 0.881653 0.118578
O O5 0.250000 0.750000 0.000000
O O6 0.162754 0.302088 0.224937
O O7 0.065869 0.152257 0.235367
O O8 0.971538 0.299856 0.145316
O O9 0.429350 0.110441 0.300200
O O10 0.344227 0.254882 0.236245
O O11 0.891339 0.500000 0.433609
O O12 0.887770 0.688686 0.457261
O O13 0.753053 0.603071 0.325689
O O14 0.500000 0.667460 0.500000
O O15 0.685201 0.655032 0.619263
O O16 0.644354 0.671062 0.424902
O O17 0.608395 0.500000 0.345755
#
# Coordination Sequence:
#
# PCOD9211776 Si02
#       8
#     4   8   8   8   8   8   8   8
#     4  12  24  46  73  94 136 179 216 278 341 402
#     4  11  23  45  68  97 132 176 219 272 338 397
#     4  11  22  44  69  94 136 178 217 280 337 391
#     4  10  21  43  67  95 133 176 218 278 328 398
#     4  10  21  40  65  96 135 175 221 274 332 390
#     4  11  23  43  68  94 139 177 221 282 333 398
#     4  10  23  46  65  93 136 173 219 274 338 391
#     4  11  22  38  66 101 128 181 225 269 339 396
#
# _framework density 22.163364999999999
#
# number of rings (size 3 to 8) (size 9 to 14) (size 15 to 20)
#    0.000    1.333    6.667    2.000    2.800    1.067 
#    4.800    1.333    0.000    0.000    0.000    0.000 
#    0.000    0.000    0.000    0.000    0.000    0.000 
#
# Total GULP energy -167075.713272 kJ/mol
# GULP energy per Si atom -5569.190442 kJ/mol
# Density = 2.211292 g / cm^3
# Si number density = 22.163365 Si / 1000 Ang^3
#
#
#
# Elastic Constant Matrix: (Units=GPa)
#
#
# Indices 1 2 3 4 5 6 
#
# 1 93.7288 9.5881 21.3174 0.0000 -6.5033 0.0000
# 2 9.5881 108.5136 55.9326 0.0000 -19.2026 0.0000
# 3 21.3174 55.9326 108.2150 0.0000 -26.8797 0.0000
# 4 0.0000 0.0000 0.0000 10.4946 0.0000 -10.1843
# 5 -6.5033 -19.2026 -26.8797 0.0000 30.6583 0.0000
# 6 0.0000 0.0000 0.0000 -10.1843 0.0000 5.9795
#
#
#
# Elastic Compliance Matrix: (Units=1/GPa)
#
#
# Indices 1 2 3 4 5 6 
#
# 1 0.011182 0.000242 -0.002175 0.000000 0.000617 0.000000
# 2 0.000242 0.012756 -0.005936 0.000000 0.002836 0.000000
# 3 -0.002175 -0.005936 0.014956 0.000000 0.008934 0.000000
# 4 0.000000 0.000000 0.000000 -0.145958 0.000000 -0.248596
# 5 0.000617 0.002836 0.008934 0.000000 0.042358 0.000000
# 6 0.000000 0.000000 0.000000 -0.248596 0.000000 -0.256171
#
#
# Mechanical properties :
#
#
# Convention : Reuss Voigt Hill
#
# Bulk Modulus (GPa) = 43.18434 53.79262 48.48848
# Shear Modulus (GPa) = -16.81117 24.33445 3.76164
#
# Velocity S-wave (km/s) = -2.75710 3.31714 1.30419
# Velocity P-wave (km/s) = 3.06454 6.24459 4.91865
#
# Compressibility (1/GPa) = 0.02315654
#
# Stress axis : x y z
#
# Youngs Moduli (GPa) = 89.43182 78.39629 66.86062
#
# Poissons Ratio (x) = -0.01897 0.14539
# Poissons Ratio (y) = -0.02165 0.39689
# Poissons Ratio (z) = 0.19448 0.46537
#
# Static dielectric constant tensor:
#      x y z
#    x 1.886390 0.000000 0.014230 
#    y 0.000000 1.838660 0.000000 
#    z 0.014230 0.000000 1.883050 
# 
# From -- ./inp_files/214870.got.cif
#   From: 2010.05.17/outbox.cif.g08.bks.cpg/sg12_108_cif.got.tgz:214870.got - 2010.06.03 13:09:07.
