data_PCOD9211762
_publ_section_title
;
Structure prediction by ZEFSAII (Michael W. Deem and Ramdas Pophale) SiO2 
 PCOD9211762
Probable space group: C 2/M
;
_chemical_formula_sum "Si O2"
_cell_formula_units_Z 48
_cell_length_a 8.049731
_cell_length_b 13.050538
_cell_length_c 20.843058
_cell_angle_alpha 90.000000
_cell_angle_beta 105.565808
_cell_angle_gamma 90.000000
_cell_volume 2109.323029
_symmetry_space_group_name_H-M "C 2/M"
_symmetry_group_IT_number 12
_symmetry_cell_setting 'monoclinic'
loop_
_space_group_symop_operation_xyz
x,y,z
-x,y,-z
-x,-y,-z
x,-y,z
1/2+x,1/2+y,z
1/2-x,1/2+y,-z
1/2-x,1/2-y,-z
1/2+x,1/2-y,z
loop_
_atom_site_type_symbol
_atom_site_label
_atom_site_fract_x
_atom_site_fract_y
_atom_site_fract_z
Si Si1 0.842486 0.124044 0.779074
Si Si2 0.677609 0.623712 0.984934
Si Si3 0.277445 0.623898 0.159357
Si Si4 0.087449 0.200115 0.448408
Si Si5 0.166580 0.620127 0.628098
Si Si6 0.607243 0.876214 0.873229
O O1 0.724938 0.148160 0.705946
O O2 0.748596 0.156326 0.835394
O O3 0.041446 0.156076 0.790621
O O4 0.848228 0.000000 0.783233
O O5 0.668960 0.500000 0.983279
O O6 0.703362 0.650644 0.913756
O O7 0.500000 0.657686 0.000000
O O8 0.833816 0.650960 0.048579
O O9 0.274903 0.500000 0.163284
O O10 0.087776 0.654956 0.163208
O O11 0.250000 0.250000 0.500000
O O12 0.164295 0.132455 0.399391
O O13 0.000000 0.143756 0.500000
O O14 0.970560 0.294497 0.409862
O O15 0.108841 0.500000 0.619580
O O16 0.609370 0.000000 0.872264
#
# Coordination Sequence:
#
# PCOD9211762 Si02
#       6
#     8   8   8   8   8   8
#     4   9  17  30  46  71 111 154 196 249 310 372
#     4   9  13  19  33  52  87 143 193 250 318 360
#     4   9  15  23  36  59  96 142 198 254 306 370
#     4   9  20  40  65  95 127 162 208 257 303 370
#     4  10  21  40  65  94 133 173 207 258 322 376
#     4   9  15  23  36  59  96 143 198 254 308 368
#
# _framework density 22.756115000000001
#
# number of rings (size 3 to 8) (size 9 to 14) (size 15 to 20)
#    0.000    2.833    1.667    0.500    0.000    5.333 
#    6.000    2.500    0.000    0.000    0.000    0.000 
#    0.000    5.333    0.000    0.667    0.000    0.000 
#
# Total GULP energy -134011.147051 kJ/mol
# GULP energy per Si atom -5583.797794 kJ/mol
# Density = 2.270432 g / cm^3
# Si number density = 22.756115 Si / 1000 Ang^3
#
#
#
# Elastic Constant Matrix: (Units=GPa)
#
#
# Indices 1 2 3 4 5 6 
#
# 1 95.5885 3.5658 28.0901 0.0000 22.7940 0.0000
# 2 3.5658 86.0758 0.8231 0.0000 14.7853 0.0000
# 3 28.0901 0.8231 103.5985 0.0000 13.8244 0.0000
# 4 0.0000 0.0000 0.0000 1103.5105 0.0000 669.2254
# 5 22.7940 14.7853 13.8244 0.0000 38.0728 0.0000
# 6 0.0000 0.0000 0.0000 669.2254 0.0000 457.3384
#
#
#
# Elastic Compliance Matrix: (Units=1/GPa)
#
#
# Indices 1 2 3 4 5 6 
#
# 1 0.012867 0.000702 -0.002554 0.000000 -0.007049 0.000000
# 2 0.000702 0.012519 0.000436 0.000000 -0.005440 0.000000
# 3 -0.002554 0.000436 0.010678 0.000000 -0.002518 0.000000
# 4 0.000000 0.000000 0.000000 0.008050 0.000000 -0.011779
# 5 -0.007049 -0.005440 -0.002518 0.000000 0.033512 0.000000
# 6 0.000000 0.000000 0.000000 -0.011779 0.000000 0.019423
#
#
# Mechanical properties :
#
#
# Convention : Reuss Voigt Hill
#
# Bulk Modulus (GPa) = 30.09130 38.91341 34.50235
# Shear Modulus (GPa) = 45.06292 336.63660 190.84976
#
# Velocity S-wave (km/s) = 4.45483 12.17594 9.16785
# Velocity P-wave (km/s) = 6.30181 14.65635 11.28099
#
# Compressibility (1/GPa) = 0.03323220
#
# Stress axis : x y z
#
# Youngs Moduli (GPa) = 77.72090 79.87915 93.65440
#
# Poissons Ratio (x) = -0.05609 0.23916
# Poissons Ratio (y) = -0.05457 -0.04085
# Poissons Ratio (z) = 0.19848 -0.03484
#
# Static dielectric constant tensor:
#      x y z
#    x 1.859620 0.000000 -0.014440 
#    y 0.000000 1.942850 0.000000 
#    z -0.014440 0.000000 1.814770 
# 
# From -- ./inp_files/299905.got.cif
#   From: 2010.05.17/outbox.cif.g08.bks.cpg/sg12_150_cif.got.tgz:299905.got - 2010.06.03 13:09:07.
