data_PCOD9211818
_publ_section_title
;
Structure prediction by ZEFSAII (Michael W. Deem and Ramdas Pophale) SiO2 
 PCOD9211818
Probable space group: C 2/M
;
_chemical_formula_sum "Si O2"
_cell_formula_units_Z 64
_cell_length_a 25.025777
_cell_length_b 14.114875
_cell_length_c 12.231932
_cell_angle_alpha 90.000000
_cell_angle_beta 40.837999
_cell_angle_gamma 90.000000
_cell_volume 2825.439088
_symmetry_space_group_name_H-M "C 2/M"
_symmetry_group_IT_number 12
_symmetry_cell_setting 'monoclinic'
loop_
_space_group_symop_operation_xyz
x,y,z
-x,y,-z
-x,-y,-z
x,-y,z
1/2+x,1/2+y,z
1/2-x,1/2+y,-z
1/2-x,1/2-y,-z
1/2+x,1/2-y,z
loop_
_atom_site_type_symbol
_atom_site_label
_atom_site_fract_x
_atom_site_fract_y
_atom_site_fract_z
Si Si1 0.202409 0.111132 0.045276
Si Si2 0.365102 0.885992 0.367859
Si Si3 0.528131 0.391637 0.830424
Si Si4 0.291448 0.385267 0.528458
Si Si5 0.965109 0.701491 0.857329
Si Si6 0.206849 0.613005 0.871508
Si Si7 0.931855 0.741737 0.676560
Si Si8 0.169586 0.612246 0.327578
O O1 0.267525 0.130560 0.042820
O O2 0.130659 0.182412 0.180658
O O3 0.180532 0.000000 0.087599
O O4 0.242408 0.128142 0.865167
O O5 0.290452 0.853205 0.407198
O O6 0.455250 0.843773 0.209464
O O7 0.338385 0.862727 0.533483
O O8 0.371238 0.000000 0.348653
O O9 0.518911 0.500000 0.805057
O O10 0.622045 0.360272 0.660448
O O11 0.472508 0.313757 0.860063
O O12 0.500000 0.390745 0.000000
O O13 0.290593 0.500000 0.524246
O O14 0.278388 0.358604 0.675863
O O15 0.968031 0.683925 0.722758
O O16 0.878162 0.661575 0.028595
O O17 0.195200 0.500000 0.879043
O O18 0.890094 0.670677 0.656891
O O19 0.000000 0.793855 0.500000
O O20 0.152918 0.500000 0.343296
#
# Coordination Sequence:
#
# PCOD9211818 Si02
#       8
#     8   8   8   8   8   8   8   8
#     4  10  23  43  67  91 124 173 219 263 321 385
#     4  10  22  40  66  99 132 167 214 270 326 390
#     4  10  25  49  68  91 129 174 223 266 312 379
#     4   9  21  43  68  92 125 168 211 265 322 379
#     4  12  25  39  64 100 131 169 212 267 331 380
#     4  10  22  41  68  98 130 166 207 265 332 394
#     4  12  25  41  59  94 134 168 214 270 320 380
#     4  10  21  40  66  93 126 171 216 261 320 381
#
# _framework density 22.651346
#
# number of rings (size 3 to 8) (size 9 to 14) (size 15 to 20)
#    0.000    1.625    2.500    0.750    3.500    3.000 
#    0.000    4.375    0.000    0.000    0.000    0.000 
#    0.000    0.000    0.000    0.000    0.000    0.000 
#
# Total GULP energy -178949.849688 kJ/mol
# GULP energy per Si atom -5592.182803 kJ/mol
# Density = 2.259979 g / cm^3
# Si number density = 22.651346 Si / 1000 Ang^3
#
#
#
# Elastic Constant Matrix: (Units=GPa)
#
#
# Indices 1 2 3 4 5 6 
#
# 1 51.5846 10.0730 17.7319 0.0000 -4.3201 0.0000
# 2 10.0730 51.0856 26.3785 0.0000 -15.1018 0.0000
# 3 17.7319 26.3785 132.8760 0.0000 -13.0532 0.0000
# 4 0.0000 0.0000 0.0000 9.5406 0.0000 -6.1998
# 5 -4.3201 -15.1018 -13.0532 0.0000 33.7510 0.0000
# 6 0.0000 0.0000 0.0000 -6.1998 0.0000 25.4459
#
#
#
# Elastic Compliance Matrix: (Units=1/GPa)
#
#
# Indices 1 2 3 4 5 6 
#
# 1 0.020721 -0.002808 -0.002152 0.000000 0.000563 0.000000
# 2 -0.002808 0.024754 -0.003624 0.000000 0.009315 0.000000
# 3 -0.002152 -0.003624 0.008676 0.000000 0.001458 0.000000
# 4 0.000000 0.000000 0.000000 0.124532 0.000000 0.030342
# 5 0.000563 0.009315 0.001458 0.000000 0.034433 0.000000
# 6 0.000000 0.000000 0.000000 0.030342 0.000000 0.046692
#
#
# Mechanical properties :
#
#
# Convention : Reuss Voigt Hill
#
# Bulk Modulus (GPa) = 27.04058 38.21255 32.62657
# Shear Modulus (GPa) = 17.28290 25.83835 21.56063
#
# Velocity S-wave (km/s) = 2.76524 3.38109 3.08855
# Velocity P-wave (km/s) = 4.70734 5.66999 5.21094
#
# Compressibility (1/GPa) = 0.03698145
#
# Stress axis : x y z
#
# Youngs Moduli (GPa) = 48.26026 40.39801 115.26319
#
# Poissons Ratio (x) = 0.11343 0.24809
# Poissons Ratio (y) = 0.13550 0.41775
# Poissons Ratio (z) = 0.10388 0.14642
#
# Static dielectric constant tensor:
#      x y z
#    x 1.845670 0.000000 0.002020 
#    y 0.000000 1.835550 0.000000 
#    z 0.002020 0.000000 1.862670 
# 
# From -- ./inp_files/183751.got.cif
#   From: 2010.05.17/outbox.cif.g08.bks.cpg/sg12_92_cif.got.tgz:183751.got - 2010.06.03 13:09:07.
