data_PCOD9211370
_publ_section_title
;
Structure prediction by ZEFSAII (Michael W. Deem and Ramdas Pophale) SiO2 
 PCOD9211370
Probable space group: C 2/M
;
_chemical_formula_sum "Si O2"
_cell_formula_units_Z 56
_cell_length_a 19.421600
_cell_length_b 7.634373
_cell_length_c 15.575575
_cell_angle_alpha 90.000000
_cell_angle_beta 76.844001
_cell_angle_gamma 90.000000
_cell_volume 2248.804567
_symmetry_space_group_name_H-M "C 2/M"
_symmetry_group_IT_number 12
_symmetry_cell_setting 'monoclinic'
loop_
_space_group_symop_operation_xyz
x,y,z
-x,y,-z
-x,-y,-z
x,-y,z
1/2+x,1/2+y,z
1/2-x,1/2+y,-z
1/2-x,1/2-y,-z
1/2+x,1/2-y,z
loop_
_atom_site_type_symbol
_atom_site_label
_atom_site_fract_x
_atom_site_fract_y
_atom_site_fract_z
Si Si1 0.579769 0.204210 0.142164
Si Si2 0.069579 0.798459 0.772065
Si Si3 0.575111 0.301190 0.452873
Si Si4 0.161563 0.299990 0.588732
Si Si5 0.766053 0.705308 0.865159
Si Si6 0.288160 0.713149 0.667049
Si Si7 0.385651 0.286961 0.052141
O O1 0.514979 0.290085 0.209752
O O2 0.657165 0.283665 0.137913
O O3 0.579725 0.000000 0.165326
O O4 0.571536 0.223310 0.041920
O O5 0.109411 0.701012 0.685415
O O6 0.088001 0.729853 0.861846
O O7 0.092876 0.000000 0.760538
O O8 0.500000 0.217765 0.500000
O O9 0.558832 0.500000 0.428565
O O10 0.622798 0.304508 0.525109
O O11 0.631101 0.224082 0.369082
O O12 0.169974 0.500000 0.557044
O O13 0.236007 0.232466 0.604808
O O14 0.769459 0.500000 0.885885
O O15 0.756563 0.723761 0.765605
O O16 0.696066 0.774931 0.931033
O O17 0.288503 0.500000 0.667165
O O18 0.388209 0.500000 0.050458
#
# Coordination Sequence:
#
# PCOD9211370 Si02
#       7
#     8   8   8   8   8   8   8
#     4  11  24  38  58  90 126 160 200 256 311 355
#     4  11  23  40  63  87 119 163 206 250 302 363
#     4  10  23  42  64  93 126 159 200 243 295 363
#     4  11  23  40  63  92 123 157 203 252 302 354
#     4  10  22  40  61  88 122 161 204 250 301 359
#     4  10  22  40  63  91 122 160 204 248 296 355
#     4  10  21  40  62  86 116 160 212 250 298 363
#
# _framework density 24.902121000000001
#
# number of rings (size 3 to 8) (size 9 to 14) (size 15 to 20)
#    0.000    1.571    1.429    2.571    2.000    6.000 
#    0.000    0.000    0.000    0.000    0.000    0.000 
#    0.000    0.000    0.000    0.000    0.000    0.000 
#
# Total GULP energy -156686.680536 kJ/mol
# GULP energy per Si atom -5595.952876 kJ/mol
# Density = 2.484544 g / cm^3
# Si number density = 24.902121 Si / 1000 Ang^3
#
#
#
# Elastic Constant Matrix: (Units=GPa)
#
#
# Indices 1 2 3 4 5 6 
#
# 1 103.1680 -1.2930 12.7656 0.0000 -32.6576 0.0000
# 2 -1.2930 70.9187 -1.1928 0.0000 -4.7484 0.0000
# 3 12.7656 -1.1928 69.3719 0.0000 -26.0356 0.0000
# 4 0.0000 0.0000 0.0000 18.0472 0.0000 8.1712
# 5 -32.6576 -4.7484 -26.0356 0.0000 54.3638 0.0000
# 6 0.0000 0.0000 0.0000 8.1712 0.0000 9.5762
#
#
#
# Elastic Compliance Matrix: (Units=1/GPa)
#
#
# Indices 1 2 3 4 5 6 
#
# 1 0.012028 0.000739 0.000653 0.000000 0.007603 0.000000
# 2 0.000739 0.014272 0.000907 0.000000 0.002125 0.000000
# 3 0.000653 0.000907 0.017662 0.000000 0.008930 0.000000
# 4 0.000000 0.000000 0.000000 0.090295 0.000000 -0.077046
# 5 0.007603 0.002125 0.008930 0.000000 0.027424 0.000000
# 6 0.000000 0.000000 0.000000 -0.077046 0.000000 0.170167
#
#
# Mechanical properties :
#
#
# Convention : Reuss Voigt Hill
#
# Bulk Modulus (GPa) = 20.59334 29.33535 24.96435
# Shear Modulus (GPa) = 14.55874 31.94270 23.25072
#
# Velocity S-wave (km/s) = 2.42055 3.58541 3.05894
# Velocity P-wave (km/s) = 4.01245 5.38015 4.74583
#
# Compressibility (1/GPa) = 0.04855939
#
# Stress axis : x y z
#
# Youngs Moduli (GPa) = 83.13907 70.06890 56.61885
#
# Poissons Ratio (x) = -0.05180 -0.03695
# Poissons Ratio (y) = -0.06147 -0.05135
# Poissons Ratio (z) = -0.05426 -0.06354
#
# Static dielectric constant tensor:
#      x y z
#    x 2.021720 0.000000 0.017970 
#    y 0.000000 1.921890 0.000000 
#    z 0.017970 0.000000 1.944020 
# 
# From -- ./inp_files/275251.got.cif
#   From: 2010.05.17/outbox.cif.g08.bks.cpg/sg12_138_cif.got.tgz:275251.got - 2010.06.03 13:09:07.
