data_PCOD9211592
_publ_section_title
;
Structure prediction by ZEFSAII (Michael W. Deem and Ramdas Pophale) SiO2 
 PCOD9211592
Probable space group: C 2/M
;
_chemical_formula_sum "Si O2"
_cell_formula_units_Z 64
_cell_length_a 8.618000
_cell_length_b 21.087815
_cell_length_c 23.126743
_cell_angle_alpha 90.000000
_cell_angle_beta 49.758043
_cell_angle_gamma 90.000000
_cell_volume 3208.196703
_symmetry_space_group_name_H-M "C 2/M"
_symmetry_group_IT_number 12
_symmetry_cell_setting 'monoclinic'
loop_
_space_group_symop_operation_xyz
x,y,z
-x,y,-z
-x,-y,-z
x,-y,z
1/2+x,1/2+y,z
1/2-x,1/2+y,-z
1/2-x,1/2-y,-z
1/2+x,1/2-y,z
loop_
_atom_site_type_symbol
_atom_site_label
_atom_site_fract_x
_atom_site_fract_y
_atom_site_fract_z
Si Si1 0.047242 0.812328 0.729910
Si Si2 0.206783 0.567133 0.989135
Si Si3 0.559144 0.571051 0.809714
Si Si4 0.969479 0.575158 0.266402
Si Si5 0.967201 0.710304 0.574907
Si Si6 0.586632 0.804317 0.043862
Si Si7 0.808351 0.155234 0.578374
Si Si8 0.129802 0.309263 0.785913
O O1 0.001866 0.872349 0.781032
O O2 0.266493 0.821535 0.649223
O O3 0.045569 0.747016 0.766460
O O4 0.872259 0.807103 0.725129
O O5 0.219169 0.500000 0.017775
O O6 0.400803 0.573583 0.900795
O O7 0.191278 0.628498 0.031729
O O8 0.000000 0.564969 0.000000
O O9 0.538460 0.500000 0.789220
O O10 0.793692 0.579338 0.771875
O O11 0.923575 0.500000 0.268955
O O12 0.823070 0.608307 0.349811
O O13 0.941890 0.621892 0.218285
O O14 0.912350 0.785317 0.586648
O O15 0.000000 0.692387 0.500000
O O16 0.154971 0.688964 0.569513
O O17 0.430663 0.794390 0.133341
O O18 0.500000 0.807939 0.000000
O O19 0.750000 0.750000 0.000000
O O20 0.000000 0.123147 0.500000
#
# Coordination Sequence:
#
# PCOD9211592 Si02
#       8
#     8   8   8   8   8   8   8   8
#     4  12  22  39  65  94 127 166 215 261 323 378
#     4   9  18  35  60  86 114 156 206 251 306 374
#     4  10  21  40  64  90 127 167 209 264 320 381
#     4  11  25  44  63  93 131 174 222 268 321 380
#     4  11  22  37  64 102 130 164 209 262 318 376
#     4  11  23  40  58  90 125 159 200 260 322 381
#     4  11  22  40  67  95 133 170 212 263 322 382
#     4  12  25  39  66  94 127 170 216 270 320 386
#
# _framework density 19.948900999999999
#
# number of rings (size 3 to 8) (size 9 to 14) (size 15 to 20)
#    0.000    1.125    2.500    6.000    1.750    2.250 
#    0.000    0.000    0.000    3.375    0.000    0.000 
#    0.000    0.000    0.000    0.000    0.000    0.000 
#
# Total GULP energy -178655.503531 kJ/mol
# GULP energy per Si atom -5582.984485 kJ/mol
# Density = 1.990350 g / cm^3
# Si number density = 19.948901 Si / 1000 Ang^3
#
#
#
# Elastic Constant Matrix: (Units=GPa)
#
#
# Indices 1 2 3 4 5 6 
#
# 1 75.6452 51.8823 38.6891 0.0001 -4.6725 0.0000
# 2 51.8823 115.9775 17.9024 0.0000 -1.0054 0.0000
# 3 38.6891 17.9024 112.3798 0.0000 -9.9609 0.0000
# 4 0.0001 0.0000 0.0000 36.2287 0.0000 -2.5663
# 5 -4.6725 -1.0054 -9.9609 0.0000 36.3571 0.0000
# 6 0.0000 0.0000 0.0000 -2.5663 0.0000 28.8611
#
#
#
# Elastic Compliance Matrix: (Units=1/GPa)
#
#
# Indices 1 2 3 4 5 6 
#
# 1 0.022838 -0.009235 -0.006307 0.000000 0.000952 0.000000
# 2 -0.009235 0.012575 0.001129 0.000000 -0.000530 0.000000
# 3 -0.006307 0.001129 0.011090 0.000000 0.002259 0.000000
# 4 0.000000 0.000000 0.000000 0.027777 0.000000 0.002470
# 5 0.000952 -0.000530 0.002259 0.000000 0.028232 0.000000
# 6 0.000000 0.000000 0.000000 0.002470 0.000000 0.034868
#
#
# Mechanical properties :
#
#
# Convention : Reuss Voigt Hill
#
# Bulk Modulus (GPa) = 56.56912 57.88335 57.22624
# Shear Modulus (GPa) = 29.05335 33.32463 31.18899
#
# Velocity S-wave (km/s) = 3.82041 4.09161 3.95833
# Velocity P-wave (km/s) = 6.91948 7.16941 7.04556
#
# Compressibility (1/GPa) = 0.01767749
#
# Stress axis : x y z
#
# Youngs Moduli (GPa) = 43.78698 79.52537 90.17095
#
# Poissons Ratio (x) = 0.73439 0.56870
# Poissons Ratio (y) = 0.40436 -0.10181
# Poissons Ratio (z) = 0.27616 -0.08979
#
# Static dielectric constant tensor:
#      x y z
#    x 1.717670 0.000000 0.005780 
#    y 0.000000 1.717720 0.000000 
#    z 0.005780 0.000000 1.744300 
# 
# From -- ./inp_files/333700.got.cif
#   From: 2010.05.17/outbox.cif.g08.bks.cpg/sg12_167_cif.got.tgz:333700.got - 2010.06.03 13:09:07.
