data_PCOD9211089
_publ_section_title
;
Structure prediction by ZEFSAII (Michael W. Deem and Ramdas Pophale) SiO2 
 PCOD9211089
Probable space group: C 2/M
;
_chemical_formula_sum "Si O2"
_cell_formula_units_Z 56
_cell_length_a 27.969679
_cell_length_b 17.895908
_cell_length_c 6.842593
_cell_angle_alpha 90.000000
_cell_angle_beta 49.888716
_cell_angle_gamma 90.000000
_cell_volume 2619.429431
_symmetry_space_group_name_H-M "C 2/M"
_symmetry_group_IT_number 12
_symmetry_cell_setting 'monoclinic'
loop_
_space_group_symop_operation_xyz
x,y,z
-x,y,-z
-x,-y,-z
x,-y,z
1/2+x,1/2+y,z
1/2-x,1/2+y,-z
1/2-x,1/2-y,-z
1/2+x,1/2-y,z
loop_
_atom_site_type_symbol
_atom_site_label
_atom_site_fract_x
_atom_site_fract_y
_atom_site_fract_z
Si Si1 0.727594 0.672062 0.963464
Si Si2 0.843584 0.328323 0.406216
Si Si3 0.552739 0.585718 0.022973
Si Si4 0.079170 0.362917 0.148005
Si Si5 0.355964 0.341803 0.491252
Si Si6 0.090021 0.804478 0.250067
Si Si7 0.945454 0.415605 0.373510
O O1 0.781948 0.643174 0.680788
O O2 0.750000 0.750000 0.000000
O O3 0.701919 0.629250 0.223697
O O4 0.664469 0.687735 0.009466
O O5 0.841842 0.238074 0.426569
O O6 0.902856 0.357469 0.371588
O O7 0.859554 0.358098 0.148603
O O8 0.547116 0.500000 0.098513
O O9 0.616556 0.601688 0.736184
O O10 0.500000 0.601671 0.000000
O O11 0.553651 0.639024 0.207375
O O12 0.069659 0.278829 0.252844
O O13 0.080536 0.413439 0.336019
O O14 0.017481 0.389603 0.194662
O O15 0.407458 0.322764 0.525849
O O16 0.940531 0.500000 0.309952
#
# Coordination Sequence:
#
# PCOD9211089 Si02
#       7
#     8   8   8   8   8   8   8
#     4   8  18  39  61  94 125 155 210 263 313 364
#     4  11  20  38  64  91 119 162 214 255 308 362
#     4  11  25  41  62  93 127 162 210 265 324 385
#     4  11  21  35  63  90 117 162 205 261 301 374
#     4   9  20  40  61  90 124 161 200 263 313 379
#     4  10  21  39  66  93 121 160 212 259 315 382
#     4  11  25  41  56  88 132 166 203 255 319 374
#
# _framework density 21.378702000000001
#
# number of rings (size 3 to 8) (size 9 to 14) (size 15 to 20)
#    0.857    1.000    2.857    1.286    2.000    3.429 
#    2.571    2.857    0.000    0.000    0.000    0.000 
#    0.000    0.000    0.000    0.000    0.000    0.000 
#
# Total GULP energy -156105.226863 kJ/mol
# GULP energy per Si atom -5575.186674 kJ/mol
# Density = 2.133004 g / cm^3
# Si number density = 21.378702 Si / 1000 Ang^3
#
#
#
# Elastic Constant Matrix: (Units=GPa)
#
#
# Indices 1 2 3 4 5 6 
#
# 1 25.7726 12.8330 -7.7736 0.0000 3.7557 0.0000
# 2 12.8330 50.9392 0.5991 0.0000 12.8002 0.0000
# 3 -7.7736 0.5991 145.3404 0.0000 13.9572 0.0000
# 4 0.0000 0.0000 0.0000 16.3852 0.0000 -0.1610
# 5 3.7557 12.8002 13.9572 0.0000 16.2268 0.0000
# 6 0.0000 0.0000 0.0000 -0.1610 0.0000 -13.7981
#
#
#
# Elastic Compliance Matrix: (Units=1/GPa)
#
#
# Indices 1 2 3 4 5 6 
#
# 1 0.045524 -0.010248 0.002957 0.000000 -0.004996 0.000000
# 2 -0.010248 0.027289 0.001285 0.000000 -0.020259 0.000000
# 3 0.002957 0.001285 0.007844 0.000000 -0.008445 0.000000
# 4 0.000000 0.000000 0.000000 0.061024 0.000000 -0.000712
# 5 -0.004996 -0.020259 -0.008445 0.000000 0.086028 0.000000
# 6 0.000000 0.000000 0.000000 -0.000712 0.000000 -0.072466
#
#
# Mechanical properties :
#
#
# Convention : Reuss Voigt Hill
#
# Bulk Modulus (GPa) = 14.56787 25.92989 20.24888
# Shear Modulus (GPa) = 26.29690 18.18903 22.24296
#
# Velocity S-wave (km/s) = 3.51101 2.92001 3.22906
# Velocity P-wave (km/s) = 4.82341 4.85014 4.83679
#
# Compressibility (1/GPa) = 0.06864420
#
# Stress axis : x y z
#
# Youngs Moduli (GPa) = 21.96659 36.64516 127.48205
#
# Poissons Ratio (x) = 0.37554 -0.37695
# Poissons Ratio (y) = 0.22511 -0.16381
# Poissons Ratio (z) = -0.06495 -0.04709
#
# Static dielectric constant tensor:
#      x y z
#    x 1.794710 0.000000 0.014600 
#    y 0.000000 1.699880 0.000000 
#    z 0.014600 0.000000 1.865430 
# 
# From -- ./inp_files/112598.got.cif
#   From: 2010.05.17/outbox.cif.g08.bks.cpg/sg12_57_cif.got.tgz:112598.got - 2010.06.03 13:09:07.
