data_PCOD9211648
_publ_section_title
;
Structure prediction by ZEFSAII (Michael W. Deem and Ramdas Pophale) SiO2 
 PCOD9211648
Probable space group: C 2/M
;
_chemical_formula_sum "Si O2"
_cell_formula_units_Z 34
_cell_length_a 16.187134
_cell_length_b 12.669490
_cell_length_c 9.781776
_cell_angle_alpha 90.000000
_cell_angle_beta 38.509839
_cell_angle_gamma 90.000000
_cell_volume 1249.079603
_symmetry_space_group_name_H-M "C 2/M"
_symmetry_group_IT_number 12
_symmetry_cell_setting 'monoclinic'
loop_
_space_group_symop_operation_xyz
x,y,z
-x,y,-z
-x,-y,-z
x,-y,z
1/2+x,1/2+y,z
1/2-x,1/2+y,-z
1/2-x,1/2-y,-z
1/2+x,1/2-y,z
loop_
_atom_site_type_symbol
_atom_site_label
_atom_site_fract_x
_atom_site_fract_y
_atom_site_fract_z
Si Si1 0.773969 0.380440 0.323225
Si Si2 0.541501 0.114218 0.646507
Si Si3 0.475556 0.658052 0.688450
Si Si4 0.000000 0.000000 0.000000
Si Si5 0.289876 0.656035 0.158649
O O1 0.795264 0.500000 0.241833
O O2 0.870980 0.369102 0.327912
O O3 0.618013 0.373538 0.567373
O O4 0.794464 0.281188 0.194392
O O5 0.457145 0.217333 0.730996
O O6 0.645128 0.118336 0.387466
O O7 0.478154 0.000000 0.737438
O O8 0.500000 0.628808 0.500000
O O9 0.348409 0.620877 0.936114
O O10 0.887226 0.091989 0.129928
#
# Coordination Sequence:
#
# PCOD9211648 Si02
#       5
#     8   8   8   2   8
#     4  10  23  42  65  95 129 161 206 268 318 366
#     4  10  21  40  64  94 126 161 209 269 314 366
#     4  11  25  41  60  92 130 170 213 254 312 379
#     4  12  20  36  72  96 114 154 216 258 306 376
#     4  11  22  38  64  95 122 165 207 257 311 374
#
# _framework density 27.220041999999999
#
# number of rings (size 3 to 8) (size 9 to 14) (size 15 to 20)
#    0.000    1.412    1.176    5.647    4.941    5.647 
#    0.000    5.294    0.000    0.000    0.000    0.000 
#    0.000    0.000    0.000    0.000    0.000    0.000 
#
# Total GULP energy -94910.032706 kJ/mol
# GULP energy per Si atom -5582.943100 kJ/mol
# Density = 2.715809 g / cm^3
# Si number density = 27.220042 Si / 1000 Ang^3
#
#
#
# Elastic Constant Matrix: (Units=GPa)
#
#
# Indices 1 2 3 4 5 6 
#
# 1 74.1718 11.1007 13.7846 0.0000 20.2659 0.0000
# 2 11.1007 216.7721 15.9391 0.0000 9.4089 0.0000
# 3 13.7846 15.9391 160.4867 0.0000 32.8958 0.0000
# 4 0.0000 0.0000 0.0000 -15.2489 0.0000 -16.5547
# 5 20.2659 9.4089 32.8958 0.0000 36.6711 0.0000
# 6 0.0000 0.0000 0.0000 -16.5547 0.0000 19.9364
#
#
#
# Elastic Compliance Matrix: (Units=1/GPa)
#
#
# Indices 1 2 3 4 5 6 
#
# 1 0.015962 -0.000459 0.000562 0.000000 -0.009208 0.000000
# 2 -0.000459 0.004688 -0.000284 0.000000 -0.000694 0.000000
# 3 0.000562 -0.000284 0.007670 0.000000 -0.007118 0.000000
# 4 0.000000 0.000000 0.000000 -0.034488 0.000000 -0.028638
# 5 -0.009208 -0.000694 -0.007118 0.000000 0.038921 0.000000
# 6 0.000000 0.000000 0.000000 -0.028638 0.000000 0.026379
#
#
# Mechanical properties :
#
#
# Convention : Reuss Voigt Hill
#
# Bulk Modulus (GPa) = 35.76788 59.23104 47.49946
# Shear Modulus (GPa) = 72.65987 35.64545 54.15266
#
# Velocity S-wave (km/s) = 5.17218 3.62267 4.46515
# Velocity P-wave (km/s) = 6.98838 6.26942 6.63864
#
# Compressibility (1/GPa) = 0.02795805
#
# Stress axis : x y z
#
# Youngs Moduli (GPa) = 62.64761 213.32608 130.37796
#
# Poissons Ratio (x) = 0.09793 -0.07326
# Poissons Ratio (y) = 0.02876 0.03700
# Poissons Ratio (z) = -0.03520 0.06054
#
# Static dielectric constant tensor:
#      x y z
#    x 2.229990 0.000000 0.070930 
#    y 0.000000 2.146630 0.000000 
#    z 0.070930 0.000000 2.093640 
# 
# From -- ./inp_files/166994.got.cif
#   From: 2010.05.17/outbox.cif.g08.bks.cpg/sg12_84_cif.got.tgz:166994.got - 2010.06.03 13:09:07.
