data_PCOD9211027
_publ_section_title
;
Structure prediction by ZEFSAII (Michael W. Deem and Ramdas Pophale) SiO2 
 PCOD9211027
Probable space group: C 2/M
;
_chemical_formula_sum "Si O2"
_cell_formula_units_Z 56
_cell_length_a 21.197829
_cell_length_b 8.956693
_cell_length_c 17.781658
_cell_angle_alpha 90.000000
_cell_angle_beta 62.532204
_cell_angle_gamma 90.000000
_cell_volume 2995.485588
_symmetry_space_group_name_H-M "C 2/M"
_symmetry_group_IT_number 12
_symmetry_cell_setting 'monoclinic'
loop_
_space_group_symop_operation_xyz
x,y,z
-x,y,-z
-x,-y,-z
x,-y,z
1/2+x,1/2+y,z
1/2-x,1/2+y,-z
1/2-x,1/2-y,-z
1/2+x,1/2-y,z
loop_
_atom_site_type_symbol
_atom_site_label
_atom_site_fract_x
_atom_site_fract_y
_atom_site_fract_z
Si Si1 0.815198 0.173820 0.922537
Si Si2 0.827346 0.320462 0.471862
Si Si3 0.907302 0.180429 0.736501
Si Si4 0.080794 0.679718 0.432626
Si Si5 0.091567 0.670804 0.015365
Si Si6 0.424077 0.169746 0.142900
Si Si7 0.065611 0.177908 0.706578
O O1 0.843871 0.231664 0.826642
O O2 0.800747 0.000000 0.922193
O O3 0.750000 0.250000 0.000000
O O4 0.878735 0.207198 0.944983
O O5 0.822519 0.500000 0.471227
O O6 0.750000 0.250000 0.500000
O O7 0.863450 0.279845 0.532335
O O8 0.881615 0.260799 0.379113
O O9 0.901939 0.247307 0.656667
O O10 0.984109 0.221074 0.730580
O O11 0.905305 0.000000 0.734159
O O12 0.081344 0.500000 0.424857
O O13 0.000000 0.723516 0.500000
O O14 0.117180 0.500000 0.016311
O O15 0.110541 0.707956 0.918505
O O16 0.007512 0.666807 0.076043
O O17 0.415426 0.274894 0.218907
O O18 0.402964 0.000000 0.174704
O O19 0.071930 0.000000 0.694128
#
# Coordination Sequence:
#
# PCOD9211027 Si02
#       7
#     8   8   8   8   8   8   8
#     4  11  23  40  58  83 117 158 203 251 305 360
#     4  11  24  43  64  90 124 161 199 248 308 368
#     4  10  22  38  60  90 121 154 201 252 302 361
#     4  10  21  39  65  95 123 155 203 254 301 363
#     4   9  18  34  56  82 112 148 190 237 291 348
#     4   9  18  33  56  85 114 147 189 237 289 345
#     4  11  21  36  60  90 120 154 197 246 299 361
#
# _framework density 18.694800000000001
#
# number of rings (size 3 to 8) (size 9 to 14) (size 15 to 20)
#    0.000    1.857    2.857    2.143    0.000    3.714 
#    2.571    1.429    0.000    0.000    0.000    0.000 
#    0.000    0.000    0.000    0.000    0.000    0.000 
#
# Total GULP energy -156178.694670 kJ/mol
# GULP energy per Si atom -5577.810524 kJ/mol
# Density = 1.865225 g / cm^3
# Si number density = 18.694800 Si / 1000 Ang^3
#
#
#
# Elastic Constant Matrix: (Units=GPa)
#
#
# Indices 1 2 3 4 5 6 
#
# 1 62.7553 23.3921 55.9254 0.0000 0.4705 0.0000
# 2 23.3921 35.4530 49.3034 0.0000 -0.5552 -0.0001
# 3 55.9254 49.3034 167.1276 0.0000 5.9093 0.0000
# 4 0.0000 0.0000 0.0000 28.6824 0.0000 1.3402
# 5 0.4705 -0.5552 5.9093 0.0000 29.9228 0.0000
# 6 0.0000 -0.0001 0.0000 1.3402 0.0000 29.7287
#
#
#
# Elastic Compliance Matrix: (Units=1/GPa)
#
#
# Indices 1 2 3 4 5 6 
#
# 1 0.023953 -0.007831 -0.005727 0.000000 0.000609 0.000000
# 2 -0.007831 0.050798 -0.012490 0.000000 0.003532 0.000000
# 3 -0.005727 -0.012490 0.011671 0.000000 -0.002447 0.000000
# 4 0.000000 0.000000 0.000000 0.034938 0.000000 -0.001575
# 5 0.000609 0.003532 -0.002447 0.000000 0.033958 0.000000
# 6 0.000000 0.000000 0.000000 -0.001575 0.000000 0.033709
#
#
# Mechanical properties :
#
#
# Convention : Reuss Voigt Hill
#
# Bulk Modulus (GPa) = 29.13189 58.06420 43.59804
# Shear Modulus (GPa) = 19.79694 26.78110 23.28902
#
# Velocity S-wave (km/s) = 3.25769 3.78900 3.53335
# Velocity P-wave (km/s) = 5.45589 7.09003 6.32595
#
# Compressibility (1/GPa) = 0.03432665
#
# Stress axis : x y z
#
# Youngs Moduli (GPa) = 41.74904 19.68575 85.68289
#
# Poissons Ratio (x) = 0.15415 0.49068
# Poissons Ratio (y) = 0.32692 1.07020
# Poissons Ratio (z) = 0.23908 0.24588
#
# Static dielectric constant tensor:
#      x y z
#    x 1.732510 0.000000 -0.014820 
#    y 0.000000 1.637040 0.000000 
#    z -0.014820 0.000000 1.640640 
# 
# From -- ./inp_files/280941.got.cif
#   From: 2010.05.17/outbox.cif.g08.bks.cpg/sg12_141_cif.got.tgz:280941.got - 2010.06.03 13:09:07.
