data_PCOD9211249
_publ_section_title
;
Structure prediction by ZEFSAII (Michael W. Deem and Ramdas Pophale) SiO2 
 PCOD9211249
Probable space group: C 2/M
;
_chemical_formula_sum "Si O2"
_cell_formula_units_Z 48
_cell_length_a 10.645556
_cell_length_b 24.885615
_cell_length_c 8.309267
_cell_angle_alpha 90.000000
_cell_angle_beta 83.796566
_cell_angle_gamma 90.000000
_cell_volume 2188.411310
_symmetry_space_group_name_H-M "C 2/M"
_symmetry_group_IT_number 12
_symmetry_cell_setting 'monoclinic'
loop_
_space_group_symop_operation_xyz
x,y,z
-x,y,-z
-x,-y,-z
x,-y,z
1/2+x,1/2+y,z
1/2-x,1/2+y,-z
1/2-x,1/2-y,-z
1/2+x,1/2-y,z
loop_
_atom_site_type_symbol
_atom_site_label
_atom_site_fract_x
_atom_site_fract_y
_atom_site_fract_z
Si Si1 0.379868 0.937853 0.223027
Si Si2 0.410146 0.149319 0.822245
Si Si3 0.308179 0.378462 0.950869
Si Si4 0.555970 0.353658 0.747100
Si Si5 0.084376 0.265468 0.650715
Si Si6 0.234412 0.361186 0.496752
O O1 0.505226 0.903780 0.165971
O O2 0.267518 0.928991 0.108813
O O3 0.325167 0.907530 0.387144
O O4 0.407482 0.000000 0.241533
O O5 0.501583 0.198815 0.781996
O O6 0.340358 0.141390 0.661438
O O7 0.308685 0.158742 0.976575
O O8 0.406783 0.356973 0.804355
O O9 0.383497 0.384185 0.107774
O O10 0.602019 0.291617 0.732672
O O11 0.622392 0.373644 0.574950
O O12 0.203155 0.303554 0.585692
O O13 0.000000 0.256817 0.500000
#
# Coordination Sequence:
#
# PCOD9211249 Si02
#       6
#     8   8   8   8   8   8
#     4  11  23  41  66  89 112 153 206 264 309 339
#     4   9  20  41  59  89 125 150 200 251 292 360
#     4  10  23  40  55  87 125 158 200 244 292 361
#     4  10  21  40  58  84 127 166 193 234 302 362
#     4   9  18  34  62  90 117 165 197 239 296 345
#     4   9  20  39  62  89 125 150 200 249 292 362
#
# _framework density 21.933720000000001
#
# number of rings (size 3 to 8) (size 9 to 14) (size 15 to 20)
#    0.000    2.333    0.000    2.500    2.333    3.333 
#   18.000    5.833    0.000    0.000    0.000    0.000 
#    0.000    0.000    0.000    0.000    0.000    0.000 
#
# Total GULP energy -133854.184681 kJ/mol
# GULP energy per Si atom -5577.257695 kJ/mol
# Density = 2.188380 g / cm^3
# Si number density = 21.933720 Si / 1000 Ang^3
#
#
#
# Elastic Constant Matrix: (Units=GPa)
#
#
# Indices 1 2 3 4 5 6 
#
# 1 119.7966 22.9367 51.6646 0.0000 -29.2072 0.0000
# 2 22.9367 71.2602 1.2736 0.0000 -2.0382 0.0000
# 3 51.6646 1.2736 86.1112 0.0000 -36.5104 0.0000
# 4 0.0000 0.0000 0.0000 10.7546 0.0000 10.0272
# 5 -29.2072 -2.0382 -36.5104 0.0000 62.7133 0.0000
# 6 0.0000 0.0000 0.0000 10.0272 0.0000 11.4967
#
#
#
# Elastic Compliance Matrix: (Units=1/GPa)
#
#
# Indices 1 2 3 4 5 6 
#
# 1 0.012360 -0.003809 -0.006600 0.000000 0.001790 0.000000
# 2 -0.003809 0.015220 0.002015 0.000000 -0.000106 0.000000
# 3 -0.006600 0.002015 0.018944 0.000000 0.008020 0.000000
# 4 0.000000 0.000000 0.000000 0.497726 0.000000 -0.434106
# 5 0.001790 -0.000106 0.008020 0.000000 0.021445 0.000000
# 6 0.000000 0.000000 0.000000 -0.434106 0.000000 0.465599
#
#
# Mechanical properties :
#
#
# Convention : Reuss Voigt Hill
#
# Bulk Modulus (GPa) = 33.63029 47.65754 40.64391
# Shear Modulus (GPa) = 4.72593 30.41248 17.56921
#
# Velocity S-wave (km/s) = 1.46946 3.72770 2.83329
# Velocity P-wave (km/s) = 4.27142 6.34845 5.41054
#
# Compressibility (1/GPa) = 0.02973510
#
# Stress axis : x y z
#
# Youngs Moduli (GPa) = 80.90848 65.70278 52.78851
#
# Poissons Ratio (x) = 0.25027 0.34842
# Poissons Ratio (y) = 0.30819 -0.10638
# Poissons Ratio (z) = 0.53402 -0.13241
#
# Static dielectric constant tensor:
#      x y z
#    x 1.911750 0.000000 -0.009360 
#    y 0.000000 1.724090 0.000000 
#    z -0.009360 0.000000 1.854420 
# 
# From -- ./inp_files/50627.got.cif
#   From: 2010.05.17/outbox.cif.g08.bks.cpg/sg12_26_cif.got.tgz:50627.got - 2010.06.03 13:09:07.
