data_PCOD9211210
_publ_section_title
;
Structure prediction by ZEFSAII (Michael W. Deem and Ramdas Pophale) SiO2 
 PCOD9211210
Probable space group: C 2/M
;
_chemical_formula_sum "Si O2"
_cell_formula_units_Z 56
_cell_length_a 9.330867
_cell_length_b 18.187310
_cell_length_c 27.403720
_cell_angle_alpha 90.000000
_cell_angle_beta 142.573154
_cell_angle_gamma 90.000000
_cell_volume 2826.334280
_symmetry_space_group_name_H-M "C 2/M"
_symmetry_group_IT_number 12
_symmetry_cell_setting 'monoclinic'
loop_
_space_group_symop_operation_xyz
x,y,z
-x,y,-z
-x,-y,-z
x,-y,z
1/2+x,1/2+y,z
1/2-x,1/2+y,-z
1/2-x,1/2-y,-z
1/2+x,1/2-y,z
loop_
_atom_site_type_symbol
_atom_site_label
_atom_site_fract_x
_atom_site_fract_y
_atom_site_fract_z
Si Si1 0.113504 0.819686 0.396964
Si Si2 0.168618 0.583308 0.715179
Si Si3 0.507983 0.739130 0.089315
Si Si4 0.908420 0.633617 0.742143
Si Si5 0.498577 0.165322 0.581908
Si Si6 0.355886 0.417523 0.909974
Si Si7 0.975924 0.216808 0.187385
O O1 0.275796 0.821521 0.392483
O O2 0.278273 0.845873 0.486243
O O3 0.047207 0.736427 0.395755
O O4 0.872695 0.866174 0.326659
O O5 0.251912 0.500000 0.741548
O O6 0.380403 0.642539 0.770358
O O7 0.000300 0.600615 0.715900
O O8 0.035244 0.598189 0.628439
O O9 0.556874 0.652145 0.096963
O O10 0.694479 0.788338 0.110827
O O11 0.539312 0.756478 0.154112
O O12 0.250000 0.750000 0.000000
O O13 0.072156 0.595217 0.828202
O O14 0.970965 0.720882 0.758366
O O15 0.403698 0.500000 0.904656
O O16 0.500000 0.411219 0.000000
#
# Coordination Sequence:
#
# PCOD9211210 Si02
#       7
#     8   8   8   8   8   8   8
#     4  10  21  39  69 101 128 169 228 276 317 397
#     4  12  25  43  64  96 141 177 212 275 345 392
#     4  11  22  39  65  96 125 163 224 282 324 388
#     4  11  22  39  67  97 125 176 229 268 320 402
#     4  10  22  40  65  99 136 171 215 275 337 385
#     4  10  21  40  61  88 131 174 213 269 335 392
#     4  11  22  38  64  94 126 168 221 267 323 391
#
# _framework density 19.813649999999999
#
# number of rings (size 3 to 8) (size 9 to 14) (size 15 to 20)
#    0.000    1.286    4.286    3.429    2.000    1.714 
#    0.000    5.714    0.000    1.714    0.000    0.000 
#    0.000    0.000    0.000    0.000    0.000    0.000 
#
# Total GULP energy -156083.738685 kJ/mol
# GULP energy per Si atom -5574.419239 kJ/mol
# Density = 1.976855 g / cm^3
# Si number density = 19.813650 Si / 1000 Ang^3
#
#
#
# Elastic Constant Matrix: (Units=GPa)
#
#
# Indices 1 2 3 4 5 6 
#
# 1 81.2468 28.9127 37.8074 -0.0001 10.7518 -0.0001
# 2 28.9127 98.1361 30.1986 -0.0002 2.5071 -0.0001
# 3 37.8074 30.1986 113.6135 -0.0003 17.0529 -0.0002
# 4 -0.0001 -0.0002 -0.0003 24.0690 -0.0002 2.0247
# 5 10.7518 2.5071 17.0529 -0.0002 42.0748 -0.0001
# 6 -0.0001 -0.0001 -0.0002 2.0247 -0.0001 18.5452
#
#
#
# Elastic Compliance Matrix: (Units=1/GPa)
#
#
# Indices 1 2 3 4 5 6 
#
# 1 0.015637 -0.003322 -0.003993 0.000000 -0.002179 0.000000
# 2 -0.003322 0.011816 -0.002190 0.000000 0.001033 0.000000
# 3 -0.003993 -0.002190 0.011223 0.000000 -0.003398 0.000000
# 4 0.000000 0.000000 0.000000 0.041932 0.000000 -0.004578
# 5 -0.002179 0.001033 -0.003398 0.000000 0.025640 0.000000
# 6 0.000000 0.000000 0.000000 -0.004578 0.000000 0.054422
#
#
# Mechanical properties :
#
#
# Convention : Reuss Voigt Hill
#
# Bulk Modulus (GPa) = 50.85354 54.09262 52.47308
# Shear Modulus (GPa) = 26.84747 30.00964 28.42855
#
# Velocity S-wave (km/s) = 3.68502 3.89600 3.79198
# Velocity P-wave (km/s) = 6.62023 6.89916 6.76113
#
# Compressibility (1/GPa) = 0.01966431
#
# Stress axis : x y z
#
# Youngs Moduli (GPa) = 63.95000 84.62829 89.10450
#
# Poissons Ratio (x) = 0.28118 0.35583
# Poissons Ratio (y) = 0.21247 0.19515
# Poissons Ratio (z) = 0.25538 0.18535
#
# Static dielectric constant tensor:
#      x y z
#    x 1.715380 0.000000 0.004150 
#    y 0.000000 1.683310 0.000000 
#    z 0.004150 0.000000 1.788400 
# 
# From -- ./inp_files/356727.got.cif
#   From: 2010.05.17/outbox.cif.g08.bks.cpg/sg12_179_cif.got.tgz:356727.got - 2010.06.03 13:09:07.
