data_PCOD9211524
_publ_section_title
;
Structure prediction by ZEFSAII (Michael W. Deem and Ramdas Pophale) SiO2 
 PCOD9211524
Probable space group: C 2/M
;
_chemical_formula_sum "Si O2"
_cell_formula_units_Z 56
_cell_length_a 14.295137
_cell_length_b 23.040208
_cell_length_c 14.976324
_cell_angle_alpha 90.000000
_cell_angle_beta 29.690803
_cell_angle_gamma 90.000000
_cell_volume 2443.234400
_symmetry_space_group_name_H-M "C 2/M"
_symmetry_group_IT_number 12
_symmetry_cell_setting 'monoclinic'
loop_
_space_group_symop_operation_xyz
x,y,z
-x,y,-z
-x,-y,-z
x,-y,z
1/2+x,1/2+y,z
1/2-x,1/2+y,-z
1/2-x,1/2-y,-z
1/2+x,1/2-y,z
loop_
_atom_site_type_symbol
_atom_site_label
_atom_site_fract_x
_atom_site_fract_y
_atom_site_fract_z
Si Si1 0.691039 0.569445 0.286271
Si Si2 0.445392 0.281576 0.441880
Si Si3 0.426846 0.105219 0.934305
Si Si4 0.133004 0.271435 0.978901
Si Si5 0.050842 0.856031 0.060855
Si Si6 0.267064 0.158061 0.540982
Si Si7 0.411466 0.064842 0.759332
O O1 0.500000 0.582550 0.500000
O O2 0.705562 0.500000 0.271480
O O3 0.876465 0.595430 0.178571
O O4 0.735422 0.591991 0.149287
O O5 0.500000 0.294377 0.500000
O O6 0.650315 0.275226 0.228274
O O7 0.337716 0.219631 0.523633
O O8 0.324736 0.326285 0.480050
O O9 0.443235 0.062944 0.838541
O O10 0.418916 0.173311 0.918079
O O11 0.106843 0.209050 0.044297
O O12 0.000000 0.277010 0.000000
O O13 0.885082 0.870151 0.266336
O O14 0.208302 0.904972 0.924615
O O15 0.000000 0.847384 0.000000
O O16 0.437649 0.112349 0.397861
O O17 0.422986 0.000000 0.710986
#
# Coordination Sequence:
#
# PCOD9211524 Si02
#       7
#     8   8   8   8   8   8   8
#     4  10  21  40  63  92 137 197 252 287 336 420
#     4  11  24  43  74 114 157 193 239 302 372 451
#     4  11  23  40  63 100 143 189 233 292 358 426
#     4  11  22  40  69 108 148 185 236 294 370 443
#     4  11  26  50  77 106 141 187 242 316 383 448
#     4  11  27  47  75 113 147 196 249 302 375 448
#     4  12  28  49  71 102 146 191 249 311 369 441
#
# _framework density 22.920435999999999
#
# number of rings (size 3 to 8) (size 9 to 14) (size 15 to 20)
#    0.000    1.000    2.857    4.286    6.000    4.857 
#    0.000    0.714    0.000    0.429    0.000    0.000 
#    0.000    0.000    0.000    0.000    0.000    0.000 
#
# Total GULP energy -156471.400582 kJ/mol
# GULP energy per Si atom -5588.264306 kJ/mol
# Density = 2.286827 g / cm^3
# Si number density = 22.920436 Si / 1000 Ang^3
#
#
#
# Elastic Constant Matrix: (Units=GPa)
#
#
# Indices 1 2 3 4 5 6 
#
# 1 69.8455 21.9823 12.8523 -0.0092 -1.7146 0.0051
# 2 21.9823 126.4719 18.3447 0.0425 -10.5296 -0.0023
# 3 12.8523 18.3447 153.6987 0.0600 -11.3812 -0.0006
# 4 -0.0092 0.0425 0.0600 -41.7392 0.0193 -1.2127
# 5 -1.7146 -10.5296 -11.3812 0.0193 33.1189 -0.0052
# 6 0.0051 -0.0023 -0.0006 -1.2127 -0.0052 17.0323
#
#
#
# Elastic Compliance Matrix: (Units=1/GPa)
#
#
# Indices 1 2 3 4 5 6 
#
# 1 0.015293 -0.002543 -0.001002 -0.000007 -0.000361 -0.000006
# 2 -0.002543 0.008641 -0.000641 0.000009 0.002395 0.000003
# 3 -0.001002 -0.000641 0.006821 0.000010 0.002088 0.000002
# 4 -0.000007 0.000009 0.000010 -0.023909 0.000020 -0.001702
# 5 -0.000361 0.002395 0.002088 0.000020 0.031655 0.000012
# 6 -0.000006 0.000003 0.000002 -0.001702 0.000012 0.058591
#
#
# Mechanical properties :
#
#
# Convention : Reuss Voigt Hill
#
# Bulk Modulus (GPa) = 44.67650 50.70831 47.69240
# Shear Modulus (GPa) = 44.27675 21.47152 32.87414
#
# Velocity S-wave (km/s) = 4.39995 3.06401 3.79129
# Velocity P-wave (km/s) = 6.73402 5.88976 6.32599
#
# Compressibility (1/GPa) = 0.02238313
#
# Stress axis : x y z
#
# Youngs Moduli (GPa) = 65.38878 115.72302 146.60154
#
# Poissons Ratio (x) = 0.29426 0.14690
# Poissons Ratio (y) = 0.16627 0.09403
# Poissons Ratio (z) = 0.06552 0.07422
#
# Static dielectric constant tensor:
#      x y z
#    x 1.929650 -0.000030 0.037380 
#    y -0.000030 1.881260 0.000020 
#    z 0.037380 0.000020 1.862810 
# 
# From -- ./inp_files/218655.got.cif
#   From: 2010.05.17/outbox.cif.g08.bks.cpg/sg12_110_cif.got.tgz:218655.got - 2010.06.03 13:09:07.
