data_PCOD9211169
_publ_section_title
;
Structure prediction by ZEFSAII (Michael W. Deem and Ramdas Pophale) SiO2 
 PCOD9211169
Probable space group: C 2/M
;
_chemical_formula_sum "Si O2"
_cell_formula_units_Z 48
_cell_length_a 6.805394
_cell_length_b 13.631164
_cell_length_c 21.322766
_cell_angle_alpha 90.000000
_cell_angle_beta 65.630755
_cell_angle_gamma 90.000000
_cell_volume 1801.785030
_symmetry_space_group_name_H-M "C 2/M"
_symmetry_group_IT_number 12
_symmetry_cell_setting 'monoclinic'
loop_
_space_group_symop_operation_xyz
x,y,z
-x,y,-z
-x,-y,-z
x,-y,z
1/2+x,1/2+y,z
1/2-x,1/2+y,-z
1/2-x,1/2-y,-z
1/2+x,1/2-y,z
loop_
_atom_site_type_symbol
_atom_site_label
_atom_site_fract_x
_atom_site_fract_y
_atom_site_fract_z
Si Si1 0.510554 0.394265 0.365467
Si Si2 0.291820 0.135051 0.486174
Si Si3 0.596478 0.831697 0.340447
Si Si4 0.029013 0.825119 0.066280
Si Si5 0.926195 0.611132 0.095323
Si Si6 0.390779 0.113810 0.803850
O O1 0.617353 0.500000 0.335949
O O2 0.412154 0.403605 0.448804
O O3 0.611975 0.285554 0.349550
O O4 0.306377 0.381011 0.344466
O O5 0.500000 0.107945 0.500000
O O6 0.250000 0.250000 0.500000
O O7 0.387144 0.123423 0.404044
O O8 0.580325 0.846715 0.268925
O O9 0.063469 0.706861 0.057003
O O10 0.808774 0.836226 0.134465
O O11 0.208446 0.877043 0.084906
O O12 0.000000 0.866122 0.000000
O O13 0.012525 0.500000 0.073424
O O14 0.911622 0.621877 0.172805
O O15 0.336539 0.000000 0.805225
#
# Coordination Sequence:
#
# PCOD9211169 Si02
#       6
#     8   8   8   8   8   8
#     4  10  21  39  67  96 128 177 227 277 339 402
#     4   8  16  33  59  91 125 168 219 273 330 391
#     4  10  22  40  64  95 136 175 222 282 337 404
#     4  12  26  49  74 106 143 182 231 290 346 410
#     4  11  26  46  74 106 139 182 232 283 348 419
#     4  11  26  46  71 104 142 187 234 285 351 419
#
# _framework density 26.640246999999999
#
# number of rings (size 3 to 8) (size 9 to 14) (size 15 to 20)
#    0.000    1.667    1.667    1.500    2.333    5.333 
#    0.000    2.500    0.000   45.000    0.000    0.000 
#    0.000    0.000    0.000    0.000    0.000    0.000 
#
# Total GULP energy -134286.632824 kJ/mol
# GULP energy per Si atom -5595.276368 kJ/mol
# Density = 2.657961 g / cm^3
# Si number density = 26.640247 Si / 1000 Ang^3
#
#
#
# Elastic Constant Matrix: (Units=GPa)
#
#
# Indices 1 2 3 4 5 6 
#
# 1 117.1599 24.8193 71.3857 0.0000 29.1052 0.0000
# 2 24.8193 213.7344 27.1781 0.0000 12.0377 0.0000
# 3 71.3857 27.1781 216.4082 0.0000 54.5653 0.0000
# 4 0.0000 0.0000 0.0000 10.7973 0.0000 -2.4535
# 5 29.1052 12.0377 54.5653 0.0000 51.8710 0.0000
# 6 0.0000 0.0000 0.0000 -2.4535 0.0000 8.9675
#
#
#
# Elastic Compliance Matrix: (Units=1/GPa)
#
#
# Indices 1 2 3 4 5 6 
#
# 1 0.011186 -0.000765 -0.002798 0.000000 -0.003156 0.000000
# 2 -0.000765 0.004823 -0.000244 0.000000 -0.000433 0.000000
# 3 -0.002798 -0.000244 0.007029 0.000000 -0.005767 0.000000
# 4 0.000000 0.000000 0.000000 0.098755 0.000000 0.027020
# 5 -0.003156 -0.000433 -0.005767 0.000000 0.027216 0.000000
# 6 0.000000 0.000000 0.000000 0.027020 0.000000 0.118907
#
#
# Mechanical properties :
#
#
# Convention : Reuss Voigt Hill
#
# Bulk Modulus (GPa) = 64.83961 88.22987 76.53474
# Shear Modulus (GPa) = 17.81433 42.58845 30.20139
#
# Velocity S-wave (km/s) = 2.58873 4.00265 3.37066
# Velocity P-wave (km/s) = 5.77297 7.38597 6.62871
#
# Compressibility (1/GPa) = 0.01542267
#
# Stress axis : x y z
#
# Youngs Moduli (GPa) = 89.39455 207.33942 142.27409
#
# Poissons Ratio (x) = 0.15871 0.39812
# Poissons Ratio (y) = 0.06843 0.03472
# Poissons Ratio (z) = 0.25015 0.05059
#
# Static dielectric constant tensor:
#      x y z
#    x 2.157430 0.000000 -0.020460 
#    y 0.000000 2.066380 0.000000 
#    z -0.020460 0.000000 2.112010 
# 
# From -- ./inp_files/335087.got.cif
#   From: 2010.05.17/outbox.cif.g08.bks.cpg/sg12_168_cif.got.tgz:335087.got - 2010.06.03 13:09:07.
