data_PCOD9211123
_publ_section_title
;
Structure prediction by ZEFSAII (Michael W. Deem and Ramdas Pophale) SiO2 
 PCOD9211123
Probable space group: C 2/M
;
_chemical_formula_sum "Si O2"
_cell_formula_units_Z 64
_cell_length_a 12.187396
_cell_length_b 24.025100
_cell_length_c 11.067415
_cell_angle_alpha 90.000000
_cell_angle_beta 73.898166
_cell_angle_gamma 90.000000
_cell_volume 3113.449895
_symmetry_space_group_name_H-M "C 2/M"
_symmetry_group_IT_number 12
_symmetry_cell_setting 'monoclinic'
loop_
_space_group_symop_operation_xyz
x,y,z
-x,y,-z
-x,-y,-z
x,-y,z
1/2+x,1/2+y,z
1/2-x,1/2+y,-z
1/2-x,1/2-y,-z
1/2+x,1/2-y,z
loop_
_atom_site_type_symbol
_atom_site_label
_atom_site_fract_x
_atom_site_fract_y
_atom_site_fract_z
Si Si1 0.268338 0.156789 0.151264
Si Si2 0.248708 0.143804 0.878059
Si Si3 0.638502 0.062692 0.297750
Si Si4 0.833318 0.636989 0.474611
Si Si5 0.918152 0.767077 0.140063
Si Si6 0.609700 0.062941 0.749730
Si Si7 0.374723 0.689327 0.582535
Si Si8 0.954205 0.291057 0.692198
O O1 0.330950 0.215981 0.146710
O O2 0.358245 0.108257 0.159047
O O3 0.169015 0.159138 0.281851
O O4 0.229864 0.149437 0.026034
O O5 0.265119 0.081601 0.825730
O O6 0.150407 0.175981 0.837897
O O7 0.366692 0.175422 0.804374
O O8 0.644244 0.108558 0.403142
O O9 0.520264 0.064129 0.258880
O O10 0.650566 0.000000 0.341728
O O11 0.821035 0.584409 0.387968
O O12 0.721598 0.674588 0.487142
O O13 0.942974 0.671290 0.391181
O O14 0.985659 0.754218 0.240720
O O15 0.000000 0.767041 0.000000
O O16 0.636596 0.000000 0.777999
O O17 0.500000 0.672324 0.500000
O O18 0.386022 0.755031 0.613501
#
# Coordination Sequence:
#
# PCOD9211123 Si02
#       8
#     8   8   8   8   8   8   8   8
#     4  11  22  43  61  96 136 172 215 271 320 392
#     4  12  24  40  65  98 132 173 217 262 333 389
#     4  11  25  43  66  97 131 171 222 272 329 391
#     4  11  23  42  63  95 133 174 216 272 323 389
#     4  12  22  38  65  95 135 179 216 257 325 400
#     4  10  21  39  66  95 126 172 217 268 328 380
#     4  11  26  41  63  96 135 170 218 260 326 391
#     4  12  22  38  63  98 137 173 209 265 321 398
#
# _framework density 20.555976000000001
#
# number of rings (size 3 to 8) (size 9 to 14) (size 15 to 20)
#    0.000    0.750    6.250    1.875    3.500    2.000 
#    0.000    1.250    0.000    9.750    0.000    0.000 
#    0.000    0.000    0.000    0.000    0.000    0.000 
#
# Total GULP energy -178834.775832 kJ/mol
# GULP energy per Si atom -5588.586745 kJ/mol
# Density = 2.050919 g / cm^3
# Si number density = 20.555976 Si / 1000 Ang^3
#
#
#
# Elastic Constant Matrix: (Units=GPa)
#
#
# Indices 1 2 3 4 5 6 
#
# 1 84.4132 39.3912 44.9632 0.0000 -8.6224 0.0000
# 2 39.3912 93.9482 29.2521 0.0000 -2.3414 0.0000
# 3 44.9632 29.2521 95.6683 0.0000 -9.2107 0.0000
# 4 0.0000 0.0000 0.0000 17.9433 0.0000 5.9883
# 5 -8.6224 -2.3414 -9.2107 0.0000 34.9126 0.0000
# 6 0.0000 0.0000 0.0000 5.9883 0.0000 25.0807
#
#
#
# Elastic Compliance Matrix: (Units=1/GPa)
#
#
# Indices 1 2 3 4 5 6 
#
# 1 0.018193 -0.005501 -0.006640 0.000000 0.002372 0.000000
# 2 -0.005501 0.013429 -0.001605 0.000000 -0.000882 0.000000
# 3 -0.006640 -0.001605 0.014258 0.000000 0.002014 0.000000
# 4 0.000000 0.000000 0.000000 0.060557 0.000000 -0.014458
# 5 0.002372 -0.000882 0.002014 0.000000 0.029701 0.000000
# 6 0.000000 0.000000 0.000000 -0.014458 0.000000 0.043323
#
#
# Mechanical properties :
#
#
# Convention : Reuss Voigt Hill
#
# Bulk Modulus (GPa) = 54.38774 55.69362 55.04068
# Shear Modulus (GPa) = 23.46504 26.28219 24.87362
#
# Velocity S-wave (km/s) = 3.38230 3.57958 3.48234
# Velocity P-wave (km/s) = 6.46290 6.65109 6.55767
#
# Compressibility (1/GPa) = 0.01838650
#
# Stress axis : x y z
#
# Youngs Moduli (GPa) = 54.96666 74.46727 70.13493
#
# Poissons Ratio (x) = 0.40968 0.46569
# Poissons Ratio (y) = 0.30240 0.11259
# Poissons Ratio (z) = 0.36497 0.11954
#
# Static dielectric constant tensor:
#      x y z
#    x 1.754400 0.000000 0.011120 
#    y 0.000000 1.759060 0.000000 
#    z 0.011120 0.000000 1.768610 
# 
# From -- ./inp_files/135910.got.cif
#   From: 2010.05.17/outbox.cif.g08.bks.cpg/sg12_68_cif.got.tgz:135910.got - 2010.06.03 13:09:07.
