data_PCOD9211180
_publ_section_title
;
Structure prediction by ZEFSAII (Michael W. Deem and Ramdas Pophale) SiO2 
 PCOD9211180
Probable space group: C 2/M
;
_chemical_formula_sum "Si O2"
_cell_formula_units_Z 42
_cell_length_a 17.149352
_cell_length_b 16.024963
_cell_length_c 15.121415
_cell_angle_alpha 90.000000
_cell_angle_beta 156.798067
_cell_angle_gamma 90.000000
_cell_volume 1637.206847
_symmetry_space_group_name_H-M "C 2/M"
_symmetry_group_IT_number 12
_symmetry_cell_setting 'monoclinic'
loop_
_space_group_symop_operation_xyz
x,y,z
-x,y,-z
-x,-y,-z
x,-y,z
1/2+x,1/2+y,z
1/2-x,1/2+y,-z
1/2-x,1/2-y,-z
1/2+x,1/2-y,z
loop_
_atom_site_type_symbol
_atom_site_label
_atom_site_fract_x
_atom_site_fract_y
_atom_site_fract_z
Si Si1 0.813637 0.687303 0.145266
Si Si2 0.000000 0.000000 0.000000
Si Si3 0.797710 0.323054 0.691617
Si Si4 0.169394 0.362332 0.600219
Si Si5 0.242033 0.853193 0.823026
Si Si6 0.499390 0.407783 0.733941
O O1 0.831083 0.757674 0.238744
O O2 0.017918 0.636842 0.357624
O O3 0.750000 0.750000 0.000000
O O4 0.632590 0.623091 0.954311
O O5 0.161504 0.072019 0.202261
O O6 0.777276 0.226626 0.696260
O O7 0.714337 0.373271 0.690862
O O8 0.670025 0.344711 0.472963
O O9 0.023443 0.348906 0.916874
O O10 0.000000 0.373416 0.500000
O O11 0.142970 0.906281 0.797092
O O12 0.422679 0.500000 0.669704
#
# Coordination Sequence:
#
# PCOD9211180 Si02
#       6
#     8   2   8   8   8   8
#     4  10  21  42  68  92 130 181 220 280 346 411
#     4  12  30  40  68 106 134 180 220 296 346 404
#     4  11  21  40  73 100 127 178 235 285 343 416
#     4  12  23  46  68  97 137 177 236 284 348 418
#     4  10  21  39  67  98 128 174 230 283 342 408
#     4  11  24  42  62  98 140 182 228 282 347 409
#
# _framework density 25.653445000000001
#
# number of rings (size 3 to 8) (size 9 to 14) (size 15 to 20)
#    0.000    1.143    5.714    2.000    1.333    3.048 
#    0.000    1.905    0.000    0.000    0.000    0.000 
#    0.000    0.000    0.000    0.000    0.000    0.000 
#
# Total GULP energy -117055.881381 kJ/mol
# GULP energy per Si atom -5574.089590 kJ/mol
# Density = 2.559506 g / cm^3
# Si number density = 25.653445 Si / 1000 Ang^3
#
#
#
# Elastic Constant Matrix: (Units=GPa)
#
#
# Indices 1 2 3 4 5 6 
#
# 1 91.0884 5.4171 24.6289 0.0002 13.8623 0.0001
# 2 5.4171 134.2140 48.4650 0.0000 -1.7288 0.0000
# 3 24.6289 48.4650 184.3685 0.0007 -7.1869 0.0002
# 4 0.0002 0.0000 0.0007 47.3191 0.0003 3.8712
# 5 13.8623 -1.7288 -7.1869 0.0003 35.0605 0.0001
# 6 0.0001 0.0000 0.0002 3.8712 0.0001 0.2733
#
#
#
# Elastic Compliance Matrix: (Units=1/GPa)
#
#
# Indices 1 2 3 4 5 6 
#
# 1 0.012274 0.000114 -0.001873 0.000000 -0.005231 -0.000002
# 2 0.000114 0.008233 -0.002183 0.000000 -0.000086 -0.000005
# 3 -0.001873 -0.002183 0.006323 -0.000002 0.001929 0.000027
# 4 0.000000 0.000000 -0.000002 -0.133057 -0.000006 1.884709
# 5 -0.005231 -0.000086 0.001929 -0.000006 0.030982 0.000071
# 6 -0.000002 -0.000005 0.000027 1.884709 0.000071-23.037389
#
#
# Mechanical properties :
#
#
# Convention : Reuss Voigt Hill
#
# Bulk Modulus (GPa) = 52.78276 62.96588 57.87432
# Shear Modulus (GPa) = -0.21646 38.60790 19.19572
#
# Velocity S-wave (km/s) = -0.29080 3.88361 2.73842
# Velocity P-wave (km/s) = 4.52849 6.68641 5.71031
#
# Compressibility (1/GPa) = 0.01894558
#
# Stress axis : x y z
#
# Youngs Moduli (GPa) = 81.47105 121.45771 158.14764
#
# Poissons Ratio (x) = -0.01381 0.29629
# Poissons Ratio (y) = -0.00927 0.34521
# Poissons Ratio (z) = 0.15264 0.26512
#
# Static dielectric constant tensor:
#      x y z
#    x 2.259030 0.000000 -0.059860 
#    y 0.000000 1.989580 0.000000 
#    z -0.059860 0.000000 2.072740 
# 
# From -- ./inp_files/285279.got.cif
#   From: 2010.05.17/outbox.cif.g08.bks.cpg/sg12_143_cif.got.tgz:285279.got - 2010.06.03 13:09:07.
