data_PCOD9211857
_publ_section_title
;
Structure prediction by ZEFSAII (Michael W. Deem and Ramdas Pophale) SiO2 
 PCOD9211857
Probable space group: C 2/M
;
_chemical_formula_sum "Si O2"
_cell_formula_units_Z 56
_cell_length_a 8.927383
_cell_length_b 31.694702
_cell_length_c 15.922753
_cell_angle_alpha 90.000000
_cell_angle_beta 39.663109
_cell_angle_gamma 90.000000
_cell_volume 2875.643139
_symmetry_space_group_name_H-M "C 2/M"
_symmetry_group_IT_number 12
_symmetry_cell_setting 'monoclinic'
loop_
_space_group_symop_operation_xyz
x,y,z
-x,y,-z
-x,-y,-z
x,-y,z
1/2+x,1/2+y,z
1/2-x,1/2+y,-z
1/2-x,1/2-y,-z
1/2+x,1/2-y,z
loop_
_atom_site_type_symbol
_atom_site_label
_atom_site_fract_x
_atom_site_fract_y
_atom_site_fract_z
Si Si1 0.253456 0.048861 0.652208
Si Si2 0.600235 0.784892 0.115413
Si Si3 0.736225 0.048224 0.151536
Si Si4 0.911701 0.380157 0.905610
Si Si5 0.383796 0.382942 0.803424
Si Si6 0.603285 0.744526 0.296272
Si Si7 0.755270 0.688552 0.622954
O O1 0.500000 0.056260 0.500000
O O2 0.269007 0.055568 0.746177
O O3 0.055060 0.079587 0.703330
O O4 0.189289 0.000000 0.667052
O O5 0.679162 0.833240 0.077822
O O6 0.588800 0.770519 0.216536
O O7 0.339672 0.782842 0.189654
O O8 0.750000 0.750000 0.000000
O O9 0.602081 0.085598 0.161758
O O10 0.649460 0.000000 0.173754
O O11 0.000000 0.049757 0.000000
O O12 0.175641 0.376464 0.826950
O O13 0.746170 0.394284 0.053881
O O14 0.552194 0.342328 0.743130
O O15 0.376460 0.714061 0.395186
O O16 0.655137 0.776409 0.349541
O O17 0.000000 0.664742 0.500000
#
# Coordination Sequence:
#
# PCOD9211857 Si02
#       7
#     8   8   8   8   8   8   8
#     4  10  22  43  69  94 125 165 208 253 315 389
#     4  11  22  36  57  86 122 162 204 258 315 371
#     4  10  21  40  66  97 126 159 207 259 313 381
#     4  11  23  38  61  91 132 161 207 266 321 372
#     4  11  23  38  59  92 124 165 206 255 314 381
#     4  10  22  37  57  84 113 157 216 253 313 372
#     4  11  22  40  60  82 119 163 210 260 308 373
#
# _framework density 19.473903
#
# number of rings (size 3 to 8) (size 9 to 14) (size 15 to 20)
#    0.000    1.429    2.857    3.000    4.000    1.714 
#    0.000    2.143    0.000    2.571    0.000    0.000 
#    0.000    0.000    0.000    0.000    0.000    0.000 
#
# Total GULP energy -156215.983690 kJ/mol
# GULP energy per Si atom -5579.142275 kJ/mol
# Density = 1.942958 g / cm^3
# Si number density = 19.473903 Si / 1000 Ang^3
#
#
#
# Elastic Constant Matrix: (Units=GPa)
#
#
# Indices 1 2 3 4 5 6 
#
# 1 73.3570 37.7637 28.8942 0.0000 -16.0510 0.0000
# 2 37.7637 101.9819 25.9553 0.0000 -10.5560 0.0000
# 3 28.8942 25.9553 81.9952 0.0000 -16.4350 0.0000
# 4 0.0000 0.0000 0.0000 29.6498 0.0000 -5.7368
# 5 -16.0510 -10.5560 -16.4350 0.0000 29.6264 0.0000
# 6 0.0000 0.0000 0.0000 -5.7368 0.0000 30.1482
#
#
#
# Elastic Compliance Matrix: (Units=1/GPa)
#
#
# Indices 1 2 3 4 5 6 
#
# 1 0.019386 -0.005550 -0.003787 0.000000 0.006425 0.000000
# 2 -0.005550 0.012379 -0.001892 0.000000 0.000354 0.000000
# 3 -0.003787 -0.001892 0.015282 0.000000 0.005752 0.000000
# 4 0.000000 0.000000 0.000000 0.035016 0.000000 0.006663
# 5 0.006425 0.000354 0.005752 0.000000 0.040552 0.000000
# 6 0.000000 0.000000 0.000000 0.006663 0.000000 0.034437
#
#
# Mechanical properties :
#
#
# Convention : Reuss Voigt Hill
#
# Bulk Modulus (GPa) = 40.66661 49.17337 44.91999
# Shear Modulus (GPa) = 26.63732 28.86630 27.75181
#
# Velocity S-wave (km/s) = 3.70245 3.85425 3.77911
# Velocity P-wave (km/s) = 6.26143 6.71660 6.49300
#
# Compressibility (1/GPa) = 0.02459020
#
# Stress axis : x y z
#
# Youngs Moduli (GPa) = 51.58233 80.78244 65.43636
#
# Poissons Ratio (x) = 0.44834 0.24780
# Poissons Ratio (y) = 0.28628 0.12379
# Poissons Ratio (z) = 0.19534 0.15282
#
# Static dielectric constant tensor:
#      x y z
#    x 1.664060 0.000000 -0.008480 
#    y 0.000000 1.728010 0.000000 
#    z -0.008480 0.000000 1.722040 
# 
# From -- ./inp_files/260110.got.cif
#   From: 2010.05.17/outbox.cif.g08.bks.cpg/sg12_131_cif.got.tgz:260110.got - 2010.06.03 13:09:07.
