data_PCOD9211470
_publ_section_title
;
Structure prediction by ZEFSAII (Michael W. Deem and Ramdas Pophale) SiO2 
 PCOD9211470
Probable space group: C 2/M
;
_chemical_formula_sum "Si O2"
_cell_formula_units_Z 64
_cell_length_a 17.287182
_cell_length_b 30.938052
_cell_length_c 8.907672
_cell_angle_alpha 90.000000
_cell_angle_beta 139.519194
_cell_angle_gamma 90.000000
_cell_volume 3092.825376
_symmetry_space_group_name_H-M "C 2/M"
_symmetry_group_IT_number 12
_symmetry_cell_setting 'monoclinic'
loop_
_space_group_symop_operation_xyz
x,y,z
-x,y,-z
-x,-y,-z
x,-y,z
1/2+x,1/2+y,z
1/2-x,1/2+y,-z
1/2-x,1/2-y,-z
1/2+x,1/2-y,z
loop_
_atom_site_type_symbol
_atom_site_label
_atom_site_fract_x
_atom_site_fract_y
_atom_site_fract_z
Si Si1 0.950849 0.796060 0.773840
Si Si2 0.132704 0.251729 0.628127
Si Si3 0.873830 0.888381 0.622172
Si Si4 0.089661 0.048914 0.888383
Si Si5 0.215039 0.901896 0.834041
Si Si6 0.044382 0.449382 0.894640
Si Si7 0.211117 0.450482 0.568472
Si Si8 0.802845 0.184844 0.026455
O O1 0.878940 0.763935 0.559979
O O2 0.884107 0.841075 0.709214
O O3 0.000000 0.776118 0.000000
O O4 0.065449 0.811144 0.846737
O O5 0.210289 0.294014 0.774508
O O6 0.000000 0.257778 0.500000
O O7 0.194874 0.214049 0.819042
O O8 0.846049 0.883231 0.405198
O O9 0.770752 0.916922 0.543559
O O10 0.994096 0.916847 0.808786
O O11 0.130655 0.061934 0.782873
O O12 0.041886 0.000000 0.827094
O O13 0.208976 0.050878 0.165038
O O14 0.342516 0.921214 0.980615
O O15 0.224986 0.863680 0.969192
O O16 0.076710 0.500000 0.930267
O O17 0.928483 0.441233 0.620500
O O18 0.000000 0.441711 0.000000
O O19 0.218535 0.500000 0.519463
#
# Coordination Sequence:
#
# PCOD9211470 Si02
#       8
#     8   8   8   8   8   8   8   8
#     4  11  22  38  66  97 128 164 206 260 330 392
#     4   9  20  41  68  89 121 166 205 254 324 397
#     4  12  22  37  61  92 130 168 210 261 319 386
#     4  11  24  37  57  93 129 168 213 264 316 373
#     4  12  23  38  63  91 127 165 218 271 313 377
#     4  10  21  40  63  87 123 177 225 264 318 375
#     4  10  22  41  61  84 127 178 217 263 320 379
#     4  10  21  41  63  92 126 163 209 257 325 387
#
# _framework density 20.693052999999999
#
# number of rings (size 3 to 8) (size 9 to 14) (size 15 to 20)
#    0.000    1.375    3.750    2.250    0.000    4.000 
#    2.250    1.875    0.000    3.000    0.000    0.000 
#    0.000    0.000    0.000    0.000    0.000    0.000 
#
# Total GULP energy -178908.627494 kJ/mol
# GULP energy per Si atom -5590.894609 kJ/mol
# Density = 2.064595 g / cm^3
# Si number density = 20.693053 Si / 1000 Ang^3
#
#
#
# Elastic Constant Matrix: (Units=GPa)
#
#
# Indices 1 2 3 4 5 6 
#
# 1 39.7294 10.3666 15.6121 0.0000 -0.1624 0.0000
# 2 10.3666 68.2643 43.5641 0.0000 -0.4655 0.0000
# 3 15.6121 43.5641 109.7597 0.0000 2.0350 0.0000
# 4 0.0000 0.0000 0.0000 17.8983 0.0000 -4.8518
# 5 -0.1624 -0.4655 2.0350 0.0000 36.1331 0.0000
# 6 0.0000 0.0000 0.0000 -4.8518 0.0000 16.7415
#
#
#
# Elastic Compliance Matrix: (Units=1/GPa)
#
#
# Indices 1 2 3 4 5 6 
#
# 1 0.026908 -0.002195 -0.002961 0.000000 0.000259 0.000000
# 2 -0.002195 0.019814 -0.007565 0.000000 0.000671 0.000000
# 3 -0.002961 -0.007565 0.012550 0.000000 -0.000818 0.000000
# 4 0.000000 0.000000 0.000000 0.060635 0.000000 0.017572
# 5 0.000259 0.000671 -0.000818 0.000000 0.027731 0.000000
# 6 0.000000 0.000000 0.000000 0.017572 0.000000 0.064824
#
#
# Mechanical properties :
#
#
# Convention : Reuss Voigt Hill
#
# Bulk Modulus (GPa) = 29.55905 39.64878 34.60392
# Shear Modulus (GPa) = 20.06586 24.03529 22.05057
#
# Velocity S-wave (km/s) = 3.11736 3.41180 3.26790
# Velocity P-wave (km/s) = 5.22234 5.89258 5.56755
#
# Compressibility (1/GPa) = 0.03383059
#
# Stress axis : x y z
#
# Youngs Moduli (GPa) = 37.16427 50.46846 79.68399
#
# Poissons Ratio (x) = 0.11077 0.23594
# Poissons Ratio (y) = 0.08157 0.60278
# Poissons Ratio (z) = 0.11004 0.38178
#
# Static dielectric constant tensor:
#      x y z
#    x 1.724400 0.000000 -0.035920 
#    y 0.000000 1.721700 0.000000 
#    z -0.035920 0.000000 1.779030 
# 
# From -- ./inp_files/80794.got.cif
#   From: 2010.05.17/outbox.cif.g08.bks.cpg/sg12_41_cif.got.tgz:80794.got - 2010.06.03 13:09:07.
