data_PCOD9211106
_publ_section_title
;
Structure prediction by ZEFSAII (Michael W. Deem and Ramdas Pophale) SiO2 
 PCOD9211106
Probable space group: C 2/M
;
_chemical_formula_sum "Si O2"
_cell_formula_units_Z 64
_cell_length_a 8.602601
_cell_length_b 24.852219
_cell_length_c 16.874498
_cell_angle_alpha 90.000000
_cell_angle_beta 61.510309
_cell_angle_gamma 90.000000
_cell_volume 3170.784577
_symmetry_space_group_name_H-M "C 2/M"
_symmetry_group_IT_number 12
_symmetry_cell_setting 'monoclinic'
loop_
_space_group_symop_operation_xyz
x,y,z
-x,y,-z
-x,-y,-z
x,-y,z
1/2+x,1/2+y,z
1/2-x,1/2+y,-z
1/2-x,1/2-y,-z
1/2+x,1/2-y,z
loop_
_atom_site_type_symbol
_atom_site_label
_atom_site_fract_x
_atom_site_fract_y
_atom_site_fract_z
Si Si1 0.151467 0.178288 0.216302
Si Si2 0.825148 0.140228 0.097401
Si Si3 0.702565 0.439760 0.752766
Si Si4 0.690716 0.808669 0.988712
Si Si5 0.178223 0.057876 0.240916
Si Si6 0.484505 0.865390 0.598260
Si Si7 0.197779 0.939445 0.424569
Si Si8 0.729811 0.713994 0.739275
O O1 0.181389 0.178617 0.114759
O O2 0.231135 0.119716 0.215670
O O3 0.249767 0.223038 0.245796
O O4 0.940275 0.193674 0.270949
O O5 0.816557 0.088968 0.157094
O O6 0.796294 0.188011 0.167163
O O7 0.683798 0.149294 0.062432
O O8 0.000000 0.143025 0.000000
O O9 0.768861 0.500000 0.748037
O O10 0.514841 0.441402 0.753692
O O11 0.835287 0.407309 0.664524
O O12 0.500000 0.803994 0.000000
O O13 0.750000 0.750000 0.000000
O O14 0.183022 0.055290 0.334106
O O15 0.260999 0.000000 0.193212
O O16 0.500000 0.859935 0.500000
O O17 0.665470 0.892933 0.584625
O O18 0.408303 0.810690 0.656711
O O19 0.000000 0.926473 0.500000
O O20 0.246076 0.000000 0.444384
#
# Coordination Sequence:
#
# PCOD9211106 Si02
#       8
#     8   8   8   8   8   8   8   8
#     4  12  23  42  63  96 134 169 225 271 330 403
#     4  11  20  39  59  93 135 163 220 272 324 397
#     4  10  21  39  66  94 126 175 222 271 328 389
#     4  12  23  36  62  94 126 172 217 275 336 392
#     4  10  21  40  65  91 127 169 215 268 330 391
#     4  11  23  42  64  94 133 172 224 277 334 394
#     4  10  22  38  63  97 126 167 221 277 330 385
#     4  11  25  39  65  97 126 177 216 274 337 392
#
# _framework density 20.184279
#
# number of rings (size 3 to 8) (size 9 to 14) (size 15 to 20)
#    0.000    1.125    5.000    2.250    1.750    3.250 
#    0.000    1.875    0.000    0.750    0.000    0.000 
#    0.000    0.000    0.000    0.000    0.000    0.000 
#
# Total GULP energy -178200.999629 kJ/mol
# GULP energy per Si atom -5568.781238 kJ/mol
# Density = 2.013834 g / cm^3
# Si number density = 20.184279 Si / 1000 Ang^3
#
#
#
# Elastic Constant Matrix: (Units=GPa)
#
#
# Indices 1 2 3 4 5 6 
#
# 1 71.0556 8.5117 23.8392 0.0000 9.2687 0.0000
# 2 8.5117 148.7358 47.5658 0.0000 4.6215 0.0000
# 3 23.8392 47.5658 121.7232 0.0000 4.7580 0.0000
# 4 0.0000 0.0000 0.0000 21.8051 0.0000 2.3192
# 5 9.2687 4.6215 4.7580 0.0000 28.2033 0.0000
# 6 0.0000 0.0000 0.0000 2.3192 0.0000 24.0662
#
#
#
# Elastic Compliance Matrix: (Units=1/GPa)
#
#
# Indices 1 2 3 4 5 6 
#
# 1 0.015653 0.000196 -0.002959 0.000000 -0.004677 0.000000
# 2 0.000196 0.007702 -0.003016 0.000000 -0.000818 0.000000
# 3 -0.002959 -0.003016 0.009982 0.000000 -0.000217 0.000000
# 4 0.000000 0.000000 0.000000 0.046336 0.000000 -0.004465
# 5 -0.004677 -0.000818 -0.000217 0.000000 0.037164 0.000000
# 6 0.000000 0.000000 0.000000 -0.004465 0.000000 0.041982
#
#
# Mechanical properties :
#
#
# Convention : Reuss Voigt Hill
#
# Bulk Modulus (GPa) = 45.91792 55.70534 50.81163
# Shear Modulus (GPa) = 28.14710 32.25479 30.20094
#
# Velocity S-wave (km/s) = 3.73836 4.00186 3.87235
# Velocity P-wave (km/s) = 6.43681 7.00082 6.72473
#
# Compressibility (1/GPa) = 0.02177799
#
# Stress axis : x y z
#
# Youngs Moduli (GPa) = 63.88571 129.83479 100.17977
#
# Poissons Ratio (x) = -0.02544 0.29647
# Poissons Ratio (y) = -0.01252 0.30216
# Poissons Ratio (z) = 0.18906 0.39160
#
# Static dielectric constant tensor:
#      x y z
#    x 1.747800 0.000000 0.008660 
#    y 0.000000 1.826410 0.000000 
#    z 0.008660 0.000000 1.593410 
# 
# From -- ./inp_files/199750.got.cif
#   From: 2010.05.17/outbox.cif.g08.bks.cpg/sg12_100_cif.got.tgz:199750.got - 2010.06.03 13:09:07.
