data_PCOD9211533
_publ_section_title
;
Structure prediction by ZEFSAII (Michael W. Deem and Ramdas Pophale) SiO2 
 PCOD9211533
Probable space group: C 2/M
;
_chemical_formula_sum "Si O2"
_cell_formula_units_Z 34
_cell_length_a 19.197377
_cell_length_b 12.094765
_cell_length_c 6.614125
_cell_angle_alpha 90.000000
_cell_angle_beta 72.388053
_cell_angle_gamma 90.000000
_cell_volume 1463.736058
_symmetry_space_group_name_H-M "C 2/M"
_symmetry_group_IT_number 12
_symmetry_cell_setting 'monoclinic'
loop_
_space_group_symop_operation_xyz
x,y,z
-x,y,-z
-x,-y,-z
x,-y,z
1/2+x,1/2+y,z
1/2-x,1/2+y,-z
1/2-x,1/2-y,-z
1/2+x,1/2-y,z
loop_
_atom_site_type_symbol
_atom_site_label
_atom_site_fract_x
_atom_site_fract_y
_atom_site_fract_z
Si Si1 0.852343 0.783323 0.804769
Si Si2 0.902125 0.165855 0.359203
Si Si3 0.764956 0.882203 0.231499
Si Si4 0.413558 0.876600 0.093294
Si Si5 0.500000 0.500000 0.000000
O O1 0.907215 0.836507 0.596436
O O2 0.788580 0.720922 0.737751
O O3 0.885326 0.689645 0.922136
O O4 0.816013 0.871294 0.986838
O O5 0.822130 0.122797 0.363150
O O6 0.901340 0.293879 0.289983
O O7 0.960264 0.096834 0.177749
O O8 0.725828 0.000000 0.266504
O O9 0.381275 0.000000 0.140189
O O10 0.500000 0.887287 0.000000
#
# Coordination Sequence:
#
# PCOD9211533 Si02
#       5
#     8   8   8   8   2
#     4  10  23  40  65  96 130 175 226 271 342 394
#     4  11  23  43  65  98 134 181 219 273 337 396
#     4  10  21  40  63  97 136 168 225 282 324 402
#     4  10  22  42  63  92 131 168 223 280 323 400
#     4  12  24  44  68 100 146 172 226 272 326 420
#
# _framework density 23.228232999999999
#
# number of rings (size 3 to 8) (size 9 to 14) (size 15 to 20)
#    0.000    1.647    2.353    1.412    1.647    2.824 
#    0.000    7.059    0.000    0.000    0.000    0.000 
#    0.000    0.000    0.000    0.000    0.000    0.000 
#
# Total GULP energy -94756.392591 kJ/mol
# GULP energy per Si atom -5573.905447 kJ/mol
# Density = 2.317536 g / cm^3
# Si number density = 23.228233 Si / 1000 Ang^3
#
#
#
# Elastic Constant Matrix: (Units=GPa)
#
#
# Indices 1 2 3 4 5 6 
#
# 1 39.0450 2.8674 12.5036 0.0000 -3.9357 0.0000
# 2 2.8674 135.0864 28.6284 0.0000 -5.4198 0.0000
# 3 12.5036 28.6284 126.2651 0.0000 -26.4743 0.0000
# 4 0.0000 0.0000 0.0000 1.6178 0.0000 1.3930
# 5 -3.9357 -5.4198 -26.4743 0.0000 17.9657 0.0000
# 6 0.0000 0.0000 0.0000 1.3930 0.0000 12.9914
#
#
#
# Elastic Compliance Matrix: (Units=1/GPa)
#
#
# Indices 1 2 3 4 5 6 
#
# 1 0.026548 -0.000019 -0.002035 0.000000 0.002811 0.000000
# 2 -0.000019 0.007778 -0.001839 0.000000 -0.000367 0.000000
# 3 -0.002035 -0.001839 0.012052 0.000000 0.016760 0.000000
# 4 0.000000 0.000000 0.000000 0.681012 0.000000 -0.073019
# 5 0.002811 -0.000367 0.016760 0.000000 0.080864 0.000000
# 6 0.000000 0.000000 0.000000 -0.073019 0.000000 0.084803
#
#
# Mechanical properties :
#
#
# Convention : Reuss Voigt Hill
#
# Bulk Modulus (GPa) = 25.91217 43.15503 34.53360
# Shear Modulus (GPa) = 5.47221 23.60812 14.54016
#
# Velocity S-wave (km/s) = 1.53654 3.19149 2.50465
# Velocity P-wave (km/s) = 3.78518 5.67449 4.82325
#
# Compressibility (1/GPa) = 0.03859191
#
# Stress axis : x y z
#
# Youngs Moduli (GPa) = 37.66762 128.56781 82.97166
#
# Poissons Ratio (x) = 0.00250 0.16886
# Poissons Ratio (y) = 0.00073 0.15255
# Poissons Ratio (z) = 0.07666 0.23638
#
# Static dielectric constant tensor:
#      x y z
#    x 1.907270 0.000000 0.007640 
#    y 0.000000 1.885110 0.000000 
#    z 0.007640 0.000000 1.880120 
# 
# From -- ./inp_files/23574.got.cif
#   From: 2010.05.17/outbox.cif.g08.bks.cpg/sg12_12_cif.got.tgz:23574.got - 2010.06.03 13:09:07.
