data_PCOD9211239
_publ_section_title
;
Structure prediction by ZEFSAII (Michael W. Deem and Ramdas Pophale) SiO2 
 PCOD9211239
Probable space group: C 2/M
;
_chemical_formula_sum "Si O2"
_cell_formula_units_Z 56
_cell_length_a 11.915471
_cell_length_b 23.743130
_cell_length_c 9.272124
_cell_angle_alpha 90.000000
_cell_angle_beta 98.535472
_cell_angle_gamma 90.000000
_cell_volume 2594.128019
_symmetry_space_group_name_H-M "C 2/M"
_symmetry_group_IT_number 12
_symmetry_cell_setting 'monoclinic'
loop_
_space_group_symop_operation_xyz
x,y,z
-x,y,-z
-x,-y,-z
x,-y,z
1/2+x,1/2+y,z
1/2-x,1/2+y,-z
1/2-x,1/2-y,-z
1/2+x,1/2-y,z
loop_
_atom_site_type_symbol
_atom_site_label
_atom_site_fract_x
_atom_site_fract_y
_atom_site_fract_z
Si Si1 0.896805 0.152898 0.368438
Si Si2 0.177884 0.370531 0.503988
Si Si3 0.008364 0.065442 0.173619
Si Si4 0.241978 0.734556 0.719003
Si Si5 0.831867 0.668180 0.052797
Si Si6 0.573042 0.813953 0.235969
Si Si7 0.724364 0.063495 0.773514
O O1 0.792253 0.123177 0.431793
O O2 0.061046 0.112357 0.752302
O O3 0.845434 0.213337 0.310051
O O4 0.000000 0.160109 0.500000
O O5 0.201102 0.315441 0.607921
O O6 0.081326 0.357064 0.369261
O O7 0.161705 0.420055 0.613963
O O8 0.141865 0.071015 0.233964
O O9 0.974364 0.000000 0.198743
O O10 0.000000 0.073570 0.000000
O O11 0.256465 0.708240 0.881537
O O12 0.365627 0.757519 0.697323
O O13 0.809438 0.605971 0.106721
O O14 0.949213 0.689556 0.147467
O O15 0.847878 0.669149 0.885644
O O16 0.703982 0.000000 0.813557
#
# Coordination Sequence:
#
# PCOD9211239 Si02
#       7
#     8   8   8   8   8   8   8
#     4  11  21  35  60  91 119 159 197 235 297 354
#     4  10  22  40  59  87 125 153 199 246 294 354
#     4  10  23  41  61  89 125 158 197 247 300 354
#     4  10  23  36  61  88 124 159 192 243 292 361
#     4  10  23  39  62  84 121 156 196 244 299 349
#     4  10  21  40  56  88 118 153 197 244 291 351
#     4  10  22  42  62  85 117 156 200 245 296 354
#
# _framework density 21.587215
#
# number of rings (size 3 to 8) (size 9 to 14) (size 15 to 20)
#    0.000    1.857    1.429    2.143    8.000    2.571 
#    2.571    3.571    0.000    0.857    0.000    0.000 
#    0.000    0.000    0.000    0.000    0.000    0.000 
#
# Total GULP energy -156454.859731 kJ/mol
# GULP energy per Si atom -5587.673562 kJ/mol
# Density = 2.153808 g / cm^3
# Si number density = 21.587215 Si / 1000 Ang^3
#
#
#
# Elastic Constant Matrix: (Units=GPa)
#
#
# Indices 1 2 3 4 5 6 
#
# 1 46.1717 20.3713 0.1932 0.0000 -0.8984 0.0000
# 2 20.3713 91.7736 13.6082 0.0000 -14.1648 0.0000
# 3 0.1932 13.6082 93.5334 0.0000 -6.5976 0.0000
# 4 0.0000 0.0000 0.0000 14.7536 0.0000 -5.0324
# 5 -0.8984 -14.1648 -6.5976 0.0000 38.5319 0.0000
# 6 0.0000 0.0000 0.0000 -5.0324 0.0000 22.3613
#
#
#
# Elastic Compliance Matrix: (Units=1/GPa)
#
#
# Indices 1 2 3 4 5 6 
#
# 1 0.024132 -0.005674 0.000676 0.000000 -0.001407 0.000000
# 2 -0.005674 0.013069 -0.001579 0.000000 0.004402 0.000000
# 3 0.000676 -0.001579 0.011013 0.000000 0.001321 0.000000
# 4 0.000000 0.000000 0.000000 0.073416 0.000000 0.016522
# 5 -0.001407 0.004402 0.001321 0.000000 0.027764 0.000000
# 6 0.000000 0.000000 0.000000 0.016522 0.000000 0.048438
#
#
# Mechanical properties :
#
#
# Convention : Reuss Voigt Hill
#
# Bulk Modulus (GPa) = 28.52254 33.31379 30.91817
# Shear Modulus (GPa) = 22.45450 28.28310 25.36880
#
# Velocity S-wave (km/s) = 3.22867 3.62357 3.43180
# Velocity P-wave (km/s) = 5.20966 5.74218 5.48239
#
# Compressibility (1/GPa) = 0.03505999
#
# Stress axis : x y z
#
# Youngs Moduli (GPa) = 41.43959 76.51435 90.80252
#
# Poissons Ratio (x) = 0.43415 -0.06142
# Poissons Ratio (y) = 0.23513 0.14340
# Poissons Ratio (z) = -0.02803 0.12084
#
# Static dielectric constant tensor:
#      x y z
#    x 1.847020 0.000000 0.012590 
#    y 0.000000 1.771390 0.000000 
#    z 0.012590 0.000000 1.818840 
# 
# From -- ./inp_files/65426.got.cif
#   From: 2010.05.17/outbox.cif.g08.bks.cpg/sg12_33_cif.got.tgz:65426.got - 2010.06.03 13:09:07.
