data_PCOD9211196
_publ_section_title
;
Structure prediction by ZEFSAII (Michael W. Deem and Ramdas Pophale) SiO2 
 PCOD9211196
Probable space group: C 2/M
;
_chemical_formula_sum "Si O2"
_cell_formula_units_Z 32
_cell_length_a 9.105573
_cell_length_b 17.435854
_cell_length_c 10.672325
_cell_angle_alpha 90.000000
_cell_angle_beta 127.233715
_cell_angle_gamma 90.000000
_cell_volume 1349.017376
_symmetry_space_group_name_H-M "C 2/M"
_symmetry_group_IT_number 12
_symmetry_cell_setting 'monoclinic'
loop_
_space_group_symop_operation_xyz
x,y,z
-x,y,-z
-x,-y,-z
x,-y,z
1/2+x,1/2+y,z
1/2-x,1/2+y,-z
1/2-x,1/2-y,-z
1/2+x,1/2-y,z
loop_
_atom_site_type_symbol
_atom_site_label
_atom_site_fract_x
_atom_site_fract_y
_atom_site_fract_z
Si Si1 0.405036 0.585780 0.249151
Si Si2 0.290509 0.879666 0.364790
Si Si3 0.779484 0.339530 0.091190
Si Si4 0.809610 0.716784 0.756956
O O1 0.332583 0.500000 0.229882
O O2 0.625237 0.584061 0.355813
O O3 0.330081 0.646602 0.309450
O O4 0.328817 0.621479 0.078281
O O5 0.500000 0.899199 0.500000
O O6 0.263888 0.894856 0.203311
O O7 0.256612 0.787469 0.362426
O O8 0.697202 0.261035 0.110606
O O9 0.993212 0.318887 0.175917
#
# Coordination Sequence:
#
# PCOD9211196 Si02
#       4
#     8   8   8   8
#     4  12  25  40  63  98 132 160 203 265 321 367
#     4  10  23  42  66  93 121 172 217 254 300 377
#     4  10  22  38  66  94 125 160 208 258 311 369
#     4  10  21  39  68  93 124 161 211 257 312 366
#
# _framework density 23.720970000000001
#
# number of rings (size 3 to 8) (size 9 to 14) (size 15 to 20)
#    1.500    0.000    2.500    2.250    3.500    8.500 
#    0.000    0.000    0.000    5.250    0.000    0.000 
#    0.000    0.000    0.000    0.000    0.000    0.000 
#
# Total GULP energy -89326.378598 kJ/mol
# GULP energy per Si atom -5582.898662 kJ/mol
# Density = 2.366698 g / cm^3
# Si number density = 23.720970 Si / 1000 Ang^3
#
#
#
# Elastic Constant Matrix: (Units=GPa)
#
#
# Indices 1 2 3 4 5 6 
#
# 1 116.7418 24.7904 17.6859 0.0000 46.7650 0.0000
# 2 24.7904 140.6327 3.2250 0.0000 6.4993 0.0000
# 3 17.6859 3.2250 61.0121 0.0000 24.6165 0.0000
# 4 0.0000 0.0000 0.0000 -6.2837 0.0000 5.6789
# 5 46.7650 6.4993 24.6165 0.0000 48.3303 0.0000
# 6 0.0000 0.0000 0.0000 5.6789 0.0000 5.9309
#
#
#
# Elastic Compliance Matrix: (Units=1/GPa)
#
#
# Indices 1 2 3 4 5 6 
#
# 1 0.014648 -0.001938 0.001850 0.000000 -0.014855 0.000000
# 2 -0.001938 0.007412 -0.000232 0.000000 0.000997 0.000000
# 3 0.001850 -0.000232 0.020863 0.000000 -0.012385 0.000000
# 4 0.000000 0.000000 0.000000 -0.085315 0.000000 0.081690
# 5 -0.014855 0.000997 -0.012385 0.000000 0.041239 0.000000
# 6 0.000000 0.000000 0.000000 0.081690 0.000000 0.090390
#
#
# Mechanical properties :
#
#
# Convention : Reuss Voigt Hill
#
# Bulk Modulus (GPa) = 23.65046 45.53212 34.59129
# Shear Modulus (GPa) = 48.09018 27.77453 37.93235
#
# Velocity S-wave (km/s) = 4.50747 3.42553 4.00322
# Velocity P-wave (km/s) = 6.08947 5.90612 5.99849
#
# Compressibility (1/GPa) = 0.04228248
#
# Stress axis : x y z
#
# Youngs Moduli (GPa) = 68.26904 134.92354 47.93100
#
# Poissons Ratio (x) = 0.26148 -0.08867
# Poissons Ratio (y) = 0.13231 0.01113
# Poissons Ratio (z) = -0.12629 0.03132
#
# Static dielectric constant tensor:
#      x y z
#    x 1.921940 0.000000 -0.067030 
#    y 0.000000 1.901230 0.000000 
#    z -0.067030 0.000000 1.944730 
# 
# From -- ./inp_files/195174.got.cif
#   From: 2010.05.17/outbox.cif.g08.bks.cpg/sg12_98_cif.got.tgz:195174.got - 2010.06.03 13:09:07.
