data_PCOD9211572
_publ_section_title
;
Structure prediction by ZEFSAII (Michael W. Deem and Ramdas Pophale) SiO2 
 PCOD9211572
Probable space group: C 2/M
;
_chemical_formula_sum "Si O2"
_cell_formula_units_Z 60
_cell_length_a 24.681578
_cell_length_b 12.079066
_cell_length_c 22.714243
_cell_angle_alpha 90.000000
_cell_angle_beta 151.452805
_cell_angle_gamma 90.000000
_cell_volume 3236.127766
_symmetry_space_group_name_H-M "C 2/M"
_symmetry_group_IT_number 12
_symmetry_cell_setting 'monoclinic'
loop_
_space_group_symop_operation_xyz
x,y,z
-x,y,-z
-x,-y,-z
x,-y,z
1/2+x,1/2+y,z
1/2-x,1/2+y,-z
1/2-x,1/2-y,-z
1/2+x,1/2-y,z
loop_
_atom_site_type_symbol
_atom_site_label
_atom_site_fract_x
_atom_site_fract_y
_atom_site_fract_z
Si Si1 0.070682 0.870274 0.408607
Si Si2 0.145154 0.713606 0.785665
Si Si3 0.739767 0.730985 0.342871
Si Si4 0.885744 0.500000 0.162822
Si Si5 0.532761 0.129645 0.095465
Si Si6 0.569974 0.626257 0.270818
Si Si7 0.120013 0.693396 0.942919
Si Si8 0.870920 0.631397 0.359366
O O1 0.163733 0.805338 0.535010
O O2 0.103757 0.864897 0.371292
O O3 0.952278 0.805975 0.301775
O O4 0.062041 0.000000 0.416625
O O5 0.107800 0.598794 0.780406
O O6 0.164807 0.691043 0.735105
O O7 0.257520 0.756415 0.925847
O O8 0.642538 0.809367 0.224410
O O9 0.675764 0.656759 0.330421
O O10 0.793280 0.662574 0.340600
O O11 0.877812 0.597534 0.103628
O O12 0.432871 0.147511 0.046935
O O13 0.557162 0.000000 0.113635
O O14 0.500000 0.173467 0.000000
O O15 0.532935 0.500000 0.224108
O O16 0.466505 0.709934 0.160175
O O17 0.867371 0.500000 0.346239
O O18 0.000000 0.662251 0.500000
#
# Coordination Sequence:
#
# PCOD9211572 Si02
#       8
#     8   8   8   4   8   8   8   8
#     4  11  24  41  63  96 134 171 215 266 327 390
#     4  12  25  42  66  98 132 173 220 272 329 383
#     4  11  22  42  64  93 126 170 214 267 328 388
#     4  12  24  42  64  98 128 176 220 270 324 388
#     4  10  21  40  64  89 123 165 214 264 321 390
#     4  10  23  41  64  95 128 168 213 272 327 387
#     4  11  24  40  66  95 130 169 219 270 326 392
#     4  11  23  42  65  91 128 170 218 265 315 386
#
# _framework density 18.540676999999999
#
# number of rings (size 3 to 8) (size 9 to 14) (size 15 to 20)
#    0.000    1.067    4.000    2.400    1.867    0.000 
#    1.200    2.000    0.000    4.400    0.000    0.000 
#    0.000    0.000    0.000    0.000    0.000    0.000 
#
# Total GULP energy -167083.255179 kJ/mol
# GULP energy per Si atom -5569.441839 kJ/mol
# Density = 1.849848 g / cm^3
# Si number density = 18.540677 Si / 1000 Ang^3
#
#
#
# Elastic Constant Matrix: (Units=GPa)
#
#
# Indices 1 2 3 4 5 6 
#
# 1 100.3227 35.6516 39.7622 0.0000 -12.9998 0.0000
# 2 35.6516 90.7572 26.8728 0.0000 -3.0922 0.0000
# 3 39.7622 26.8728 58.6318 0.0000 -5.1190 0.0000
# 4 0.0000 0.0000 0.0000 16.7127 0.0000 -12.7692
# 5 -12.9998 -3.0922 -5.1190 0.0000 30.7575 0.0000
# 6 0.0000 0.0000 0.0000 -12.7692 0.0000 28.8458
#
#
#
# Elastic Compliance Matrix: (Units=1/GPa)
#
#
# Indices 1 2 3 4 5 6 
#
# 1 0.015017 -0.003292 -0.008270 0.000000 0.004639 0.000000
# 2 -0.003292 0.013473 -0.004004 0.000000 -0.000703 0.000000
# 3 -0.008270 -0.004004 0.024515 0.000000 0.000182 0.000000
# 4 0.000000 0.000000 0.000000 0.090415 0.000000 0.040024
# 5 0.004639 -0.000703 0.000182 0.000000 0.034433 0.000000
# 6 0.000000 0.000000 0.000000 0.040024 0.000000 0.052385
#
#
# Mechanical properties :
#
#
# Convention : Reuss Voigt Hill
#
# Bulk Modulus (GPa) = 45.71860 50.47609 48.09735
# Shear Modulus (GPa) = 18.61088 25.09154 21.85121
#
# Velocity S-wave (km/s) = 3.17170 3.68275 3.43673
# Velocity P-wave (km/s) = 6.17454 6.73551 6.46112
#
# Compressibility (1/GPa) = 0.02187293
#
# Stress axis : x y z
#
# Youngs Moduli (GPa) = 66.59275 74.22114 40.79137
#
# Poissons Ratio (x) = 0.24435 0.33734
# Poissons Ratio (y) = 0.21923 0.16333
# Poissons Ratio (z) = 0.55071 0.29718
#
# Static dielectric constant tensor:
#      x y z
#    x 1.648920 0.000000 0.000250 
#    y 0.000000 1.611530 0.000000 
#    z 0.000250 0.000000 1.617300 
# 
# From -- ./inp_files/325277.got.cif
#   From: 2010.05.17/outbox.cif.g08.bks.cpg/sg12_163_cif.got.tgz:325277.got - 2010.06.03 13:09:07.
