data_PCOD9211306
_publ_section_title
;
Structure prediction by ZEFSAII (Michael W. Deem and Ramdas Pophale) SiO2 
 PCOD9211306
Probable space group: C 2/M
;
_chemical_formula_sum "Si O2"
_cell_formula_units_Z 64
_cell_length_a 19.212712
_cell_length_b 8.855444
_cell_length_c 22.352343
_cell_angle_alpha 90.000000
_cell_angle_beta 121.139328
_cell_angle_gamma 90.000000
_cell_volume 3255.002684
_symmetry_space_group_name_H-M "C 2/M"
_symmetry_group_IT_number 12
_symmetry_cell_setting 'monoclinic'
loop_
_space_group_symop_operation_xyz
x,y,z
-x,y,-z
-x,-y,-z
x,-y,z
1/2+x,1/2+y,z
1/2-x,1/2+y,-z
1/2-x,1/2-y,-z
1/2+x,1/2-y,z
loop_
_atom_site_type_symbol
_atom_site_label
_atom_site_fract_x
_atom_site_fract_y
_atom_site_fract_z
Si Si1 0.032647 0.181599 0.580745
Si Si2 0.779522 0.676143 0.074149
Si Si3 0.303247 0.180176 0.296579
Si Si4 0.511350 0.823338 0.107429
Si Si5 0.874406 0.322165 0.958294
Si Si6 0.554401 0.326157 0.339669
Si Si7 0.871868 0.827019 0.209151
Si Si8 0.132625 0.318594 0.263500
O O1 0.118798 0.260742 0.631163
O O2 0.000000 0.210198 0.500000
O O3 0.966886 0.227158 0.602495
O O4 0.044358 0.000000 0.593774
O O5 0.790294 0.500000 0.072668
O O6 0.857459 0.750583 0.139078
O O7 0.750000 0.750000 0.000000
O O8 0.704455 0.720790 0.083489
O O9 0.323894 0.237377 0.239037
O O10 0.218653 0.250350 0.281404
O O11 0.299159 0.000000 0.296529
O O12 0.428552 0.766387 0.039042
O O13 0.560285 0.762198 0.186411
O O14 0.494933 0.000000 0.112971
O O15 0.573416 0.816603 0.078861
O O16 0.853891 0.500000 0.958804
O O17 0.583511 0.500000 0.354866
O O18 0.465571 0.325350 0.269377
O O19 0.611259 0.229738 0.321626
O O20 0.843334 0.000000 0.194941
O O21 0.136202 0.500000 0.259951
#
# Coordination Sequence:
#
# PCOD9211306 Si02
#       8
#     8   8   8   8   8   8   8   8
#     4   9  19  40  68  92 118 156 197 237 285 343
#     4  12  25  37  51  75 106 144 190 243 298 349
#     4  11  22  37  60  91 122 154 193 237 284 340
#     4   8  17  32  54  77 100 138 182 230 283 338
#     4   9  17  35  55  73  99 135 184 237 290 347
#     4   9  20  37  58  87 119 148 186 239 295 347
#     4  10  21  40  61  81 111 152 196 246 298 352
#     4  11  21  34  55  84 118 156 196 236 286 345
#
# _framework density 19.662042
#
# number of rings (size 3 to 8) (size 9 to 14) (size 15 to 20)
#    0.000    2.125    0.000    5.250    1.750    3.750 
#    0.000    3.125    0.000    0.000    0.000    0.000 
#    0.000    0.000    0.000    0.000    0.000    0.000 
#
# Total GULP energy -178623.715168 kJ/mol
# GULP energy per Si atom -5581.991099 kJ/mol
# Density = 1.961729 g / cm^3
# Si number density = 19.662042 Si / 1000 Ang^3
#
#
#
# Elastic Constant Matrix: (Units=GPa)
#
#
# Indices 1 2 3 4 5 6 
#
# 1 72.3068 24.9864 18.7128 0.0000 -9.7319 0.0000
# 2 24.9864 83.4469 39.0491 0.0000 -4.8171 0.0000
# 3 18.7128 39.0491 107.3209 0.0000 -12.8565 0.0000
# 4 0.0000 0.0000 0.0000 24.7259 0.0000 -0.8718
# 5 -9.7319 -4.8171 -12.8565 0.0000 22.8886 0.0000
# 6 0.0000 0.0000 0.0000 -0.8718 0.0000 26.0014
#
#
#
# Elastic Compliance Matrix: (Units=1/GPa)
#
#
# Indices 1 2 3 4 5 6 
#
# 1 0.016216 -0.004246 -0.000604 0.000000 0.005662 0.000000
# 2 -0.004246 0.015555 -0.005086 0.000000 -0.001388 0.000000
# 3 -0.000604 -0.005086 0.011916 0.000000 0.005366 0.000000
# 4 0.000000 0.000000 0.000000 0.040491 0.000000 0.001358
# 5 0.005662 -0.001388 0.005366 0.000000 0.048819 0.000000
# 6 0.000000 0.000000 0.000000 0.001358 0.000000 0.038505
#
#
# Mechanical properties :
#
#
# Convention : Reuss Voigt Hill
#
# Bulk Modulus (GPa) = 41.98991 47.61902 44.80446
# Shear Modulus (GPa) = 25.08632 26.74495 25.91564
#
# Velocity S-wave (km/s) = 3.57582 3.69213 3.63444
# Velocity P-wave (km/s) = 6.20087 6.51515 6.35995
#
# Compressibility (1/GPa) = 0.02381525
#
# Stress axis : x y z
#
# Youngs Moduli (GPa) = 61.66929 64.28940 83.91742
#
# Poissons Ratio (x) = 0.27296 0.05071
# Poissons Ratio (y) = 0.26183 0.42677
# Poissons Ratio (z) = 0.03727 0.32695
#
# Static dielectric constant tensor:
#      x y z
#    x 1.748390 0.000000 -0.023830 
#    y 0.000000 1.668610 0.000000 
#    z -0.023830 0.000000 1.720270 
# 
# From -- ./inp_files/320036.got.cif
#   From: 2010.05.17/outbox.cif.g08.bks.cpg/sg12_161_cif.got.tgz:320036.got - 2010.06.03 13:09:07.
