data_PCOD9211465
_publ_section_title
;
Structure prediction by ZEFSAII (Michael W. Deem and Ramdas Pophale) SiO2 
 PCOD9211465
Probable space group: C 2/M
;
_chemical_formula_sum "Si O2"
_cell_formula_units_Z 48
_cell_length_a 20.395754
_cell_length_b 9.030516
_cell_length_c 13.846203
_cell_angle_alpha 90.000000
_cell_angle_beta 90.062466
_cell_angle_gamma 90.000000
_cell_volume 2550.250069
_symmetry_space_group_name_H-M "C 2/M"
_symmetry_group_IT_number 12
_symmetry_cell_setting 'monoclinic'
loop_
_space_group_symop_operation_xyz
x,y,z
-x,y,-z
-x,-y,-z
x,-y,z
1/2+x,1/2+y,z
1/2-x,1/2+y,-z
1/2-x,1/2-y,-z
1/2+x,1/2-y,z
loop_
_atom_site_type_symbol
_atom_site_label
_atom_site_fract_x
_atom_site_fract_y
_atom_site_fract_z
Si Si1 0.298182 0.823261 0.077129
Si Si2 0.550807 0.177419 0.915667
Si Si3 0.873085 0.676724 0.637144
Si Si4 0.498194 0.677001 0.721623
Si Si5 0.389635 0.676958 0.429604
Si Si6 0.771087 0.177068 0.282924
O O1 0.374417 0.788221 0.055709
O O2 0.282901 0.762248 0.183653
O O3 0.290481 0.000000 0.074773
O O4 0.250000 0.750000 0.000000
O O5 0.531798 0.260091 0.817607
O O6 0.546510 0.000000 0.899380
O O7 0.500000 0.216556 0.000000
O O8 0.880689 0.500000 0.638745
O O9 0.883727 0.737758 0.529532
O O10 0.799900 0.712502 0.673123
O O11 0.927718 0.750632 0.704717
O O12 0.493161 0.500000 0.727490
O O13 0.544808 0.712810 0.630253
O O14 0.389640 0.500000 0.448649
O O15 0.328065 0.711129 0.360080
O O16 0.773872 0.000000 0.264286
#
# Coordination Sequence:
#
# PCOD9211465 Si02
#       6
#     8   8   8   8   8   8
#     4  11  24  41  65  93 123 159 199 248 300 360
#     4  10  23  43  65  90 121 158 199 247 303 358
#     4  11  24  38  60  91 124 162 204 250 298 357
#     4  11  23  40  63  90 123 161 201 250 302 357
#     4  10  21  40  63  87 120 160 204 252 302 355
#     4  10  22  42  63  87 123 163 202 250 303 355
#
# _framework density 18.821684000000001
#
# number of rings (size 3 to 8) (size 9 to 14) (size 15 to 20)
#    0.000    1.500    1.667    2.500    2.333    6.333 
#    0.000    0.000    0.000    0.000    0.000    0.000 
#    0.000    0.000    0.000    0.000    0.000    0.000 
#
# Total GULP energy -134203.607761 kJ/mol
# GULP energy per Si atom -5591.816990 kJ/mol
# Density = 1.877885 g / cm^3
# Si number density = 18.821684 Si / 1000 Ang^3
#
#
#
# Elastic Constant Matrix: (Units=GPa)
#
#
# Indices 1 2 3 4 5 6 
#
# 1 89.4103 34.4178 21.7408 0.0000 -0.3908 0.0000
# 2 34.4178 34.1742 33.2808 0.0000 -2.5130 0.0000
# 3 21.7408 33.2808 75.5291 0.0000 -3.1757 0.0000
# 4 0.0000 0.0000 0.0000 35.0374 0.0000 4.4400
# 5 -0.3908 -2.5130 -3.1757 0.0000 35.0026 0.0000
# 6 0.0000 0.0000 0.0000 4.4400 0.0000 30.8303
#
#
#
# Elastic Compliance Matrix: (Units=1/GPa)
#
#
# Indices 1 2 3 4 5 6 
#
# 1 0.019447 -0.024820 0.005293 0.000000 -0.001085 0.000000
# 2 -0.024820 0.083029 -0.029314 0.000000 0.003024 0.000000
# 3 0.005293 -0.029314 0.024641 0.000000 0.000190 0.000000
# 4 0.000000 0.000000 0.000000 0.029071 0.000000 -0.004187
# 5 -0.001085 0.003024 0.000190 0.000000 0.028792 0.000000
# 6 0.000000 0.000000 0.000000 -0.004187 0.000000 0.033039
#
#
# Mechanical properties :
#
#
# Convention : Reuss Voigt Hill
#
# Bulk Modulus (GPa) = 33.97289 41.99917 37.98603
# Shear Modulus (GPa) = 15.36044 27.48568 21.42306
#
# Velocity S-wave (km/s) = 2.85985 3.82556 3.37740
# Velocity P-wave (km/s) = 5.38461 6.47116 5.95273
#
# Compressibility (1/GPa) = 0.02943524
#
# Stress axis : x y z
#
# Youngs Moduli (GPa) = 51.42226 12.04401 40.58273
#
# Poissons Ratio (x) = 0.29893 -0.21482
# Poissons Ratio (y) = 1.27631 1.18964
# Poissons Ratio (z) = -0.27219 0.35306
#
# Static dielectric constant tensor:
#      x y z
#    x 1.643420 0.000000 -0.001230 
#    y 0.000000 1.625120 0.000000 
#    z -0.001230 0.000000 1.606070 
# 
# From -- ./inp_files/221506.got.cif
#   From: 2010.05.17/outbox.cif.g08.bks.cpg/sg12_111_cif.got.tgz:221506.got - 2010.06.03 13:09:07.
