data_PCOD9211148
_publ_section_title
;
Structure prediction by ZEFSAII (Michael W. Deem and Ramdas Pophale) SiO2 
 PCOD9211148
Probable space group: C 2/M
;
_chemical_formula_sum "Si O2"
_cell_formula_units_Z 58
_cell_length_a 26.586286
_cell_length_b 15.026609
_cell_length_c 19.129426
_cell_angle_alpha 90.000000
_cell_angle_beta 159.126081
_cell_angle_gamma 90.000000
_cell_volume 2723.026797
_symmetry_space_group_name_H-M "C 2/M"
_symmetry_group_IT_number 12
_symmetry_cell_setting 'monoclinic'
loop_
_space_group_symop_operation_xyz
x,y,z
-x,y,-z
-x,-y,-z
x,-y,z
1/2+x,1/2+y,z
1/2-x,1/2+y,-z
1/2-x,1/2-y,-z
1/2+x,1/2-y,z
loop_
_atom_site_type_symbol
_atom_site_label
_atom_site_fract_x
_atom_site_fract_y
_atom_site_fract_z
Si Si1 0.910929 0.597408 0.548636
Si Si2 0.889273 0.340495 0.946982
Si Si3 0.588155 0.274592 0.784102
Si Si4 0.380080 0.360219 0.899480
Si Si5 0.016552 0.103679 0.226746
Si Si6 0.641983 0.401988 0.728022
Si Si7 0.154144 0.601518 0.370990
Si Si8 0.500000 0.000000 0.000000
O O1 0.979645 0.500000 0.626236
O O2 0.769558 0.601931 0.318985
O O3 0.870219 0.601801 0.577876
O O4 0.003477 0.684814 0.656519
O O5 0.865741 0.246704 0.879723
O O6 0.766669 0.358154 0.844445
O O7 0.900871 0.421124 0.907535
O O8 0.039551 0.338931 0.183015
O O9 0.535740 0.324671 0.785298
O O10 0.589120 0.344909 0.723671
O O11 0.750000 0.250000 0.000000
O O12 0.500000 0.387699 0.000000
O O13 0.432382 0.386347 0.044618
O O14 0.183126 0.121491 0.431447
O O15 0.002731 0.000000 0.231952
O O16 0.500000 0.411009 0.500000
O O17 0.694302 0.500000 0.817490
O O18 0.126023 0.500000 0.307105
#
# Coordination Sequence:
#
# PCOD9211148 Si02
#       8
#     8   8   8   8   8   8   8   2
#     4  11  25  45  71 103 141 191 240 296 361 424
#     4  12  24  43  67 107 146 182 234 296 359 438
#     4  12  27  46  70 102 136 185 245 290 347 430
#     4  12  24  40  70 103 147 188 232 293 361 426
#     4  11  25  44  69 104 143 183 236 303 362 428
#     4  11  24  45  70  96 139 188 229 284 351 422
#     4  10  21  39  66  99 137 180 228 292 369 428
#     4  12  24  40  66 108 146 178 234 290 384 444
#
# _framework density 21.299828000000002
#
# number of rings (size 3 to 8) (size 9 to 14) (size 15 to 20)
#    0.000    0.690    3.448    4.138    1.931    4.966 
#    0.000    0.000    0.000    4.552    0.000    0.000 
#    0.000    0.000    0.000    0.000    0.000    0.000 
#
# Total GULP energy -162027.727506 kJ/mol
# GULP energy per Si atom -5587.163017 kJ/mol
# Density = 2.125135 g / cm^3
# Si number density = 21.299828 Si / 1000 Ang^3
#
#
#
# Elastic Constant Matrix: (Units=GPa)
#
#
# Indices 1 2 3 4 5 6 
#
# 1 77.1987 30.7782 8.0098 0.0000 6.1075 0.0000
# 2 30.7782 111.1437 25.6834 0.0000 -2.1812 0.0000
# 3 8.0098 25.6834 91.2248 0.0000 4.0436 0.0000
# 4 0.0000 0.0000 0.0000 14.8763 0.0000 4.4883
# 5 6.1075 -2.1812 4.0436 0.0000 26.7006 0.0000
# 6 0.0000 0.0000 0.0000 4.4883 0.0000 35.7280
#
#
#
# Elastic Compliance Matrix: (Units=1/GPa)
#
#
# Indices 1 2 3 4 5 6 
#
# 1 0.014929 -0.004218 0.000044 0.000000 -0.003766 0.000000
# 2 -0.004218 0.010854 -0.002786 0.000000 0.002273 0.000000
# 3 0.000044 -0.002786 0.011832 0.000000 -0.002030 0.000000
# 4 0.000000 0.000000 0.000000 0.069869 0.000000 -0.008777
# 5 -0.003766 0.002273 -0.002030 0.000000 0.038807 0.000000
# 6 0.000000 0.000000 0.000000 -0.008777 0.000000 0.029092
#
#
# Mechanical properties :
#
#
# Convention : Reuss Voigt Hill
#
# Bulk Modulus (GPa) = 42.20499 45.38998 43.79749
# Shear Modulus (GPa) = 25.35467 29.80070 27.57769
#
# Velocity S-wave (km/s) = 3.45392 3.74452 3.60215
# Velocity P-wave (km/s) = 5.98028 6.32863 6.15692
#
# Compressibility (1/GPa) = 0.02369388
#
# Stress axis : x y z
#
# Youngs Moduli (GPa) = 66.98513 92.13269 84.51307
#
# Poissons Ratio (x) = 0.38862 -0.00369
# Poissons Ratio (y) = 0.28255 0.23547
# Poissons Ratio (z) = -0.00293 0.25670
#
# Static dielectric constant tensor:
#      x y z
#    x 1.748360 0.000000 -0.030550 
#    y 0.000000 1.443760 0.000000 
#    z -0.030550 0.000000 1.745000 
# 
# From -- ./inp_files/330315.got.cif
#   From: 2010.05.17/outbox.cif.g08.bks.cpg/sg12_166_cif.got.tgz:330315.got - 2010.06.03 13:09:07.
