data_PCOD9211161
_publ_section_title
;
Structure prediction by ZEFSAII (Michael W. Deem and Ramdas Pophale) SiO2 
 PCOD9211161
Probable space group: C 2/M
;
_chemical_formula_sum "Si O2"
_cell_formula_units_Z 56
_cell_length_a 10.777413
_cell_length_b 19.660791
_cell_length_c 21.520961
_cell_angle_alpha 90.000000
_cell_angle_beta 35.606530
_cell_angle_gamma 90.000000
_cell_volume 2654.978674
_symmetry_space_group_name_H-M "C 2/M"
_symmetry_group_IT_number 12
_symmetry_cell_setting 'monoclinic'
loop_
_space_group_symop_operation_xyz
x,y,z
-x,y,-z
-x,-y,-z
x,-y,z
1/2+x,1/2+y,z
1/2-x,1/2+y,-z
1/2-x,1/2-y,-z
1/2+x,1/2-y,z
loop_
_atom_site_type_symbol
_atom_site_label
_atom_site_fract_x
_atom_site_fract_y
_atom_site_fract_z
Si Si1 0.133680 0.376695 0.389065
Si Si2 0.060699 0.830992 0.279415
Si Si3 0.072955 0.779738 0.401648
Si Si4 0.142943 0.878022 0.000639
Si Si5 0.046629 0.577975 0.910691
Si Si6 0.428722 0.195751 0.798753
Si Si7 0.732755 0.078861 0.217702
O O1 0.374093 0.363643 0.314539
O O2 0.041399 0.301270 0.412499
O O3 0.134172 0.417912 0.325816
O O4 0.000000 0.406933 0.500000
O O5 0.968937 0.816383 0.385382
O O6 0.264761 0.878847 0.195538
O O7 0.128773 0.758299 0.222576
O O8 0.324465 0.792142 0.288011
O O9 0.000000 0.802446 0.500000
O O10 0.337319 0.917891 0.952651
O O11 0.261844 0.811786 0.923710
O O12 0.000000 0.904857 0.000000
O O13 0.956566 0.878874 0.127534
O O14 0.114530 0.500000 0.888820
O O15 0.000000 0.603106 0.000000
O O16 0.407478 0.123169 0.772664
O O17 0.765394 0.000000 0.187041
#
# Coordination Sequence:
#
# PCOD9211161 Si02
#       7
#     8   8   8   8   8   8   8
#     4  10  23  39  64  92 126 167 208 262 315 379
#     4  11  22  41  65  97 127 162 207 267 317 376
#     4  10  21  39  67  94 122 161 210 261 318 375
#     4  10  22  41  64  92 126 170 216 263 311 382
#     4  11  24  42  65  94 131 172 212 260 325 388
#     4  10  22  40  64  96 123 161 212 260 318 374
#     4  11  23  40  62  89 129 168 212 257 309 378
#
# _framework density 21.092448000000001
#
# number of rings (size 3 to 8) (size 9 to 14) (size 15 to 20)
#    0.000    1.571    2.857    1.286    2.000   10.571 
#    0.000    5.000    0.000    0.857    0.000    0.000 
#    0.000    0.000    0.000    0.000    0.000    0.000 
#
# Total GULP energy -156198.435905 kJ/mol
# GULP energy per Si atom -5578.515568 kJ/mol
# Density = 2.104444 g / cm^3
# Si number density = 21.092448 Si / 1000 Ang^3
#
#
#
# Elastic Constant Matrix: (Units=GPa)
#
#
# Indices 1 2 3 4 5 6 
#
# 1 65.5131 12.7533 15.1933 -0.0045 -5.0258 0.0056
# 2 12.7533 47.1276 26.9031 0.0160 0.7213 -0.0211
# 3 15.1933 26.9031 98.1739 0.0217 9.0122 -0.0292
# 4 -0.0045 0.0160 0.0217 21.9695 0.0016 9.7100
# 5 -5.0258 0.7213 9.0122 0.0016 39.2222 -0.0051
# 6 0.0056 -0.0211 -0.0292 9.7100 -0.0051 10.8503
#
#
#
# Elastic Compliance Matrix: (Units=1/GPa)
#
#
# Indices 1 2 3 4 5 6 
#
# 1 0.016569 -0.003465 -0.001855 0.000026 0.002613 -0.000043
# 2 -0.003465 0.025929 -0.006624 -0.000047 0.000601 0.000077
# 3 -0.001855 -0.006624 0.012564 -0.000028 -0.003003 0.000045
# 4 0.000026 -0.000047 -0.000028 0.075302 -0.000001 -0.067388
# 5 0.002613 0.000601 -0.003003 -0.000001 0.026509 0.000005
# 6 -0.000043 0.000077 0.000045 -0.067388 0.000005 0.152470
#
#
# Mechanical properties :
#
#
# Convention : Reuss Voigt Hill
#
# Bulk Modulus (GPa) = 32.07784 35.61264 33.84524
# Shear Modulus (GPa) = 14.55084 24.80607 19.67845
#
# Velocity S-wave (km/s) = 2.62937 3.43310 3.05776
# Velocity P-wave (km/s) = 4.94564 5.71276 5.34298
#
# Compressibility (1/GPa) = 0.03117417
#
# Stress axis : x y z
#
# Youngs Moduli (GPa) = 60.35280 38.56663 79.59257
#
# Poissons Ratio (x) = 0.13364 0.14761
# Poissons Ratio (y) = 0.20913 0.52725
# Poissons Ratio (z) = 0.11193 0.25548
#
# Static dielectric constant tensor:
#      x y z
#    x 1.818780 0.000000 0.034340 
#    y 0.000000 1.715760 0.000000 
#    z 0.034340 0.000000 1.801960 
# 
# From -- ./inp_files/336730.got.cif
#   From: 2010.05.17/outbox.cif.g08.bks.cpg/sg12_169_cif.got.tgz:336730.got - 2010.06.03 13:09:07.
