data_PCOD9211878
_publ_section_title
;
Structure prediction by ZEFSAII (Michael W. Deem and Ramdas Pophale) SiO2 
 PCOD9211878
Probable space group: C 2/M
;
_chemical_formula_sum "Si O2"
_cell_formula_units_Z 56
_cell_length_a 9.387673
_cell_length_b 23.556621
_cell_length_c 17.231349
_cell_angle_alpha 90.000000
_cell_angle_beta 50.181012
_cell_angle_gamma 90.000000
_cell_volume 2926.791538
_symmetry_space_group_name_H-M "C 2/M"
_symmetry_group_IT_number 12
_symmetry_cell_setting 'monoclinic'
loop_
_space_group_symop_operation_xyz
x,y,z
-x,y,-z
-x,-y,-z
x,-y,z
1/2+x,1/2+y,z
1/2-x,1/2+y,-z
1/2-x,1/2-y,-z
1/2+x,1/2-y,z
loop_
_atom_site_type_symbol
_atom_site_label
_atom_site_fract_x
_atom_site_fract_y
_atom_site_fract_z
Si Si1 0.682127 0.843936 0.734623
Si Si2 0.785522 0.746454 0.578947
Si Si3 0.346753 0.935817 0.605582
Si Si4 0.931201 0.565141 0.753977
Si Si5 0.910697 0.848263 0.114195
Si Si6 0.480292 0.648124 0.263871
Si Si7 0.038510 0.273638 0.070062
O O1 0.752314 0.804724 0.638826
O O2 0.607932 0.904001 0.729433
O O3 0.843188 0.849597 0.742396
O O4 0.514276 0.812479 0.839083
O O5 0.750000 0.750000 0.500000
O O6 0.650355 0.701950 0.669342
O O7 0.000000 0.729955 0.500000
O O8 0.500000 0.905938 0.500000
O O9 0.435913 0.937777 0.659501
O O10 0.152313 0.904758 0.672890
O O11 0.317670 0.000000 0.587892
O O12 0.900910 0.500000 0.792463
O O13 0.763712 0.610068 0.823180
O O14 0.020618 0.856072 0.157425
O O15 0.894601 0.779731 0.120496
O O16 0.000000 0.860759 0.000000
O O17 0.250000 0.250000 0.000000
O O18 0.000000 0.302241 0.000000
#
# Coordination Sequence:
#
# PCOD9211878 Si02
#       7
#     8   8   8   8   8   8   8
#     4  12  25  39  62  93 131 167 209 262 325 377
#     4  12  26  40  60  92 134 171 208 255 321 388
#     4   9  20  40  64  86 115 164 219 263 308 371
#     4  10  24  42  63  90 124 169 219 266 313 375
#     4  10  21  40  67  91 124 166 211 263 315 384
#     4  11  23  38  63  92 127 163 208 262 319 379
#     4  11  22  37  61  91 125 160 203 259 318 377
#
# _framework density 19.133581
#
# number of rings (size 3 to 8) (size 9 to 14) (size 15 to 20)
#    0.000    1.286    2.857    3.000    8.000    0.857 
#    0.000    0.000    0.000    6.000    0.000    0.000 
#    0.000    0.000    0.000    0.000    0.000    0.000 
#
# Total GULP energy -156045.365548 kJ/mol
# GULP energy per Si atom -5573.048770 kJ/mol
# Density = 1.909003 g / cm^3
# Si number density = 19.133581 Si / 1000 Ang^3
#
#
#
# Elastic Constant Matrix: (Units=GPa)
#
#
# Indices 1 2 3 4 5 6 
#
# 1 143.2635 41.2774 42.4526 0.0000 5.2019 0.0000
# 2 41.2774 103.4487 26.7755 0.0000 -1.3340 0.0000
# 3 42.4526 26.7755 90.7356 0.0000 22.2125 0.0000
# 4 0.0000 0.0000 0.0000 16.7208 0.0000 3.6413
# 5 5.2019 -1.3340 22.2125 0.0000 27.1749 0.0000
# 6 0.0000 0.0000 0.0000 3.6413 0.0000 15.1885
#
#
#
# Elastic Compliance Matrix: (Units=1/GPa)
#
#
# Indices 1 2 3 4 5 6 
#
# 1 0.008743 -0.002534 -0.003629 0.000000 0.001168 0.000000
# 2 -0.002534 0.011524 -0.003091 0.000000 0.003577 0.000000
# 3 -0.003629 -0.003091 0.016875 0.000000 -0.013250 0.000000
# 4 0.000000 0.000000 0.000000 0.063100 0.000000 -0.015128
# 5 0.001168 0.003577 -0.013250 0.000000 0.047581 0.000000
# 6 0.000000 0.000000 0.000000 -0.015128 0.000000 0.069466
#
#
# Mechanical properties :
#
#
# Convention : Reuss Voigt Hill
#
# Bulk Modulus (GPa) = 53.66455 62.05099 57.85777
# Shear Modulus (GPa) = 20.66045 26.94632 23.80338
#
# Velocity S-wave (km/s) = 3.28960 3.75684 3.53095
# Velocity P-wave (km/s) = 6.52202 7.16375 6.85040
#
# Compressibility (1/GPa) = 0.01863428
#
# Stress axis : x y z
#
# Youngs Moduli (GPa) = 114.37409 86.77596 59.26092
#
# Poissons Ratio (x) = 0.21992 0.21505
# Poissons Ratio (y) = 0.28987 0.18315
# Poissons Ratio (z) = 0.41504 0.26819
#
# Static dielectric constant tensor:
#      x y z
#    x 1.702130 0.000000 0.024230 
#    y 0.000000 1.686780 0.000000 
#    z 0.024230 0.000000 1.705360 
# 
# From -- ./inp_files/259165.got.cif
#   From: 2010.05.17/outbox.cif.g08.bks.cpg/sg12_130_cif.got.tgz:259165.got - 2010.06.03 13:09:07.
