data_PCOD9211062
_publ_section_title
;
Structure prediction by ZEFSAII (Michael W. Deem and Ramdas Pophale) SiO2 
 PCOD9211062
Probable space group: C 2/M
;
_chemical_formula_sum "Si O2"
_cell_formula_units_Z 64
_cell_length_a 26.622360
_cell_length_b 16.717291
_cell_length_c 11.726316
_cell_angle_alpha 90.000000
_cell_angle_beta 36.867068
_cell_angle_gamma 90.000000
_cell_volume 3131.098273
_symmetry_space_group_name_H-M "C 2/M"
_symmetry_group_IT_number 12
_symmetry_cell_setting 'monoclinic'
loop_
_space_group_symop_operation_xyz
x,y,z
-x,y,-z
-x,-y,-z
x,-y,z
1/2+x,1/2+y,z
1/2-x,1/2+y,-z
1/2-x,1/2-y,-z
1/2+x,1/2-y,z
loop_
_atom_site_type_symbol
_atom_site_label
_atom_site_fract_x
_atom_site_fract_y
_atom_site_fract_z
Si Si1 0.688070 0.589387 0.520188
Si Si2 0.521528 0.247622 0.589355
Si Si3 0.854912 0.216400 0.029744
Si Si4 0.108201 0.409443 0.437149
Si Si5 0.143574 0.410538 0.636190
Si Si6 0.404049 0.264776 0.196085
Si Si7 0.222582 0.905440 0.981761
Si Si8 0.800313 0.169700 0.733756
O O1 0.649917 0.500000 0.599651
O O2 0.769058 0.590405 0.455004
O O3 0.633902 0.665841 0.656312
O O4 0.711868 0.605820 0.345452
O O5 0.500000 0.273505 0.500000
O O6 0.446531 0.267668 0.810967
O O7 0.533429 0.152397 0.570179
O O8 0.613202 0.283444 0.449222
O O9 0.856625 0.228706 0.161521
O O10 0.828610 0.129992 0.031160
O O11 0.781312 0.273841 0.117099
O O12 0.081735 0.500000 0.463805
O O13 0.149453 0.406844 0.488492
O O14 0.179846 0.385507 0.217576
O O15 0.105336 0.500000 0.730448
O O16 0.100905 0.326627 0.749529
O O17 0.500000 0.283937 0.000000
O O18 0.215455 0.000000 0.997841
O O19 0.192491 0.868302 0.154598
#
# Coordination Sequence:
#
# PCOD9211062 Si02
#       8
#     8   8   8   8   8   8   8   8
#     4  11  24  42  68  97 130 176 222 270 327 394
#     4  12  24  42  66  97 133 172 222 269 332 400
#     4  12  24  42  70 100 129 175 222 268 327 397
#     4  10  21  39  65  97 133 170 214 273 332 392
#     4  10  21  41  67  97 131 172 220 268 328 398
#     4  12  25  42  66  99 137 174 219 275 330 392
#     4  11  23  41  67  99 129 170 222 274 331 387
#     4  12  23  45  68  93 135 174 221 271 329 395
#
# _framework density 20.440111999999999
#
# number of rings (size 3 to 8) (size 9 to 14) (size 15 to 20)
#    0.000    0.750    3.750    4.875    0.000    2.250 
#    0.000    5.000    0.000    0.000    0.000    0.000 
#    0.000    0.000    0.000    0.000    0.000    0.000 
#
# Total GULP energy -178750.917929 kJ/mol
# GULP energy per Si atom -5585.966185 kJ/mol
# Density = 2.039359 g / cm^3
# Si number density = 20.440112 Si / 1000 Ang^3
#
#
#
# Elastic Constant Matrix: (Units=GPa)
#
#
# Indices 1 2 3 4 5 6 
#
# 1 49.5392 13.8231 8.7325 0.0000 9.6280 0.0000
# 2 13.8231 76.7416 21.3497 0.0000 10.0332 0.0000
# 3 8.7325 21.3497 67.5122 0.0000 8.8542 0.0000
# 4 0.0000 0.0000 0.0000 13.6193 0.0000 3.2777
# 5 9.6280 10.0332 8.8542 0.0000 33.6553 0.0000
# 6 0.0000 0.0000 0.0000 3.2777 0.0000 20.5529
#
#
#
# Elastic Compliance Matrix: (Units=1/GPa)
#
#
# Indices 1 2 3 4 5 6 
#
# 1 0.022240 -0.002984 -0.001259 0.000000 -0.005142 0.000000
# 2 -0.002984 0.015024 -0.004029 0.000000 -0.002566 0.000000
# 3 -0.001259 -0.004029 0.016618 0.000000 -0.002811 0.000000
# 4 0.000000 0.000000 0.000000 0.076356 0.000000 -0.012177
# 5 -0.005142 -0.002566 -0.002811 0.000000 0.032688 0.000000
# 6 0.000000 0.000000 0.000000 -0.012177 0.000000 0.050597
#
#
# Mechanical properties :
#
#
# Convention : Reuss Voigt Hill
#
# Bulk Modulus (GPa) = 26.78135 31.28927 29.03531
# Shear Modulus (GPa) = 20.61761 23.55802 22.08782
#
# Velocity S-wave (km/s) = 3.17942 3.39859 3.29083
# Velocity P-wave (km/s) = 5.15840 5.54451 5.35494
#
# Compressibility (1/GPa) = 0.03733941
#
# Stress axis : x y z
#
# Youngs Moduli (GPa) = 44.96462 66.55838 60.17697
#
# Poissons Ratio (x) = 0.19858 0.07575
# Poissons Ratio (y) = 0.13415 0.24244
# Poissons Ratio (z) = 0.05660 0.26815
#
# Static dielectric constant tensor:
#      x y z
#    x 1.745280 0.000000 0.020350 
#    y 0.000000 1.740230 0.000000 
#    z 0.020350 0.000000 1.734540 
# 
# From -- ./inp_files/183764.got.cif
#   From: 2010.05.17/outbox.cif.g08.bks.cpg/sg12_92_cif.got.tgz:183764.got - 2010.06.03 13:09:07.
