data_PCOD9211984
_publ_section_title
;
Structure prediction by ZEFSAII (Michael W. Deem and Ramdas Pophale) SiO2 
 PCOD9211984
Probable space group: C 2/M
;
_chemical_formula_sum "Si O2"
_cell_formula_units_Z 24
_cell_length_a 10.382112
_cell_length_b 14.941082
_cell_length_c 10.468716
_cell_angle_alpha 90.000000
_cell_angle_beta 128.290809
_cell_angle_gamma 90.000000
_cell_volume 1274.565343
_symmetry_space_group_name_H-M "C 2/M"
_symmetry_group_IT_number 12
_symmetry_cell_setting 'monoclinic'
loop_
_space_group_symop_operation_xyz
x,y,z
-x,y,-z
-x,-y,-z
x,-y,z
1/2+x,1/2+y,z
1/2-x,1/2+y,-z
1/2-x,1/2-y,-z
1/2+x,1/2-y,z
loop_
_atom_site_type_symbol
_atom_site_label
_atom_site_fract_x
_atom_site_fract_y
_atom_site_fract_z
Si Si1 0.258828 0.655527 0.935602
Si Si2 0.510688 0.000000 0.854421
Si Si3 0.880985 0.901428 0.765070
Si Si4 0.341506 0.500000 0.493257
O O1 0.109878 0.588720 0.872516
O O2 0.284749 0.665555 0.798273
O O3 0.250000 0.750000 0.000000
O O4 0.427007 0.612543 0.092983
O O5 0.328274 0.000000 0.685432
O O6 0.500000 0.000000 0.000000
O O7 0.834372 0.000000 0.789475
O O8 0.847858 0.914856 0.594975
O O9 0.500000 0.500000 0.500000
#
# Coordination Sequence:
#
# PCOD9211984 Si02
#       4
#     8   4   8   4
#     4  11  21  37  63  96 125 162 209 259 313 386
#     4  12  23  38  65  91 121 167 217 262 319 383
#     4   9  19  41  64  82 128 165 204 261 318 361
#     4  10  21  40  69  87 123 169 215 272 322 358
#
# _framework density 18.829948000000002
#
# number of rings (size 3 to 8) (size 9 to 14) (size 15 to 20)
#    1.000    0.667    3.333    3.000    4.667    2.667 
#    0.000    1.667    7.333    0.000    0.000    0.000 
#    0.000    0.000    0.000    0.000    0.000    0.000 
#
# Total GULP energy -66805.408371 kJ/mol
# GULP energy per Si atom -5567.117364 kJ/mol
# Density = 1.878709 g / cm^3
# Si number density = 18.829948 Si / 1000 Ang^3
#
#
#
# Elastic Constant Matrix: (Units=GPa)
#
#
# Indices 1 2 3 4 5 6 
#
# 1 158.3459 54.1861 94.4381 0.0000 -7.2855 0.0000
# 2 54.1861 83.7462 30.3928 0.0000 -7.9187 0.0000
# 3 94.4381 30.3928 156.5432 0.0000 -9.2331 0.0000
# 4 0.0000 0.0000 0.0000 18.8804 0.0000 -15.1838
# 5 -7.2855 -7.9187 -9.2331 0.0000 33.6958 0.0000
# 6 0.0000 0.0000 0.0000 -15.1838 0.0000 23.6151
#
#
#
# Elastic Compliance Matrix: (Units=1/GPa)
#
#
# Indices 1 2 3 4 5 6 
#
# 1 0.011789 -0.005461 -0.006075 0.000000 -0.000399 0.000000
# 2 -0.005461 0.015565 0.000425 0.000000 0.002594 0.000000
# 3 -0.006075 0.000425 0.010061 0.000000 0.001543 0.000000
# 4 0.000000 0.000000 0.000000 0.109677 0.000000 0.070519
# 5 -0.000399 0.002594 0.001543 0.000000 0.030623 0.000000
# 6 0.000000 0.000000 0.000000 0.070519 0.000000 0.087687
#
#
# Mechanical properties :
#
#
# Convention : Reuss Voigt Hill
#
# Bulk Modulus (GPa) = 65.81492 84.07437 74.94464
# Shear Modulus (GPa) = 17.08301 29.87949 23.48125
#
# Velocity S-wave (km/s) = 3.01529 3.98780 3.53514
# Velocity P-wave (km/s) = 6.86664 8.12093 7.51998
#
# Compressibility (1/GPa) = 0.01519412
#
# Stress axis : x y z
#
# Youngs Moduli (GPa) = 84.82580 64.24695 99.38882
#
# Poissons Ratio (x) = 0.35083 0.60381
# Poissons Ratio (y) = 0.46320 -0.04227
# Poissons Ratio (z) = 0.51534 -0.02733
#
# Static dielectric constant tensor:
#      x y z
#    x 1.671240 0.000000 -0.044880 
#    y 0.000000 1.675190 0.000000 
#    z -0.044880 0.000000 1.659490 
# 
# From -- ./inp_files/117267.got.cif
#   From: 2010.05.17/outbox.cif.g08.bks.cpg/sg12_59_cif.got.tgz:117267.got - 2010.06.03 13:09:07.
