data_PCOD9211011
_publ_section_title
;
Structure prediction by ZEFSAII (Michael W. Deem and Ramdas Pophale) SiO2 
 PCOD9211011
Probable space group: C 2/M
;
_chemical_formula_sum "Si O2"
_cell_formula_units_Z 64
_cell_length_a 31.731311
_cell_length_b 9.026583
_cell_length_c 11.079361
_cell_angle_alpha 90.000000
_cell_angle_beta 84.727300
_cell_angle_gamma 90.000000
_cell_volume 3159.981463
_symmetry_space_group_name_H-M "C 2/M"
_symmetry_group_IT_number 12
_symmetry_cell_setting 'monoclinic'
loop_
_space_group_symop_operation_xyz
x,y,z
-x,y,-z
-x,-y,-z
x,-y,z
1/2+x,1/2+y,z
1/2-x,1/2+y,-z
1/2-x,1/2-y,-z
1/2+x,1/2-y,z
loop_
_atom_site_type_symbol
_atom_site_label
_atom_site_fract_x
_atom_site_fract_y
_atom_site_fract_z
Si Si1 0.048256 0.329465 0.501046
Si Si2 0.867294 0.172945 0.960210
Si Si3 0.919000 0.334251 0.138878
Si Si4 0.869533 0.671119 0.387401
Si Si5 0.999004 0.833807 0.145113
Si Si6 0.723504 0.323158 0.897043
Si Si7 0.920625 0.668160 0.778458
Si Si8 0.720163 0.679004 0.612125
O O1 0.042318 0.500000 0.548415
O O2 0.087151 0.263085 0.567275
O O3 0.070015 0.334476 0.364835
O O4 0.000000 0.268141 0.500000
O O5 0.876101 0.267994 0.837724
O O6 0.869419 0.000000 0.931298
O O7 0.904676 0.221828 0.040117
O O8 0.824509 0.202415 0.044716
O O9 0.926030 0.500000 0.090852
O O10 0.881489 0.338644 0.244236
O O11 0.961738 0.277595 0.189203
O O12 0.863473 0.500000 0.433599
O O13 0.827162 0.765502 0.408542
O O14 0.042866 0.774035 0.181618
O O15 0.990463 0.000000 0.190156
O O16 0.000000 0.834115 0.000000
O O17 0.731405 0.500000 0.896925
O O18 0.729009 0.277410 0.752920
O O19 0.750000 0.250000 0.000000
O O20 0.925363 0.500000 0.820740
O O21 0.722781 0.500000 0.606601
O O22 0.750000 0.750000 0.500000
#
# Coordination Sequence:
#
# PCOD9211011 Si02
#       8
#     8   8   8   8   8   8   8   8
#     4   9  19  38  61  87 124 166 209 262 317 368
#     4  11  22  39  59  85 122 158 192 244 312 370
#     4  11  21  34  59  89 115 151 201 249 293 359
#     4  10  21  39  65  94 123 162 210 261 317 376
#     4  11  22  34  51  78 116 160 196 243 304 356
#     4  10  24  44  68  95 130 170 211 264 327 396
#     4  11  22  36  58  87 118 156 207 259 303 369
#     4  11  24  44  68  99 134 172 219 273 331 396
#
# _framework density 20.253283
#
# number of rings (size 3 to 8) (size 9 to 14) (size 15 to 20)
#    0.000    1.500    2.500    2.625    0.000    6.000 
#    0.000    5.000    0.000    2.625    0.000    0.000 
#    0.000    0.000    0.000    0.000    0.000    0.000 
#
# Total GULP energy -178313.296834 kJ/mol
# GULP energy per Si atom -5572.290526 kJ/mol
# Density = 2.020719 g / cm^3
# Si number density = 20.253283 Si / 1000 Ang^3
#
#
#
# Elastic Constant Matrix: (Units=GPa)
#
#
# Indices 1 2 3 4 5 6 
#
# 1 106.1814 33.5721 54.0414 0.0000 -3.6610 0.0000
# 2 33.5721 34.4245 35.0095 0.0000 -9.9592 0.0000
# 3 54.0414 35.0095 112.6359 0.0000 -13.3959 0.0000
# 4 0.0000 0.0000 0.0000 27.1116 0.0000 -2.9282
# 5 -3.6610 -9.9592 -13.3959 0.0000 39.1019 0.0000
# 6 0.0000 0.0000 0.0000 -2.9282 0.0000 33.2108
#
#
#
# Elastic Compliance Matrix: (Units=1/GPa)
#
#
# Indices 1 2 3 4 5 6 
#
# 1 0.014929 -0.011340 -0.003978 0.000000 -0.002853 0.000000
# 2 -0.011340 0.052769 -0.009892 0.000000 0.008990 0.000000
# 3 -0.003978 -0.009892 0.014091 0.000000 0.001936 0.000000
# 4 0.000000 0.000000 0.000000 0.037239 0.000000 0.003283
# 5 -0.002853 0.008990 0.001936 0.000000 0.028260 0.000000
# 6 0.000000 0.000000 0.000000 0.003283 0.000000 0.030400
#
#
# Mechanical properties :
#
#
# Convention : Reuss Voigt Hill
#
# Bulk Modulus (GPa) = 31.87651 55.38751 43.63201
# Shear Modulus (GPa) = 20.95875 28.59278 24.77577
#
# Velocity S-wave (km/s) = 3.22037 3.76142 3.50136
# Velocity P-wave (km/s) = 5.44066 6.80229 6.15922
#
# Compressibility (1/GPa) = 0.03137106
#
# Stress axis : x y z
#
# Youngs Moduli (GPa) = 66.98255 18.95061 70.96580
#
# Poissons Ratio (x) = 0.21490 0.28227
# Poissons Ratio (y) = 0.75957 0.70197
# Poissons Ratio (z) = 0.26643 0.18745
#
# Static dielectric constant tensor:
#      x y z
#    x 1.732960 0.000000 -0.022390 
#    y 0.000000 1.706300 0.000000 
#    z -0.022390 0.000000 1.832100 
# 
# From -- ./inp_files/187556.got.cif
#   From: 2010.05.17/outbox.cif.g08.bks.cpg/sg12_94_cif.got.tgz:187556.got - 2010.06.03 13:09:07.
