data_PCOD9211329
_publ_section_title
;
Structure prediction by ZEFSAII (Michael W. Deem and Ramdas Pophale) SiO2 
 PCOD9211329
Probable space group: C 2/M
;
_chemical_formula_sum "Si O2"
_cell_formula_units_Z 50
_cell_length_a 19.285079
_cell_length_b 9.402112
_cell_length_c 17.851541
_cell_angle_alpha 90.000000
_cell_angle_beta 133.389309
_cell_angle_gamma 90.000000
_cell_volume 2352.228058
_symmetry_space_group_name_H-M "C 2/M"
_symmetry_group_IT_number 12
_symmetry_cell_setting 'monoclinic'
loop_
_space_group_symop_operation_xyz
x,y,z
-x,y,-z
-x,-y,-z
x,-y,z
1/2+x,1/2+y,z
1/2-x,1/2+y,-z
1/2-x,1/2-y,-z
1/2+x,1/2-y,z
loop_
_atom_site_type_symbol
_atom_site_label
_atom_site_fract_x
_atom_site_fract_y
_atom_site_fract_z
Si Si1 0.437384 0.274614 0.016433
Si Si2 0.718211 0.666701 0.205508
Si Si3 0.500000 0.000000 0.000000
Si Si4 0.793924 0.833228 0.636953
Si Si5 0.920669 0.330082 0.299744
Si Si6 0.890479 0.832316 0.554877
Si Si7 0.656448 0.664715 0.902445
O O1 0.335757 0.249569 0.899275
O O2 0.500000 0.355197 0.000000
O O3 0.488424 0.124035 0.055238
O O4 0.415935 0.337362 0.080662
O O5 0.706584 0.500000 0.177676
O O6 0.675349 0.693834 0.255253
O O7 0.831032 0.693461 0.288572
O O8 0.872833 0.814807 0.631455
O O9 0.704899 0.732635 0.551949
O O10 0.763644 0.000000 0.611060
O O11 0.932395 0.500000 0.297918
O O12 0.888985 0.251384 0.199829
O O13 0.017175 0.256976 0.398898
O O14 0.900574 0.000000 0.546657
O O15 0.678034 0.500000 0.898639
O O16 0.750000 0.750000 0.000000
#
# Coordination Sequence:
#
# PCOD9211329 Si02
#       7
#     8   8   2   8   8   8   8
#     4  10  23  41  61  88 125 161 208 254 304 361
#     4  10  21  40  61  89 115 159 208 252 298 359
#     4   8  24  40  58  88 120 166 200 262 304 364
#     4   9  20  40  66  86 117 155 201 250 302 365
#     4  11  24  40  63  89 124 162 207 252 305 365
#     4  10  21  40  61  94 121 153 198 250 311 372
#     4  12  25  40  63  90 125 168 207 255 306 366
#
# _framework density 21.256440999999999
#
# number of rings (size 3 to 8) (size 9 to 14) (size 15 to 20)
#    0.480    1.280    1.600    1.920    4.480    2.560 
#    2.880    3.200    0.000    0.000    0.000    0.000 
#    0.000    0.000    0.000    0.000    0.000    0.000 
#
# Total GULP energy -139248.441681 kJ/mol
# GULP energy per Si atom -5569.937667 kJ/mol
# Density = 2.120806 g / cm^3
# Si number density = 21.256441 Si / 1000 Ang^3
#
#
#
# Elastic Constant Matrix: (Units=GPa)
#
#
# Indices 1 2 3 4 5 6 
#
# 1 64.1623 20.0785 -7.3500 0.0000 2.5398 0.0000
# 2 20.0785 125.0838 9.4713 0.0000 8.5543 0.0000
# 3 -7.3500 9.4713 17.2229 0.0000 -0.7585 0.0000
# 4 0.0000 0.0000 0.0000 -72.2257 0.0000 -58.7210
# 5 2.5398 8.5543 -0.7585 0.0000 40.9263 0.0000
# 6 0.0000 0.0000 0.0000 -58.7210 0.0000 -18.8786
#
#
#
# Elastic Compliance Matrix: (Units=1/GPa)
#
#
# Indices 1 2 3 4 5 6 
#
# 1 0.017804 -0.003569 0.009552 0.000000 -0.000182 0.000000
# 2 -0.003569 0.009197 -0.006661 0.000000 -0.001824 0.000000
# 3 0.009552 -0.006661 0.065891 0.000000 0.002021 0.000000
# 4 0.000000 0.000000 0.000000 0.009056 0.000000 -0.028168
# 5 -0.000182 -0.001824 0.002021 0.000000 0.024864 0.000000
# 6 0.000000 0.000000 0.000000 -0.028168 0.000000 0.034647
#
#
# Mechanical properties :
#
#
# Convention : Reuss Voigt Hill
#
# Bulk Modulus (GPa) = 10.92456 27.87429 19.39942
# Shear Modulus (GPa) = 25.86327 2.24902 14.05614
#
# Velocity S-wave (km/s) = 3.49194 1.02973 2.57430
# Velocity P-wave (km/s) = 4.62696 3.81518 4.24054
#
# Compressibility (1/GPa) = 0.09153688
#
# Stress axis : x y z
#
# Youngs Moduli (GPa) = 56.16806 108.73577 15.17664
#
# Poissons Ratio (x) = 0.38805 -0.14497
# Poissons Ratio (y) = 0.20045 0.10109
# Poissons Ratio (z) = -0.53654 0.72427
#
# Static dielectric constant tensor:
#      x y z
#    x 1.841490 0.000000 0.019640 
#    y 0.000000 1.695890 0.000000 
#    z 0.019640 0.000000 1.784000 
# 
# From -- ./inp_files/275787.got.cif
#   From: 2010.05.17/outbox.cif.g08.bks.cpg/sg12_138_cif.got.tgz:275787.got - 2010.06.03 13:09:07.
