data_PCOD9211547
_publ_section_title
;
Structure prediction by ZEFSAII (Michael W. Deem and Ramdas Pophale) SiO2 
 PCOD9211547
Probable space group: C 2/M
;
_chemical_formula_sum "Si O2"
_cell_formula_units_Z 48
_cell_length_a 29.591527
_cell_length_b 9.121323
_cell_length_c 17.042108
_cell_angle_alpha 90.000000
_cell_angle_beta 149.947578
_cell_angle_gamma 90.000000
_cell_volume 2303.594518
_symmetry_space_group_name_H-M "C 2/M"
_symmetry_group_IT_number 12
_symmetry_cell_setting 'monoclinic'
loop_
_space_group_symop_operation_xyz
x,y,z
-x,y,-z
-x,-y,-z
x,-y,z
1/2+x,1/2+y,z
1/2-x,1/2+y,-z
1/2-x,1/2-y,-z
1/2+x,1/2-y,z
loop_
_atom_site_type_symbol
_atom_site_label
_atom_site_fract_x
_atom_site_fract_y
_atom_site_fract_z
Si Si1 0.142923 0.826417 0.666795
Si Si2 0.653759 0.173723 0.842839
Si Si3 0.825726 0.672906 0.853804
Si Si4 0.683148 0.173001 0.338972
Si Si5 0.515867 0.672217 0.155957
Si Si6 0.005742 0.828212 0.318729
O O1 0.119500 0.730433 0.706758
O O2 0.245169 0.795768 0.792922
O O3 0.078125 0.799225 0.495521
O O4 0.135968 0.000000 0.676213
O O5 0.581465 0.229347 0.797402
O O6 0.663152 0.000000 0.859464
O O7 0.750000 0.250000 0.000000
O O8 0.849135 0.500000 0.896202
O O9 0.790699 0.695846 0.712362
O O10 0.914204 0.769558 0.997776
O O11 0.750000 0.250000 0.500000
O O12 0.583774 0.238634 0.203534
O O13 0.682743 0.000000 0.353342
O O14 0.520433 0.500000 0.144300
O O15 0.544354 0.693282 0.289760
O O16 0.979244 0.000000 0.284696
#
# Coordination Sequence:
#
# PCOD9211547 Si02
#       6
#     8   8   8   8   8   8
#     4  10  21  40  64  87 117 156 195 239 294 351
#     4  12  25  40  60  88 120 154 197 245 294 350
#     4  10  22  40  61  87 119 157 198 240 291 351
#     4  11  23  40  62  88 120 157 199 245 294 350
#     4  11  23  39  61  90 121 155 198 244 291 347
#     4  10  22  41  63  88 120 157 196 240 293 352
#
# _framework density 20.837001999999998
#
# number of rings (size 3 to 8) (size 9 to 14) (size 15 to 20)
#    0.000    1.333    0.000    5.500    0.000   13.333 
#    0.000    1.667    0.000    0.000    0.000    0.000 
#    0.000    0.000    0.000    0.000    0.000    0.000 
#
# Total GULP energy -134339.432658 kJ/mol
# GULP energy per Si atom -5597.476361 kJ/mol
# Density = 2.078958 g / cm^3
# Si number density = 20.837002 Si / 1000 Ang^3
#
#
#
# Elastic Constant Matrix: (Units=GPa)
#
#
# Indices 1 2 3 4 5 6 
#
# 1 63.9332 28.6654 -12.5222 0.0000 2.0705 0.0000
# 2 28.6654 63.6234 19.2377 0.0000 -1.7784 0.0000
# 3 -12.5222 19.2377 56.9669 0.0000 -0.3022 0.0000
# 4 0.0000 0.0000 0.0000 34.6735 0.0000 3.4396
# 5 2.0705 -1.7784 -0.3022 0.0000 33.6441 0.0000
# 6 0.0000 0.0000 0.0000 3.4396 0.0000 29.3781
#
#
#
# Elastic Compliance Matrix: (Units=1/GPa)
#
#
# Indices 1 2 3 4 5 6 
#
# 1 0.023822 -0.013779 0.009879 0.000000 -0.002106 0.000000
# 2 -0.013779 0.025500 -0.011629 0.000000 0.002091 0.000000
# 3 0.009879 -0.011629 0.023647 0.000000 -0.001010 0.000000
# 4 0.000000 0.000000 0.000000 0.029179 0.000000 -0.003416
# 5 -0.002106 0.002091 -0.001010 0.000000 0.029954 0.000000
# 6 0.000000 0.000000 0.000000 -0.003416 0.000000 0.034439
#
#
# Mechanical properties :
#
#
# Convention : Reuss Voigt Hill
#
# Bulk Modulus (GPa) = 23.86022 28.36503 26.11263
# Shear Modulus (GPa) = 23.63264 29.48199 26.55731
#
# Velocity S-wave (km/s) = 3.37139 3.76558 3.57392
# Velocity P-wave (km/s) = 5.16050 5.70513 5.43964
#
# Compressibility (1/GPa) = 0.04191076
#
# Stress axis : x y z
#
# Youngs Moduli (GPa) = 41.97735 39.21513 42.28811
#
# Poissons Ratio (x) = 0.54034 -0.41774
# Poissons Ratio (y) = 0.57840 0.49178
# Poissons Ratio (z) = -0.41467 0.45604
#
# Static dielectric constant tensor:
#      x y z
#    x 1.738370 0.000000 -0.025940 
#    y 0.000000 1.692300 0.000000 
#    z -0.025940 0.000000 1.755340 
# 
# From -- ./inp_files/274100.got.cif
#   From: 2010.05.17/outbox.cif.g08.bks.cpg/sg12_138_cif.got.tgz:274100.got - 2010.06.03 13:09:07.
