data_PCOD9211559
_publ_section_title
;
Structure prediction by ZEFSAII (Michael W. Deem and Ramdas Pophale) SiO2 
 PCOD9211559
Probable space group: C 2/M
;
_chemical_formula_sum "Si O2"
_cell_formula_units_Z 40
_cell_length_a 25.277171
_cell_length_b 8.126485
_cell_length_c 19.207676
_cell_angle_alpha 90.000000
_cell_angle_beta 27.473288
_cell_angle_gamma 90.000000
_cell_volume 1820.214025
_symmetry_space_group_name_H-M "C 2/M"
_symmetry_group_IT_number 12
_symmetry_cell_setting 'monoclinic'
loop_
_space_group_symop_operation_xyz
x,y,z
-x,y,-z
-x,-y,-z
x,-y,z
1/2+x,1/2+y,z
1/2-x,1/2+y,-z
1/2-x,1/2-y,-z
1/2+x,1/2-y,z
loop_
_atom_site_type_symbol
_atom_site_label
_atom_site_fract_x
_atom_site_fract_y
_atom_site_fract_z
Si Si1 0.494966 0.309794 0.207128
Si Si2 0.257532 0.187532 0.107842
Si Si3 0.096913 0.200409 0.831794
Si Si4 0.033857 0.307947 0.309576
Si Si5 0.325331 0.800390 0.646100
O O1 0.462960 0.500000 0.254923
O O2 0.430351 0.242709 0.214424
O O3 0.478515 0.216278 0.298602
O O4 0.630570 0.298344 0.031743
O O5 0.155349 0.218407 0.172964
O O6 0.201898 0.224197 0.247692
O O7 0.297210 0.000000 0.056307
O O8 0.220945 0.243852 0.716542
O O9 0.089978 0.000000 0.837946
O O10 0.000000 0.256038 0.000000
O O11 0.056209 0.500000 0.295836
O O12 0.944818 0.249262 0.472063
O O13 0.326862 0.000000 0.651510
#
# Coordination Sequence:
#
# PCOD9211559 Si02
#       5
#     8   8   8   8   8
#     4  11  22  39  64  89 119 157 198 241 293 352
#     4  12  24  39  61  88 120 156 201 248 293 346
#     4   9  17  35  64  90 114 150 197 240 288 354
#     4  11  24  40  59  87 124 158 196 243 295 351
#     4  10  21  40  64  89 118 158 198 238 293 354
#
# _framework density 21.975435999999998
#
# number of rings (size 3 to 8) (size 9 to 14) (size 15 to 20)
#    0.000    1.400    2.000    4.200    0.000    4.800 
#    0.000    3.000    0.000    0.000    0.000    0.000 
#    0.000    0.000    0.000    0.000    0.000    0.000 
#
# Total GULP energy -111885.468079 kJ/mol
# GULP energy per Si atom -5594.273404 kJ/mol
# Density = 2.192542 g / cm^3
# Si number density = 21.975436 Si / 1000 Ang^3
#
#
#
# Elastic Constant Matrix: (Units=GPa)
#
#
# Indices 1 2 3 4 5 6 
#
# 1 99.9781 -3.6352 -13.2694 0.0013 1.5498 -0.0001
# 2 -3.6352 27.1425 -5.3138 0.0015 -4.5308 -0.0005
# 3 -13.2694 -5.3138 45.0211 0.0003 5.8553 -0.0003
# 4 0.0013 0.0015 0.0003 11.9566 -0.0001 5.8692
# 5 1.5498 -4.5308 5.8553 -0.0001 36.6143 0.0001
# 6 -0.0001 -0.0005 -0.0003 5.8692 0.0001 27.8363
#
#
#
# Elastic Compliance Matrix: (Units=1/GPa)
#
#
# Indices 1 2 3 4 5 6 
#
# 1 0.010541 0.001959 0.003436 -0.000002 -0.000753 0.000000
# 2 0.001959 0.038672 0.004626 -0.000006 0.003963 0.000002
# 3 0.003436 0.004626 0.024219 -0.000002 -0.003446 0.000001
# 4 -0.000002 -0.000006 -0.000002 0.093291 0.000000 -0.019670
# 5 -0.000753 0.003963 -0.003446 0.000000 0.028385 0.000000
# 6 0.000000 0.000002 0.000001 -0.019670 0.000000 0.040072
#
#
# Mechanical properties :
#
#
# Convention : Reuss Voigt Hill
#
# Bulk Modulus (GPa) = 10.69814 14.18945 12.44380
# Shear Modulus (GPa) = 20.30079 28.23880 24.26979
#
# Velocity S-wave (km/s) = 3.04270 3.58860 3.32686
# Velocity P-wave (km/s) = 4.15004 4.86228 4.52021
#
# Compressibility (1/GPa) = 0.09347419
#
# Stress axis : x y z
#
# Youngs Moduli (GPa) = 94.86662 25.85839 41.29036
#
# Poissons Ratio (x) = -0.05065 -0.14187
# Poissons Ratio (y) = -0.18582 -0.19103
# Poissons Ratio (z) = -0.32596 -0.11963
#
# Static dielectric constant tensor:
#      x y z
#    x 1.804090 0.000000 0.012990 
#    y 0.000000 1.768070 0.000000 
#    z 0.012990 0.000000 1.768080 
# 
# From -- ./inp_files/151963.got.cif
#   From: 2010.05.17/outbox.cif.g08.bks.cpg/sg12_76_cif.got.tgz:151963.got - 2010.06.03 13:09:07.
