data_PCOD9211129
_publ_section_title
;
Structure prediction by ZEFSAII (Michael W. Deem and Ramdas Pophale) SiO2 
 PCOD9211129
Probable space group: C 2/M
;
_chemical_formula_sum "Si O2"
_cell_formula_units_Z 36
_cell_length_a 8.849893
_cell_length_b 27.838263
_cell_length_c 10.890055
_cell_angle_alpha 90.000000
_cell_angle_beta 40.700285
_cell_angle_gamma 90.000000
_cell_volume 1749.548053
_symmetry_space_group_name_H-M "C 2/M"
_symmetry_group_IT_number 12
_symmetry_cell_setting 'monoclinic'
loop_
_space_group_symop_operation_xyz
x,y,z
-x,y,-z
-x,-y,-z
x,-y,z
1/2+x,1/2+y,z
1/2-x,1/2+y,-z
1/2-x,1/2-y,-z
1/2+x,1/2-y,z
loop_
_atom_site_type_symbol
_atom_site_label
_atom_site_fract_x
_atom_site_fract_y
_atom_site_fract_z
Si Si1 0.261185 0.946611 0.491043
Si Si2 0.379581 0.789822 0.208224
Si Si3 0.000000 0.867953 0.500000
Si Si4 0.262475 0.806472 0.790089
Si Si5 0.243404 0.083590 0.778444
O O1 0.110126 0.903613 0.530904
O O2 0.531332 0.937332 0.291819
O O3 0.234291 0.942913 0.654248
O O4 0.194573 0.000000 0.491269
O O5 0.198776 0.833038 0.327351
O O6 0.564767 0.794749 0.203992
O O7 0.250210 0.738273 0.294984
O O8 0.500000 0.791875 0.000000
O O9 0.302950 0.860165 0.717898
O O10 0.000000 0.809139 0.000000
O O11 0.000000 0.079492 0.000000
#
# Coordination Sequence:
#
# PCOD9211129 Si02
#       5
#     8   8   4   8   8
#     4  11  25  44  64  92 127 162 212 271 314 364
#     4  11  24  41  63  94 133 168 206 254 308 374
#     4  12  27  40  64  94 126 172 213 250 318 376
#     4  10  21  39  66  96 127 165 204 254 310 372
#     4  10  22  42  70  95 122 163 210 256 316 379
#
# _framework density 20.576740999999998
#
# number of rings (size 3 to 8) (size 9 to 14) (size 15 to 20)
#    0.000    1.333    2.222    4.333    9.333    4.444 
#    0.000    0.000    0.000    4.000    0.000    0.000 
#    0.000    0.000    0.000    0.000    0.000    0.000 
#
# Total GULP energy -100541.655771 kJ/mol
# GULP energy per Si atom -5585.647543 kJ/mol
# Density = 2.052991 g / cm^3
# Si number density = 20.576741 Si / 1000 Ang^3
#
#
#
# Elastic Constant Matrix: (Units=GPa)
#
#
# Indices 1 2 3 4 5 6 
#
# 1 90.2943 27.7633 30.4183 0.0000 -26.2881 0.0000
# 2 27.7633 166.0884 26.5706 0.0000 -9.5674 0.0000
# 3 30.4183 26.5706 99.1515 0.0000 -19.1239 0.0000
# 4 0.0000 0.0000 0.0000 6.3914 0.0000 17.8490
# 5 -26.2881 -9.5674 -19.1239 0.0000 18.9815 0.0000
# 6 0.0000 0.0000 0.0000 17.8490 0.0000 26.9799
#
#
#
# Elastic Compliance Matrix: (Units=1/GPa)
#
#
# Indices 1 2 3 4 5 6 
#
# 1 0.019045 -0.001652 -0.000587 0.000000 0.024952 0.000000
# 2 -0.001652 0.006485 -0.001293 0.000000 -0.000322 0.000000
# 3 -0.000587 -0.001293 0.012821 0.000000 0.011452 0.000000
# 4 0.000000 0.000000 0.000000 -0.184610 0.000000 0.122132
# 5 0.024952 -0.000322 0.011452 0.000000 0.098615 0.000000
# 6 0.000000 0.000000 0.000000 0.122132 0.000000 -0.043734
#
#
# Mechanical properties :
#
#
# Convention : Reuss Voigt Hill
#
# Bulk Modulus (GPa) = 31.96336 58.33763 45.15050
# Shear Modulus (GPa) = -67.67499 28.52269 -19.57615
#
# Velocity S-wave (km/s) = -5.74112 3.72716 -3.08778
# Velocity P-wave (km/s) = 5.32727 6.85092 3.04592
#
# Compressibility (1/GPa) = 0.03128582
#
# Stress axis : x y z
#
# Youngs Moduli (GPa) = 52.50656 154.19229 77.99609
#
# Poissons Ratio (x) = 0.25477 0.04582
# Poissons Ratio (y) = 0.08676 0.10087
# Poissons Ratio (z) = 0.03085 0.19941
#
# Static dielectric constant tensor:
#      x y z
#    x 1.728290 0.000000 -0.011280 
#    y 0.000000 1.750400 0.000000 
#    z -0.011280 0.000000 1.738160 
# 
# From -- ./inp_files/123318.got.cif
#   From: 2010.05.17/outbox.cif.g08.bks.cpg/sg12_62_cif.got.tgz:123318.got - 2010.06.03 13:09:07.
