data_PCOD9211877
_publ_section_title
;
Structure prediction by ZEFSAII (Michael W. Deem and Ramdas Pophale) SiO2 
 PCOD9211877
Probable space group: C 2/M
;
_chemical_formula_sum "Si O2"
_cell_formula_units_Z 56
_cell_length_a 24.070226
_cell_length_b 15.301574
_cell_length_c 15.560400
_cell_angle_alpha 90.000000
_cell_angle_beta 24.203158
_cell_angle_gamma 90.000000
_cell_volume 2349.592855
_symmetry_space_group_name_H-M "C 2/M"
_symmetry_group_IT_number 12
_symmetry_cell_setting 'monoclinic'
loop_
_space_group_symop_operation_xyz
x,y,z
-x,y,-z
-x,-y,-z
x,-y,z
1/2+x,1/2+y,z
1/2-x,1/2+y,-z
1/2-x,1/2-y,-z
1/2+x,1/2-y,z
loop_
_atom_site_type_symbol
_atom_site_label
_atom_site_fract_x
_atom_site_fract_y
_atom_site_fract_z
Si Si1 0.412284 0.134246 0.542580
Si Si2 0.397163 0.101134 0.370711
Si Si3 0.632571 0.396631 0.023891
Si Si4 0.094307 0.398343 0.949272
Si Si5 0.089071 0.892579 0.791747
Si Si6 0.647875 0.599148 0.187705
Si Si7 0.861893 0.166291 0.615177
O O1 0.500000 0.102377 0.500000
O O2 0.445588 0.101315 0.400873
O O3 0.255982 0.112973 0.783813
O O4 0.423596 0.238344 0.521754
O O5 0.507499 0.139618 0.150744
O O6 0.244429 0.137653 0.578876
O O7 0.385387 0.000000 0.359000
O O8 0.612992 0.500000 0.067508
O O9 0.494577 0.364295 0.174811
O O10 0.678479 0.360054 0.051516
O O11 0.133107 0.500000 0.912176
O O12 0.232264 0.346793 0.739696
O O13 0.000000 0.396798 0.000000
O O14 0.089912 0.000000 0.791343
O O15 0.000000 0.865670 0.000000
O O16 0.699942 0.500000 0.120431
O O17 0.483410 0.600432 0.423566
O O18 0.688263 0.649552 0.216582
#
# Coordination Sequence:
#
# PCOD9211877 Si02
#       7
#     8   8   8   8   8   8   8
#     4  12  25  41  60  88 133 166 199 254 309 373
#     4  10  22  40  65  95 124 164 206 251 310 363
#     4  10  22  37  63  96 119 158 209 256 307 358
#     4  10  23  43  68  94 124 160 204 258 309 364
#     4   9  16  34  60  88 123 155 199 251 297 358
#     4  10  21  40  67  89 112 157 215 264 297 353
#     4  11  23  43  60  87 124 163 208 246 312 367
#
# _framework density 23.833917
#
# number of rings (size 3 to 8) (size 9 to 14) (size 15 to 20)
#    0.000    1.714    2.857    2.143    4.000    2.857 
#    2.571    0.714    0.000    0.000    0.000    0.000 
#    0.000    0.000    0.000    0.000    0.000    0.000 
#
# Total GULP energy -156543.484115 kJ/mol
# GULP energy per Si atom -5590.838718 kJ/mol
# Density = 2.377967 g / cm^3
# Si number density = 23.833917 Si / 1000 Ang^3
#
#
#
# Elastic Constant Matrix: (Units=GPa)
#
#
# Indices 1 2 3 4 5 6 
#
# 1 60.9463 -7.2193 8.2587 0.0000 -2.3861 0.0000
# 2 -7.2193 47.8963 -7.3216 0.0000 -1.2178 0.0000
# 3 8.2587 -7.3216 65.2339 0.0000 -8.9474 0.0000
# 4 0.0000 0.0000 0.0000 2.3639 0.0000 -24.2257
# 5 -2.3861 -1.2178 -8.9474 0.0000 50.7586 0.0000
# 6 0.0000 0.0000 0.0000 -24.2257 0.0000 -0.4067
#
#
#
# Elastic Compliance Matrix: (Units=1/GPa)
#
#
# Indices 1 2 3 4 5 6 
#
# 1 0.016946 0.002290 -0.001815 0.000000 0.000532 0.000000
# 2 0.002290 0.021597 0.002275 0.000000 0.001027 0.000000
# 3 -0.001815 0.002275 0.016202 0.000000 0.002825 0.000000
# 4 0.000000 0.000000 0.000000 0.000692 0.000000 -0.041211
# 5 0.000532 0.001027 0.002825 0.000000 0.020249 0.000000
# 6 0.000000 0.000000 0.000000 -0.041211 0.000000 -0.004021
#
#
# Mechanical properties :
#
#
# Convention : Reuss Voigt Hill
#
# Bulk Modulus (GPa) = 16.59889 17.94579 17.27234
# Shear Modulus (GPa) = 57.97299 22.56709 40.27004
#
# Velocity S-wave (km/s) = 4.93726 3.08043 4.11495
# Velocity P-wave (km/s) = 6.28344 4.49421 5.46258
#
# Compressibility (1/GPa) = 0.06024499
#
# Stress axis : x y z
#
# Youngs Moduli (GPa) = 59.01106 46.30167 61.72029
#
# Poissons Ratio (x) = -0.10604 0.11205
# Poissons Ratio (y) = -0.13515 -0.14041
# Poissons Ratio (z) = 0.10713 -0.10533
#
# Static dielectric constant tensor:
#      x y z
#    x 1.934760 0.000000 0.012230 
#    y 0.000000 1.929270 0.000000 
#    z 0.012230 0.000000 1.886390 
# 
# From -- ./inp_files/234665.got.cif
#   From: 2010.05.17/outbox.cif.g08.bks.cpg/sg12_118_cif.got.tgz:234665.got - 2010.06.03 13:09:07.
