data_PCOD9211761
_publ_section_title
;
Structure prediction by ZEFSAII (Michael W. Deem and Ramdas Pophale) SiO2 
 PCOD9211761
Probable space group: C 2/M
;
_chemical_formula_sum "Si O2"
_cell_formula_units_Z 56
_cell_length_a 12.877236
_cell_length_b 15.443078
_cell_length_c 20.481136
_cell_angle_alpha 90.000000
_cell_angle_beta 36.384482
_cell_angle_gamma 90.000000
_cell_volume 2416.085721
_symmetry_space_group_name_H-M "C 2/M"
_symmetry_group_IT_number 12
_symmetry_cell_setting 'monoclinic'
loop_
_space_group_symop_operation_xyz
x,y,z
-x,y,-z
-x,-y,-z
x,-y,z
1/2+x,1/2+y,z
1/2-x,1/2+y,-z
1/2-x,1/2-y,-z
1/2+x,1/2-y,z
loop_
_atom_site_type_symbol
_atom_site_label
_atom_site_fract_x
_atom_site_fract_y
_atom_site_fract_z
Si Si1 0.296686 0.401663 0.110275
Si Si2 0.206311 0.849287 0.536599
Si Si3 0.196666 0.597427 0.872915
Si Si4 0.337312 0.599654 0.659512
Si Si5 0.740698 0.723444 0.658831
Si Si6 0.423047 0.092158 0.648393
Si Si7 0.862735 0.755399 0.878409
O O1 0.289647 0.500000 0.087888
O O2 0.220294 0.403610 0.221942
O O3 0.166752 0.337247 0.139849
O O4 0.500000 0.372863 0.000000
O O5 0.250000 0.750000 0.500000
O O6 0.195331 0.838225 0.620609
O O7 0.377332 0.902449 0.429119
O O8 0.029399 0.882779 0.593397
O O9 0.267710 0.500000 0.849765
O O10 0.212322 0.609918 0.786870
O O11 0.295546 0.672355 0.861768
O O12 0.000000 0.599561 0.000000
O O13 0.324859 0.500000 0.642536
O O14 0.293566 0.674855 0.629039
O O15 0.894209 0.675353 0.618814
O O16 0.563562 0.725091 0.790353
O O17 0.397832 0.000000 0.626501
O O18 0.750000 0.750000 0.000000
#
# Coordination Sequence:
#
# PCOD9211761 Si02
#       7
#     8   8   8   8   8   8   8
#     4  10  22  43  67  94 131 170 214 275 331 393
#     4  12  24  45  69  93 139 176 223 280 334 395
#     4  10  21  40  65  94 132 176 225 277 330 397
#     4  11  24  45  71  98 135 184 228 276 341 405
#     4  12  25  42  67 101 136 174 224 286 329 396
#     4  11  24  42  69  98 127 173 225 272 336 400
#     4  12  23  37  63  98 135 176 218 270 337 401
#
# _framework density 23.177987000000002
#
# number of rings (size 3 to 8) (size 9 to 14) (size 15 to 20)
#    0.000    0.857    2.857    4.714    0.000    3.429 
#    0.000    2.143    0.000    0.000    0.000    0.000 
#    0.000    0.000    0.000    0.000    0.000    0.000 
#
# Total GULP energy -156494.075861 kJ/mol
# GULP energy per Si atom -5589.074138 kJ/mol
# Density = 2.312523 g / cm^3
# Si number density = 23.177987 Si / 1000 Ang^3
#
#
#
# Elastic Constant Matrix: (Units=GPa)
#
#
# Indices 1 2 3 4 5 6 
#
# 1 28.1843 14.2468 6.0371 0.0000 -4.4247 -0.0002
# 2 14.2468 120.5985 -3.8393 -0.0008 0.2520 -0.0002
# 3 6.0371 -3.8393 132.5778 -0.0018 -8.4340 -0.0010
# 4 0.0000 -0.0008 -0.0018 -3.4803 0.0001 -3.6590
# 5 -4.4247 0.2520 -8.4340 0.0001 31.7939 0.0005
# 6 -0.0002 -0.0002 -0.0010 -3.6590 0.0005 -8.6830
#
#
#
# Elastic Compliance Matrix: (Units=1/GPa)
#
#
# Indices 1 2 3 4 5 6 
#
# 1 0.038970 -0.004665 -0.001589 0.000005 0.005039 -0.000003
# 2 -0.004665 0.008858 0.000430 -0.000004 -0.000605 0.000001
# 3 -0.001589 0.000430 0.007744 -0.000006 0.001830 0.000002
# 4 0.000005 -0.000004 -0.000006 -0.515894 -0.000003 0.217398
# 5 0.005039 -0.000605 0.001830 -0.000003 0.032644 0.000003
# 6 -0.000003 0.000001 0.000002 0.217398 0.000003 -0.206780
#
#
# Mechanical properties :
#
#
# Convention : Reuss Voigt Hill
#
# Bulk Modulus (GPa) = 22.76595 34.91663 28.84129
# Shear Modulus (GPa) = -8.22140 21.58720 6.68290
#
# Velocity S-wave (km/s) = -1.88541 3.05514 1.69987
# Velocity P-wave (km/s) = 2.25917 5.24809 4.04019
#
# Compressibility (1/GPa) = 0.04392524
#
# Stress axis : x y z
#
# Youngs Moduli (GPa) = 25.66060 112.89198 129.13286
#
# Poissons Ratio (x) = 0.52662 0.20520
# Poissons Ratio (y) = 0.11970 -0.05558
# Poissons Ratio (z) = 0.04078 -0.04859
#
# Static dielectric constant tensor:
#      x y z
#    x 1.897490 0.000000 -0.032850 
#    y 0.000000 1.745780 0.000000 
#    z -0.032850 0.000000 1.777030 
# 
# From -- ./inp_files/340308.got.cif
#   From: 2010.05.17/outbox.cif.g08.bks.cpg/sg12_171_cif.got.tgz:340308.got - 2010.06.03 13:09:07.
