data_PCOD9211905
_publ_section_title
;
Structure prediction by ZEFSAII (Michael W. Deem and Ramdas Pophale) SiO2 
 PCOD9211905
Probable space group: C 2/M
;
_chemical_formula_sum "Si O2"
_cell_formula_units_Z 48
_cell_length_a 14.289515
_cell_length_b 14.380679
_cell_length_c 11.485225
_cell_angle_alpha 90.000000
_cell_angle_beta 76.625595
_cell_angle_gamma 90.000000
_cell_volume 2296.124087
_symmetry_space_group_name_H-M "C 2/M"
_symmetry_group_IT_number 12
_symmetry_cell_setting 'monoclinic'
loop_
_space_group_symop_operation_xyz
x,y,z
-x,y,-z
-x,-y,-z
x,-y,z
1/2+x,1/2+y,z
1/2-x,1/2+y,-z
1/2-x,1/2-y,-z
1/2+x,1/2-y,z
loop_
_atom_site_type_symbol
_atom_site_label
_atom_site_fract_x
_atom_site_fract_y
_atom_site_fract_z
Si Si1 0.894921 0.112935 0.487629
Si Si2 0.568229 0.108398 0.373405
Si Si3 0.188298 0.110518 0.248390
Si Si4 0.211180 0.891449 0.708161
Si Si5 0.848653 0.259319 0.106411
Si Si6 0.057586 0.749453 0.163722
O O1 0.822102 0.136881 0.612543
O O2 0.859997 0.145650 0.371938
O O3 0.000000 0.143276 0.500000
O O4 0.897121 0.000000 0.479773
O O5 0.500000 0.135660 0.500000
O O6 0.680884 0.114489 0.372883
O O7 0.556805 0.172202 0.264064
O O8 0.547298 0.000000 0.352053
O O9 0.284129 0.155540 0.169050
O O10 0.095874 0.155549 0.211133
O O11 0.186987 0.000000 0.238025
O O12 0.203652 0.832260 0.827770
O O13 0.190358 0.000000 0.737226
O O14 0.953195 0.252014 0.135885
O O15 0.867803 0.266398 0.963884
#
# Coordination Sequence:
#
# PCOD9211905 Si02
#       6
#     8   8   8   8   8   8
#     4   9  19  36  59  92 129 162 207 265 324 385
#     4  10  23  42  68  98 129 168 217 271 330 392
#     4  11  24  42  66  95 131 176 222 273 330 396
#     4  10  21  40  67  96 129 169 215 270 327 389
#     4  11  25  43  65  96 131 174 225 270 326 397
#     4  11  25  45  65  94 136 173 219 276 330 392
#
# _framework density 20.904793999999999
#
# number of rings (size 3 to 8) (size 9 to 14) (size 15 to 20)
#    0.000    1.667    1.667    1.500    2.333    6.667 
#    0.000    3.333    0.000    0.000    0.000    0.000 
#    0.000    0.000    0.000    0.000    0.000    0.000 
#
# Total GULP energy -134126.075555 kJ/mol
# GULP energy per Si atom -5588.586481 kJ/mol
# Density = 2.085721 g / cm^3
# Si number density = 20.904794 Si / 1000 Ang^3
#
#
#
# Elastic Constant Matrix: (Units=GPa)
#
#
# Indices 1 2 3 4 5 6 
#
# 1 75.1846 27.8204 43.9997 0.0000 -3.6973 0.0000
# 2 27.8204 109.1942 73.1341 0.0000 -1.7978 0.0000
# 3 43.9997 73.1341 180.2347 0.0000 -11.1656 0.0000
# 4 0.0000 0.0000 0.0000 2.7933 0.0000 -7.8504
# 5 -3.6973 -1.7978 -11.1656 0.0000 36.7474 0.0000
# 6 0.0000 0.0000 0.0000 -7.8504 0.0000 20.0527
#
#
#
# Elastic Compliance Matrix: (Units=1/GPa)
#
#
# Indices 1 2 3 4 5 6 
#
# 1 0.015836 -0.002005 -0.003017 0.000000 0.000579 0.000000
# 2 -0.002005 0.012862 -0.004794 0.000000 -0.001029 0.000000
# 3 -0.003017 -0.004794 0.008354 0.000000 0.002000 0.000000
# 4 0.000000 0.000000 0.000000 -3.571657 0.000000 -1.398256
# 5 0.000579 -0.001029 0.002000 0.000000 0.027828 0.000000
# 6 0.000000 0.000000 0.000000 -1.398256 0.000000 -0.497530
#
#
# Mechanical properties :
#
#
# Convention : Reuss Voigt Hill
#
# Bulk Modulus (GPa) = 57.39716 72.72467 65.06092
# Shear Modulus (GPa) = -1.25664 26.56264 12.65300
#
# Velocity S-wave (km/s) = -0.77616 3.56848 2.46289
# Velocity P-wave (km/s) = 5.16845 7.20019 6.26720
#
# Compressibility (1/GPa) = 0.01742247
#
# Stress axis : x y z
#
# Youngs Moduli (GPa) = 63.14599 77.74641 119.70666
#
# Poissons Ratio (x) = 0.15586 0.36112
# Poissons Ratio (y) = 0.12659 0.57381
# Poissons Ratio (z) = 0.19049 0.37268
#
# Static dielectric constant tensor:
#      x y z
#    x 1.861870 0.000000 -0.015460 
#    y 0.000000 1.735390 0.000000 
#    z -0.015460 0.000000 1.751850 
# 
# From -- ./inp_files/142754.got.cif
#   From: 2010.05.17/outbox.cif.g08.bks.cpg/sg12_72_cif.got.tgz:142754.got - 2010.06.03 13:09:07.
