data_PCOD9211794
_publ_section_title
;
Structure prediction by ZEFSAII (Michael W. Deem and Ramdas Pophale) SiO2 
 PCOD9211794
Probable space group: C 2/M
;
_chemical_formula_sum "Si O2"
_cell_formula_units_Z 52
_cell_length_a 16.457616
_cell_length_b 14.460719
_cell_length_c 11.786061
_cell_angle_alpha 90.000000
_cell_angle_beta 47.803961
_cell_angle_gamma 90.000000
_cell_volume 2078.051884
_symmetry_space_group_name_H-M "C 2/M"
_symmetry_group_IT_number 12
_symmetry_cell_setting 'monoclinic'
loop_
_space_group_symop_operation_xyz
x,y,z
-x,y,-z
-x,-y,-z
x,-y,z
1/2+x,1/2+y,z
1/2-x,1/2+y,-z
1/2-x,1/2-y,-z
1/2+x,1/2-y,z
loop_
_atom_site_type_symbol
_atom_site_label
_atom_site_fract_x
_atom_site_fract_y
_atom_site_fract_z
Si Si1 0.606609 0.700319 0.467224
Si Si2 0.961812 0.392819 0.258726
Si Si3 0.312191 0.845823 0.934188
Si Si4 0.641617 0.500000 0.015449
Si Si5 0.578244 0.601313 0.723027
Si Si6 0.170712 0.391223 0.818267
Si Si7 0.694433 0.103119 0.389427
O O1 0.500000 0.668471 0.500000
O O2 0.587206 0.679447 0.618980
O O3 0.712259 0.642456 0.333591
O O4 0.638159 0.804317 0.398490
O O5 0.997865 0.500000 0.213222
O O6 0.922979 0.350461 0.175890
O O7 0.853562 0.395695 0.437708
O O8 0.062752 0.343364 0.226094
O O9 0.332649 0.874322 0.045678
O O10 0.236004 0.919239 0.942625
O O11 0.250000 0.750000 0.000000
O O12 0.541714 0.580318 0.114413
O O13 0.605118 0.500000 0.641853
O O14 0.673992 0.613054 0.726460
O O15 0.161066 0.500000 0.809089
O O16 0.668553 0.000000 0.368099
#
# Coordination Sequence:
#
# PCOD9211794 Si02
#       7
#     8   8   8   4   8   8   8
#     4  12  24  34  63 100 132 162 206 264 322 381
#     4  10  21  40  66  89 126 168 212 257 310 377
#     4  12  25  40  63  93 129 169 207 257 319 375
#     4  10  22  40  60  94 128 160 203 260 317 368
#     4   9  20  38  63  90 128 159 198 256 323 376
#     4  11  23  41  64  95 128 160 209 262 325 370
#     4  10  22  42  62  92 125 175 213 254 315 380
#
# _framework density 25.023437999999999
#
# number of rings (size 3 to 8) (size 9 to 14) (size 15 to 20)
#    0.462    0.923    3.077    2.308    4.308    2.154 
#    0.000    0.000    1.692    0.000    0.000    2.154 
#    0.000    0.000    0.000    0.000    0.000    0.000 
#
# Total GULP energy -144881.702417 kJ/mol
# GULP energy per Si atom -5572.373170 kJ/mol
# Density = 2.496648 g / cm^3
# Si number density = 25.023438 Si / 1000 Ang^3
#
#
#
# Elastic Constant Matrix: (Units=GPa)
#
#
# Indices 1 2 3 4 5 6 
#
# 1 91.3991 28.2085 51.1168 0.0000 -26.7668 0.0000
# 2 28.2085 106.9232 6.8249 0.0000 -12.0408 0.0000
# 3 51.1168 6.8249 79.9363 0.0000 -29.0865 0.0000
# 4 0.0000 0.0000 0.0000 35.4393 0.0000 -13.2689
# 5 -26.7668 -12.0408 -29.0865 0.0000 52.6800 0.0000
# 6 0.0000 0.0000 0.0000 -13.2689 0.0000 31.9745
#
#
#
# Elastic Compliance Matrix: (Units=1/GPa)
#
#
# Indices 1 2 3 4 5 6 
#
# 1 0.019053 -0.004022 -0.010828 0.000000 0.002783 0.000000
# 2 -0.004022 0.010449 0.002259 0.000000 0.001592 0.000000
# 3 -0.010828 0.002259 0.021809 0.000000 0.007056 0.000000
# 4 0.000000 0.000000 0.000000 0.033408 0.000000 0.013864
# 5 0.002783 0.001592 0.007056 0.000000 0.024656 0.000000
# 6 0.000000 0.000000 0.000000 0.013864 0.000000 0.037028
#
#
# Mechanical properties :
#
#
# Convention : Reuss Voigt Hill
#
# Bulk Modulus (GPa) = 38.27157 50.06210 44.16683
# Shear Modulus (GPa) = 27.73254 36.82599 32.27927
#
# Velocity S-wave (km/s) = 3.33267 3.84038 3.59550
# Velocity P-wave (km/s) = 5.48966 6.30192 5.90977
#
# Compressibility (1/GPa) = 0.02612906
#
# Stress axis : x y z
#
# Youngs Moduli (GPa) = 52.48520 95.70600 45.85366
#
# Poissons Ratio (x) = 0.38493 0.49649
# Poissons Ratio (y) = 0.21110 -0.10359
# Poissons Ratio (z) = 0.56829 -0.21621
#
# Static dielectric constant tensor:
#      x y z
#    x 1.901880 0.000000 0.124880 
#    y 0.000000 1.983980 0.000000 
#    z 0.124880 0.000000 1.941200 
# 
# From -- ./inp_files/225622.got.cif
#   From: 2010.05.17/outbox.cif.g08.bks.cpg/sg12_113_cif.got.tgz:225622.got - 2010.06.03 13:09:07.
