data_PCOD9211683
_publ_section_title
;
Structure prediction by ZEFSAII (Michael W. Deem and Ramdas Pophale) SiO2 
 PCOD9211683
Probable space group: C 2/M
;
_chemical_formula_sum "Si O2"
_cell_formula_units_Z 56
_cell_length_a 26.849050
_cell_length_b 17.758117
_cell_length_c 9.412799
_cell_angle_alpha 90.000000
_cell_angle_beta 138.658795
_cell_angle_gamma 90.000000
_cell_volume 2964.455347
_symmetry_space_group_name_H-M "C 2/M"
_symmetry_group_IT_number 12
_symmetry_cell_setting 'monoclinic'
loop_
_space_group_symop_operation_xyz
x,y,z
-x,y,-z
-x,-y,-z
x,-y,z
1/2+x,1/2+y,z
1/2-x,1/2+y,-z
1/2-x,1/2-y,-z
1/2+x,1/2-y,z
loop_
_atom_site_type_symbol
_atom_site_label
_atom_site_fract_x
_atom_site_fract_y
_atom_site_fract_z
Si Si1 0.434608 0.174357 0.965050
Si Si2 0.758813 0.660683 0.998837
Si Si3 0.920833 0.591567 0.241861
Si Si4 0.683612 0.417204 0.103480
Si Si5 0.077208 0.850936 0.100945
Si Si6 0.814598 0.086705 0.426432
Si Si7 0.809677 0.420935 0.614849
O O1 0.436559 0.264462 0.973756
O O2 0.359527 0.151908 0.720388
O O3 0.500000 0.147584 0.000000
O O4 0.432538 0.132145 0.112807
O O5 0.704230 0.630080 0.757243
O O6 0.750000 0.750000 0.000000
O O7 0.844750 0.629528 0.150178
O O8 0.722664 0.629003 0.064639
O O9 0.909480 0.500000 0.205314
O O10 0.000000 0.602275 0.500000
O O11 0.667811 0.500000 0.012864
O O12 0.610736 0.388494 0.031626
O O13 0.746858 0.420825 0.360975
O O14 0.135106 0.865843 0.354891
O O15 0.000000 0.882466 0.000000
O O16 0.734054 0.079305 0.330930
O O17 0.842838 0.000000 0.469137
O O18 0.853743 0.500000 0.697108
#
# Coordination Sequence:
#
# PCOD9211683 Si02
#       7
#     8   8   8   8   8   8   8
#     4  11  23  37  59  92 128 162 208 263 313 374
#     4  12  25  40  65  94 130 172 211 264 323 387
#     4  11  25  44  65  92 135 183 218 259 321 392
#     4  10  22  38  61  91 120 159 210 261 308 375
#     4  10  23  41  64  92 124 163 209 268 330 378
#     4  10  21  40  65  89 120 165 209 258 316 383
#     4   9  19  35  58  84 118 158 201 253 302 364
#
# _framework density 18.890485999999999
#
# number of rings (size 3 to 8) (size 9 to 14) (size 15 to 20)
#    0.000    1.571    1.429    3.857    4.000    4.571 
#    0.000    0.714    0.000    1.714    0.000    0.000 
#    0.000    0.000    0.000    0.000    0.000    0.000 
#
# Total GULP energy -155896.913647 kJ/mol
# GULP energy per Si atom -5567.746916 kJ/mol
# Density = 1.884749 g / cm^3
# Si number density = 18.890486 Si / 1000 Ang^3
#
#
#
# Elastic Constant Matrix: (Units=GPa)
#
#
# Indices 1 2 3 4 5 6 
#
# 1 153.3005 74.1638 39.4483 0.0000 -3.3561 0.0000
# 2 74.1638 112.0431 35.2993 0.0000 -12.3105 0.0000
# 3 39.4483 35.2993 55.1284 0.0000 -1.5229 0.0000
# 4 0.0000 0.0000 0.0000 32.9496 0.0000 -27.2223
# 5 -3.3561 -12.3105 -1.5229 0.0000 33.0758 0.0000
# 6 0.0000 0.0000 0.0000 -27.2223 0.0000 100.8752
#
#
#
# Elastic Compliance Matrix: (Units=1/GPa)
#
#
# Indices 1 2 3 4 5 6 
#
# 1 0.010220 -0.005750 -0.003667 0.000000 -0.001272 0.000000
# 2 -0.005750 0.014923 -0.005311 0.000000 0.004726 0.000000
# 3 -0.003667 -0.005311 0.024130 0.000000 -0.001238 0.000000
# 4 0.000000 0.000000 0.000000 0.039057 0.000000 0.010540
# 5 -0.001272 0.004726 -0.001238 0.000000 0.031807 0.000000
# 6 0.000000 0.000000 0.000000 0.010540 0.000000 0.012758
#
#
# Mechanical properties :
#
#
# Convention : Reuss Voigt Hill
#
# Bulk Modulus (GPa) = 50.45710 68.69941 59.57825
# Shear Modulus (GPa) = 29.59342 44.81751 37.20547
#
# Velocity S-wave (km/s) = 3.96230 4.87611 4.44276
# Velocity P-wave (km/s) = 6.90662 8.25518 7.61083
#
# Compressibility (1/GPa) = 0.01981882
#
# Stress axis : x y z
#
# Youngs Moduli (GPa) = 97.84303 67.00899 41.44235
#
# Poissons Ratio (x) = 0.38527 0.15197
# Poissons Ratio (y) = 0.56255 0.22009
# Poissons Ratio (z) = 0.35880 0.35587
#
# Static dielectric constant tensor:
#      x y z
#    x 1.713840 0.000000 0.021620 
#    y 0.000000 1.668410 0.000000 
#    z 0.021620 0.000000 1.677470 
# 
# From -- ./inp_files/98186.got.cif
#   From: 2010.05.17/outbox.cif.g08.bks.cpg/sg12_50_cif.got.tgz:98186.got - 2010.06.03 13:09:07.
