data_PCOD9211787
_publ_section_title
;
Structure prediction by ZEFSAII (Michael W. Deem and Ramdas Pophale) SiO2 
 PCOD9211787
Probable space group: C 2/M
;
_chemical_formula_sum "Si O2"
_cell_formula_units_Z 60
_cell_length_a 19.175248
_cell_length_b 7.717303
_cell_length_c 17.341987
_cell_angle_alpha 90.000000
_cell_angle_beta 98.437269
_cell_angle_gamma 90.000000
_cell_volume 2538.513353
_symmetry_space_group_name_H-M "C 2/M"
_symmetry_group_IT_number 12
_symmetry_cell_setting 'monoclinic'
loop_
_space_group_symop_operation_xyz
x,y,z
-x,y,-z
-x,-y,-z
x,-y,z
1/2+x,1/2+y,z
1/2-x,1/2+y,-z
1/2-x,1/2-y,-z
1/2+x,1/2-y,z
loop_
_atom_site_type_symbol
_atom_site_label
_atom_site_fract_x
_atom_site_fract_y
_atom_site_fract_z
Si Si1 0.190256 0.302242 0.620080
Si Si2 0.648278 0.295057 0.339383
Si Si3 0.371506 0.500000 0.281766
Si Si4 0.447996 0.806043 0.926060
Si Si5 0.704316 0.207084 0.917858
Si Si6 0.444200 0.683796 0.157358
Si Si7 0.424853 0.711763 0.523858
Si Si8 0.315417 0.299176 0.820886
O O1 0.182867 0.500000 0.648866
O O2 0.272901 0.281329 0.613003
O O3 0.168395 0.153597 0.676045
O O4 0.137984 0.278446 0.539905
O O5 0.631135 0.500000 0.327108
O O6 0.591430 0.228996 0.391504
O O7 0.656993 0.221063 0.254615
O O8 0.416875 0.649461 0.238849
O O9 0.495668 0.814037 0.856678
O O10 0.376948 0.709617 0.893759
O O11 0.427467 0.000000 0.947684
O O12 0.500000 0.735766 0.000000
O O13 0.626375 0.281969 0.902903
O O14 0.746595 0.279722 0.850103
O O15 0.699149 0.000000 0.911002
O O16 0.750000 0.250000 0.000000
O O17 0.477215 0.500000 0.138818
O O18 0.500000 0.763052 0.500000
O O19 0.422962 0.500000 0.522170
O O20 0.298723 0.500000 0.802420
#
# Coordination Sequence:
#
# PCOD9211787 Si02
#       8
#     8   8   4   8   8   8   8   8
#     4  11  22  42  71  98 134 176 225 276 331 405
#     4   9  20  40  65  95 133 175 220 277 338 398
#     4  10  24  42  64 100 127 172 221 272 347 394
#     4  11  24  42  63  91 129 174 223 279 340 407
#     4  11  22  38  63  93 129 170 218 278 339 405
#     4  10  23  40  61  90 123 167 218 272 333 406
#     4  10  21  40  66 101 139 181 221 275 338 404
#     4  10  22  40  62  92 129 173 221 271 338 404
#
# _framework density 23.635881999999999
#
# number of rings (size 3 to 8) (size 9 to 14) (size 15 to 20)
#    0.400    1.333    0.667    3.200    0.000    7.733 
#    4.800    0.000    0.000    0.000    0.000    0.000 
#    0.000    0.000    0.000    0.000    0.000    0.000 
#
# Total GULP energy -167006.628231 kJ/mol
# GULP energy per Si atom -5566.887608 kJ/mol
# Density = 2.358209 g / cm^3
# Si number density = 23.635882 Si / 1000 Ang^3
#
#
#
# Elastic Constant Matrix: (Units=GPa)
#
#
# Indices 1 2 3 4 5 6 
#
# 1 71.3066 -2.4189 29.3357 0.0000 -10.7164 0.0000
# 2 -2.4189 79.4771 13.1070 0.0000 -13.9846 0.0000
# 3 29.3357 13.1070 96.4478 0.0000 -23.2126 0.0000
# 4 0.0000 0.0000 0.0000 20.4497 0.0000 -5.3625
# 5 -10.7164 -13.9846 -23.2126 0.0000 43.7208 0.0000
# 6 0.0000 0.0000 0.0000 -5.3625 0.0000 8.1530
#
#
#
# Elastic Compliance Matrix: (Units=1/GPa)
#
#
# Indices 1 2 3 4 5 6 
#
# 1 0.016316 0.001628 -0.004696 0.000000 0.002026 0.000000
# 2 0.001628 0.013564 -0.001374 0.000000 0.004008 0.000000
# 3 -0.004696 -0.001374 0.013300 0.000000 0.005471 0.000000
# 4 0.000000 0.000000 0.000000 0.059093 0.000000 0.038867
# 5 0.002026 0.004008 0.005471 0.000000 0.027556 0.000000
# 6 0.000000 0.000000 0.000000 0.038867 0.000000 0.148219
#
#
# Mechanical properties :
#
#
# Convention : Reuss Voigt Hill
#
# Bulk Modulus (GPa) = 29.15872 36.36434 32.76153
# Shear Modulus (GPa) = 16.75812 28.27854 22.51833
#
# Velocity S-wave (km/s) = 2.66562 3.46269 3.08996
# Velocity P-wave (km/s) = 4.67305 5.60407 5.15960
#
# Compressibility (1/GPa) = 0.03429505
#
# Stress axis : x y z
#
# Youngs Moduli (GPa) = 61.29070 73.72687 75.18769
#
# Poissons Ratio (x) = -0.12000 0.35309
# Poissons Ratio (y) = -0.09976 0.10328
# Poissons Ratio (z) = 0.28782 0.10128
#
# Static dielectric constant tensor:
#      x y z
#    x 1.854040 0.000000 -0.004920 
#    y 0.000000 1.887470 0.000000 
#    z -0.004920 0.000000 1.961660 
# 
# From -- ./inp_files/281178.got.cif
#   From: 2010.05.17/outbox.cif.g08.bks.cpg/sg12_141_cif.got.tgz:281178.got - 2010.06.03 13:09:07.
