data_PCOD9211973
_publ_section_title
;
Structure prediction by ZEFSAII (Michael W. Deem and Ramdas Pophale) SiO2 
 PCOD9211973
Probable space group: C 2/M
;
_chemical_formula_sum "Si O2"
_cell_formula_units_Z 48
_cell_length_a 7.552761
_cell_length_b 21.423898
_cell_length_c 16.399719
_cell_angle_alpha 90.000000
_cell_angle_beta 133.114256
_cell_angle_gamma 90.000000
_cell_volume 1937.130538
_symmetry_space_group_name_H-M "C 2/M"
_symmetry_group_IT_number 12
_symmetry_cell_setting 'monoclinic'
loop_
_space_group_symop_operation_xyz
x,y,z
-x,y,-z
-x,-y,-z
x,-y,z
1/2+x,1/2+y,z
1/2-x,1/2+y,-z
1/2-x,1/2-y,-z
1/2+x,1/2-y,z
loop_
_atom_site_type_symbol
_atom_site_label
_atom_site_fract_x
_atom_site_fract_y
_atom_site_fract_z
Si Si1 0.258942 0.818300 0.041142
Si Si2 0.130675 0.068805 0.896909
Si Si3 0.959916 0.304839 0.706436
Si Si4 0.435929 0.301756 0.593300
Si Si5 0.580822 0.569272 0.685928
Si Si6 0.063205 0.431817 0.721547
O O1 0.446920 0.817926 0.173919
O O2 0.250000 0.750000 0.000000
O O3 0.000000 0.827328 0.000000
O O4 0.275825 0.875144 0.983697
O O5 0.846795 0.068811 0.837188
O O6 0.125814 0.075048 0.797081
O O7 0.228400 0.000000 0.949257
O O8 0.673564 0.306157 0.614327
O O9 0.033568 0.235816 0.703750
O O10 0.044876 0.362545 0.676499
O O11 0.250000 0.250000 0.500000
O O12 0.400158 0.374428 0.603155
O O13 0.477905 0.500000 0.638325
O O14 0.838144 0.570188 0.716176
O O15 0.035010 0.500000 0.671062
#
# Coordination Sequence:
#
# PCOD9211973 Si02
#       6
#     8   8   8   8   8   8
#     4  12  24  39  60  96 138 179 222 271 334 410
#     4  10  21  40  68  99 139 187 228 271 336 411
#     4  11  23  40  63  92 131 174 219 280 341 398
#     4  11  24  43  68  95 129 173 229 292 352 406
#     4   9  20  41  70 100 136 178 227 287 342 404
#     4   9  19  38  63  95 133 175 223 270 327 402
#
# _framework density 24.778918000000001
#
# number of rings (size 3 to 8) (size 9 to 14) (size 15 to 20)
#    0.000    1.667    1.667    2.500    2.333    2.333 
#    0.000    0.833    0.000   15.500    0.000    0.000 
#    0.000    0.000    0.000    0.000    0.000    0.000 
#
# Total GULP energy -133786.304416 kJ/mol
# GULP energy per Si atom -5574.429351 kJ/mol
# Density = 2.472252 g / cm^3
# Si number density = 24.778918 Si / 1000 Ang^3
#
#
#
# Elastic Constant Matrix: (Units=GPa)
#
#
# Indices 1 2 3 4 5 6 
#
# 1 66.2629 24.5095 21.5769 0.0000 13.3963 0.0000
# 2 24.5095 243.7912 48.6584 0.0000 4.8443 0.0000
# 3 21.5769 48.6584 105.9370 0.0000 16.3518 0.0000
# 4 0.0000 0.0000 0.0000 45.0607 0.0000 -0.6464
# 5 13.3963 4.8443 16.3518 0.0000 23.9542 0.0000
# 6 0.0000 0.0000 0.0000 -0.6464 0.0000 32.8582
#
#
#
# Elastic Compliance Matrix: (Units=1/GPa)
#
#
# Indices 1 2 3 4 5 6 
#
# 1 0.017856 -0.001280 -0.001730 0.000000 -0.008546 0.000000
# 2 -0.001280 0.004614 -0.002040 0.000000 0.001175 0.000000
# 3 -0.001730 -0.002040 0.011754 0.000000 -0.006644 0.000000
# 4 0.000000 0.000000 0.000000 0.022199 0.000000 0.000437
# 5 -0.008546 0.001175 -0.006644 0.000000 0.050823 0.000000
# 6 0.000000 0.000000 0.000000 0.000437 0.000000 0.030442
#
#
# Mechanical properties :
#
#
# Convention : Reuss Voigt Hill
#
# Bulk Modulus (GPa) = 41.45107 67.27561 54.36334
# Shear Modulus (GPa) = 32.08612 41.79105 36.93859
#
# Velocity S-wave (km/s) = 3.60237 4.11123 3.86518
# Velocity P-wave (km/s) = 5.83673 7.05305 6.47352
#
# Compressibility (1/GPa) = 0.02412483
#
# Stress axis : x y z
#
# Youngs Moduli (GPa) = 56.00390 216.71262 85.07391
#
# Poissons Ratio (x) = 0.27741 0.14716
# Poissons Ratio (y) = 0.07169 0.17356
# Poissons Ratio (z) = 0.09687 0.44213
#
# Static dielectric constant tensor:
#      x y z
#    x 2.188300 0.000000 -0.302510 
#    y 0.000000 2.160940 0.000000 
#    z -0.302510 0.000000 2.468030 
# 
# From -- ./inp_files/301833.got.cif
#   From: 2010.05.17/outbox.cif.g08.bks.cpg/sg12_151_cif.got.tgz:301833.got - 2010.06.03 13:09:07.
