data_PCOD9211845
_publ_section_title
;
Structure prediction by ZEFSAII (Michael W. Deem and Ramdas Pophale) SiO2 
 PCOD9211845
Probable space group: C 2/M
;
_chemical_formula_sum "Si O2"
_cell_formula_units_Z 24
_cell_length_a 7.777223
_cell_length_b 27.788011
_cell_length_c 8.289164
_cell_angle_alpha 90.000000
_cell_angle_beta 34.976552
_cell_angle_gamma 90.000000
_cell_volume 1026.904621
_symmetry_space_group_name_H-M "C 2/M"
_symmetry_group_IT_number 12
_symmetry_cell_setting 'monoclinic'
loop_
_space_group_symop_operation_xyz
x,y,z
-x,y,-z
-x,-y,-z
x,-y,z
1/2+x,1/2+y,z
1/2-x,1/2+y,-z
1/2-x,1/2-y,-z
1/2+x,1/2-y,z
loop_
_atom_site_type_symbol
_atom_site_label
_atom_site_fract_x
_atom_site_fract_y
_atom_site_fract_z
Si Si1 0.155260 0.638539 0.720664
Si Si2 0.168871 0.717289 0.216904
Si Si3 0.676158 0.054835 0.196979
O O1 0.500000 0.632285 0.500000
O O2 0.066826 0.675924 0.649824
O O3 0.998404 0.588618 0.791825
O O4 0.000000 0.658450 0.000000
O O5 0.000000 0.742220 0.500000
O O6 0.500000 0.696830 0.000000
O O7 0.250000 0.750000 0.000000
O O8 0.500000 0.053020 0.500000
O O9 0.713080 0.000000 0.106980
O O10 0.000000 0.074307 0.000000
#
# Coordination Sequence:
#
# PCOD9211845 Si02
#       3
#     8   8   8
#     4  12  25  42  65  97 134 171 216 268 328 390
#     4  12  26  46  70  96 130 172 222 275 334 395
#     4  10  21  40  66  95 129 172 218 263 320 387
#
# _framework density 23.371207999999999
#
# number of rings (size 3 to 8) (size 9 to 14) (size 15 to 20)
#    0.000    0.667    0.000    8.000    0.000    4.000 
#    0.000    0.000    0.000    0.000    0.000    0.000 
#    0.000    0.000    0.000    0.000    0.000    0.000 
#
# Total GULP energy -67158.999072 kJ/mol
# GULP energy per Si atom -5596.583256 kJ/mol
# Density = 2.331801 g / cm^3
# Si number density = 23.371208 Si / 1000 Ang^3
#
#
#
# Elastic Constant Matrix: (Units=GPa)
#
#
# Indices 1 2 3 4 5 6 
#
# 1 157.8244 66.2638 57.7824 0.0000 -52.5497 0.0000
# 2 66.2638 98.3112 8.5856 0.0000 -18.4860 0.0000
# 3 57.7824 8.5856 150.0788 0.0000 -22.3003 0.0000
# 4 0.0000 0.0000 0.0000 33.5398 0.0000 -7.9710
# 5 -52.5497 -18.4860 -22.3003 0.0000 69.9292 0.0000
# 6 0.0000 0.0000 0.0000 -7.9710 0.0000 106.1284
#
#
#
# Elastic Compliance Matrix: (Units=1/GPa)
#
#
# Indices 1 2 3 4 5 6 
#
# 1 0.012813 -0.007081 -0.003543 0.000000 0.006627 0.000000
# 2 -0.007081 0.014622 0.001757 0.000000 -0.000895 0.000000
# 3 -0.003543 0.001757 0.007978 0.000000 0.000346 0.000000
# 4 0.000000 0.000000 0.000000 0.030357 0.000000 0.002280
# 5 0.006627 -0.000895 0.000346 0.000000 0.019154 0.000000
# 6 0.000000 0.000000 0.000000 0.002280 0.000000 0.009594
#
#
# Mechanical properties :
#
#
# Convention : Reuss Voigt Hill
#
# Bulk Modulus (GPa) = 56.56463 74.60865 65.58664
# Shear Modulus (GPa) = 42.32064 60.15831 51.23948
#
# Velocity S-wave (km/s) = 4.25997 5.07900 4.68741
# Velocity P-wave (km/s) = 6.96072 8.14786 7.57758
#
# Compressibility (1/GPa) = 0.01767889
#
# Stress axis : x y z
#
# Youngs Moduli (GPa) = 78.04763 68.38776 125.33978
#
# Poissons Ratio (x) = 0.48422 0.44412
# Poissons Ratio (y) = 0.55262 -0.22017
# Poissons Ratio (z) = 0.27655 -0.12013
#
# Static dielectric constant tensor:
#      x y z
#    x 1.894950 0.000000 0.046890 
#    y 0.000000 1.903480 0.000000 
#    z 0.046890 0.000000 1.832850 
# 
# From -- ./inp_files/2992.got.cif
#   From: 2010.05.17/outbox.cif.g08.bks.cpg/sg12_2_cif.got.tgz:2992.got - 2010.06.03 13:09:07.
