data_PCOD9211804
_publ_section_title
;
Structure prediction by ZEFSAII (Michael W. Deem and Ramdas Pophale) SiO2 
 PCOD9211804
Probable space group: C 2/M
;
_chemical_formula_sum "Si O2"
_cell_formula_units_Z 50
_cell_length_a 11.166562
_cell_length_b 14.015173
_cell_length_c 15.330030
_cell_angle_alpha 90.000000
_cell_angle_beta 70.350267
_cell_angle_gamma 90.000000
_cell_volume 2259.456174
_symmetry_space_group_name_H-M "C 2/M"
_symmetry_group_IT_number 12
_symmetry_cell_setting 'monoclinic'
loop_
_space_group_symop_operation_xyz
x,y,z
-x,y,-z
-x,-y,-z
x,-y,z
1/2+x,1/2+y,z
1/2-x,1/2+y,-z
1/2-x,1/2-y,-z
1/2+x,1/2-y,z
loop_
_atom_site_type_symbol
_atom_site_label
_atom_site_fract_x
_atom_site_fract_y
_atom_site_fract_z
Si Si1 0.329394 0.217619 0.211234
Si Si2 0.436641 0.711047 0.922398
Si Si3 0.880017 0.349078 0.384466
Si Si4 0.188829 0.390534 0.964451
Si Si5 0.665627 0.369791 0.568493
Si Si6 0.325059 0.105485 0.706677
Si Si7 0.000000 0.000000 0.500000
O O1 0.458904 0.279273 0.177469
O O2 0.329307 0.154670 0.297744
O O3 0.342740 0.150589 0.123607
O O4 0.218309 0.297288 0.233081
O O5 0.338563 0.627063 0.931625
O O6 0.500000 0.691996 0.000000
O O7 0.368742 0.814402 0.952830
O O8 0.774407 0.396324 0.471168
O O9 0.871874 0.240396 0.418502
O O10 0.024919 0.385086 0.353005
O O11 0.151865 0.500000 0.986321
O O12 0.733709 0.392575 0.643803
O O13 0.540960 0.419887 0.563089
O O14 0.307867 0.000000 0.753341
#
# Coordination Sequence:
#
# PCOD9211804 Si02
#       7
#     8   8   8   8   8   8   2
#     4  10  22  40  59  92 127 160 201 258 321 369
#     4   9  20  40  62  88 126 161 204 254 307 374
#     4  10  23  41  64  88 126 166 209 263 321 372
#     4  10  21  40  66  92 122 163 207 255 308 373
#     4  10  24  41  62  89 123 167 210 265 318 375
#     4  11  23  42  63  88 125 168 214 260 316 376
#     4  12  24  40  62  92 122 156 224 262 316 388
#
# _framework density 22.129218000000002
#
# number of rings (size 3 to 8) (size 9 to 14) (size 15 to 20)
#    0.000    1.920    0.800    1.440    7.840    5.120 
#    0.000   11.200    0.000    0.000    0.000    0.000 
#    0.000    0.000    0.000    0.000    0.000    0.000 
#
# Total GULP energy -139184.913170 kJ/mol
# GULP energy per Si atom -5567.396527 kJ/mol
# Density = 2.207885 g / cm^3
# Si number density = 22.129218 Si / 1000 Ang^3
#
#
#
# Elastic Constant Matrix: (Units=GPa)
#
#
# Indices 1 2 3 4 5 6 
#
# 1 65.8081 12.3100 -4.8413 0.0000 1.5738 0.0000
# 2 12.3100 113.2403 0.7789 0.0000 4.6160 0.0000
# 3 -4.8413 0.7789 58.3073 0.0000 -3.1055 0.0000
# 4 0.0000 0.0000 0.0000 7.3976 0.0000 7.5256
# 5 1.5738 4.6160 -3.1055 0.0000 34.9533 0.0000
# 6 0.0000 0.0000 0.0000 7.5256 0.0000 35.3853
#
#
#
# Elastic Compliance Matrix: (Units=1/GPa)
#
#
# Indices 1 2 3 4 5 6 
#
# 1 0.015616 -0.001692 0.001300 0.000000 -0.000364 0.000000
# 2 -0.001692 0.009064 -0.000323 0.000000 -0.001149 0.000000
# 3 0.001300 -0.000323 0.017344 0.000000 0.001525 0.000000
# 4 0.000000 0.000000 0.000000 0.172500 0.000000 -0.036687
# 5 -0.000364 -0.001149 0.001525 0.000000 0.028913 0.000000
# 6 0.000000 0.000000 0.000000 -0.036687 0.000000 0.036063
#
#
# Mechanical properties :
#
#
# Convention : Reuss Voigt Hill
#
# Bulk Modulus (GPa) = 24.63359 28.20564 26.41961
# Shear Modulus (GPa) = 16.98017 30.82112 23.90064
#
# Velocity S-wave (km/s) = 2.77306 3.73604 3.28998
# Velocity P-wave (km/s) = 4.62699 5.60217 5.13776
#
# Compressibility (1/GPa) = 0.04059498
#
# Stress axis : x y z
#
# Youngs Moduli (GPa) = 64.03493 110.32955 57.65688
#
# Poissons Ratio (x) = 0.18665 -0.07495
# Poissons Ratio (y) = 0.10833 0.01861
# Poissons Ratio (z) = -0.08324 0.03561
#
# Static dielectric constant tensor:
#      x y z
#    x 1.879020 0.000000 -0.015230 
#    y 0.000000 1.823040 0.000000 
#    z -0.015230 0.000000 1.850450 
# 
# From -- ./inp_files/204935.got.cif
#   From: 2010.05.17/outbox.cif.g08.bks.cpg/sg12_103_cif.got.tgz:204935.got - 2010.06.03 13:09:07.
