data_PCOD9211095
_publ_section_title
;
Structure prediction by ZEFSAII (Michael W. Deem and Ramdas Pophale) SiO2 
 PCOD9211095
Probable space group: C 2/M
;
_chemical_formula_sum "Si O2"
_cell_formula_units_Z 44
_cell_length_a 25.139281
_cell_length_b 16.091551
_cell_length_c 6.127926
_cell_angle_alpha 90.000000
_cell_angle_beta 57.998745
_cell_angle_gamma 90.000000
_cell_volume 2102.223128
_symmetry_space_group_name_H-M "C 2/M"
_symmetry_group_IT_number 12
_symmetry_cell_setting 'monoclinic'
loop_
_space_group_symop_operation_xyz
x,y,z
-x,y,-z
-x,-y,-z
x,-y,z
1/2+x,1/2+y,z
1/2-x,1/2+y,-z
1/2-x,1/2-y,-z
1/2+x,1/2-y,z
loop_
_atom_site_type_symbol
_atom_site_label
_atom_site_fract_x
_atom_site_fract_y
_atom_site_fract_z
Si Si1 0.363084 0.358281 0.963746
Si Si2 0.616500 0.906277 0.143909
Si Si3 0.035945 0.000000 0.169774
Si Si4 0.939140 0.752595 0.507117
Si Si5 0.229405 0.337681 0.152253
Si Si6 0.126040 0.703625 0.739038
O O1 0.291665 0.386622 0.089427
O O2 0.358725 0.277716 0.128700
O O3 0.416036 0.421790 0.928799
O O4 0.386758 0.320211 0.682770
O O5 0.576261 0.836981 0.355731
O O6 0.687114 0.889173 0.074997
O O7 0.597723 0.000000 0.226395
O O8 0.612496 0.879478 0.901924
O O9 0.000000 0.000000 0.500000
O O10 0.000000 0.000000 0.000000
O O11 0.933836 0.735896 0.265340
O O12 0.000000 0.782802 0.500000
O O13 0.183475 0.314905 0.452316
O O14 0.250000 0.250000 0.000000
#
# Coordination Sequence:
#
# PCOD9211095 Si02
#       6
#     8   8   4   8   8   8
#     4  11  24  41  67  95 131 178 223 282 343 407
#     4  10  23  39  59  94 135 164 207 276 333 410
#     4  12  32  52  68 104 150 192 245 300 345 420
#     4  10  22  40  67  89 121 172 222 266 333 403
#     4  11  20  40  64  97 126 167 222 275 344 413
#     4  10  21  39  66  93 127 169 220 277 338 414
#
# _framework density 20.930226000000001
#
# number of rings (size 3 to 8) (size 9 to 14) (size 15 to 20)
#    0.000    1.455    5.455    1.091    6.364    5.455 
#    0.000    0.909    0.000    0.000    0.000    0.000 
#    0.000    0.000    0.000    0.000    0.000    0.000 
#
# Total GULP energy -122576.688500 kJ/mol
# GULP energy per Si atom -5571.667659 kJ/mol
# Density = 2.088259 g / cm^3
# Si number density = 20.930226 Si / 1000 Ang^3
#
#
#
# Elastic Constant Matrix: (Units=GPa)
#
#
# Indices 1 2 3 4 5 6 
#
# 1 121.6165 -5.8132 18.3555 0.0000 3.1712 0.0000
# 2 -5.8132 72.1451 -0.6792 0.0000 -1.6478 0.0000
# 3 18.3555 -0.6792 49.1538 0.0000 7.9734 0.0000
# 4 0.0000 0.0000 0.0000 9.9224 0.0000 -3.6703
# 5 3.1712 -1.6478 7.9734 0.0000 29.9834 0.0000
# 6 0.0000 0.0000 0.0000 -3.6703 0.0000 34.5206
#
#
#
# Elastic Compliance Matrix: (Units=1/GPa)
#
#
# Indices 1 2 3 4 5 6 
#
# 1 0.008746 0.000674 -0.003253 0.000000 -0.000023 0.000000
# 2 0.000674 0.013930 -0.000179 0.000000 0.000742 0.000000
# 3 -0.003253 -0.000179 0.022472 0.000000 -0.005642 0.000000
# 4 0.000000 0.000000 0.000000 0.104908 0.000000 0.011154
# 5 -0.000023 0.000742 -0.005642 0.000000 0.034895 0.000000
# 6 0.000000 0.000000 0.000000 0.011154 0.000000 0.030154
#
#
# Mechanical properties :
#
#
# Convention : Reuss Voigt Hill
#
# Bulk Modulus (GPa) = 25.23291 29.62684 27.42988
# Shear Modulus (GPa) = 21.38264 30.28874 25.83569
#
# Velocity S-wave (km/s) = 3.19974 3.80824 3.51718
# Velocity P-wave (km/s) = 5.07277 5.78988 5.44315
#
# Compressibility (1/GPa) = 0.03963078
#
# Stress axis : x y z
#
# Youngs Moduli (GPa) = 114.33330 71.78495 44.50021
#
# Poissons Ratio (x) = -0.04835 0.14476
# Poissons Ratio (y) = -0.07701 0.00798
# Poissons Ratio (z) = 0.37194 0.01288
#
# Static dielectric constant tensor:
#      x y z
#    x 1.863160 0.000000 0.014250 
#    y 0.000000 1.725400 0.000000 
#    z 0.014250 0.000000 1.803050 
# 
# From -- ./inp_files/24712.got.cif
#   From: 2010.05.17/outbox.cif.g08.bks.cpg/sg12_13_cif.got.tgz:24712.got - 2010.06.03 13:09:07.
