data_PCOD9211714
_publ_section_title
;
Structure prediction by ZEFSAII (Michael W. Deem and Ramdas Pophale) SiO2 
 PCOD9211714
Probable space group: C 2/M
;
_chemical_formula_sum "Si O2"
_cell_formula_units_Z 48
_cell_length_a 16.066414
_cell_length_b 8.643753
_cell_length_c 17.099856
_cell_angle_alpha 90.000000
_cell_angle_beta 92.712485
_cell_angle_gamma 90.000000
_cell_volume 2372.066679
_symmetry_space_group_name_H-M "C 2/M"
_symmetry_group_IT_number 12
_symmetry_cell_setting 'monoclinic'
loop_
_space_group_symop_operation_xyz
x,y,z
-x,y,-z
-x,-y,-z
x,-y,z
1/2+x,1/2+y,z
1/2-x,1/2+y,-z
1/2-x,1/2-y,-z
1/2+x,1/2-y,z
loop_
_atom_site_type_symbol
_atom_site_label
_atom_site_fract_x
_atom_site_fract_y
_atom_site_fract_z
Si Si1 0.232963 0.685031 0.084995
Si Si2 0.573403 0.683452 0.162984
Si Si3 0.392976 0.311043 0.191840
Si Si4 0.097306 0.677720 0.484278
Si Si5 0.338767 0.679317 0.669205
Si Si6 0.663261 0.681558 0.644848
O O1 0.235512 0.500000 0.083389
O O2 0.143706 0.737926 0.113697
O O3 0.308625 0.739275 0.144829
O O4 0.250000 0.750000 0.000000
O O5 0.574756 0.500000 0.145586
O O6 0.478010 0.739370 0.153454
O O7 0.601193 0.703237 0.254478
O O8 0.393395 0.500000 0.192392
O O9 0.390200 0.263683 0.282799
O O10 0.118930 0.500000 0.466490
O O11 0.118117 0.782114 0.410865
O O12 0.145513 0.730628 0.563869
O O13 0.000000 0.687250 0.500000
O O14 0.311691 0.500000 0.669092
O O15 0.258573 0.788125 0.672537
O O16 0.647760 0.500000 0.631759
#
# Coordination Sequence:
#
# PCOD9211714 Si02
#       6
#     8   8   8   8   8   8
#     4  11  23  42  65  92 125 159 199 247 305 366
#     4  10  21  40  65  92 121 159 205 250 300 361
#     4   9  20  39  64  90 121 162 203 245 301 367
#     4  11  24  39  55  82 120 160 206 257 308 358
#     4  11  22  37  60  88 120 157 204 254 305 362
#     4  11  21  38  62  86 118 160 208 252 302 362
#
# _framework density 20.235519
#
# number of rings (size 3 to 8) (size 9 to 14) (size 15 to 20)
#    0.000    1.500    1.667    3.500    0.000    4.000 
#    0.000    6.667    0.000    0.000    0.000    0.000 
#    0.000    0.000    0.000    0.000    0.000    0.000 
#
# Total GULP energy -134138.081573 kJ/mol
# GULP energy per Si atom -5589.086732 kJ/mol
# Density = 2.018946 g / cm^3
# Si number density = 20.235519 Si / 1000 Ang^3
#
#
#
# Elastic Constant Matrix: (Units=GPa)
#
#
# Indices 1 2 3 4 5 6 
#
# 1 80.0343 5.2793 10.3900 0.0000 -30.6438 0.0000
# 2 5.2793 20.6215 8.8428 0.0000 -5.8850 0.0000
# 3 10.3900 8.8428 86.8142 0.0000 -30.0855 0.0000
# 4 0.0000 0.0000 0.0000 -13.4403 0.0000 0.8413
# 5 -30.6438 -5.8850 -30.0855 0.0000 26.3276 0.0000
# 6 0.0000 0.0000 0.0000 0.8413 0.0000 23.9259
#
#
#
# Elastic Compliance Matrix: (Units=1/GPa)
#
#
# Indices 1 2 3 4 5 6 
#
# 1 0.030504 0.000914 0.014291 0.000000 0.052040 0.000000
# 2 0.000914 0.052055 -0.001673 0.000000 0.010788 0.000000
# 3 0.014291 -0.001673 0.025851 0.000000 0.045801 0.000000
# 4 0.000000 0.000000 0.000000 -0.074240 0.000000 0.002611
# 5 0.052040 0.010788 0.045801 0.000000 0.153305 0.000000
# 6 0.000000 0.000000 0.000000 0.002611 0.000000 0.041704
#
#
# Mechanical properties :
#
#
# Convention : Reuss Voigt Hill
#
# Bulk Modulus (GPa) = 7.38149 26.27712 16.82930
# Shear Modulus (GPa) = 20.22045 18.22651 19.22348
#
# Velocity S-wave (km/s) = 3.16453 3.00445 3.08553
# Velocity P-wave (km/s) = 4.12408 5.00495 4.58571
#
# Compressibility (1/GPa) = 0.13547409
#
# Stress axis : x y z
#
# Youngs Moduli (GPa) = 32.78205 19.21041 38.68279
#
# Poissons Ratio (x) = -0.01756 -0.55281
# Poissons Ratio (y) = -0.02996 0.06472
# Poissons Ratio (z) = -0.46848 0.03214
#
# Static dielectric constant tensor:
#      x y z
#    x 1.726700 0.000000 0.005200 
#    y 0.000000 1.689510 0.000000 
#    z 0.005200 0.000000 1.701580 
# 
# From -- ./inp_files/221687.got.cif
#   From: 2010.05.17/outbox.cif.g08.bks.cpg/sg12_111_cif.got.tgz:221687.got - 2010.06.03 13:09:07.
