data_PCOD9211482
_publ_section_title
;
Structure prediction by ZEFSAII (Michael W. Deem and Ramdas Pophale) SiO2 
 PCOD9211482
Probable space group: C 2/M
;
_chemical_formula_sum "Si O2"
_cell_formula_units_Z 58
_cell_length_a 7.800416
_cell_length_b 21.240843
_cell_length_c 22.680933
_cell_angle_alpha 90.000000
_cell_angle_beta 42.750711
_cell_angle_gamma 90.000000
_cell_volume 2550.930167
_symmetry_space_group_name_H-M "C 2/M"
_symmetry_group_IT_number 12
_symmetry_cell_setting 'monoclinic'
loop_
_space_group_symop_operation_xyz
x,y,z
-x,y,-z
-x,-y,-z
x,-y,z
1/2+x,1/2+y,z
1/2-x,1/2+y,-z
1/2-x,1/2-y,-z
1/2+x,1/2-y,z
loop_
_atom_site_type_symbol
_atom_site_label
_atom_site_fract_x
_atom_site_fract_y
_atom_site_fract_z
Si Si1 0.911342 0.927749 0.827106
Si Si2 0.372964 0.160639 0.668580
Si Si3 0.600545 0.431804 0.907518
Si Si4 0.564626 0.818662 0.915976
Si Si5 0.834186 0.100700 0.484060
Si Si6 0.000000 0.500000 0.500000
Si Si7 0.766732 0.799089 0.666382
Si Si8 0.126918 0.695991 0.149012
O O1 0.148398 0.886611 0.743594
O O2 0.913864 0.930198 0.898311
O O3 0.670203 0.886709 0.870831
O O4 0.918692 0.000000 0.804280
O O5 0.581435 0.126038 0.577812
O O6 0.525226 0.182416 0.688116
O O7 0.307980 0.224673 0.650361
O O8 0.736340 0.500000 0.866583
O O9 0.751139 0.368068 0.860535
O O10 0.500000 0.431112 0.000000
O O11 0.760765 0.761534 0.857559
O O12 0.336468 0.803532 0.930521
O O13 0.500000 0.820794 0.000000
O O14 0.714986 0.053633 0.466209
O O15 0.000000 0.077071 0.500000
O O16 0.004106 0.156052 0.411395
O O17 0.665790 0.807842 0.758308
#
# Coordination Sequence:
#
# PCOD9211482 Si02
#       8
#     8   8   8   8   8   2   8   8
#     4  11  24  42  64  94 132 180 224 276 353 414
#     4  11  23  44  70  99 137 174 229 288 351 417
#     4  10  21  40  63  88 122 171 223 269 332 407
#     4  12  25  40  64  96 133 175 227 287 351 416
#     4  10  26  46  71 108 141 192 235 293 349 418
#     4  12  26  48  72 102 152 184 242 276 356 426
#     4  11  23  43  70  98 136 171 232 288 348 415
#     4  12  22  40  64  94 130 168 222 285 342 406
#
# _framework density 22.736802999999998
#
# number of rings (size 3 to 8) (size 9 to 14) (size 15 to 20)
#    0.000    0.966    2.759    3.931    2.897    0.828 
#    2.483    0.000    0.000    0.000    0.000    0.000 
#    0.000    0.000    0.000    0.000    0.000    0.000 
#
# Total GULP energy -161559.266034 kJ/mol
# GULP energy per Si atom -5571.009174 kJ/mol
# Density = 2.268505 g / cm^3
# Si number density = 22.736803 Si / 1000 Ang^3
#
#
#
# Elastic Constant Matrix: (Units=GPa)
#
#
# Indices 1 2 3 4 5 6 
#
# 1 60.6625 47.9604 -1.5576 0.0000 2.4994 0.0001
# 2 47.9604 165.7084 35.5537 -0.0002 -6.6206 -0.0001
# 3 -1.5576 35.5537 61.4309 -0.0001 -1.8232 -0.0001
# 4 0.0000 -0.0002 -0.0001 45.1581 0.0001 33.9485
# 5 2.4994 -6.6206 -1.8232 0.0001 22.0283 0.0000
# 6 0.0001 -0.0001 -0.0001 33.9485 0.0000 83.5927
#
#
#
# Elastic Compliance Matrix: (Units=1/GPa)
#
#
# Indices 1 2 3 4 5 6 
#
# 1 0.023088 -0.007949 0.005050 0.000000 -0.004591 0.000000
# 2 -0.007949 0.009695 -0.005713 0.000000 0.003343 0.000000
# 3 0.005050 -0.005713 0.019694 0.000000 -0.000660 0.000000
# 4 0.000000 0.000000 0.000000 0.031877 0.000000 -0.012946
# 5 -0.004591 0.003343 -0.000660 0.000000 0.046867 0.000000
# 6 0.000000 0.000000 0.000000 -0.012946 0.000000 0.017220
#
#
# Mechanical properties :
#
#
# Convention : Reuss Voigt Hill
#
# Bulk Modulus (GPa) = 28.36784 50.19052 39.27918
# Shear Modulus (GPa) = 28.18234 43.87884 36.03059
#
# Velocity S-wave (km/s) = 3.52448 4.39778 3.98512
# Velocity P-wave (km/s) = 5.39132 6.92169 6.20387
#
# Compressibility (1/GPa) = 0.03525119
#
# Stress axis : x y z
#
# Youngs Moduli (GPa) = 43.31220 103.14815 50.77807
#
# Poissons Ratio (x) = 0.81995 -0.25642
# Poissons Ratio (y) = 0.34430 0.29011
# Poissons Ratio (z) = -0.21872 0.58932
#
# Static dielectric constant tensor:
#      x y z
#    x 1.902780 0.000000 0.065570 
#    y 0.000000 1.851310 0.000000 
#    z 0.065570 0.000000 1.893730 
# 
# From -- ./inp_files/258490.got.cif
#   From: 2010.05.17/outbox.cif.g08.bks.cpg/sg12_130_cif.got.tgz:258490.got - 2010.06.03 13:09:07.
