data_PCOD9211938
_publ_section_title
;
Structure prediction by ZEFSAII (Michael W. Deem and Ramdas Pophale) SiO2 
 PCOD9211938
Probable space group: C 2/M
;
_chemical_formula_sum "Si O2"
_cell_formula_units_Z 64
_cell_length_a 9.981388
_cell_length_b 16.035908
_cell_length_c 30.874987
_cell_angle_alpha 90.000000
_cell_angle_beta 37.806278
_cell_angle_gamma 90.000000
_cell_volume 3029.334549
_symmetry_space_group_name_H-M "C 2/M"
_symmetry_group_IT_number 12
_symmetry_cell_setting 'monoclinic'
loop_
_space_group_symop_operation_xyz
x,y,z
-x,y,-z
-x,-y,-z
x,-y,z
1/2+x,1/2+y,z
1/2-x,1/2+y,-z
1/2-x,1/2-y,-z
1/2+x,1/2-y,z
loop_
_atom_site_type_symbol
_atom_site_label
_atom_site_fract_x
_atom_site_fract_y
_atom_site_fract_z
Si Si1 0.289925 0.646902 0.375105
Si Si2 0.351392 0.722692 0.176189
Si Si3 0.207722 0.908813 0.218715
Si Si4 0.413027 0.171073 0.335059
Si Si5 0.216220 0.094845 0.115101
Si Si6 0.664003 0.161919 0.542891
Si Si7 0.507913 0.408491 0.403599
Si Si8 0.993608 0.739292 0.953721
O O1 0.473671 0.598978 0.301450
O O2 0.291315 0.741409 0.357587
O O3 0.391826 0.647532 0.396890
O O4 0.038323 0.623724 0.433053
O O5 0.341594 0.821771 0.192569
O O6 0.558046 0.664267 0.134396
O O7 0.347863 0.725835 0.124530
O O8 0.148505 0.681057 0.253042
O O9 0.157231 0.910031 0.180716
O O10 0.307748 0.000000 0.204528
O O11 0.408979 0.161152 0.388166
O O12 0.260264 0.106529 0.349063
O O13 0.449419 0.141164 0.056732
O O14 0.211020 0.000000 0.098947
O O15 0.750000 0.250000 0.500000
O O16 0.875880 0.105302 0.481425
O O17 0.473232 0.500000 0.395099
O O18 0.000000 0.777398 0.000000
O O19 0.750000 0.750000 0.000000
#
# Coordination Sequence:
#
# PCOD9211938 Si02
#       8
#     8   8   8   8   8   8   8   8
#     4  11  21  39  64  90 125 170 222 276 337 404
#     4  10  22  40  70 102 133 176 231 269 336 393
#     4   9  20  37  62  96 132 170 223 280 335 396
#     4  11  23  42  66  93 128 175 219 272 332 409
#     4  10  21  40  68 102 137 183 231 268 319 402
#     4  12  23  40  65  90 122 172 228 273 332 403
#     4  12  27  41  61  95 132 167 218 288 347 391
#     4  11  22  43  70 103 139 178 218 274 331 399
#
# _framework density 21.126752
#
# number of rings (size 3 to 8) (size 9 to 14) (size 15 to 20)
#    0.000    1.250    3.750    1.875    0.000    8.250 
#    0.000    0.000    0.000    5.250    0.000    0.000 
#    0.000    0.000    0.000    0.000    0.000    0.000 
#
# Total GULP energy -178248.862584 kJ/mol
# GULP energy per Si atom -5570.276956 kJ/mol
# Density = 2.107867 g / cm^3
# Si number density = 21.126752 Si / 1000 Ang^3
#
#
#
# Elastic Constant Matrix: (Units=GPa)
#
#
# Indices 1 2 3 4 5 6 
#
# 1 96.1457 27.3364 47.0850 0.0012 -0.5442 -0.0004
# 2 27.3364 108.5139 25.1111 -0.0018 -15.6088 0.0008
# 3 47.0850 25.1111 114.7134 -0.0053 21.2437 0.0004
# 4 0.0012 -0.0018 -0.0053 15.5907 -0.0018 -2.9458
# 5 -0.5442 -15.6088 21.2437 -0.0018 35.9979 0.0023
# 6 -0.0004 0.0008 0.0004 -2.9458 0.0023 22.2502
#
#
#
# Elastic Compliance Matrix: (Units=1/GPa)
#
#
# Indices 1 2 3 4 5 6 
#
# 1 0.013744 -0.001703 -0.005805 -0.000003 0.002895 0.000000
# 2 -0.001703 0.011295 -0.003004 0.000001 0.006645 -0.000001
# 3 -0.005805 -0.003004 0.013489 0.000004 -0.009351 0.000001
# 4 -0.000003 0.000001 0.000004 0.065786 0.000001 0.008710
# 5 0.002895 0.006645 -0.009351 0.000001 0.036223 -0.000004
# 6 0.000000 -0.000001 0.000001 0.008710 -0.000004 0.046097
#
#
# Mechanical properties :
#
#
# Convention : Reuss Voigt Hill
#
# Bulk Modulus (GPa) = 57.12540 57.60424 57.36482
# Shear Modulus (GPa) = 23.41994 29.42378 26.42186
#
# Velocity S-wave (km/s) = 3.33309 3.73597 3.54027
# Velocity P-wave (km/s) = 6.47385 6.77755 6.62744
#
# Compressibility (1/GPa) = 0.01750535
#
# Stress axis : x y z
#
# Youngs Moduli (GPa) = 72.75826 88.53190 74.13240
#
# Poissons Ratio (x) = 0.15074 0.43033
# Poissons Ratio (y) = 0.12388 0.22272
# Poissons Ratio (z) = 0.42235 0.26598
#
# Static dielectric constant tensor:
#      x y z
#    x 1.807780 0.000000 0.027000 
#    y 0.000000 1.806030 0.000000 
#    z 0.027000 0.000000 1.823030 
# 
# From -- ./inp_files/372932.got.cif
#   From: 2010.05.17/outbox.cif.g08.bks.cpg/sg12_187_cif.got.tgz:372932.got - 2010.06.03 13:09:07.
