data_PCOD9211655
_publ_section_title
;
Structure prediction by ZEFSAII (Michael W. Deem and Ramdas Pophale) SiO2 
 PCOD9211655
Probable space group: C 2/M
;
_chemical_formula_sum "Si O2"
_cell_formula_units_Z 48
_cell_length_a 15.131134
_cell_length_b 12.585674
_cell_length_c 10.482488
_cell_angle_alpha 90.000000
_cell_angle_beta 80.770221
_cell_angle_gamma 90.000000
_cell_volume 1970.392826
_symmetry_space_group_name_H-M "C 2/M"
_symmetry_group_IT_number 12
_symmetry_cell_setting 'monoclinic'
loop_
_space_group_symop_operation_xyz
x,y,z
-x,y,-z
-x,-y,-z
x,-y,z
1/2+x,1/2+y,z
1/2-x,1/2+y,-z
1/2-x,1/2-y,-z
1/2+x,1/2-y,z
loop_
_atom_site_type_symbol
_atom_site_label
_atom_site_fract_x
_atom_site_fract_y
_atom_site_fract_z
Si Si1 0.665926 0.198960 0.089916
Si Si2 0.754567 0.618668 0.449651
Si Si3 0.909657 0.872629 0.706068
Si Si4 0.047067 0.302690 0.616239
Si Si5 0.200314 0.114124 0.755808
Si Si6 0.567932 0.795764 0.885135
O O1 0.618253 0.300909 0.166751
O O2 0.705482 0.128493 0.193565
O O3 0.750000 0.250000 0.000000
O O4 0.617540 0.137492 0.984323
O O5 0.782431 0.500000 0.404061
O O6 0.672858 0.645748 0.373736
O O7 0.653375 0.815961 0.573902
O O8 0.719850 0.615172 0.601690
O O9 0.000809 0.814670 0.637753
O O10 0.919787 0.000000 0.721115
O O11 0.030124 0.348209 0.764597
O O12 0.000000 0.350048 0.500000
O O13 0.135377 0.207808 0.814871
O O14 0.160270 0.000000 0.799557
O O15 0.500000 0.741076 0.000000
#
# Coordination Sequence:
#
# PCOD9211655 Si02
#       6
#     8   8   8   8   8   8
#     4  10  21  40  64  95 136 181 226 281 346 416
#     4  10  23  45  72 102 141 185 238 292 348 416
#     4  11  24  44  70 101 139 184 234 288 350 418
#     4  12  25  43  73 103 141 184 235 290 354 413
#     4  10  22  41  68  99 134 182 232 282 346 420
#     4  11  23  41  63 101 141 175 222 289 351 411
#
# _framework density 24.360626
#
# number of rings (size 3 to 8) (size 9 to 14) (size 15 to 20)
#    0.000    1.333    1.667    4.000    0.000    6.333 
#    0.000    1.667    0.000    2.000    0.000    0.000 
#    0.000    0.000    0.000    0.000    0.000    0.000 
#
# Total GULP energy -133736.430307 kJ/mol
# GULP energy per Si atom -5572.351263 kJ/mol
# Density = 2.430518 g / cm^3
# Si number density = 24.360626 Si / 1000 Ang^3
#
#
#
# Elastic Constant Matrix: (Units=GPa)
#
#
# Indices 1 2 3 4 5 6 
#
# 1 127.4127 34.4450 47.9870 0.0000 19.4960 0.0000
# 2 34.4450 72.9715 7.3161 0.0000 -1.5191 0.0000
# 3 47.9870 7.3161 188.2286 0.0000 39.7224 0.0000
# 4 0.0000 0.0000 0.0000 2.8305 0.0000 -0.9437
# 5 19.4960 -1.5191 39.7224 0.0000 68.1650 0.0000
# 6 0.0000 0.0000 0.0000 -0.9437 0.0000 21.5225
#
#
#
# Elastic Compliance Matrix: (Units=1/GPa)
#
#
# Indices 1 2 3 4 5 6 
#
# 1 0.010138 -0.004621 -0.002020 0.000000 -0.001826 0.000000
# 2 -0.004621 0.015894 0.000236 0.000000 0.001539 0.000000
# 3 -0.002020 0.000236 0.006494 0.000000 -0.003201 0.000000
# 4 0.000000 0.000000 0.000000 0.358539 0.000000 0.015721
# 5 -0.001826 0.001539 -0.003201 0.000000 0.017092 0.000000
# 6 0.000000 0.000000 0.000000 0.015721 0.000000 0.047152
#
#
# Mechanical properties :
#
#
# Convention : Reuss Voigt Hill
#
# Bulk Modulus (GPa) = 50.72142 63.12320 56.92231
# Shear Modulus (GPa) = 10.53317 38.42792 24.48054
#
# Velocity S-wave (km/s) = 2.08164 3.97603 3.17349
# Velocity P-wave (km/s) = 5.16177 6.85906 6.07003
#
# Compressibility (1/GPa) = 0.01971554
#
# Stress axis : x y z
#
# Youngs Moduli (GPa) = 98.64161 62.91844 153.98755
#
# Poissons Ratio (x) = 0.29074 0.31100
# Poissons Ratio (y) = 0.45581 -0.03628
# Poissons Ratio (z) = 0.19922 -0.01482
#
# Static dielectric constant tensor:
#      x y z
#    x 2.159210 0.000000 0.069700 
#    y 0.000000 1.962520 0.000000 
#    z 0.069700 0.000000 1.976810 
# 
# From -- ./inp_files/154799.got.cif
#   From: 2010.05.17/outbox.cif.g08.bks.cpg/sg12_78_cif.got.tgz:154799.got - 2010.06.03 13:09:07.
