data_PCOD9211985
_publ_section_title
;
Structure prediction by ZEFSAII (Michael W. Deem and Ramdas Pophale) SiO2 
 PCOD9211985
Probable space group: C 2/M
;
_chemical_formula_sum "Si O2"
_cell_formula_units_Z 56
_cell_length_a 26.387052
_cell_length_b 23.948343
_cell_length_c 13.948304
_cell_angle_alpha 90.000000
_cell_angle_beta 19.161928
_cell_angle_gamma 90.000000
_cell_volume 2893.196947
_symmetry_space_group_name_H-M "C 2/M"
_symmetry_group_IT_number 12
_symmetry_cell_setting 'monoclinic'
loop_
_space_group_symop_operation_xyz
x,y,z
-x,y,-z
-x,-y,-z
x,-y,z
1/2+x,1/2+y,z
1/2-x,1/2+y,-z
1/2-x,1/2-y,-z
1/2+x,1/2-y,z
loop_
_atom_site_type_symbol
_atom_site_label
_atom_site_fract_x
_atom_site_fract_y
_atom_site_fract_z
Si Si1 0.766256 0.734812 0.583714
Si Si2 0.834519 0.919336 0.330860
Si Si3 0.574415 0.118215 0.662190
Si Si4 0.220636 0.439522 0.747458
Si Si5 0.476015 0.325193 0.187101
Si Si6 0.057565 0.064844 0.157936
Si Si7 0.104907 0.434287 0.401262
O O1 0.750000 0.750000 0.500000
O O2 0.873264 0.681174 0.412193
O O3 0.854715 0.789715 0.466033
O O4 0.603810 0.718092 0.921674
O O5 0.702157 0.920198 0.488427
O O6 0.770109 0.940704 0.547052
O O7 0.875607 0.855311 0.283940
O O8 0.000000 0.942010 0.000000
O O9 0.572777 0.100531 0.554544
O O10 0.408130 0.105805 0.004223
O O11 0.154511 0.500000 0.891577
O O12 0.384028 0.432073 0.509541
O O13 0.555706 0.379989 0.092730
O O14 0.066689 0.000000 0.101576
O O15 0.210876 0.070140 0.946869
O O16 0.072092 0.500000 0.478274
O O17 0.000000 0.416438 0.500000
#
# Coordination Sequence:
#
# PCOD9211985 Si02
#       7
#     8   8   8   8   8   8   8
#     4  12  23  35  58  85 125 163 208 255 299 373
#     4  11  20  37  55  79 125 164 214 248 296 374
#     4  12  22  37  58  88 127 163 203 264 315 362
#     4  10  23  36  54  87 127 168 201 246 312 385
#     4  11  22  38  56  93 121 168 212 247 309 370
#     4   9  19  41  64  85 122 161 205 259 315 378
#     4  10  21  40  69  95 115 155 218 276 321 373
#
# _framework density 19.355751999999999
#
# number of rings (size 3 to 8) (size 9 to 14) (size 15 to 20)
#    0.000    1.286    4.286    2.143    4.000    3.143 
#    0.000    0.714    0.000    6.000    0.000    0.000 
#    0.000    0.000    0.000    0.000    0.000    0.000 
#
# Total GULP energy -155984.907607 kJ/mol
# GULP energy per Si atom -5570.889557 kJ/mol
# Density = 1.931170 g / cm^3
# Si number density = 19.355752 Si / 1000 Ang^3
#
#
#
# Elastic Constant Matrix: (Units=GPa)
#
#
# Indices 1 2 3 4 5 6 
#
# 1 99.8374 32.1301 48.4793 0.0004 -33.5938 0.0013
# 2 32.1301 101.2792 48.1498 0.0016 -7.5128 0.0009
# 3 48.4793 48.1498 124.7647 0.0012 -16.5647 -0.0030
# 4 0.0004 0.0016 0.0012 30.3325 0.0023 -4.6773
# 5 -33.5938 -7.5128 -16.5647 0.0023 23.5805 -0.0006
# 6 0.0013 0.0009 -0.0030 -4.6773 -0.0006 19.4545
#
#
#
# Elastic Compliance Matrix: (Units=1/GPa)
#
#
# Indices 1 2 3 4 5 6 
#
# 1 0.022339 -0.003243 -0.003684 -0.000002 0.028204 -0.000002
# 2 -0.003243 0.012572 -0.004051 0.000000 -0.003461 -0.000001
# 3 -0.003684 -0.004051 0.011185 0.000000 0.001318 0.000002
# 4 -0.000002 0.000000 0.000000 0.034237 -0.000007 0.008231
# 5 0.028204 -0.003461 0.001318 -0.000007 0.082412 -0.000001
# 6 -0.000002 -0.000001 0.000002 0.008231 -0.000001 0.053381
#
#
# Mechanical properties :
#
#
# Convention : Reuss Voigt Hill
#
# Bulk Modulus (GPa) = 41.42623 64.82218 53.12421
# Shear Modulus (GPa) = 20.31452 27.81499 24.06475
#
# Velocity S-wave (km/s) = 3.24317 3.79494 3.52985
# Velocity P-wave (km/s) = 5.95594 7.26393 6.64221
#
# Compressibility (1/GPa) = 0.02413929
#
# Stress axis : x y z
#
# Youngs Moduli (GPa) = 44.76431 79.54296 89.40592
#
# Poissons Ratio (x) = 0.25799 0.32937
# Poissons Ratio (y) = 0.14519 0.36218
# Poissons Ratio (z) = 0.16491 0.32223
#
# Static dielectric constant tensor:
#      x y z
#    x 1.677620 0.000000 -0.004560 
#    y 0.000000 1.747060 0.000000 
#    z -0.004560 0.000000 1.742500 
# 
# From -- ./inp_files/247357.got.cif
#   From: 2010.05.17/outbox.cif.g08.bks.cpg/sg12_124_cif.got.tgz:247357.got - 2010.06.03 13:09:07.
