data_PCOD9211778
_publ_section_title
;
Structure prediction by ZEFSAII (Michael W. Deem and Ramdas Pophale) SiO2 
 PCOD9211778
Probable space group: C 2/M
;
_chemical_formula_sum "Si O2"
_cell_formula_units_Z 64
_cell_length_a 14.517283
_cell_length_b 29.628757
_cell_length_c 9.256091
_cell_angle_alpha 90.000000
_cell_angle_beta 49.543172
_cell_angle_gamma 90.000000
_cell_volume 3029.362052
_symmetry_space_group_name_H-M "C 2/M"
_symmetry_group_IT_number 12
_symmetry_cell_setting 'monoclinic'
loop_
_space_group_symop_operation_xyz
x,y,z
-x,y,-z
-x,-y,-z
x,-y,z
1/2+x,1/2+y,z
1/2-x,1/2+y,-z
1/2-x,1/2-y,-z
1/2+x,1/2-y,z
loop_
_atom_site_type_symbol
_atom_site_label
_atom_site_fract_x
_atom_site_fract_y
_atom_site_fract_z
Si Si1 0.863245 0.947508 0.094625
Si Si2 0.133680 0.882476 0.411166
Si Si3 0.475199 0.052522 0.197116
Si Si4 0.295884 0.289308 0.802815
Si Si5 0.728427 0.113627 0.448504
Si Si6 0.757410 0.448465 0.076977
Si Si7 0.386545 0.207439 0.515886
Si Si8 0.549438 0.248901 0.106709
O O1 0.771511 0.914970 0.268931
O O2 0.839144 0.000000 0.157578
O O3 0.841569 0.943100 0.946527
O O4 0.000000 0.937152 0.000000
O O5 0.158853 0.832306 0.328943
O O6 0.160622 0.884770 0.552097
O O7 0.227381 0.914940 0.235108
O O8 0.000000 0.896090 0.500000
O O9 0.381709 0.087402 0.360650
O O10 0.437646 0.000000 0.257319
O O11 0.500000 0.058545 0.000000
O O12 0.609726 0.058994 0.124737
O O13 0.319427 0.245175 0.680176
O O14 0.375119 0.283897 0.868991
O O15 0.152536 0.289659 0.979202
O O16 0.691087 0.164132 0.445022
O O17 0.756065 0.500000 0.132055
O O18 0.500000 0.192970 0.500000
O O19 0.440886 0.230402 0.316279
O O20 0.500000 0.263491 0.000000
#
# Coordination Sequence:
#
# PCOD9211778 Si02
#       8
#     8   8   8   8   8   8   8   8
#     4  10  23  44  65  93 135 175 214 260 315 385
#     4  12  25  41  64  91 126 170 219 267 311 389
#     4  10  21  40  65  97 132 162 208 271 324 385
#     4  10  24  44  62  91 129 167 214 262 322 381
#     4  12  25  38  67  98 125 170 217 263 325 382
#     4  10  23  42  65  93 130 169 207 266 328 376
#     4  10  24  43  62  93 132 165 208 271 324 379
#     4  10  21  40  68  90 118 167 210 264 325 376
#
# _framework density 21.126560999999999
#
# number of rings (size 3 to 8) (size 9 to 14) (size 15 to 20)
#    0.000    1.500    1.250    3.000    3.500    6.250 
#    0.000    4.375    0.000    0.000    0.000    0.000 
#    0.000    0.000    0.000    0.000    0.000    0.000 
#
# Total GULP energy -178907.485449 kJ/mol
# GULP energy per Si atom -5590.858920 kJ/mol
# Density = 2.107848 g / cm^3
# Si number density = 21.126561 Si / 1000 Ang^3
#
#
#
# Elastic Constant Matrix: (Units=GPa)
#
#
# Indices 1 2 3 4 5 6 
#
# 1 88.2906 26.6361 6.6131 0.0000 10.5465 0.0000
# 2 26.6361 77.8325 39.1902 0.0000 8.3581 0.0000
# 3 6.6131 39.1902 68.9295 0.0000 8.1076 0.0000
# 4 0.0000 0.0000 0.0000 60.0996 0.0000 -22.8625
# 5 10.5465 8.3581 8.1076 0.0000 26.5885 0.0000
# 6 0.0000 0.0000 0.0000 -22.8625 0.0000 36.0340
#
#
#
# Elastic Compliance Matrix: (Units=1/GPa)
#
#
# Indices 1 2 3 4 5 6 
#
# 1 0.013233 -0.005160 0.002169 0.000000 -0.004288 0.000000
# 2 -0.005160 0.020193 -0.010870 0.000000 -0.000986 0.000000
# 3 0.002169 -0.010870 0.020930 0.000000 -0.003825 0.000000
# 4 0.000000 0.000000 0.000000 0.021933 0.000000 0.013916
# 5 -0.004288 -0.000986 -0.003825 0.000000 0.040788 0.000000
# 6 0.000000 0.000000 0.000000 0.013916 0.000000 0.036581
#
#
# Mechanical properties :
#
#
# Convention : Reuss Voigt Hill
#
# Bulk Modulus (GPa) = 37.54759 42.21462 39.88110
# Shear Modulus (GPa) = 26.28034 35.38530 30.83282
#
# Velocity S-wave (km/s) = 3.53079 4.09702 3.82440
# Velocity P-wave (km/s) = 5.86799 6.51198 6.19835
#
# Compressibility (1/GPa) = 0.02663287
#
# Stress axis : x y z
#
# Youngs Moduli (GPa) = 75.57027 49.52198 47.77938
#
# Poissons Ratio (x) = 0.25553 -0.10361
# Poissons Ratio (y) = 0.38994 0.51935
# Poissons Ratio (z) = -0.16388 0.53829
#
# Static dielectric constant tensor:
#      x y z
#    x 1.805840 0.000000 -0.008480 
#    y 0.000000 1.718860 0.000000 
#    z -0.008480 0.000000 1.754840 
# 
# From -- ./inp_files/68615.got.cif
#   From: 2010.05.17/outbox.cif.g08.bks.cpg/sg12_35_cif.got.tgz:68615.got - 2010.06.03 13:09:07.
