data_PCOD9211020
_publ_section_title
;
Structure prediction by ZEFSAII (Michael W. Deem and Ramdas Pophale) SiO2 
 PCOD9211020
Probable space group: C 2/M
;
_chemical_formula_sum "Si O2"
_cell_formula_units_Z 58
_cell_length_a 18.228152
_cell_length_b 17.770553
_cell_length_c 10.539306
_cell_angle_alpha 90.000000
_cell_angle_beta 47.314648
_cell_angle_gamma 90.000000
_cell_volume 2509.544493
_symmetry_space_group_name_H-M "C 2/M"
_symmetry_group_IT_number 12
_symmetry_cell_setting 'monoclinic'
loop_
_space_group_symop_operation_xyz
x,y,z
-x,y,-z
-x,-y,-z
x,-y,z
1/2+x,1/2+y,z
1/2-x,1/2+y,-z
1/2-x,1/2-y,-z
1/2+x,1/2-y,z
loop_
_atom_site_type_symbol
_atom_site_label
_atom_site_fract_x
_atom_site_fract_y
_atom_site_fract_z
Si Si1 0.422399 0.117658 0.270023
Si Si2 0.599774 0.695485 0.173901
Si Si3 0.916033 0.587547 0.708430
Si Si4 0.500000 0.000000 0.000000
Si Si5 0.212621 0.914822 0.613599
Si Si6 0.273013 0.223719 0.789264
Si Si7 0.915075 0.087625 0.008774
Si Si8 0.877572 0.230314 0.414439
O O1 0.524055 0.103339 0.230446
O O2 0.330537 0.086774 0.460276
O O3 0.395375 0.205334 0.286889
O O4 0.427371 0.066554 0.141721
O O5 0.671810 0.706175 0.206045
O O6 0.490242 0.725097 0.335267
O O7 0.660744 0.727763 0.978377
O O8 0.583103 0.613771 0.136354
O O9 0.879842 0.500000 0.752253
O O10 0.834000 0.652074 0.778463
O O11 0.000000 0.593523 0.500000
O O12 0.184098 0.898990 0.793005
O O13 0.161604 0.849446 0.590090
O O14 0.176594 0.000000 0.626345
O O15 0.302429 0.236648 0.608331
O O16 0.068784 0.000000 0.012605
O O17 0.000000 0.122998 0.000000
#
# Coordination Sequence:
#
# PCOD9211020 Si02
#       8
#     8   8   8   2   8   8   8   8
#     4  12  24  45  67 101 142 182 232 286 357 420
#     4  11  23  41  66  96 135 172 227 290 339 404
#     4  11  21  40  70  95 127 176 227 280 341 411
#     4  12  28  44  66 100 152 186 220 298 348 416
#     4  11  24  45  69 101 136 181 231 287 352 420
#     4  11  24  44  65  99 133 179 230 286 340 410
#     4  10  21  39  65  94 129 166 216 279 341 400
#     4  12  24  44  73  98 139 186 236 288 351 423
#
# _framework density 23.111764000000001
#
# number of rings (size 3 to 8) (size 9 to 14) (size 15 to 20)
#    0.000    0.828    5.517    1.655    0.000    2.759 
#    0.000    0.690    0.000    1.655    0.000    0.000 
#    0.000    0.000    0.000    0.000    0.000    0.000 
#
# Total GULP energy -161623.589045 kJ/mol
# GULP energy per Si atom -5573.227208 kJ/mol
# Density = 2.305916 g / cm^3
# Si number density = 23.111764 Si / 1000 Ang^3
#
#
#
# Elastic Constant Matrix: (Units=GPa)
#
#
# Indices 1 2 3 4 5 6 
#
# 1 56.3475 17.6705 9.6452 0.0000 -20.6883 0.0000
# 2 17.6705 105.7336 14.7086 0.0000 9.0160 0.0000
# 3 9.6452 14.7086 80.2610 0.0000 -14.4373 0.0000
# 4 0.0000 0.0000 0.0000 31.3372 0.0000 3.5083
# 5 -20.6883 9.0160 -14.4373 0.0000 29.6493 0.0000
# 6 0.0000 0.0000 0.0000 3.5083 0.0000 21.3659
#
#
#
# Elastic Compliance Matrix: (Units=1/GPa)
#
#
# Indices 1 2 3 4 5 6 
#
# 1 0.027780 -0.006823 0.001942 0.000000 0.022405 0.000000
# 2 -0.006823 0.011879 -0.003138 0.000000 -0.009901 0.000000
# 3 0.001942 -0.003138 0.014485 0.000000 0.009363 0.000000
# 4 0.000000 0.000000 0.000000 0.032509 0.000000 -0.005338
# 5 0.022405 -0.009901 0.009363 0.000000 0.056931 0.000000
# 6 0.000000 0.000000 0.000000 -0.005338 0.000000 0.047680
#
#
# Mechanical properties :
#
#
# Convention : Reuss Voigt Hill
#
# Bulk Modulus (GPa) = 26.24254 36.26563 31.25408
# Shear Modulus (GPa) = 22.72681 29.82500 26.27591
#
# Velocity S-wave (km/s) = 3.13923 3.59621 3.37546
# Velocity P-wave (km/s) = 4.95167 5.74187 5.36135
#
# Compressibility (1/GPa) = 0.03810607
#
# Stress axis : x y z
#
# Youngs Moduli (GPa) = 35.99655 84.18288 69.03608
#
# Poissons Ratio (x) = 0.57441 -0.13408
# Poissons Ratio (y) = 0.24562 0.21663
# Poissons Ratio (z) = -0.06991 0.26416
#
# Static dielectric constant tensor:
#      x y z
#    x 1.960240 0.000000 -0.027550 
#    y 0.000000 1.951320 0.000000 
#    z -0.027550 0.000000 1.881650 
# 
# From -- ./inp_files/168949.got.cif
#   From: 2010.05.17/outbox.cif.g08.bks.cpg/sg12_85_cif.got.tgz:168949.got - 2010.06.03 13:09:07.
