data_PCOD9211588
_publ_section_title
;
Structure prediction by ZEFSAII (Michael W. Deem and Ramdas Pophale) SiO2 
 PCOD9211588
Probable space group: C 2/M
;
_chemical_formula_sum "Si O2"
_cell_formula_units_Z 58
_cell_length_a 18.656941
_cell_length_b 7.786772
_cell_length_c 18.506975
_cell_angle_alpha 90.000000
_cell_angle_beta 79.235927
_cell_angle_gamma 90.000000
_cell_volume 2641.336313
_symmetry_space_group_name_H-M "C 2/M"
_symmetry_group_IT_number 12
_symmetry_cell_setting 'monoclinic'
loop_
_space_group_symop_operation_xyz
x,y,z
-x,y,-z
-x,-y,-z
x,-y,z
1/2+x,1/2+y,z
1/2-x,1/2+y,-z
1/2-x,1/2-y,-z
1/2+x,1/2-y,z
loop_
_atom_site_type_symbol
_atom_site_label
_atom_site_fract_x
_atom_site_fract_y
_atom_site_fract_z
Si Si1 0.220768 0.203812 0.926484
Si Si2 0.500000 0.000000 0.500000
Si Si3 0.507894 0.799482 0.212655
Si Si4 0.946275 0.293676 0.072943
Si Si5 0.758028 0.801218 0.644998
Si Si6 0.330892 0.790710 0.781549
Si Si7 0.899771 0.194539 0.355046
Si Si8 0.394325 0.292793 0.522954
O O1 0.137855 0.259030 0.928659
O O2 0.275622 0.269695 0.854438
O O3 0.222035 0.000000 0.920585
O O4 0.250000 0.250000 0.000000
O O5 0.449471 0.155480 0.546830
O O6 0.471222 0.726183 0.146812
O O7 0.587303 0.727872 0.217266
O O8 0.452653 0.787749 0.289809
O O9 0.520849 0.000000 0.195265
O O10 0.953414 0.500000 0.072794
O O11 0.000000 0.228026 0.000000
O O12 0.801764 0.771847 0.710324
O O13 0.683089 0.698696 0.657165
O O14 0.813989 0.762894 0.569857
O O15 0.736410 0.000000 0.643300
O O16 0.330755 0.000000 0.779672
O O17 0.897001 0.258318 0.437868
O O18 0.926701 0.000000 0.353337
O O19 0.409868 0.500000 0.528690
#
# Coordination Sequence:
#
# PCOD9211588 Si02
#       8
#     8   2   8   8   8   8   8   8
#     4  11  23  40  63  92 125 162 207 259 311 379
#     4  12  26  40  76  94 132 180 206 272 346 378
#     4  10  22  39  63  92 123 162 210 255 310 384
#     4  10  21  40  64  90 124 163 205 256 312 374
#     4  11  24  42  65  92 128 166 215 269 315 381
#     4  10  23  41  63  92 126 163 209 257 315 384
#     4  11  24  42  64  90 129 167 210 268 318 380
#     4  10  26  44  65 101 132 168 225 270 321 398
#
# _framework density 21.958582
#
# number of rings (size 3 to 8) (size 9 to 14) (size 15 to 20)
#    0.000    1.517    0.000    3.517    5.793    6.897 
#    0.000    1.379    0.000    0.000    0.000    0.000 
#    0.000    0.000    0.000    0.000    0.000    0.000 
#
# Total GULP energy -161847.659575 kJ/mol
# GULP energy per Si atom -5580.953778 kJ/mol
# Density = 2.190860 g / cm^3
# Si number density = 21.958582 Si / 1000 Ang^3
#
#
#
# Elastic Constant Matrix: (Units=GPa)
#
#
# Indices 1 2 3 4 5 6 
#
# 1 166.5688 9.5276 75.3148 0.0000 -9.5250 0.0000
# 2 9.5276 50.1216 4.0078 0.0000 -10.4870 0.0000
# 3 75.3148 4.0078 147.5361 0.0000 0.1795 0.0000
# 4 0.0000 0.0000 0.0000 34.2352 0.0000 -25.3143
# 5 -9.5250 -10.4870 0.1795 0.0000 37.5154 0.0000
# 6 0.0000 0.0000 0.0000 -25.3143 0.0000 34.1978
#
#
#
# Elastic Compliance Matrix: (Units=1/GPa)
#
#
# Indices 1 2 3 4 5 6 
#
# 1 0.007989 -0.000813 -0.004058 0.000000 0.001821 0.000000
# 2 -0.000813 0.021324 -0.000171 0.000000 0.005755 0.000000
# 3 -0.004058 -0.000171 0.008856 0.000000 -0.001121 0.000000
# 4 0.000000 0.000000 0.000000 0.064530 0.000000 0.047767
# 5 0.001821 0.005755 -0.001121 0.000000 0.028732 0.000000
# 6 0.000000 0.000000 0.000000 0.047767 0.000000 0.064601
#
#
# Mechanical properties :
#
#
# Convention : Reuss Voigt Hill
#
# Bulk Modulus (GPa) = 35.60841 60.21411 47.91126
# Shear Modulus (GPa) = 23.20416 39.54807 31.37612
#
# Velocity S-wave (km/s) = 3.25426 4.24846 3.78415
# Velocity P-wave (km/s) = 5.51104 7.17963 6.39995
#
# Compressibility (1/GPa) = 0.02808325
#
# Stress axis : x y z
#
# Youngs Moduli (GPa) = 125.16883 46.89567 112.92027
#
# Poissons Ratio (x) = 0.03814 0.45829
# Poissons Ratio (y) = 0.10179 0.01932
# Poissons Ratio (z) = 0.50800 0.00802
#
# Static dielectric constant tensor:
#      x y z
#    x 1.785930 0.000000 0.005660 
#    y 0.000000 2.342040 0.000000 
#    z 0.005660 0.000000 1.805210 
# 
# From -- ./inp_files/275397.got.cif
#   From: 2010.05.17/outbox.cif.g08.bks.cpg/sg12_138_cif.got.tgz:275397.got - 2010.06.03 13:09:07.
