data_PCOD9211473
_publ_section_title
;
Structure prediction by ZEFSAII (Michael W. Deem and Ramdas Pophale) SiO2 
 PCOD9211473
Probable space group: C 2/M
;
_chemical_formula_sum "Si O2"
_cell_formula_units_Z 40
_cell_length_a 23.995388
_cell_length_b 9.148854
_cell_length_c 17.989495
_cell_angle_alpha 90.000000
_cell_angle_beta 30.507649
_cell_angle_gamma 90.000000
_cell_volume 2004.844683
_symmetry_space_group_name_H-M "C 2/M"
_symmetry_group_IT_number 12
_symmetry_cell_setting 'monoclinic'
loop_
_space_group_symop_operation_xyz
x,y,z
-x,y,-z
-x,-y,-z
x,-y,z
1/2+x,1/2+y,z
1/2-x,1/2+y,-z
1/2-x,1/2-y,-z
1/2+x,1/2-y,z
loop_
_atom_site_type_symbol
_atom_site_label
_atom_site_fract_x
_atom_site_fract_y
_atom_site_fract_z
Si Si1 0.948290 0.826275 0.140934
Si Si2 0.196013 0.673912 0.401648
Si Si3 0.480967 0.674005 0.686281
Si Si4 0.606021 0.170844 0.075131
Si Si5 0.830005 0.828937 0.724892
O O1 0.819158 0.791757 0.286884
O O2 0.013905 0.734379 0.125893
O O3 0.961377 0.000000 0.141001
O O4 0.000000 0.798546 0.000000
O O5 0.181074 0.500000 0.422314
O O6 0.184214 0.729830 0.330633
O O7 0.100454 0.754756 0.556404
O O8 0.486041 0.500000 0.687848
O O9 0.402297 0.740161 0.839216
O O10 0.432042 0.707374 0.660911
O O11 0.587535 0.000000 0.111328
O O12 0.722034 0.185479 0.900148
O O13 0.839646 0.000000 0.690879
#
# Coordination Sequence:
#
# PCOD9211473 Si02
#       5
#     8   8   8   8   8
#     4  10  21  40  63  88 118 155 198 244 298 355
#     4  11  23  39  63  91 120 156 200 247 294 351
#     4  11  24  41  60  86 125 163 196 241 300 355
#     4  11  23  39  63  92 120 154 201 249 294 349
#     4  10  22  40  62  89 121 159 199 243 295 353
#
# _framework density 19.951671999999999
#
# number of rings (size 3 to 8) (size 9 to 14) (size 15 to 20)
#    0.000    1.400    2.000    3.000    0.000    7.600 
#    0.000    0.000    0.000    0.000    0.000    0.000 
#    0.000    0.000    0.000    0.000    0.000    0.000 
#
# Total GULP energy -111875.975877 kJ/mol
# GULP energy per Si atom -5593.798794 kJ/mol
# Density = 1.990626 g / cm^3
# Si number density = 19.951672 Si / 1000 Ang^3
#
#
#
# Elastic Constant Matrix: (Units=GPa)
#
#
# Indices 1 2 3 4 5 6 
#
# 1 49.0079 25.7732 1.7371 0.0000 -14.4166 0.0000
# 2 25.7732 48.5616 21.2547 0.0000 -10.0432 0.0000
# 3 1.7371 21.2547 52.9142 -0.0001 -14.8158 0.0000
# 4 0.0000 0.0000 -0.0001 33.4254 0.0000 6.7736
# 5 -14.4166 -10.0432 -14.8158 0.0000 35.0990 0.0000
# 6 0.0000 0.0000 0.0000 6.7736 0.0000 32.7203
#
#
#
# Elastic Compliance Matrix: (Units=1/GPa)
#
#
# Indices 1 2 3 4 5 6 
#
# 1 0.034472 -0.020285 0.010610 0.000000 0.012833 0.000000
# 2 -0.020285 0.037264 -0.015479 0.000000 -0.004203 0.000000
# 3 0.010610 -0.015479 0.028065 0.000000 0.011775 0.000000
# 4 0.000000 0.000000 0.000000 0.031227 0.000000 -0.006465
# 5 0.012833 -0.004203 0.011775 0.000000 0.037530 0.000000
# 6 0.000000 0.000000 0.000000 -0.006465 0.000000 0.031900
#
#
# Mechanical properties :
#
#
# Convention : Reuss Voigt Hill
#
# Bulk Modulus (GPa) = 20.20536 27.55708 23.88122
# Shear Modulus (GPa) = 18.70808 27.03019 22.86914
#
# Velocity S-wave (km/s) = 3.06546 3.68473 3.38927
# Velocity P-wave (km/s) = 4.76220 5.65198 5.22606
#
# Compressibility (1/GPa) = 0.04949182
#
# Stress axis : x y z
#
# Youngs Moduli (GPa) = 29.00925 26.83560 35.63166
#
# Poissons Ratio (x) = 0.54436 -0.37804
# Poissons Ratio (y) = 0.58845 0.55155
# Poissons Ratio (z) = -0.30778 0.41539
#
# Static dielectric constant tensor:
#      x y z
#    x 1.673340 0.000000 0.003860 
#    y 0.000000 1.657780 0.000000 
#    z 0.003860 0.000000 1.717570 
# 
# From -- ./inp_files/151622.got.cif
#   From: 2010.05.17/outbox.cif.g08.bks.cpg/sg12_76_cif.got.tgz:151622.got - 2010.06.03 13:09:07.
