data_PCOD9211865
_publ_section_title
;
Structure prediction by ZEFSAII (Michael W. Deem and Ramdas Pophale) SiO2 
 PCOD9211865
Probable space group: C 2/M
;
_chemical_formula_sum "Si O2"
_cell_formula_units_Z 56
_cell_length_a 28.552528
_cell_length_b 18.282635
_cell_length_c 5.330908
_cell_angle_alpha 90.000000
_cell_angle_beta 73.183873
_cell_angle_gamma 90.000000
_cell_volume 2663.817830
_symmetry_space_group_name_H-M "C 2/M"
_symmetry_group_IT_number 12
_symmetry_cell_setting 'monoclinic'
loop_
_space_group_symop_operation_xyz
x,y,z
-x,y,-z
-x,-y,-z
x,-y,z
1/2+x,1/2+y,z
1/2-x,1/2+y,-z
1/2-x,1/2-y,-z
1/2+x,1/2-y,z
loop_
_atom_site_type_symbol
_atom_site_label
_atom_site_fract_x
_atom_site_fract_y
_atom_site_fract_z
Si Si1 0.681984 0.081847 0.528063
Si Si2 0.212059 0.080957 0.482158
Si Si3 0.029193 0.143324 0.203893
Si Si4 0.200445 0.792959 0.140750
Si Si5 0.857954 0.347513 0.907155
Si Si6 0.470707 0.820412 0.795399
Si Si7 0.637562 0.418011 0.986666
O O1 0.740784 0.082461 0.407229
O O2 0.658231 0.101465 0.298878
O O3 0.666804 0.000000 0.625003
O O4 0.667813 0.132986 0.787332
O O5 0.213489 0.162482 0.369206
O O6 0.220520 0.000000 0.340027
O O7 0.157090 0.076851 0.672878
O O8 0.032490 0.231727 0.196779
O O9 0.083529 0.111515 0.108470
O O10 0.000000 0.121682 0.500000
O O11 0.000000 0.120526 0.000000
O O12 0.158886 0.731623 0.172374
O O13 0.177431 0.861771 0.030009
O O14 0.250000 0.750000 0.000000
O O15 0.915643 0.349404 0.867586
O O16 0.500000 0.841663 0.500000
O O17 0.500000 0.842681 0.000000
O O18 0.640888 0.500000 0.085013
#
# Coordination Sequence:
#
# PCOD9211865 Si02
#       7
#     8   8   8   8   8   8   8
#     4  11  25  45  67  99 139 179 223 276 348 427
#     4  10  24  42  64  94 141 190 230 279 349 415
#     4  10  23  42  66  97 134 180 233 289 341 406
#     4  12  24  40  65 101 137 175 233 290 331 410
#     4  12  24  41  73 100 131 179 223 285 343 403
#     4  10  21  40  66  98 133 170 222 284 343 404
#     4  11  25  43  65  95 140 190 228 288 354 406
#
# _framework density 21.022459000000001
#
# number of rings (size 3 to 8) (size 9 to 14) (size 15 to 20)
#    0.000    1.143    2.857    2.571    4.000    2.857 
#    0.000    0.000    0.000    8.571    0.000    0.000 
#    0.000    0.000    0.000    0.000    0.000    0.000 
#
# Total GULP energy -156006.322273 kJ/mol
# GULP energy per Si atom -5571.654367 kJ/mol
# Density = 2.097461 g / cm^3
# Si number density = 21.022459 Si / 1000 Ang^3
#
#
#
# Elastic Constant Matrix: (Units=GPa)
#
#
# Indices 1 2 3 4 5 6 
#
# 1 157.4141 18.4085 79.3794 0.0000 -7.0308 0.0000
# 2 18.4085 44.4428 22.2980 0.0000 -1.6194 0.0000
# 3 79.3794 22.2980 109.2331 0.0000 -6.4555 0.0000
# 4 0.0000 0.0000 0.0000 27.4907 0.0000 -1.8574
# 5 -7.0308 -1.6194 -6.4555 0.0000 38.7961 0.0000
# 6 0.0000 0.0000 0.0000 -1.8574 0.0000 31.1588
#
#
#
# Elastic Compliance Matrix: (Units=1/GPa)
#
#
# Indices 1 2 3 4 5 6 
#
# 1 0.010054 -0.000551 -0.007157 0.000000 0.000608 0.000000
# 2 -0.000551 0.025100 -0.004714 0.000000 0.000164 0.000000
# 3 -0.007157 -0.004714 0.015381 0.000000 0.001066 0.000000
# 4 0.000000 0.000000 0.000000 0.036523 0.000000 0.002177
# 5 0.000608 0.000164 0.001066 0.000000 0.026070 0.000000
# 6 0.000000 0.000000 0.000000 0.002177 0.000000 0.032223
#
#
# Mechanical properties :
#
#
# Convention : Reuss Voigt Hill
#
# Bulk Modulus (GPa) = 38.92486 61.25130 50.08808
# Shear Modulus (GPa) = 27.97058 32.22271 30.09664
#
# Velocity S-wave (km/s) = 3.65157 3.91931 3.78781
# Velocity P-wave (km/s) = 6.02783 7.04846 6.55803
#
# Compressibility (1/GPa) = 0.02569052
#
# Stress axis : x y z
#
# Youngs Moduli (GPa) = 99.46702 39.84067 65.01430
#
# Poissons Ratio (x) = 0.02195 0.46534
# Poissons Ratio (y) = 0.05481 0.30645
# Poissons Ratio (z) = 0.71193 0.18779
#
# Static dielectric constant tensor:
#      x y z
#    x 1.714290 0.000000 0.035060 
#    y 0.000000 1.765300 0.000000 
#    z 0.035060 0.000000 1.872700 
# 
# From -- ./inp_files/28757.got.cif
#   From: 2010.05.17/outbox.cif.g08.bks.cpg/sg12_15_cif.got.tgz:28757.got - 2010.06.03 13:09:07.
