data_PCOD9211623
_publ_section_title
;
Structure prediction by ZEFSAII (Michael W. Deem and Ramdas Pophale) SiO2 
 PCOD9211623
Probable space group: C 2/M
;
_chemical_formula_sum "Si O2"
_cell_formula_units_Z 64
_cell_length_a 29.466393
_cell_length_b 14.887337
_cell_length_c 9.242989
_cell_angle_alpha 90.000000
_cell_angle_beta 124.333263
_cell_angle_gamma 90.000000
_cell_volume 3348.235987
_symmetry_space_group_name_H-M "C 2/M"
_symmetry_group_IT_number 12
_symmetry_cell_setting 'monoclinic'
loop_
_space_group_symop_operation_xyz
x,y,z
-x,y,-z
-x,-y,-z
x,-y,z
1/2+x,1/2+y,z
1/2-x,1/2+y,-z
1/2-x,1/2-y,-z
1/2+x,1/2-y,z
loop_
_atom_site_type_symbol
_atom_site_label
_atom_site_fract_x
_atom_site_fract_y
_atom_site_fract_z
Si Si1 0.057678 0.735792 0.523758
Si Si2 0.363735 0.397629 0.331062
Si Si3 0.442914 0.778655 0.815898
Si Si4 0.214269 0.780713 0.300374
Si Si5 0.243721 0.849328 0.046504
Si Si6 0.141905 0.394711 0.149874
Si Si7 0.128818 0.105981 0.321400
Si Si8 0.135407 0.404868 0.806979
O O1 0.083967 0.833901 0.595862
O O2 0.050833 0.710260 0.344084
O O3 0.105564 0.673866 0.672319
O O4 0.000000 0.725688 0.500000
O O5 0.381146 0.500000 0.349421
O O6 0.347898 0.382104 0.472202
O O7 0.312715 0.383425 0.129531
O O8 0.399388 0.848674 0.808797
O O9 0.421406 0.675467 0.789271
O O10 0.500000 0.789735 0.000000
O O11 0.250000 0.750000 0.500000
O O12 0.241607 0.832443 0.215078
O O13 0.187364 0.684362 0.209900
O O14 0.171734 0.853712 0.285607
O O15 0.298731 0.899695 0.095184
O O16 0.250000 0.750000 0.000000
O O17 0.157204 0.500000 0.214856
O O18 0.118988 0.400562 0.945831
O O19 0.117321 0.000000 0.280854
O O20 0.116396 0.500000 0.712177
#
# Coordination Sequence:
#
# PCOD9211623 Si02
#       8
#     8   8   8   8   8   8   8   8
#     4  11  23  41  64  89 123 159 202 260 308 360
#     4  10  21  40  64  92 124 163 204 250 306 364
#     4  10  22  40  63  87 116 159 204 247 304 364
#     4  11  23  37  58  87 124 163 200 240 297 358
#     4  12  21  38  63  90 127 161 201 251 302 361
#     4  10  22  40  60  85 117 156 202 246 296 356
#     4   9  21  39  60  88 123 158 199 248 301 360
#     4  11  24  41  63  92 122 159 205 254 306 359
#
# _framework density 19.114542
#
# number of rings (size 3 to 8) (size 9 to 14) (size 15 to 20)
#    0.000    1.500    2.500    1.875    3.500    4.000 
#    0.000    0.000    0.000    0.000    0.000    0.000 
#    0.000    0.000    0.000    0.000    0.000    0.000 
#
# Total GULP energy -178254.834359 kJ/mol
# GULP energy per Si atom -5570.463574 kJ/mol
# Density = 1.907104 g / cm^3
# Si number density = 19.114542 Si / 1000 Ang^3
#
#
#
# Elastic Constant Matrix: (Units=GPa)
#
#
# Indices 1 2 3 4 5 6 
#
# 1 89.5016 10.7930 24.1633 0.0000 -16.4836 0.0000
# 2 10.7930 106.5354 17.8991 0.0000 -6.3423 0.0000
# 3 24.1633 17.8991 80.2372 0.0000 -5.6477 0.0000
# 4 0.0000 0.0000 0.0000 -2.0861 0.0000 -12.2612
# 5 -16.4836 -6.3423 -5.6477 0.0000 23.5802 0.0000
# 6 0.0000 0.0000 0.0000 -12.2612 0.0000 7.6671
#
#
#
# Elastic Compliance Matrix: (Units=1/GPa)
#
#
# Indices 1 2 3 4 5 6 
#
# 1 0.013745 -0.000293 -0.003462 0.000000 0.008701 0.000000
# 2 -0.000293 0.009865 -0.001973 0.000000 0.001976 0.000000
# 3 -0.003462 -0.001973 0.013974 0.000000 0.000396 0.000000
# 4 0.000000 0.000000 0.000000 -0.046095 0.000000 -0.073715
# 5 0.008701 0.001976 0.000396 0.000000 0.049117 0.000000
# 6 0.000000 0.000000 0.000000 -0.073715 0.000000 0.012542
#
#
# Mechanical properties :
#
#
# Convention : Reuss Voigt Hill
#
# Bulk Modulus (GPa) = 38.27260 42.44277 40.35769
# Shear Modulus (GPa) = 68.20073 20.72684 44.46379
#
# Velocity S-wave (km/s) = 5.97976 3.29652 4.82828
# Velocity P-wave (km/s) = 8.23061 6.06152 7.22789
#
# Compressibility (1/GPa) = 0.02612835
#
# Stress axis : x y z
#
# Youngs Moduli (GPa) = 72.75229 101.36404 71.56340
#
# Poissons Ratio (x) = 0.02970 0.24772
# Poissons Ratio (y) = 0.02131 0.14123
# Poissons Ratio (z) = 0.25184 0.20004
#
# Static dielectric constant tensor:
#      x y z
#    x 1.707700 0.000000 -0.023980 
#    y 0.000000 1.724430 0.000000 
#    z -0.023980 0.000000 1.703410 
# 
# From -- ./inp_files/112055.got.cif
#   From: 2010.05.17/outbox.cif.g08.bks.cpg/sg12_57_cif.got.tgz:112055.got - 2010.06.03 13:09:07.
