data_PCOD9211710
_publ_section_title
;
Structure prediction by ZEFSAII (Michael W. Deem and Ramdas Pophale) SiO2 
 PCOD9211710
Probable space group: C 2/M
;
_chemical_formula_sum "Si O2"
_cell_formula_units_Z 56
_cell_length_a 12.549630
_cell_length_b 21.106193
_cell_length_c 12.162605
_cell_angle_alpha 90.000000
_cell_angle_beta 52.833083
_cell_angle_gamma 90.000000
_cell_volume 2567.200265
_symmetry_space_group_name_H-M "C 2/M"
_symmetry_group_IT_number 12
_symmetry_cell_setting 'monoclinic'
loop_
_space_group_symop_operation_xyz
x,y,z
-x,y,-z
-x,-y,-z
x,-y,z
1/2+x,1/2+y,z
1/2-x,1/2+y,-z
1/2-x,1/2-y,-z
1/2+x,1/2-y,z
loop_
_atom_site_type_symbol
_atom_site_label
_atom_site_fract_x
_atom_site_fract_y
_atom_site_fract_z
Si Si1 0.512900 0.866356 0.710236
Si Si2 0.744023 0.572567 0.844001
Si Si3 0.017268 0.103536 0.619616
Si Si4 0.367311 0.822447 0.137697
Si Si5 0.218942 0.573635 0.421264
Si Si6 0.226487 0.927897 0.085518
Si Si7 0.577607 0.260105 0.336723
O O1 0.398234 0.919280 0.785521
O O2 0.594306 0.855895 0.771184
O O3 0.606132 0.885690 0.550574
O O4 0.440641 0.800272 0.728385
O O5 0.701396 0.500000 0.856510
O O6 0.739856 0.600230 0.724292
O O7 0.673326 0.595657 0.999069
O O8 0.896786 0.069876 0.755285
O O9 0.999884 0.177859 0.659291
O O10 0.000000 0.098205 0.500000
O O11 0.155122 0.076977 0.577128
O O12 0.325683 0.876964 0.076494
O O13 0.234426 0.780248 0.243549
O O14 0.500000 0.791258 0.000000
O O15 0.175675 0.500000 0.435310
O O16 0.278638 0.000000 0.042072
O O17 0.500000 0.247188 0.500000
#
# Coordination Sequence:
#
# PCOD9211710 Si02
#       7
#     8   8   8   8   8   8   8
#     4  12  23  40  69  89 126 164 213 259 321 371
#     4  10  22  39  60  91 129 165 207 260 315 374
#     4  10  22  41  63  94 131 165 211 262 312 367
#     4  11  24  43  63  95 128 164 215 265 315 378
#     4  11  23  38  63  97 129 163 209 261 314 376
#     4  10  21  40  65  91 127 170 208 256 319 377
#     4  10  23  42  66  92 125 166 210 264 315 376
#
# _framework density 21.813647
#
# number of rings (size 3 to 8) (size 9 to 14) (size 15 to 20)
#    0.000    1.429    1.429    4.714    0.000    9.429 
#    0.000    2.143    0.000    0.000    0.000    0.000 
#    0.000    0.000    0.000    0.000    0.000    0.000 
#
# Total GULP energy -156272.264604 kJ/mol
# GULP energy per Si atom -5581.152307 kJ/mol
# Density = 2.176400 g / cm^3
# Si number density = 21.813647 Si / 1000 Ang^3
#
#
#
# Elastic Constant Matrix: (Units=GPa)
#
#
# Indices 1 2 3 4 5 6 
#
# 1 48.9671 12.7456 27.3273 0.0000 7.3460 0.0000
# 2 12.7456 60.5641 26.7265 0.0000 6.1623 0.0000
# 3 27.3273 26.7265 130.1335 0.0000 6.3098 0.0000
# 4 0.0000 0.0000 0.0000 -218.2080 0.0000 -20.6364
# 5 7.3460 6.1623 6.3098 0.0000 42.2948 0.0000
# 6 0.0000 0.0000 0.0000 -20.6364 0.0000 6.3350
#
#
#
# Elastic Compliance Matrix: (Units=1/GPa)
#
#
# Indices 1 2 3 4 5 6 
#
# 1 0.024035 -0.002838 -0.004313 0.000000 -0.003118 0.000000
# 2 -0.002838 0.018680 -0.003155 0.000000 -0.001758 0.000000
# 3 -0.004313 -0.003155 0.009246 0.000000 -0.000171 0.000000
# 4 0.000000 0.000000 0.000000 -0.003503 0.000000 -0.011413
# 5 -0.003118 -0.001758 -0.000171 0.000000 0.024467 0.000000
# 6 0.000000 0.000000 0.000000 -0.011413 0.000000 0.120676
#
#
# Mechanical properties :
#
#
# Convention : Reuss Voigt Hill
#
# Bulk Modulus (GPa) = 31.89862 41.47374 36.68618
# Shear Modulus (GPa) = 22.25551 -22.39129 -0.06789
#
# Velocity S-wave (km/s) = 3.19761 -3.20735 -0.17661
# Velocity P-wave (km/s) = 5.31864 2.31039 4.10036
#
# Compressibility (1/GPa) = 0.03134931
#
# Stress axis : x y z
#
# Youngs Moduli (GPa) = 41.60544 53.53352 108.14903
#
# Poissons Ratio (x) = 0.15190 0.46649
# Poissons Ratio (y) = 0.11806 0.34125
# Poissons Ratio (z) = 0.17946 0.16892
#
# Static dielectric constant tensor:
#      x y z
#    x 1.794790 0.000000 -0.010100 
#    y 0.000000 1.811560 0.000000 
#    z -0.010100 0.000000 1.845470 
# 
# From -- ./inp_files/135280.got.cif
#   From: 2010.05.17/outbox.cif.g08.bks.cpg/sg12_68_cif.got.tgz:135280.got - 2010.06.03 13:09:07.
