data_PCOD9211307
_publ_section_title
;
Structure prediction by ZEFSAII (Michael W. Deem and Ramdas Pophale) SiO2 
 PCOD9211307
Probable space group: C 2/M
;
_chemical_formula_sum "Si O2"
_cell_formula_units_Z 64
_cell_length_a 19.482855
_cell_length_b 28.060265
_cell_length_c 15.027846
_cell_angle_alpha 90.000000
_cell_angle_beta 28.315432
_cell_angle_gamma 90.000000
_cell_volume 3896.883551
_symmetry_space_group_name_H-M "C 2/M"
_symmetry_group_IT_number 12
_symmetry_cell_setting 'monoclinic'
loop_
_space_group_symop_operation_xyz
x,y,z
-x,y,-z
-x,-y,-z
x,-y,z
1/2+x,1/2+y,z
1/2-x,1/2+y,-z
1/2-x,1/2-y,-z
1/2+x,1/2-y,z
loop_
_atom_site_type_symbol
_atom_site_label
_atom_site_fract_x
_atom_site_fract_y
_atom_site_fract_z
Si Si1 0.549903 0.160998 0.537612
Si Si2 0.146986 0.125003 0.454523
Si Si3 0.660506 0.648417 0.233141
Si Si4 0.977360 0.633461 0.806370
Si Si5 0.682813 0.245102 0.174476
Si Si6 0.303773 0.789660 0.367528
Si Si7 0.840964 0.215705 0.169053
Si Si8 0.901413 0.555661 0.201023
O O1 0.500000 0.140481 0.500000
O O2 0.526072 0.128172 0.649361
O O3 0.443886 0.206254 0.675753
O O4 0.712260 0.180702 0.345548
O O5 0.186118 0.137887 0.307666
O O6 0.190236 0.168903 0.469822
O O7 0.244498 0.079608 0.366308
O O8 0.974647 0.118668 0.649489
O O9 0.618947 0.703822 0.273440
O O10 0.806938 0.640969 0.011970
O O11 0.060081 0.680394 0.750304
O O12 0.023418 0.588010 0.810535
O O13 0.801912 0.231059 0.112947
O O14 0.750000 0.250000 0.000000
O O15 0.250000 0.750000 0.500000
O O16 0.338219 0.761207 0.237841
O O17 0.000000 0.194281 0.000000
O O18 0.892088 0.500000 0.233229
O O19 0.000000 0.560714 0.000000
#
# Coordination Sequence:
#
# PCOD9211307 Si02
#       8
#     8   8   8   8   8   8   8   8
#     4  10  22  37  48  72 109 149 187 228 268 310
#     4  10  22  34  51  77 111 140 180 224 272 326
#     4  11  20  32  50  77 108 144 184 217 268 323
#     4  11  21  36  57  77 105 145 191 221 276 333
#     4  11  21  34  49  69 108 157 187 222 265 317
#     4  11  21  33  48  72 106 148 189 227 257 312
#     4  11  22  32  46  70 103 145 193 228 261 302
#     4  10  21  40  61  82 108 138 177 230 294 342
#
# _framework density 16.423380000000002
#
# number of rings (size 3 to 8) (size 9 to 14) (size 15 to 20)
#    0.000    1.375    5.000    1.500    3.500    0.000 
#    0.000    1.875    0.000    0.375    0.000    0.000 
#    0.000    1.500    0.000    0.000    0.000    0.000 
#
# Total GULP energy -178645.630503 kJ/mol
# GULP energy per Si atom -5582.675953 kJ/mol
# Density = 1.638600 g / cm^3
# Si number density = 16.423380 Si / 1000 Ang^3
#
#
#
# Elastic Constant Matrix: (Units=GPa)
#
#
# Indices 1 2 3 4 5 6 
#
# 1 93.6810 35.0516 55.6820 0.0015 8.7699 -0.0011
# 2 35.0516 86.4538 29.2025 -0.0025 1.9645 0.0015
# 3 55.6820 29.2025 101.3011 -0.0129 -7.3324 0.0043
# 4 0.0015 -0.0025 -0.0129 12.7741 0.0061 7.9326
# 5 8.7699 1.9645 -7.3324 0.0061 33.1875 -0.0013
# 6 -0.0011 0.0015 0.0043 7.9326 -0.0013 12.9758
#
#
#
# Elastic Compliance Matrix: (Units=1/GPa)
#
#
# Indices 1 2 3 4 5 6 
#
# 1 0.018467 -0.004145 -0.009442 -0.000019 -0.006721 0.000016
# 2 -0.004145 0.013829 -0.001716 0.000004 -0.000102 -0.000004
# 3 -0.009442 -0.001716 0.016000 0.000028 0.006132 -0.000022
# 4 -0.000019 0.000004 0.000028 0.126190 -0.000015 -0.077145
# 5 -0.006721 -0.000102 0.006132 -0.000015 0.033269 0.000010
# 6 0.000016 -0.000004 -0.000022 -0.077145 0.000010 0.124229
#
#
# Mechanical properties :
#
#
# Convention : Reuss Voigt Hill
#
# Bulk Modulus (GPa) = 56.52778 57.92312 57.22545
# Shear Modulus (GPa) = 13.56904 22.55414 18.06159
#
# Velocity S-wave (km/s) = 2.87749 3.70982 3.31984
# Velocity P-wave (km/s) = 6.74787 7.32773 7.04377
#
# Compressibility (1/GPa) = 0.01769042
#
# Stress axis : x y z
#
# Youngs Moduli (GPa) = 54.15119 72.31051 62.49990
#
# Poissons Ratio (x) = 0.29973 0.59014
# Poissons Ratio (y) = 0.22446 0.10723
# Poissons Ratio (z) = 0.51131 0.12406
#
# Static dielectric constant tensor:
#      x y z
#    x 1.588160 0.000000 -0.006420 
#    y 0.000000 1.516700 0.000010 
#    z -0.006420 0.000010 1.574720 
# 
# From -- ./inp_files/228506.got.cif
#   From: 2010.05.17/outbox.cif.g08.bks.cpg/sg12_115_cif.got.tgz:228506.got - 2010.06.03 13:09:07.
