data_PCOD9211573
_publ_section_title
;
Structure prediction by ZEFSAII (Michael W. Deem and Ramdas Pophale) SiO2 
 PCOD9211573
Probable space group: C 2/M
;
_chemical_formula_sum "Si O2"
_cell_formula_units_Z 64
_cell_length_a 19.522771
_cell_length_b 8.766198
_cell_length_c 31.047477
_cell_angle_alpha 90.000000
_cell_angle_beta 38.870007
_cell_angle_gamma 90.000000
_cell_volume 3334.504018
_symmetry_space_group_name_H-M "C 2/M"
_symmetry_group_IT_number 12
_symmetry_cell_setting 'monoclinic'
loop_
_space_group_symop_operation_xyz
x,y,z
-x,y,-z
-x,-y,-z
x,-y,z
1/2+x,1/2+y,z
1/2-x,1/2+y,-z
1/2-x,1/2-y,-z
1/2+x,1/2-y,z
loop_
_atom_site_type_symbol
_atom_site_label
_atom_site_fract_x
_atom_site_fract_y
_atom_site_fract_z
Si Si1 0.715559 0.680107 0.716432
Si Si2 0.784294 0.183575 0.437197
Si Si3 0.625466 0.185786 0.436285
Si Si4 0.251393 0.319241 0.790044
Si Si5 0.872947 0.184492 0.066515
Si Si6 0.777032 0.683772 0.940443
Si Si7 0.980501 0.676037 0.698062
Si Si8 0.497226 0.176151 0.211811
O O1 0.727325 0.500000 0.718398
O O2 0.814983 0.732597 0.637129
O O3 0.706671 0.764950 0.766000
O O4 0.605571 0.716138 0.744328
O O5 0.750000 0.250000 0.500000
O O6 0.699748 0.232388 0.440779
O O7 0.905138 0.244323 0.367986
O O8 0.784291 0.000000 0.438469
O O9 0.500000 0.237377 0.500000
O O10 0.624915 0.000000 0.436732
O O11 0.248541 0.500000 0.795052
O O12 0.183783 0.248675 0.862856
O O13 0.375719 0.259740 0.730535
O O14 0.805381 0.233384 0.057177
O O15 0.867681 0.000000 0.071441
O O16 0.000000 0.228515 0.000000
O O17 0.771841 0.500000 0.944590
O O18 0.899923 0.725248 0.866795
O O19 0.750000 0.750000 0.000000
O O20 0.983434 0.500000 0.681791
O O21 0.966552 0.676765 0.756407
O O22 0.467582 0.000000 0.215651
#
# Coordination Sequence:
#
# PCOD9211573 Si02
#       8
#     8   8   8   8   8   8   8   8
#     4  11  23  40  65  92 123 165 211 255 311 374
#     4  11  23  40  63  95 128 165 213 261 314 374
#     4   9  20  39  61  88 123 163 208 253 302 367
#     4  12  26  42  63  94 129 163 209 263 314 375
#     4  10  22  43  66  90 124 167 212 255 308 376
#     4  10  22  40  61  91 124 161 205 254 309 370
#     4  11  22  42  68  90 122 167 211 263 320 370
#     4  10  21  40  64  89 124 160 204 261 315 366
#
# _framework density 19.193258
#
# number of rings (size 3 to 8) (size 9 to 14) (size 15 to 20)
#    0.000    1.500    2.500    2.250    3.500    1.750 
#    0.000    0.000    0.000    3.000    0.000    0.000 
#    0.000    0.000    0.000    0.000    0.000    0.000 
#
# Total GULP energy -178807.760205 kJ/mol
# GULP energy per Si atom -5587.742506 kJ/mol
# Density = 1.914957 g / cm^3
# Si number density = 19.193258 Si / 1000 Ang^3
#
#
#
# Elastic Constant Matrix: (Units=GPa)
#
#
# Indices 1 2 3 4 5 6 
#
# 1 43.9737 9.7063 1.3814 -0.0001 6.5848 -0.0010
# 2 9.7063 44.2219 19.6581 -0.0002 -0.0448 -0.0022
# 3 1.3814 19.6581 101.5698 -0.0001 3.7088 -0.0001
# 4 -0.0001 -0.0002 -0.0001 30.4488 0.0001 0.4076
# 5 6.5848 -0.0448 3.7088 0.0001 36.6456 0.0000
# 6 -0.0010 -0.0022 -0.0001 0.4076 0.0000 25.4000
#
#
#
# Elastic Compliance Matrix: (Units=1/GPa)
#
#
# Indices 1 2 3 4 5 6 
#
# 1 0.024682 -0.005850 0.000962 0.000000 -0.004540 0.000001
# 2 -0.005850 0.026138 -0.005037 0.000000 0.001593 0.000002
# 3 0.000962 -0.005037 0.010854 0.000000 -0.001278 0.000000
# 4 0.000000 0.000000 0.000000 0.032849 0.000000 -0.000527
# 5 -0.004540 0.001593 -0.001278 0.000000 0.028235 0.000000
# 6 0.000001 0.000002 0.000000 -0.000527 0.000000 0.039378
#
#
# Mechanical properties :
#
#
# Convention : Reuss Voigt Hill
#
# Bulk Modulus (GPa) = 23.90980 27.91743 25.91362
# Shear Modulus (GPa) = 25.51963 29.10021 27.30992
#
# Velocity S-wave (km/s) = 3.65034 3.89803 3.77622
# Velocity P-wave (km/s) = 5.50010 5.90224 5.70472
#
# Compressibility (1/GPa) = 0.04182385
#
# Stress axis : x y z
#
# Youngs Moduli (GPa) = 40.51601 38.25833 92.13223
#
# Poissons Ratio (x) = 0.22380 -0.08865
# Poissons Ratio (y) = 0.23701 0.46411
# Poissons Ratio (z) = -0.03899 0.19272
#
# Static dielectric constant tensor:
#      x y z
#    x 1.650240 0.000000 -0.003780 
#    y 0.000000 1.661100 0.000000 
#    z -0.003780 0.000000 1.652130 
# 
# From -- ./inp_files/377975.got.cif
#   From: 2010.05.17/outbox.cif.g08.bks.cpg/sg12_189_cif.got.tgz:377975.got - 2010.06.03 13:09:07.
