data_PCOD9211318
_publ_section_title
;
Structure prediction by ZEFSAII (Michael W. Deem and Ramdas Pophale) SiO2 
 PCOD9211318
Probable space group: C 2/M
;
_chemical_formula_sum "Si O2"
_cell_formula_units_Z 48
_cell_length_a 24.410095
_cell_length_b 13.851925
_cell_length_c 7.626967
_cell_angle_alpha 90.000000
_cell_angle_beta 78.051783
_cell_angle_gamma 90.000000
_cell_volume 2523.010786
_symmetry_space_group_name_H-M "C 2/M"
_symmetry_group_IT_number 12
_symmetry_cell_setting 'monoclinic'
loop_
_space_group_symop_operation_xyz
x,y,z
-x,y,-z
-x,-y,-z
x,-y,z
1/2+x,1/2+y,z
1/2-x,1/2+y,-z
1/2-x,1/2-y,-z
1/2+x,1/2-y,z
loop_
_atom_site_type_symbol
_atom_site_label
_atom_site_fract_x
_atom_site_fract_y
_atom_site_fract_z
Si Si1 0.061986 0.754577 0.996273
Si Si2 0.836343 0.607136 0.706875
Si Si3 0.565576 0.248691 0.413566
Si Si4 0.390129 0.614037 0.311015
Si Si5 0.344209 0.891079 0.114137
Si Si6 0.225608 0.219732 0.700129
O O1 0.070307 0.768920 0.199998
O O2 0.072694 0.851524 0.878779
O O3 0.101871 0.674177 0.880365
O O4 0.000000 0.720753 0.000000
O O5 0.829997 0.500000 0.634796
O O6 0.887951 0.664739 0.586083
O O7 0.777315 0.662573 0.747789
O O8 0.849901 0.598658 0.902320
O O9 0.500000 0.226456 0.500000
O O10 0.585853 0.333989 0.530056
O O11 0.389668 0.500000 0.333795
O O12 0.328397 0.653290 0.300223
O O13 0.293432 0.818540 0.192441
O O14 0.340290 0.000000 0.190130
O O15 0.250000 0.250000 0.500000
#
# Coordination Sequence:
#
# PCOD9211318 Si02
#       6
#     8   8   8   8   8   8
#     4  10  21  40  61  86 124 161 201 252 300 354
#     4  10  21  40  63  89 120 159 200 244 301 363
#     4  11  22  41  63  89 125 158 200 255 303 351
#     4  11  24  41  61  90 121 161 207 247 305 364
#     4   9  21  38  61  89 119 158 199 243 303 362
#     4  11  21  39  61  87 124 154 196 253 299 354
#
# _framework density 19.024889000000002
#
# number of rings (size 3 to 8) (size 9 to 14) (size 15 to 20)
#    0.000    1.667    3.333    1.000    0.000    3.333 
#    0.000    0.000    0.000    0.000    0.000    0.000 
#    0.000    0.000    0.000    0.000    0.000    0.000 
#
# Total GULP energy -133683.563019 kJ/mol
# GULP energy per Si atom -5570.148459 kJ/mol
# Density = 1.898159 g / cm^3
# Si number density = 19.024889 Si / 1000 Ang^3
#
#
#
# Elastic Constant Matrix: (Units=GPa)
#
#
# Indices 1 2 3 4 5 6 
#
# 1 106.7429 63.2895 3.6940 0.0000 -14.1833 0.0000
# 2 63.2895 171.1604 45.1107 0.0000 -20.3867 0.0000
# 3 3.6940 45.1107 84.4670 0.0000 -2.9205 0.0000
# 4 0.0000 0.0000 0.0000 21.6353 0.0000 1.7093
# 5 -14.1833 -20.3867 -2.9205 0.0000 23.8647 0.0000
# 6 0.0000 0.0000 0.0000 1.7093 0.0000 11.7204
#
#
#
# Elastic Compliance Matrix: (Units=1/GPa)
#
#
# Indices 1 2 3 4 5 6 
#
# 1 0.012624 -0.004794 0.002135 0.000000 0.003669 0.000000
# 2 -0.004794 0.009387 -0.004645 0.000000 0.004602 0.000000
# 3 0.002135 -0.004645 0.014193 0.000000 -0.000962 0.000000
# 4 0.000000 0.000000 0.000000 0.046759 0.000000 -0.006820
# 5 0.003669 0.004602 -0.000962 0.000000 0.047897 0.000000
# 6 0.000000 0.000000 0.000000 -0.006820 0.000000 0.086316
#
#
# Mechanical properties :
#
#
# Convention : Reuss Voigt Hill
#
# Bulk Modulus (GPa) = 46.30175 65.17318 55.73746
# Shear Modulus (GPa) = 20.92203 28.12917 24.52560
#
# Velocity S-wave (km/s) = 3.31980 3.84936 3.59434
# Velocity P-wave (km/s) = 6.25180 7.35445 6.82543
#
# Compressibility (1/GPa) = 0.02159746
#
# Stress axis : x y z
#
# Youngs Moduli (GPa) = 79.21314 106.52749 70.45804
#
# Poissons Ratio (x) = 0.51066 -0.15042
# Poissons Ratio (y) = 0.37972 0.32725
# Poissons Ratio (z) = -0.16911 0.49478
#
# Static dielectric constant tensor:
#      x y z
#    x 1.604280 0.000000 0.016730 
#    y 0.000000 1.695730 0.000000 
#    z 0.016730 0.000000 1.688020 
# 
# From -- ./inp_files/94357.got.cif
#   From: 2010.05.17/outbox.cif.g08.bks.cpg/sg12_48_cif.got.tgz:94357.got - 2010.06.03 13:09:07.
