data_PCOD9211061
_publ_section_title
;
Structure prediction by ZEFSAII (Michael W. Deem and Ramdas Pophale) SiO2 
 PCOD9211061
Probable space group: C 2/M
;
_chemical_formula_sum "Si O2"
_cell_formula_units_Z 64
_cell_length_a 18.171363
_cell_length_b 28.890561
_cell_length_c 8.581487
_cell_angle_alpha 90.000000
_cell_angle_beta 42.680302
_cell_angle_gamma 90.000000
_cell_volume 3054.049890
_symmetry_space_group_name_H-M "C 2/M"
_symmetry_group_IT_number 12
_symmetry_cell_setting 'monoclinic'
loop_
_space_group_symop_operation_xyz
x,y,z
-x,y,-z
-x,-y,-z
x,-y,z
1/2+x,1/2+y,z
1/2-x,1/2+y,-z
1/2-x,1/2-y,-z
1/2+x,1/2-y,z
loop_
_atom_site_type_symbol
_atom_site_label
_atom_site_fract_x
_atom_site_fract_y
_atom_site_fract_z
Si Si1 0.876811 0.620464 0.147026
Si Si2 0.111980 0.629738 0.239154
Si Si3 0.199996 0.052296 0.415318
Si Si4 0.095786 0.190258 0.979283
Si Si5 0.775852 0.051220 0.000758
Si Si6 0.515048 0.397902 0.290890
Si Si7 0.034738 0.728703 0.287656
Si Si8 0.192270 0.297126 0.532211
O O1 0.804989 0.577888 0.317390
O O2 0.830489 0.667905 0.290668
O O3 0.879457 0.620170 0.957273
O O4 0.000000 0.615932 0.000000
O O5 0.107155 0.685901 0.239442
O O6 0.000000 0.617459 0.500000
O O7 0.202843 0.595121 0.164038
O O8 0.213840 0.050633 0.204694
O O9 0.097749 0.085109 0.604450
O O10 0.185318 0.000000 0.492856
O O11 0.058522 0.148659 0.147249
O O12 0.097231 0.237786 0.074550
O O13 0.214513 0.181525 0.723148
O O14 0.000000 0.195292 0.000000
O O15 0.896642 0.061907 0.870364
O O16 0.736946 0.000000 0.108688
O O17 0.500000 0.391359 0.500000
O O18 0.000000 0.754747 0.500000
O O19 0.924249 0.711679 0.370805
O O20 0.250000 0.250000 0.500000
#
# Coordination Sequence:
#
# PCOD9211061 Si02
#       8
#     8   8   8   8   8   8   8   8
#     4  11  22  40  65  90 125 168 219 265 326 393
#     4  10  22  39  64  91 129 163 211 269 326 382
#     4   9  19  37  62  95 128 166 214 272 329 387
#     4  12  25  42  64  94 131 174 223 263 323 398
#     4   9  19  37  64  95 127 168 212 267 334 394
#     4  10  21  39  65  97 130 168 216 272 327 389
#     4  11  25  44  63  98 132 174 218 273 324 381
#     4  12  25  42  70  92 129 179 220 265 328 395
#
# _framework density 20.955780000000001
#
# number of rings (size 3 to 8) (size 9 to 14) (size 15 to 20)
#    0.000    1.500    2.500    2.250    3.500    2.500 
#    4.500    0.000    0.000    8.250    0.000    0.000 
#    0.000    0.000    0.000    0.000    0.000    0.000 
#
# Total GULP energy -178579.771822 kJ/mol
# GULP energy per Si atom -5580.617869 kJ/mol
# Density = 2.090808 g / cm^3
# Si number density = 20.955780 Si / 1000 Ang^3
#
#
#
# Elastic Constant Matrix: (Units=GPa)
#
#
# Indices 1 2 3 4 5 6 
#
# 1 30.1353 33.6559 28.9445 0.0000 -5.8373 0.0000
# 2 33.6559 126.1068 54.9828 0.0000 -19.4871 0.0000
# 3 28.9445 54.9828 111.2230 0.0000 -17.7815 0.0000
# 4 0.0000 0.0000 0.0000 33.9967 0.0000 -2.8477
# 5 -5.8373 -19.4871 -17.7815 0.0000 28.5396 0.0000
# 6 0.0000 0.0000 0.0000 -2.8477 0.0000 20.1984
#
#
#
# Elastic Compliance Matrix: (Units=1/GPa)
#
#
# Indices 1 2 3 4 5 6 
#
# 1 0.053227 -0.010617 -0.008909 0.000000 -0.001913 0.000000
# 2 -0.010617 0.012703 -0.002751 0.000000 0.004788 0.000000
# 3 -0.008909 -0.002751 0.013414 0.000000 0.004657 0.000000
# 4 0.000000 0.000000 0.000000 0.029766 0.000000 0.004197
# 5 -0.001913 0.004788 0.004657 0.000000 0.040818 0.000000
# 6 0.000000 0.000000 0.000000 0.004197 0.000000 0.050101
#
#
# Mechanical properties :
#
#
# Convention : Reuss Voigt Hill
#
# Bulk Modulus (GPa) = 28.74433 55.84796 42.29614
# Shear Modulus (GPa) = 19.51751 26.53905 23.02828
#
# Velocity S-wave (km/s) = 3.05514 3.56256 3.31856
# Velocity P-wave (km/s) = 5.11777 6.60535 5.90856
#
# Compressibility (1/GPa) = 0.03478947
#
# Stress axis : x y z
#
# Youngs Moduli (GPa) = 18.78731 78.72397 74.54879
#
# Poissons Ratio (x) = 0.83579 0.66418
# Poissons Ratio (y) = 0.19946 0.20510
# Poissons Ratio (z) = 0.16738 0.21658
#
# Static dielectric constant tensor:
#      x y z
#    x 1.740200 0.000000 -0.013270 
#    y 0.000000 1.748600 0.000000 
#    z -0.013270 0.000000 1.737530 
# 
# From -- ./inp_files/80702.got.cif
#   From: 2010.05.17/outbox.cif.g08.bks.cpg/sg12_41_cif.got.tgz:80702.got - 2010.06.03 13:09:07.
