data_PCOD9211687
_publ_section_title
;
Structure prediction by ZEFSAII (Michael W. Deem and Ramdas Pophale) SiO2 
 PCOD9211687
Probable space group: C 2/M
;
_chemical_formula_sum "Si O2"
_cell_formula_units_Z 40
_cell_length_a 18.413476
_cell_length_b 15.810122
_cell_length_c 7.333359
_cell_angle_alpha 90.000000
_cell_angle_beta 55.075199
_cell_angle_gamma 90.000000
_cell_volume 1750.398881
_symmetry_space_group_name_H-M "C 2/M"
_symmetry_group_IT_number 12
_symmetry_cell_setting 'monoclinic'
loop_
_space_group_symop_operation_xyz
x,y,z
-x,y,-z
-x,-y,-z
x,-y,z
1/2+x,1/2+y,z
1/2-x,1/2+y,-z
1/2-x,1/2-y,-z
1/2+x,1/2-y,z
loop_
_atom_site_type_symbol
_atom_site_label
_atom_site_fract_x
_atom_site_fract_y
_atom_site_fract_z
Si Si1 0.523857 0.719767 0.753266
Si Si2 0.700449 0.142659 0.879824
Si Si3 0.664413 0.337871 0.002778
Si Si4 0.327559 0.406022 0.408204
Si Si5 0.503502 0.091805 0.277146
O O1 0.608705 0.663816 0.595455
O O2 0.542153 0.819180 0.704560
O O3 0.500000 0.708253 0.000000
O O4 0.435321 0.683714 0.784746
O O5 0.695978 0.244669 0.891388
O O6 0.733618 0.109281 0.638486
O O7 0.772567 0.123692 0.933507
O O8 0.604759 0.105965 0.067600
O O9 0.669343 0.393576 0.813385
O O10 0.359009 0.500000 0.406655
O O11 0.500000 0.088740 0.500000
O O12 0.470885 0.000000 0.255944
#
# Coordination Sequence:
#
# PCOD9211687 Si02
#       5
#     8   8   8   8   8
#     4   9  21  39  60  88 123 159 200 245 303 365
#     4  10  21  40  65  90 119 161 206 253 307 362
#     4   9  21  39  62  89 122 166 199 251 306 357
#     4  11  23  38  62  93 128 163 204 251 297 365
#     4  10  22  40  62  87 118 155 201 256 310 365
#
# _framework density 22.851932000000001
#
# number of rings (size 3 to 8) (size 9 to 14) (size 15 to 20)
#    0.000    2.200    0.000    1.200    8.400    5.600 
#    0.000    1.000    0.000    0.000    0.000    0.000 
#    0.000    0.000    0.000    0.000    0.000    0.000 
#
# Total GULP energy -111772.104680 kJ/mol
# GULP energy per Si atom -5588.605234 kJ/mol
# Density = 2.279992 g / cm^3
# Si number density = 22.851932 Si / 1000 Ang^3
#
#
#
# Elastic Constant Matrix: (Units=GPa)
#
#
# Indices 1 2 3 4 5 6 
#
# 1 51.3633 30.2869 1.9304 0.0000 -5.6363 0.0000
# 2 30.2869 128.3217 53.5995 0.0000 -21.2739 0.0000
# 3 1.9304 53.5995 91.7771 0.0000 -5.7903 0.0000
# 4 0.0000 0.0000 0.0000 57.8133 0.0000 11.7583
# 5 -5.6363 -21.2739 -5.7903 0.0000 20.1375 0.0000
# 6 0.0000 0.0000 0.0000 11.7583 0.0000 23.6770
#
#
#
# Elastic Compliance Matrix: (Units=1/GPa)
#
#
# Indices 1 2 3 4 5 6 
#
# 1 0.023498 -0.007026 0.003622 0.000000 0.000195 0.000000
# 2 -0.007026 0.014473 -0.007602 0.000000 0.011137 0.000000
# 3 0.003622 -0.007602 0.015091 0.000000 -0.002678 0.000000
# 4 0.000000 0.000000 0.000000 0.019240 0.000000 -0.009555
# 5 0.000195 0.011137 -0.002678 0.000000 0.060709 0.000000
# 6 0.000000 0.000000 0.000000 -0.009555 0.000000 0.046980
#
#
# Mechanical properties :
#
#
# Convention : Reuss Voigt Hill
#
# Bulk Modulus (GPa) = 32.20862 49.23286 40.72074
# Shear Modulus (GPa) = 23.54564 32.70192 28.12378
#
# Velocity S-wave (km/s) = 3.21340 3.78701 3.51193
# Velocity P-wave (km/s) = 5.28138 6.38067 5.85687
#
# Compressibility (1/GPa) = 0.03104759
#
# Stress axis : x y z
#
# Youngs Moduli (GPa) = 42.55752 69.09393 66.26664
#
# Poissons Ratio (x) = 0.48548 -0.23999
# Poissons Ratio (y) = 0.29902 0.50376
# Poissons Ratio (z) = -0.15413 0.52526
#
# Static dielectric constant tensor:
#      x y z
#    x 1.926580 0.000000 0.000080 
#    y 0.000000 1.849760 0.000000 
#    z 0.000080 0.000000 1.817730 
# 
# From -- ./inp_files/85509.got.cif
#   From: 2010.05.17/outbox.cif.g08.bks.cpg/sg12_43_cif.got.tgz:85509.got - 2010.06.03 13:09:07.
