data_PCOD9211744
_publ_section_title
;
Structure prediction by ZEFSAII (Michael W. Deem and Ramdas Pophale) SiO2 
 PCOD9211744
Probable space group: C 2/M
;
_chemical_formula_sum "Si O2"
_cell_formula_units_Z 42
_cell_length_a 14.714578
_cell_length_b 7.523165
_cell_length_c 15.624744
_cell_angle_alpha 90.000000
_cell_angle_beta 112.345713
_cell_angle_gamma 90.000000
_cell_volume 1599.776172
_symmetry_space_group_name_H-M "C 2/M"
_symmetry_group_IT_number 12
_symmetry_cell_setting 'monoclinic'
loop_
_space_group_symop_operation_xyz
x,y,z
-x,y,-z
-x,-y,-z
x,-y,z
1/2+x,1/2+y,z
1/2-x,1/2+y,-z
1/2-x,1/2-y,-z
1/2+x,1/2-y,z
loop_
_atom_site_type_symbol
_atom_site_label
_atom_site_fract_x
_atom_site_fract_y
_atom_site_fract_z
Si Si1 0.661912 0.210124 0.904641
Si Si2 0.055293 0.203532 0.439319
Si Si3 0.500000 0.000000 0.000000
Si Si4 0.310196 0.715530 0.651416
Si Si5 0.058203 0.801748 0.137563
Si Si6 0.860843 0.286518 0.294008
O O1 0.558606 0.304208 0.885498
O O2 0.688014 0.248713 0.815178
O O3 0.636148 0.000000 0.904591
O O4 0.750000 0.250000 0.000000
O O5 0.967805 0.203092 0.338230
O O6 0.000000 0.290521 0.500000
O O7 0.147142 0.286402 0.422586
O O8 0.078804 0.000000 0.470626
O O9 0.568329 0.155867 0.068688
O O10 0.307481 0.500000 0.643082
O O11 0.384889 0.752952 0.756068
O O12 0.205432 0.774513 0.650002
O O13 0.091804 0.000000 0.124695
O O14 0.871347 0.500000 0.303071
#
# Coordination Sequence:
#
# PCOD9211744 Si02
#       6
#     8   8   2   8   8   8
#     4  11  23  39  60  92 130 172 224 278 332 401
#     4  10  21  40  65  93 127 166 212 269 332 398
#     4  12  26  40  60  94 126 168 230 280 310 402
#     4   9  20  40  64  90 126 172 213 262 332 402
#     4  11  23  42  64  89 131 178 220 275 340 389
#     4  10  22  40  63  90 126 168 217 269 327 392
#
# _framework density 26.253672000000002
#
# number of rings (size 3 to 8) (size 9 to 14) (size 15 to 20)
#    0.000    1.714    2.857    0.857    2.667    1.905 
#    1.714    0.000    0.000    0.000    0.000    0.000 
#    0.000    0.000    0.000    0.000    0.000    0.000 
#
# Total GULP energy -117347.046761 kJ/mol
# GULP energy per Si atom -5587.954608 kJ/mol
# Density = 2.619392 g / cm^3
# Si number density = 26.253672 Si / 1000 Ang^3
#
#
#
# Elastic Constant Matrix: (Units=GPa)
#
#
# Indices 1 2 3 4 5 6 
#
# 1 118.3208 5.3212 24.1027 0.0000 -1.3910 0.0000
# 2 5.3212 108.3499 26.1815 0.0000 -14.3845 0.0000
# 3 24.1027 26.1815 99.4614 0.0000 -2.8542 0.0000
# 4 0.0000 0.0000 0.0000 20.3587 0.0000 3.0844
# 5 -1.3910 -14.3845 -2.8542 0.0000 46.5981 0.0000
# 6 0.0000 0.0000 0.0000 3.0844 0.0000 14.4016
#
#
#
# Elastic Compliance Matrix: (Units=1/GPa)
#
#
# Indices 1 2 3 4 5 6 
#
# 1 0.008893 0.000112 -0.002180 0.000000 0.000167 0.000000
# 2 0.000112 0.010262 -0.002642 0.000000 0.003009 0.000000
# 3 -0.002180 -0.002642 0.011272 0.000000 -0.000190 0.000000
# 4 0.000000 0.000000 0.000000 0.050766 0.000000 -0.010873
# 5 0.000167 0.003009 -0.000190 0.000000 0.022382 0.000000
# 6 0.000000 0.000000 0.000000 -0.010873 0.000000 0.071765
#
#
# Mechanical properties :
#
#
# Convention : Reuss Voigt Hill
#
# Bulk Modulus (GPa) = 47.60223 48.59365 48.09794
# Shear Modulus (GPa) = 26.07394 34.30679 30.19036
#
# Velocity S-wave (km/s) = 3.15485 3.61881 3.39477
# Velocity P-wave (km/s) = 5.60730 6.00088 5.80742
#
# Compressibility (1/GPa) = 0.02100742
#
# Stress axis : x y z
#
# Youngs Moduli (GPa) = 112.45393 97.44891 88.71246
#
# Poissons Ratio (x) = -0.01092 0.19336
# Poissons Ratio (y) = -0.01260 0.23438
# Poissons Ratio (z) = 0.24511 0.25746
#
# Static dielectric constant tensor:
#      x y z
#    x 2.223120 0.000000 -0.179770 
#    y 0.000000 1.971540 0.000000 
#    z -0.179770 0.000000 2.152960 
# 
# From -- ./inp_files/267334.got.cif
#   From: 2010.05.17/outbox.cif.g08.bks.cpg/sg12_134_cif.got.tgz:267334.got - 2010.06.03 13:09:07.
