data_PCOD9211114
_publ_section_title
;
Structure prediction by ZEFSAII (Michael W. Deem and Ramdas Pophale) SiO2 
 PCOD9211114
Probable space group: C 2/M
;
_chemical_formula_sum "Si O2"
_cell_formula_units_Z 44
_cell_length_a 11.894564
_cell_length_b 32.074192
_cell_length_c 8.714032
_cell_angle_alpha 90.000000
_cell_angle_beta 144.916032
_cell_angle_gamma 90.000000
_cell_volume 1910.830904
_symmetry_space_group_name_H-M "C 2/M"
_symmetry_group_IT_number 12
_symmetry_cell_setting 'monoclinic'
loop_
_space_group_symop_operation_xyz
x,y,z
-x,y,-z
-x,-y,-z
x,-y,z
1/2+x,1/2+y,z
1/2-x,1/2+y,-z
1/2-x,1/2-y,-z
1/2+x,1/2-y,z
loop_
_atom_site_type_symbol
_atom_site_label
_atom_site_fract_x
_atom_site_fract_y
_atom_site_fract_z
Si Si1 0.163910 0.546780 0.313160
Si Si2 0.354004 0.804486 0.709535
Si Si3 0.500000 0.409106 0.500000
Si Si4 0.812790 0.380305 0.442428
Si Si5 0.946388 0.223776 0.189291
Si Si6 0.869645 0.132232 0.057693
O O1 0.190616 0.500000 0.404853
O O2 0.358412 0.562618 0.444030
O O3 0.104298 0.580320 0.374451
O O4 0.000000 0.545949 0.000000
O O5 0.372249 0.835660 0.584254
O O6 0.433943 0.758304 0.769000
O O7 0.124629 0.796278 0.493255
O O8 0.500000 0.822826 0.000000
O O9 0.628768 0.381332 0.762769
O O10 0.582343 0.381607 0.235879
O O11 0.200088 0.383672 0.755845
O O12 0.866197 0.181719 0.026808
O O13 0.750000 0.250000 0.000000
#
# Coordination Sequence:
#
# PCOD9211114 Si02
#       6
#     8   8   4   8   8   8
#     4  10  21  39  66  95 122 156 204 253 311 388
#     4  10  22  38  59  82 120 166 208 261 316 365
#     4  10  21  42  64  88 124 164 200 254 317 370
#     4   9  19  39  62  88 123 167 202 258 322 371
#     4  10  23  37  56  85 119 159 216 262 305 362
#     4   9  20  38  61  87 123 164 209 257 309 374
#
# _framework density 23.026630999999998
#
# number of rings (size 3 to 8) (size 9 to 14) (size 15 to 20)
#    0.000    2.364    0.000    0.818    7.636    6.545 
#    0.000   10.909    0.000    2.182    0.000    0.000 
#    0.000    0.000    0.000    0.000    0.000    0.000 
#
# Total GULP energy -122612.268330 kJ/mol
# GULP energy per Si atom -5573.284924 kJ/mol
# Density = 2.297422 g / cm^3
# Si number density = 23.026631 Si / 1000 Ang^3
#
#
#
# Elastic Constant Matrix: (Units=GPa)
#
#
# Indices 1 2 3 4 5 6 
#
# 1 75.6229 54.2885 43.7775 0.0000 -17.8036 0.0000
# 2 54.2885 157.1148 30.3066 0.0000 -20.4166 0.0000
# 3 43.7775 30.3066 119.7859 0.0000 -24.1827 0.0000
# 4 0.0000 0.0000 0.0000 26.4114 0.0000 -2.7811
# 5 -17.8036 -20.4166 -24.1827 0.0000 45.3538 0.0000
# 6 0.0000 0.0000 0.0000 -2.7811 0.0000 15.6934
#
#
#
# Elastic Compliance Matrix: (Units=1/GPa)
#
#
# Indices 1 2 3 4 5 6 
#
# 1 0.021491 -0.005960 -0.005810 0.000000 0.002655 0.000000
# 2 -0.005960 0.008578 0.000353 0.000000 0.001710 0.000000
# 3 -0.005810 0.000353 0.011155 0.000000 0.003826 0.000000
# 4 0.000000 0.000000 0.000000 0.038582 0.000000 0.006837
# 5 0.002655 0.001710 0.003826 0.000000 0.025901 0.000000
# 6 0.000000 0.000000 0.000000 0.006837 0.000000 0.064933
#
#
# Mechanical properties :
#
#
# Convention : Reuss Voigt Hill
#
# Bulk Modulus (GPa) = 54.37865 67.69654 61.03760
# Shear Modulus (GPa) = 25.04965 32.43512 28.74239
#
# Velocity S-wave (km/s) = 3.30184 3.75719 3.53685
# Velocity P-wave (km/s) = 6.18086 6.94874 6.57602
#
# Compressibility (1/GPa) = 0.01838957
#
# Stress axis : x y z
#
# Youngs Moduli (GPa) = 46.53201 116.57350 89.64866
#
# Poissons Ratio (x) = 0.69477 0.52087
# Poissons Ratio (y) = 0.27733 -0.03165
# Poissons Ratio (z) = 0.27036 -0.04116
#
# Static dielectric constant tensor:
#      x y z
#    x 1.983820 0.000000 0.008610 
#    y 0.000000 1.815190 0.000000 
#    z 0.008610 0.000000 2.028690 
# 
# From -- ./inp_files/228530.got.cif
#   From: 2010.05.17/outbox.cif.g08.bks.cpg/sg12_115_cif.got.tgz:228530.got - 2010.06.03 13:09:07.
