data_PCOD9211971
_publ_section_title
;
Structure prediction by ZEFSAII (Michael W. Deem and Ramdas Pophale) SiO2 
 PCOD9211971
Probable space group: C 2/M
;
_chemical_formula_sum "Si O2"
_cell_formula_units_Z 64
_cell_length_a 16.697441
_cell_length_b 19.595403
_cell_length_c 10.666514
_cell_angle_alpha 90.000000
_cell_angle_beta 123.527188
_cell_angle_gamma 90.000000
_cell_volume 2909.355167
_symmetry_space_group_name_H-M "C 2/M"
_symmetry_group_IT_number 12
_symmetry_cell_setting 'monoclinic'
loop_
_space_group_symop_operation_xyz
x,y,z
-x,y,-z
-x,-y,-z
x,-y,z
1/2+x,1/2+y,z
1/2-x,1/2+y,-z
1/2-x,1/2-y,-z
1/2+x,1/2-y,z
loop_
_atom_site_type_symbol
_atom_site_label
_atom_site_fract_x
_atom_site_fract_y
_atom_site_fract_z
Si Si1 0.812124 0.676611 0.301483
Si Si2 0.236460 0.315656 0.221902
Si Si3 0.046302 0.612694 0.157617
Si Si4 0.838234 0.572785 0.523103
Si Si5 0.354096 0.580549 0.471743
Si Si6 0.501765 0.370103 0.801436
Si Si7 0.140009 0.921134 0.107154
Si Si8 0.605561 0.222930 0.883557
O O1 0.760236 0.744144 0.308733
O O2 0.861265 0.635886 0.454841
O O3 0.738024 0.620624 0.183138
O O4 0.875079 0.705213 0.243514
O O5 0.142777 0.350055 0.197307
O O6 0.320786 0.370251 0.327543
O O7 0.201075 0.292199 0.051808
O O8 0.079266 0.570034 0.302917
O O9 0.971608 0.669955 0.132027
O O10 0.000000 0.575203 0.000000
O O11 0.834570 0.500000 0.452382
O O12 0.735606 0.582618 0.505667
O O13 0.365693 0.500000 0.448532
O O14 0.447461 0.608991 0.626637
O O15 0.420986 0.379500 0.840712
O O16 0.555612 0.297115 0.849139
O O17 0.584472 0.419336 0.927054
O O18 0.147018 0.000000 0.153056
#
# Coordination Sequence:
#
# PCOD9211971 Si02
#       8
#     8   8   8   8   8   8   8   8
#     4  12  23  39  62  94 137 175 216 269 334 406
#     4  10  22  41  66  91 126 173 226 269 323 394
#     4   9  21  40  64  93 121 160 220 272 324 383
#     4  10  22  40  64  95 129 166 214 272 331 394
#     4  10  21  40  68  99 129 166 220 281 337 393
#     4  11  21  37  66  98 134 164 220 274 334 402
#     4  11  22  38  67 102 134 173 218 280 347 397
#     4  11  24  40  62  94 131 174 219 273 329 400
#
# _framework density 21.998000999999999
#
# number of rings (size 3 to 8) (size 9 to 14) (size 15 to 20)
#    0.000    1.500    2.500    3.000    5.250    1.750 
#    0.000    5.000    0.000    0.750    0.000    0.000 
#    0.000    0.000    0.000    0.000    0.000    0.000 
#
# Total GULP energy -178508.273914 kJ/mol
# GULP energy per Si atom -5578.383560 kJ/mol
# Density = 2.194793 g / cm^3
# Si number density = 21.998001 Si / 1000 Ang^3
#
#
#
# Elastic Constant Matrix: (Units=GPa)
#
#
# Indices 1 2 3 4 5 6 
#
# 1 26.7734 35.2586 28.3410 0.0000 -0.4354 0.0000
# 2 35.2586 180.0075 86.9172 0.0000 -6.4913 0.0000
# 3 28.3410 86.9172 171.8373 0.0000 22.0972 0.0000
# 4 0.0000 0.0000 0.0000 26.3989 0.0000 -4.2055
# 5 -0.4354 -6.4913 22.0972 0.0000 16.4996 0.0000
# 6 0.0000 0.0000 0.0000 -4.2055 0.0000 4.2213
#
#
#
# Elastic Compliance Matrix: (Units=1/GPa)
#
#
# Indices 1 2 3 4 5 6 
#
# 1 0.053425 -0.007385 -0.005900 0.000000 0.006406 0.000000
# 2 -0.007385 0.009856 -0.005123 0.000000 0.010544 0.000000
# 3 -0.005900 -0.005123 0.011673 0.000000 -0.017805 0.000000
# 4 0.000000 0.000000 0.000000 0.045027 0.000000 0.044858
# 5 0.006406 0.010544 -0.017805 0.000000 0.088770 0.000000
# 6 0.000000 0.000000 0.000000 0.044858 0.000000 0.281582
#
#
# Mechanical properties :
#
#
# Convention : Reuss Voigt Hill
#
# Bulk Modulus (GPa) = 26.21992 75.51688 50.86840
# Shear Modulus (GPa) = 9.26166 24.63073 16.94620
#
# Velocity S-wave (km/s) = 2.05411 3.34979 2.77853
# Velocity P-wave (km/s) = 4.19177 7.02602 5.78515
#
# Compressibility (1/GPa) = 0.03813895
#
# Stress axis : x y z
#
# Youngs Moduli (GPa) = 18.71782 101.46463 85.66540
#
# Poissons Ratio (x) = 0.74930 0.50541
# Poissons Ratio (y) = 0.13823 0.43886
# Poissons Ratio (z) = 0.11043 0.51980
#
# Static dielectric constant tensor:
#      x y z
#    x 1.812730 0.000000 0.004140 
#    y 0.000000 1.786690 0.000000 
#    z 0.004140 0.000000 1.889950 
# 
# From -- ./inp_files/168812.got.cif
#   From: 2010.05.17/outbox.cif.g08.bks.cpg/sg12_85_cif.got.tgz:168812.got - 2010.06.03 13:09:07.
