data_PCOD9211355
_publ_section_title
;
Structure prediction by ZEFSAII (Michael W. Deem and Ramdas Pophale) SiO2 
 PCOD9211355
Probable space group: C 2/M
;
_chemical_formula_sum "Si O2"
_cell_formula_units_Z 64
_cell_length_a 30.638945
_cell_length_b 16.773279
_cell_length_c 12.936454
_cell_angle_alpha 90.000000
_cell_angle_beta 32.690465
_cell_angle_gamma 90.000000
_cell_volume 3590.719017
_symmetry_space_group_name_H-M "C 2/M"
_symmetry_group_IT_number 12
_symmetry_cell_setting 'monoclinic'
loop_
_space_group_symop_operation_xyz
x,y,z
-x,y,-z
-x,-y,-z
x,-y,z
1/2+x,1/2+y,z
1/2-x,1/2+y,-z
1/2-x,1/2-y,-z
1/2+x,1/2-y,z
loop_
_atom_site_type_symbol
_atom_site_label
_atom_site_fract_x
_atom_site_fract_y
_atom_site_fract_z
Si Si1 0.164936 0.594144 0.294489
Si Si2 0.180847 0.188768 0.932678
Si Si3 0.270143 0.198937 0.357792
Si Si4 0.416477 0.207947 0.715731
Si Si5 0.561379 0.404745 0.027436
Si Si6 0.383785 0.595452 0.315707
Si Si7 0.004049 0.413072 0.285981
Si Si8 0.074732 0.408876 0.917173
O O1 0.174565 0.500000 0.247260
O O2 0.246184 0.631447 0.178405
O O3 0.130861 0.650543 0.270310
O O4 0.092178 0.598518 0.522972
O O5 0.210600 0.249768 0.783380
O O6 0.144210 0.231962 0.106732
O O7 0.109395 0.139523 0.020467
O O8 0.250000 0.250000 0.500000
O O9 0.193095 0.142686 0.491314
O O10 0.346698 0.145081 0.236438
O O11 0.500000 0.243088 0.500000
O O12 0.451982 0.151947 0.734232
O O13 0.565103 0.500000 0.033696
O O14 0.467232 0.382015 0.206084
O O15 0.601489 0.387427 0.835538
O O16 0.373156 0.500000 0.346621
O O17 0.017579 0.500000 0.308689
O O18 0.041247 0.413094 0.099514
O O19 0.092347 0.500000 0.846262
O O20 0.000000 0.376101 0.000000
#
# Coordination Sequence:
#
# PCOD9211355 Si02
#       8
#     8   8   8   8   8   8   8   8
#     4  10  22  39  62  87 113 148 195 244 291 349
#     4  12  23  37  58  90 121 149 188 241 298 347
#     4  12  24  36  53  88 127 158 187 232 289 345
#     4  10  21  40  62  82 111 149 191 244 298 348
#     4   9  19  37  59  79 109 157 205 236 267 330
#     4   9  19  37  57  78 113 163 204 230 265 327
#     4   9  18  36  60  84 110 151 194 231 283 348
#     4  10  22  38  57  82 120 159 193 233 280 341
#
# _framework density 17.823729
#
# number of rings (size 3 to 8) (size 9 to 14) (size 15 to 20)
#    0.000    1.875    2.500    2.250    1.750    4.500 
#    0.000    0.000    0.000    3.000    0.000    0.000 
#    0.000    0.000    0.000    0.000    0.000    0.000 
#
# Total GULP energy -178491.390673 kJ/mol
# GULP energy per Si atom -5577.855959 kJ/mol
# Density = 1.778316 g / cm^3
# Si number density = 17.823729 Si / 1000 Ang^3
#
#
#
# Elastic Constant Matrix: (Units=GPa)
#
#
# Indices 1 2 3 4 5 6 
#
# 1 86.1712 44.4298 46.5489 0.0000 -24.5735 0.0000
# 2 44.4298 68.2156 62.5385 0.0000 -19.7470 0.0000
# 3 46.5489 62.5385 112.3314 0.0000 -16.8679 0.0000
# 4 0.0000 0.0000 0.0000 23.5424 0.0000 -8.6409
# 5 -24.5735 -19.7470 -16.8679 0.0000 27.6051 0.0000
# 6 0.0000 0.0000 0.0000 -8.6409 0.0000 46.7145
#
#
#
# Elastic Compliance Matrix: (Units=1/GPa)
#
#
# Indices 1 2 3 4 5 6 
#
# 1 0.019919 -0.007696 -0.002349 0.000000 0.010791 0.000000
# 2 -0.007696 0.037313 -0.016080 0.000000 0.010015 0.000000
# 3 -0.002349 -0.016080 0.018483 0.000000 -0.002300 0.000000
# 4 0.000000 0.000000 0.000000 0.045570 0.000000 0.008429
# 5 0.010791 0.010015 -0.002300 0.000000 0.051589 0.000000
# 6 0.000000 0.000000 0.000000 0.008429 0.000000 0.022966
#
#
# Mechanical properties :
#
#
# Convention : Reuss Voigt Hill
#
# Bulk Modulus (GPa) = 42.61939 63.75029 53.18484
# Shear Modulus (GPa) = 19.53786 27.11915 23.32851
#
# Velocity S-wave (km/s) = 3.31444 3.90490 3.62172
# Velocity P-wave (km/s) = 6.21376 7.49505 6.88428
#
# Compressibility (1/GPa) = 0.02346350
#
# Stress axis : x y z
#
# Youngs Moduli (GPa) = 50.20277 26.80009 54.10450
#
# Poissons Ratio (x) = 0.20626 0.12710
# Poissons Ratio (y) = 0.38638 0.87002
# Poissons Ratio (z) = 0.11793 0.43096
#
# Static dielectric constant tensor:
#      x y z
#    x 1.585270 0.000000 0.001730 
#    y 0.000000 1.628570 0.000000 
#    z 0.001730 0.000000 1.610790 
# 
# From -- ./inp_files/190044.got.cif
#   From: 2010.05.17/outbox.cif.g08.bks.cpg/sg12_96_cif.got.tgz:190044.got - 2010.06.03 13:09:07.
