data_PCOD9211530
_publ_section_title
;
Structure prediction by ZEFSAII (Michael W. Deem and Ramdas Pophale) SiO2 
 PCOD9211530
Probable space group: C 2/M
;
_chemical_formula_sum "Si O2"
_cell_formula_units_Z 46
_cell_length_a 18.225626
_cell_length_b 25.120851
_cell_length_c 6.707568
_cell_angle_alpha 90.000000
_cell_angle_beta 52.024633
_cell_angle_gamma 90.000000
_cell_volume 2420.805197
_symmetry_space_group_name_H-M "C 2/M"
_symmetry_group_IT_number 12
_symmetry_cell_setting 'monoclinic'
loop_
_space_group_symop_operation_xyz
x,y,z
-x,y,-z
-x,-y,-z
x,-y,z
1/2+x,1/2+y,z
1/2-x,1/2+y,-z
1/2-x,1/2-y,-z
1/2+x,1/2-y,z
loop_
_atom_site_type_symbol
_atom_site_label
_atom_site_fract_x
_atom_site_fract_y
_atom_site_fract_z
Si Si1 0.400120 0.315850 0.272571
Si Si2 0.923894 0.708811 0.464851
Si Si3 0.679804 0.938053 0.660379
Si Si4 0.500000 0.869386 0.000000
Si Si5 0.747621 0.641208 0.791836
Si Si6 0.651270 0.407627 0.338328
Si Si7 0.500000 0.500000 0.500000
O O1 0.388877 0.259772 0.401699
O O2 0.320168 0.326488 0.243355
O O3 0.394363 0.363116 0.443018
O O4 0.500000 0.316351 0.000000
O O5 0.974086 0.668354 0.228186
O O6 0.835412 0.677799 0.702663
O O7 0.000000 0.725336 0.500000
O O8 0.589172 0.906546 0.887497
O O9 0.713668 0.908470 0.402412
O O10 0.762169 0.931273 0.681997
O O11 0.660310 0.000000 0.658644
O O12 0.690873 0.620328 0.074713
O O13 0.578851 0.453411 0.407629
#
# Coordination Sequence:
#
# PCOD9211530 Si02
#       7
#     8   8   8   4   8   8   2
#     4  11  24  42  64  91 126 162 210 255 311 376
#     4  11  23  40  65  94 125 166 205 257 311 370
#     4  10  21  40  63  95 123 166 207 256 307 368
#     4  10  21  40  64  90 132 161 206 254 310 370
#     4  10  24  42  63  92 127 165 209 254 313 370
#     4  11  24  42  63  91 125 163 209 259 308 367
#     4  12  24  40  66  86 122 164 198 256 306 352
#
# _framework density 19.001940999999999
#
# number of rings (size 3 to 8) (size 9 to 14) (size 15 to 20)
#    0.000    1.391    1.739    2.870    4.870    0.696 
#    0.000    2.174    0.000    5.739    0.000    0.000 
#    0.000    0.000    0.000    0.000    0.000    0.000 
#
# Total GULP energy -128305.808392 kJ/mol
# GULP energy per Si atom -5578.513408 kJ/mol
# Density = 1.895869 g / cm^3
# Si number density = 19.001941 Si / 1000 Ang^3
#
#
#
# Elastic Constant Matrix: (Units=GPa)
#
#
# Indices 1 2 3 4 5 6 
#
# 1 51.8817 16.0038 17.3783 0.0000 -8.6164 0.0000
# 2 16.0038 93.4438 13.3419 0.0000 -3.8178 0.0000
# 3 17.3783 13.3419 46.7152 0.0000 0.5451 0.0000
# 4 0.0000 0.0000 0.0000 -5.9926 0.0000 -7.3602
# 5 -8.6164 -3.8178 0.5451 0.0000 24.2871 0.0000
# 6 0.0000 0.0000 0.0000 -7.3602 0.0000 30.3557
#
#
#
# Elastic Compliance Matrix: (Units=1/GPa)
#
#
# Indices 1 2 3 4 5 6 
#
# 1 0.024285 -0.002619 -0.008384 0.000000 0.008392 0.000000
# 2 -0.002619 0.011521 -0.002327 0.000000 0.000934 0.000000
# 3 -0.008384 -0.002327 0.025235 0.000000 -0.003907 0.000000
# 4 0.000000 0.000000 0.000000 -0.128581 0.000000 -0.031176
# 5 0.008392 0.000934 -0.003907 0.000000 0.044386 0.000000
# 6 0.000000 0.000000 0.000000 -0.031176 0.000000 0.025384
#
#
# Mechanical properties :
#
#
# Convention : Reuss Voigt Hill
#
# Bulk Modulus (GPa) = 29.08616 31.72096 30.40356
# Shear Modulus (GPa) = 123.91896 19.41782 71.66839
#
# Velocity S-wave (km/s) = 8.08427 3.20016 6.14803
# Velocity P-wave (km/s) = 10.12328 5.51221 8.15062
#
# Compressibility (1/GPa) = 0.03438061
#
# Stress axis : x y z
#
# Youngs Moduli (GPa) = 41.17848 86.80111 39.62708
#
# Poissons Ratio (x) = 0.22735 0.33223
# Poissons Ratio (y) = 0.10785 0.09221
# Poissons Ratio (z) = 0.34523 0.20197
#
# Static dielectric constant tensor:
#      x y z
#    x 1.643230 0.000000 0.002520 
#    y 0.000000 1.630110 0.000000 
#    z 0.002520 0.000000 1.640260 
# 
# From -- ./inp_files/17335.got.cif
#   From: 2010.05.17/outbox.cif.g08.bks.cpg/sg12_9_cif.got.tgz:17335.got - 2010.06.03 13:09:07.
