data_PCOD9211800
_publ_section_title
;
Structure prediction by ZEFSAII (Michael W. Deem and Ramdas Pophale) SiO2 
 PCOD9211800
Probable space group: C 2/M
;
_chemical_formula_sum "Si O2"
_cell_formula_units_Z 64
_cell_length_a 15.336634
_cell_length_b 26.333760
_cell_length_c 12.106174
_cell_angle_alpha 90.000000
_cell_angle_beta 41.326141
_cell_angle_gamma 90.000000
_cell_volume 3228.645121
_symmetry_space_group_name_H-M "C 2/M"
_symmetry_group_IT_number 12
_symmetry_cell_setting 'monoclinic'
loop_
_space_group_symop_operation_xyz
x,y,z
-x,y,-z
-x,-y,-z
x,-y,z
1/2+x,1/2+y,z
1/2-x,1/2+y,-z
1/2-x,1/2-y,-z
1/2+x,1/2-y,z
loop_
_atom_site_type_symbol
_atom_site_label
_atom_site_fract_x
_atom_site_fract_y
_atom_site_fract_z
Si Si1 0.859240 0.443319 0.437078
Si Si2 0.219079 0.735730 0.214520
Si Si3 0.923640 0.288325 0.863192
Si Si4 0.656747 0.126963 0.341681
Si Si5 0.231357 0.707668 0.611917
Si Si6 0.864515 0.940098 0.743661
Si Si7 0.147272 0.098215 0.491744
Si Si8 0.357217 0.096954 0.886840
O O1 0.883021 0.500000 0.456692
O O2 0.817509 0.406226 0.575825
O O3 0.743221 0.441049 0.459886
O O4 0.993267 0.423213 0.253251
O O5 0.097545 0.733210 0.241878
O O6 0.230773 0.680035 0.257236
O O7 0.213510 0.773472 0.322725
O O8 0.343855 0.751963 0.021374
O O9 0.856523 0.343825 0.922188
O O10 0.072205 0.297413 0.762143
O O11 0.500000 0.139366 0.500000
O O12 0.679700 0.095977 0.207487
O O13 0.250000 0.750000 0.500000
O O14 0.302192 0.654090 0.522923
O O15 0.839314 0.911726 0.651815
O O16 0.996557 0.913939 0.665389
O O17 0.888100 0.000000 0.701993
O O18 0.742336 0.932828 0.941454
#
# Coordination Sequence:
#
# PCOD9211800 Si02
#       8
#     8   8   8   8   8   8   8   8
#     4  11  21  39  67  94 124 167 215 268 329 382
#     4  10  22  38  64  84 125 173 204 263 331 375
#     4  10  22  42  59  91 128 166 215 270 318 386
#     4   9  21  39  61  90 128 160 208 270 314 381
#     4  12  25  38  64  93 126 168 221 267 318 394
#     4  11  24  43  65  93 131 173 219 268 328 396
#     4  11  24  43  62  90 132 170 212 270 326 388
#     4  10  21  40  66  91 130 164 213 272 322 383
#
# _framework density 19.822558000000001
#
# number of rings (size 3 to 8) (size 9 to 14) (size 15 to 20)
#    0.000    1.500    1.250    3.750    3.500    8.250 
#    0.000    4.375    0.000    1.500    0.000    0.000 
#    0.000    0.000    0.000    0.000    0.000    0.000 
#
# Total GULP energy -178705.327829 kJ/mol
# GULP energy per Si atom -5584.541495 kJ/mol
# Density = 1.977744 g / cm^3
# Si number density = 19.822558 Si / 1000 Ang^3
#
#
#
# Elastic Constant Matrix: (Units=GPa)
#
#
# Indices 1 2 3 4 5 6 
#
# 1 76.6050 40.3730 30.2957 0.0000 -5.2852 0.0000
# 2 40.3730 116.1408 35.8785 0.0000 3.0729 0.0000
# 3 30.2957 35.8785 83.5054 0.0000 12.8831 0.0000
# 4 0.0000 0.0000 0.0000 18.9246 0.0000 19.7987
# 5 -5.2852 3.0729 12.8831 0.0000 17.5064 0.0000
# 6 0.0000 0.0000 0.0000 19.7987 0.0000 -9.1609
#
#
#
# Elastic Compliance Matrix: (Units=1/GPa)
#
#
# Indices 1 2 3 4 5 6 
#
# 1 0.019011 -0.004884 -0.006562 0.000000 0.011426 0.000000
# 2 -0.004884 0.011221 -0.002841 0.000000 -0.001354 0.000000
# 3 -0.006562 -0.002841 0.017829 0.000000 -0.014603 0.000000
# 4 0.000000 0.000000 0.000000 0.016204 0.000000 0.035020
# 5 0.011426 -0.001354 -0.014603 0.000000 0.071556 0.000000
# 6 0.000000 0.000000 0.000000 0.035020 0.000000 -0.033474
#
#
# Mechanical properties :
#
#
# Convention : Reuss Voigt Hill
#
# Bulk Modulus (GPa) = 51.30940 54.37172 52.84056
# Shear Modulus (GPa) = 36.38589 16.76761 26.57675
#
# Velocity S-wave (km/s) = 4.28901 2.91157 3.66557
# Velocity P-wave (km/s) = 7.10409 6.22830 6.68056
#
# Compressibility (1/GPa) = 0.01948960
#
# Stress axis : x y z
#
# Youngs Moduli (GPa) = 52.60053 89.11587 56.08794
#
# Poissons Ratio (x) = 0.43524 0.36802
# Poissons Ratio (y) = 0.25690 0.15932
# Poissons Ratio (z) = 0.34514 0.25314
#
# Static dielectric constant tensor:
#      x y z
#    x 1.707960 0.000000 0.000350 
#    y 0.000000 1.693130 0.000000 
#    z 0.000350 0.000000 1.689670 
# 
# From -- ./inp_files/149744.got.cif
#   From: 2010.05.17/outbox.cif.g08.bks.cpg/sg12_75_cif.got.tgz:149744.got - 2010.06.03 13:09:07.
