data_PCOD9211000
_publ_section_title
;
Structure prediction by ZEFSAII (Michael W. Deem and Ramdas Pophale) SiO2 
 PCOD9211000
Probable space group: C 2/M
;
_chemical_formula_sum "Si O2"
_cell_formula_units_Z 64
_cell_length_a 19.333521
_cell_length_b 8.477833
_cell_length_c 29.384417
_cell_angle_alpha 90.000000
_cell_angle_beta 144.966222
_cell_angle_gamma 90.000000
_cell_volume 2764.837525
_symmetry_space_group_name_H-M "C 2/M"
_symmetry_group_IT_number 12
_symmetry_cell_setting 'monoclinic'
loop_
_space_group_symop_operation_xyz
x,y,z
-x,y,-z
-x,-y,-z
x,-y,z
1/2+x,1/2+y,z
1/2-x,1/2+y,-z
1/2-x,1/2-y,-z
1/2+x,1/2-y,z
loop_
_atom_site_type_symbol
_atom_site_label
_atom_site_fract_x
_atom_site_fract_y
_atom_site_fract_z
Si Si1 0.595127 0.182591 0.458460
Si Si2 0.483640 0.685820 0.306344
Si Si3 0.297959 0.814557 0.623651
Si Si4 0.869870 0.815532 0.383606
Si Si5 0.173772 0.184586 0.219841
Si Si6 0.297293 0.185469 0.857877
Si Si7 0.696772 0.314371 0.043352
Si Si8 0.919588 0.189444 0.116047
O O1 0.534840 0.223158 0.377779
O O2 0.711911 0.284969 0.533686
O O3 0.492211 0.223630 0.440152
O O4 0.628318 0.000000 0.478365
O O5 0.487789 0.500000 0.318537
O O6 0.577316 0.724972 0.316625
O O7 0.345849 0.726981 0.220866
O O8 0.215259 0.759402 0.621200
O O9 0.321233 0.000000 0.641709
O O10 0.786561 0.790438 0.294482
O O11 0.897653 0.000000 0.405054
O O12 0.143259 0.217292 0.150911
O O13 0.060320 0.226046 0.190225
O O14 0.202882 0.000000 0.241471
O O15 0.342501 0.226301 0.932421
O O16 0.310806 0.000000 0.856424
O O17 0.680635 0.500000 0.041078
O O18 0.836384 0.274807 0.107609
O O19 0.629492 0.266502 0.960705
O O20 0.905066 0.000000 0.113573
#
# Coordination Sequence:
#
# PCOD9211000 Si02
#       8
#     8   8   8   8   8   8   8   8
#     4  12  24  41  66  91 121 160 205 252 304 366
#     4  11  24  42  63  88 123 162 204 256 308 363
#     4  11  25  42  63  90 123 160 203 254 308 368
#     4  11  24  42  62  90 125 160 201 251 307 362
#     4  11  23  40  64  90 122 162 205 252 303 362
#     4  11  24  41  62  89 125 164 205 254 305 360
#     4  10  21  39  65  93 126 164 205 250 300 361
#     4   9  21  41  63  93 128 163 202 250 305 359
#
# _framework density 23.147834
#
# number of rings (size 3 to 8) (size 9 to 14) (size 15 to 20)
#    0.000    1.250    1.250    4.125    1.750    7.000 
#    0.000    2.500    0.000    0.000    0.000    0.000 
#    0.000    0.000    0.000    0.000    0.000    0.000 
#
# Total GULP energy -179175.179718 kJ/mol
# GULP energy per Si atom -5599.224366 kJ/mol
# Density = 2.309515 g / cm^3
# Si number density = 23.147834 Si / 1000 Ang^3
#
#
#
# Elastic Constant Matrix: (Units=GPa)
#
#
# Indices 1 2 3 4 5 6 
#
# 1 81.0627 5.9050 -4.4234 0.0000 -0.5030 -0.0001
# 2 5.9050 27.7442 -0.7161 0.0000 5.2927 -0.0002
# 3 -4.4234 -0.7161 36.3219 0.0000 -0.2412 0.0000
# 4 0.0000 0.0000 0.0000 16.3076 0.0000 -0.8285
# 5 -0.5030 5.2927 -0.2412 0.0000 35.8842 0.0000
# 6 -0.0001 -0.0002 0.0000 -0.8285 0.0000 36.6262
#
#
#
# Elastic Compliance Matrix: (Units=1/GPa)
#
#
# Indices 1 2 3 4 5 6 
#
# 1 0.012622 -0.002761 0.001487 0.000000 0.000594 0.000000
# 2 -0.002761 0.037709 0.000370 0.000000 -0.005598 0.000000
# 3 0.001487 0.000370 0.027721 0.000000 0.000153 0.000000
# 4 0.000000 0.000000 0.000000 0.061392 0.000000 0.001389
# 5 0.000594 -0.005598 0.000153 0.000000 0.028702 0.000000
# 6 0.000000 0.000000 0.000000 0.001389 0.000000 0.027334
#
#
# Mechanical properties :
#
#
# Convention : Reuss Voigt Hill
#
# Bulk Modulus (GPa) = 13.11609 16.29553 14.70581
# Shear Modulus (GPa) = 22.45131 27.38781 24.91956
#
# Velocity S-wave (km/s) = 3.11772 3.44345 3.28463
# Velocity P-wave (km/s) = 4.31726 4.78172 4.55542
#
# Compressibility (1/GPa) = 0.07624222
#
# Stress axis : x y z
#
# Youngs Moduli (GPa) = 79.22609 26.51899 36.07376
#
# Poissons Ratio (x) = 0.07323 -0.05363
# Poissons Ratio (y) = 0.21878 -0.01335
# Poissons Ratio (z) = -0.11778 -0.00981
#
# Static dielectric constant tensor:
#      x y z
#    x 1.902530 0.000000 -0.034510 
#    y 0.000000 1.769040 0.000000 
#    z -0.034510 0.000000 1.906650 
# 
# From -- ./inp_files/378357.got.cif
#   From: 2010.05.17/outbox.cif.g08.bks.cpg/sg12_190_cif.got.tgz:378357.got - 2010.06.03 13:09:07.
