data_PCOD9211523
_publ_section_title
;
Structure prediction by ZEFSAII (Michael W. Deem and Ramdas Pophale) SiO2 
 PCOD9211523
Probable space group: C 2/M
;
_chemical_formula_sum "Si O2"
_cell_formula_units_Z 48
_cell_length_a 18.488280
_cell_length_b 24.504617
_cell_length_c 7.058556
_cell_angle_alpha 90.000000
_cell_angle_beta 47.934586
_cell_angle_gamma 90.000000
_cell_volume 2374.033220
_symmetry_space_group_name_H-M "C 2/M"
_symmetry_group_IT_number 12
_symmetry_cell_setting 'monoclinic'
loop_
_space_group_symop_operation_xyz
x,y,z
-x,y,-z
-x,-y,-z
x,-y,z
1/2+x,1/2+y,z
1/2-x,1/2+y,-z
1/2-x,1/2-y,-z
1/2+x,1/2-y,z
loop_
_atom_site_type_symbol
_atom_site_label
_atom_site_fract_x
_atom_site_fract_y
_atom_site_fract_z
Si Si1 0.964808 0.939426 0.849762
Si Si2 0.413174 0.784084 0.497511
Si Si3 0.605342 0.125028 0.792692
Si Si4 0.202444 0.650222 0.021262
Si Si5 0.233947 0.435394 0.271310
Si Si6 0.918459 0.165400 0.496532
O O1 0.033419 0.890479 0.659821
O O2 0.974756 0.000000 0.743141
O O3 0.850331 0.924676 0.053242
O O4 0.000000 0.945570 0.000000
O O5 0.500000 0.793359 0.500000
O O6 0.414539 0.826183 0.321622
O O7 0.405920 0.723836 0.415719
O O8 0.322703 0.799881 0.793307
O O9 0.642780 0.146279 0.930292
O O10 0.687138 0.088086 0.546539
O O11 0.500000 0.096558 0.000000
O O12 0.314751 0.652221 0.765800
O O13 0.185654 0.596778 0.180928
O O14 0.219796 0.500000 0.285481
O O15 0.000000 0.183694 0.500000
#
# Coordination Sequence:
#
# PCOD9211523 Si02
#       6
#     8   8   8   8   8   8
#     4  10  21  40  63  92 132 168 205 258 312 373
#     4  10  22  41  62  90 129 163 207 268 311 364
#     4  11  23  41  65  89 120 171 212 259 318 371
#     4  11  22  41  64  90 128 168 208 258 317 368
#     4  10  23  41  63  94 129 163 209 265 314 368
#     4  11  22  38  62  95 124 166 212 247 309 389
#
# _framework density 20.218755999999999
#
# number of rings (size 3 to 8) (size 9 to 14) (size 15 to 20)
#    0.000    1.500    3.333    1.500    0.000    3.333 
#    0.000    0.833    0.000    0.000    0.000    0.000 
#    0.000    0.000    0.000    0.000    0.000    0.000 
#
# Total GULP energy -133615.740846 kJ/mol
# GULP energy per Si atom -5567.322535 kJ/mol
# Density = 2.017274 g / cm^3
# Si number density = 20.218756 Si / 1000 Ang^3
#
#
#
# Elastic Constant Matrix: (Units=GPa)
#
#
# Indices 1 2 3 4 5 6 
#
# 1 77.7835 17.6776 44.3224 0.0000 3.7964 0.0000
# 2 17.6776 126.4568 48.2953 0.0000 -15.6532 0.0000
# 3 44.3224 48.2953 101.8372 0.0000 -10.9621 0.0000
# 4 0.0000 0.0000 0.0000 11.2352 0.0000 3.6590
# 5 3.7964 -15.6532 -10.9621 0.0000 43.4008 0.0000
# 6 0.0000 0.0000 0.0000 3.6590 0.0000 16.5516
#
#
#
# Elastic Compliance Matrix: (Units=1/GPa)
#
#
# Indices 1 2 3 4 5 6 
#
# 1 0.017624 0.000213 -0.008151 0.000000 -0.003524 0.000000
# 2 0.000213 0.009907 -0.004532 0.000000 0.002410 0.000000
# 3 -0.008151 -0.004532 0.015848 0.000000 0.003081 0.000000
# 4 0.000000 0.000000 0.000000 0.095911 0.000000 -0.021203
# 5 -0.003524 0.002410 0.003081 0.000000 0.024997 0.000000
# 6 0.000000 0.000000 0.000000 -0.021203 0.000000 0.065104
#
#
# Mechanical properties :
#
#
# Convention : Reuss Voigt Hill
#
# Bulk Modulus (GPa) = 54.22927 58.51867 56.37397
# Shear Modulus (GPa) = 19.19556 27.28968 23.24262
#
# Velocity S-wave (km/s) = 3.08457 3.67784 3.39419
# Velocity P-wave (km/s) = 6.29012 6.85864 6.58052
#
# Compressibility (1/GPa) = 0.01844023
#
# Stress axis : x y z
#
# Youngs Moduli (GPa) = 56.73990 100.93821 63.09999
#
# Poissons Ratio (x) = -0.02150 0.51432
# Poissons Ratio (y) = -0.01209 0.28595
# Poissons Ratio (z) = 0.46248 0.45742
#
# Static dielectric constant tensor:
#      x y z
#    x 1.711100 0.000000 -0.015920 
#    y 0.000000 1.822560 0.000000 
#    z -0.015920 0.000000 1.753490 
# 
# From -- ./inp_files/21786.got.cif
#   From: 2010.05.17/outbox.cif.g08.bks.cpg/sg12_11_cif.got.tgz:21786.got - 2010.06.03 13:09:07.
