data_PCOD9211528
_publ_section_title
;
Structure prediction by ZEFSAII (Michael W. Deem and Ramdas Pophale) SiO2 
 PCOD9211528
Probable space group: C 2/M
;
_chemical_formula_sum "Si O2"
_cell_formula_units_Z 64
_cell_length_a 21.557665
_cell_length_b 23.621769
_cell_length_c 18.492373
_cell_angle_alpha 90.000000
_cell_angle_beta 19.514172
_cell_angle_gamma 90.000000
_cell_volume 3145.612843
_symmetry_space_group_name_H-M "C 2/M"
_symmetry_group_IT_number 12
_symmetry_cell_setting 'monoclinic'
loop_
_space_group_symop_operation_xyz
x,y,z
-x,y,-z
-x,-y,-z
x,-y,z
1/2+x,1/2+y,z
1/2-x,1/2+y,-z
1/2-x,1/2-y,-z
1/2+x,1/2-y,z
loop_
_atom_site_type_symbol
_atom_site_label
_atom_site_fract_x
_atom_site_fract_y
_atom_site_fract_z
Si Si1 0.750525 0.819450 0.154810
Si Si2 0.150018 0.283271 0.773006
Si Si3 0.200804 0.937794 0.977554
Si Si4 0.872291 0.302910 0.963320
Si Si5 0.546677 0.112321 0.671626
Si Si6 0.826538 0.936433 0.481690
Si Si7 0.185718 0.673396 0.392302
Si Si8 0.484535 0.639636 0.435841
O O1 0.804902 0.880601 0.063437
O O2 0.835361 0.764017 0.020898
O O3 0.529657 0.813466 0.386272
O O4 0.778453 0.825329 0.210946
O O5 0.212545 0.222597 0.675443
O O6 0.335529 0.309576 0.602196
O O7 0.000000 0.277931 0.000000
O O8 0.041428 0.317251 0.831531
O O9 0.378118 0.928510 0.834907
O O10 0.219278 0.000000 0.920892
O O11 0.013315 0.938412 0.229008
O O12 0.682784 0.336253 0.191038
O O13 0.947954 0.327904 0.804376
O O14 0.669674 0.089396 0.601887
O O15 0.672628 0.120922 0.461436
O O16 0.889284 0.902041 0.483352
O O17 0.770791 0.000000 0.563324
O O18 0.500000 0.616202 0.500000
#
# Coordination Sequence:
#
# PCOD9211528 Si02
#       8
#     8   8   8   8   8   8   8   8
#     4  10  21  40  63  94 133 167 214 261 320 380
#     4  12  22  36  62  94 133 167 197 251 326 381
#     4  10  23  44  66  89 126 175 218 267 319 367
#     4  12  23  38  65  96 129 171 201 263 323 383
#     4  11  24  41  66  94 126 169 219 260 319 383
#     4  11  25  44  65  91 126 166 219 273 312 375
#     4  10  22  38  59  96 134 167 206 265 317 373
#     4  12  23  41  66  95 130 162 216 256 318 392
#
# _framework density 20.345796
#
# number of rings (size 3 to 8) (size 9 to 14) (size 15 to 20)
#    0.000    1.000    6.250    0.375    1.750    3.750 
#    0.000    5.625    0.000    2.625    0.000    0.000 
#    0.000    0.000    0.000    0.000    0.000    0.000 
#
# Total GULP energy -178357.333439 kJ/mol
# GULP energy per Si atom -5573.666670 kJ/mol
# Density = 2.029949 g / cm^3
# Si number density = 20.345796 Si / 1000 Ang^3
#
#
#
# Elastic Constant Matrix: (Units=GPa)
#
#
# Indices 1 2 3 4 5 6 
#
# 1 95.0126 36.9974 21.0749 0.0196 -7.5006 -0.0296
# 2 36.9974 111.4781 24.2273 0.0059 14.7675 0.0273
# 3 21.0749 24.2273 46.3166 0.1720 -2.1123 -0.1438
# 4 0.0196 0.0059 0.1720 29.9566 -0.0835 -14.2455
# 5 -7.5006 14.7675 -2.1123 -0.0835 28.9819 0.0816
# 6 -0.0296 0.0273 -0.1438 -14.2455 0.0816 17.5899
#
#
#
# Elastic Compliance Matrix: (Units=1/GPa)
#
#
# Indices 1 2 3 4 5 6 
#
# 1 0.013470 -0.004421 -0.003567 0.000026 0.005479 -0.000004
# 2 -0.004421 0.012552 -0.004914 -0.000013 -0.007898 -0.000041
# 3 -0.003567 -0.004914 0.025943 -0.000068 0.003471 0.000142
# 4 0.000026 -0.000013 -0.000068 0.054290 0.000041 0.043967
# 5 0.005479 -0.007898 0.003471 0.000041 0.040200 -0.000104
# 6 -0.000004 -0.000041 0.000142 0.043967 -0.000104 0.092460
#
#
# Mechanical properties :
#
#
# Convention : Reuss Voigt Hill
#
# Bulk Modulus (GPa) = 38.22516 46.37848 42.30182
# Shear Modulus (GPa) = 18.28554 26.67286 22.47920
#
# Velocity S-wave (km/s) = 3.00115 3.62467 3.32755
# Velocity P-wave (km/s) = 5.55317 6.35313 5.96657
#
# Compressibility (1/GPa) = 0.02616078
#
# Stress axis : x y z
#
# Youngs Moduli (GPa) = 74.23815 79.66910 38.54603
#
# Poissons Ratio (x) = 0.35223 0.13749
# Poissons Ratio (y) = 0.32822 0.18942
# Poissons Ratio (z) = 0.26479 0.39151
#
# Static dielectric constant tensor:
#      x y z
#    x 1.777240 -0.000010 0.019410 
#    y -0.000010 1.768620 0.000030 
#    z 0.019410 0.000030 1.722070 
# 
# From -- ./inp_files/286404.got.cif
#   From: 2010.05.17/outbox.cif.g08.bks.cpg/sg12_144_cif.got.tgz:286404.got - 2010.06.03 13:09:07.
