data_PCOD9211079
_publ_section_title
;
Structure prediction by ZEFSAII (Michael W. Deem and Ramdas Pophale) SiO2 
 PCOD9211079
Probable space group: C 2/M
;
_chemical_formula_sum "Si O2"
_cell_formula_units_Z 40
_cell_length_a 17.096305
_cell_length_b 12.086092
_cell_length_c 15.372804
_cell_angle_alpha 90.000000
_cell_angle_beta 148.369891
_cell_angle_gamma 90.000000
_cell_volume 1665.833534
_symmetry_space_group_name_H-M "C 2/M"
_symmetry_group_IT_number 12
_symmetry_cell_setting 'monoclinic'
loop_
_space_group_symop_operation_xyz
x,y,z
-x,y,-z
-x,-y,-z
x,-y,z
1/2+x,1/2+y,z
1/2-x,1/2+y,-z
1/2-x,1/2-y,-z
1/2+x,1/2-y,z
loop_
_atom_site_type_symbol
_atom_site_label
_atom_site_fract_x
_atom_site_fract_y
_atom_site_fract_z
Si Si1 0.274395 0.627079 0.477005
Si Si2 0.342780 0.163415 0.315144
Si Si3 0.914409 0.744941 0.831896
Si Si4 0.673725 0.626493 0.982307
Si Si5 0.882090 0.122781 0.257702
O O1 0.249266 0.500000 0.490056
O O2 0.250000 0.750000 0.500000
O O3 0.163807 0.645000 0.291457
O O4 0.445766 0.629199 0.608408
O O5 0.500000 0.122347 0.500000
O O6 0.206482 0.160422 0.253545
O O7 0.297595 0.123667 0.175882
O O8 0.356902 0.293854 0.310995
O O9 0.000000 0.710652 0.000000
O O10 0.036493 0.802301 0.886753
O O11 0.619520 0.500000 0.923035
O O12 0.711355 0.654488 0.917690
O O13 0.843655 0.000000 0.247921
#
# Coordination Sequence:
#
# PCOD9211079 Si02
#       5
#     8   8   8   8   8
#     4  11  22  40  67  97 129 171 221 268 319 386
#     4  11  22  37  61  93 129 157 206 270 323 386
#     4  10  22  39  63  91 129 168 208 266 325 384
#     4  10  22  42  65  87 122 176 220 258 320 393
#     4  10  21  39  66  90 122 167 211 263 326 388
#
# _framework density 24.012001999999999
#
# number of rings (size 3 to 8) (size 9 to 14) (size 15 to 20)
#    0.000    1.600    4.000    0.600    0.000    5.600 
#    0.000    4.000    0.000    0.000    0.000    0.000 
#    0.000    0.000    0.000    0.000    0.000    0.000 
#
# Total GULP energy -111631.486139 kJ/mol
# GULP energy per Si atom -5581.574307 kJ/mol
# Density = 2.395735 g / cm^3
# Si number density = 24.012002 Si / 1000 Ang^3
#
#
#
# Elastic Constant Matrix: (Units=GPa)
#
#
# Indices 1 2 3 4 5 6 
#
# 1 69.6316 28.1699 22.3996 0.0000 0.5672 0.0000
# 2 28.1699 116.7413 21.7712 0.0000 -8.7761 0.0000
# 3 22.3996 21.7712 152.0116 0.0001 0.2881 0.0000
# 4 0.0000 0.0000 0.0001 11.6824 0.0000 1.4882
# 5 0.5672 -8.7761 0.2881 0.0000 29.1409 0.0000
# 6 0.0000 0.0000 0.0000 1.4882 0.0000 13.2403
#
#
#
# Elastic Compliance Matrix: (Units=1/GPa)
#
#
# Indices 1 2 3 4 5 6 
#
# 1 0.016492 -0.003734 -0.001893 0.000000 -0.001427 0.000000
# 2 -0.003734 0.009858 -0.000867 0.000000 0.003050 0.000000
# 3 -0.001893 -0.000867 0.006982 0.000000 -0.000293 0.000000
# 4 0.000000 0.000000 0.000000 0.086842 0.000000 -0.009761
# 5 -0.001427 0.003050 -0.000293 0.000000 0.035265 0.000000
# 6 0.000000 0.000000 0.000000 -0.009761 0.000000 0.076624
#
#
# Mechanical properties :
#
#
# Convention : Reuss Voigt Hill
#
# Bulk Modulus (GPa) = 49.15380 53.67398 51.41389
# Shear Modulus (GPa) = 19.85435 28.54897 24.20166
#
# Velocity S-wave (km/s) = 2.87862 3.45185 3.17819
# Velocity P-wave (km/s) = 5.61815 6.18777 5.90983
#
# Compressibility (1/GPa) = 0.02034431
#
# Stress axis : x y z
#
# Youngs Moduli (GPa) = 60.63408 101.44030 143.22251
#
# Poissons Ratio (x) = 0.37877 0.27108
# Poissons Ratio (y) = 0.22640 0.12424
# Poissons Ratio (z) = 0.11477 0.08799
#
# Static dielectric constant tensor:
#      x y z
#    x 1.917100 0.000000 -0.035260 
#    y 0.000000 2.002630 0.000000 
#    z -0.035260 0.000000 1.982910 
# 
# From -- ./inp_files/283417.got.cif
#   From: 2010.05.17/outbox.cif.g08.bks.cpg/sg12_142_cif.got.tgz:283417.got - 2010.06.03 13:09:07.
