data_PCOD9211784
_publ_section_title
;
Structure prediction by ZEFSAII (Michael W. Deem and Ramdas Pophale) SiO2 
 PCOD9211784
Probable space group: C 2/M
;
_chemical_formula_sum "Si O2"
_cell_formula_units_Z 44
_cell_length_a 28.462032
_cell_length_b 15.210425
_cell_length_c 16.663271
_cell_angle_alpha 90.000000
_cell_angle_beta 16.458843
_cell_angle_gamma 90.000000
_cell_volume 2043.876957
_symmetry_space_group_name_H-M "C 2/M"
_symmetry_group_IT_number 12
_symmetry_cell_setting 'monoclinic'
loop_
_space_group_symop_operation_xyz
x,y,z
-x,y,-z
-x,-y,-z
x,-y,z
1/2+x,1/2+y,z
1/2-x,1/2+y,-z
1/2-x,1/2-y,-z
1/2+x,1/2-y,z
loop_
_atom_site_type_symbol
_atom_site_label
_atom_site_fract_x
_atom_site_fract_y
_atom_site_fract_z
Si Si1 0.948432 0.000000 0.989840
Si Si2 0.442522 0.343603 0.724879
Si Si3 0.634911 0.307056 0.850504
Si Si4 0.594792 0.500000 0.578377
Si Si5 0.523580 0.833241 0.774962
Si Si6 0.986812 0.500000 0.927441
Si Si7 0.744016 0.826231 0.900447
O O1 0.856159 0.093036 0.132157
O O2 0.000000 0.000000 0.000000
O O3 0.077729 0.000000 0.703366
O O4 0.504365 0.416039 0.686317
O O5 0.319779 0.374269 0.854000
O O6 0.605048 0.311804 0.409120
O O7 0.341905 0.264970 0.931585
O O8 0.815213 0.285553 0.521967
O O9 0.500000 0.303499 0.000000
O O10 0.580327 0.237605 0.005562
O O11 0.788277 0.500000 0.236717
O O12 0.571599 0.913478 0.753252
O O13 0.405749 0.873352 0.899706
O O14 0.000000 0.500000 0.000000
#
# Coordination Sequence:
#
# PCOD9211784 Si02
#       7
#     4   8   8   4   8   4   8
#     4  10  25  44  68  93 134 176 224 280 348 414
#     4  10  22  41  69  99 136 178 225 282 337 413
#     4  11  25  42  68  95 136 180 231 283 348 415
#     4  12  24  44  69 100 135 180 233 281 348 406
#     4  12  24  43  66  98 136 180 228 284 343 404
#     4  12  29  41  65  97 139 179 233 293 332 406
#     4  10  21  40  66 100 135 178 225 277 341 403
#
# _framework density 21.527714
#
# number of rings (size 3 to 8) (size 9 to 14) (size 15 to 20)
#    0.000    1.091    1.818    3.818    7.636    2.182 
#    0.000    0.000    0.000    9.818    0.000    0.000 
#    0.000    0.000    0.000    0.000    0.000    0.000 
#
# Total GULP energy -122927.235770 kJ/mol
# GULP energy per Si atom -5587.601626 kJ/mol
# Density = 2.147872 g / cm^3
# Si number density = 21.527714 Si / 1000 Ang^3
#
#
#
# Elastic Constant Matrix: (Units=GPa)
#
#
# Indices 1 2 3 4 5 6 
#
# 1 93.1516 17.5301 40.0521 0.0005 -0.1217 0.0003
# 2 17.5301 78.3502 14.8033 -0.0005 15.1166 0.0002
# 3 40.0521 14.8033 132.5894 -0.0011 11.3859 0.0001
# 4 0.0005 -0.0005 -0.0011 18.8989 0.0003 -2.2277
# 5 -0.1217 15.1166 11.3859 0.0003 41.6980 0.0002
# 6 0.0003 0.0002 0.0001 -2.2277 0.0002 22.6194
#
#
#
# Elastic Compliance Matrix: (Units=1/GPa)
#
#
# Indices 1 2 3 4 5 6 
#
# 1 0.012835 -0.002544 -0.003764 -0.000001 0.001987 0.000000
# 2 -0.002544 0.014395 -0.000399 0.000001 -0.005117 0.000000
# 3 -0.003764 -0.000399 0.008921 0.000001 -0.002302 0.000000
# 4 -0.000001 0.000001 0.000001 0.053535 -0.000001 0.005272
# 5 0.001987 -0.005117 -0.002302 -0.000001 0.026471 0.000000
# 6 0.000000 0.000000 0.000000 0.005272 0.000000 0.044729
#
#
# Mechanical properties :
#
#
# Convention : Reuss Voigt Hill
#
# Bulk Modulus (GPa) = 43.98085 49.87361 46.92723
# Shear Modulus (GPa) = 27.49074 32.09031 29.79052
#
# Velocity S-wave (km/s) = 3.57738 3.86508 3.72401
# Velocity P-wave (km/s) = 6.12681 6.56780 6.35113
#
# Compressibility (1/GPa) = 0.02273717
#
# Stress axis : x y z
#
# Youngs Moduli (GPa) = 77.91309 69.46810 112.09137
#
# Poissons Ratio (x) = 0.17673 0.42188
# Poissons Ratio (y) = 0.19821 0.04476
# Poissons Ratio (z) = 0.29324 0.02774
#
# Static dielectric constant tensor:
#      x y z
#    x 1.854050 0.000000 -0.014220 
#    y 0.000000 1.778010 0.000000 
#    z -0.014220 0.000000 1.775390 
# 
# From -- ./inp_files/246987.got.cif
#   From: 2010.05.17/outbox.cif.g08.bks.cpg/sg12_124_cif.got.tgz:246987.got - 2010.06.03 13:09:07.
