data_PCOD9211732
_publ_section_title
;
Structure prediction by ZEFSAII (Michael W. Deem and Ramdas Pophale) SiO2 
 PCOD9211732
Probable space group: C 2/M
;
_chemical_formula_sum "Si O2"
_cell_formula_units_Z 50
_cell_length_a 10.056719
_cell_length_b 12.788122
_cell_length_c 25.676854
_cell_angle_alpha 90.000000
_cell_angle_beta 38.117633
_cell_angle_gamma 90.000000
_cell_volume 2038.382662
_symmetry_space_group_name_H-M "C 2/M"
_symmetry_group_IT_number 12
_symmetry_cell_setting 'monoclinic'
loop_
_space_group_symop_operation_xyz
x,y,z
-x,y,-z
-x,-y,-z
x,-y,z
1/2+x,1/2+y,z
1/2-x,1/2+y,-z
1/2-x,1/2-y,-z
1/2+x,1/2-y,z
loop_
_atom_site_type_symbol
_atom_site_label
_atom_site_fract_x
_atom_site_fract_y
_atom_site_fract_z
Si Si1 0.695201 0.157726 0.209949
Si Si2 0.070977 0.116767 0.239478
Si Si3 0.500000 0.000000 0.000000
Si Si4 0.594997 0.188898 0.417082
Si Si5 0.839705 0.155034 0.910365
Si Si6 0.671946 0.118799 0.599642
Si Si7 0.761728 0.385262 0.918916
O O1 0.687761 0.281516 0.226538
O O2 0.538836 0.108783 0.299622
O O3 0.629889 0.134753 0.171248
O O4 0.936667 0.118296 0.135941
O O5 0.131726 0.125912 0.159851
O O6 0.816393 0.135809 0.328560
O O7 0.128305 0.000000 0.239666
O O8 0.634012 0.909070 0.989668
O O9 0.500000 0.141243 0.500000
O O10 0.418125 0.174949 0.425505
O O11 0.673552 0.305220 0.412800
O O12 0.817676 0.276581 0.928170
O O13 0.750447 0.000000 0.564496
O O14 0.831791 0.500000 0.914008
O O15 0.500000 0.385654 0.000000
#
# Coordination Sequence:
#
# PCOD9211732 Si02
#       7
#     8   8   2   8   8   8   8
#     4  10  23  40  65  88 126 176 226 279 348 427
#     4  10  21  40  65  92 130 171 223 277 345 421
#     4  12  24  36  66  92 120 156 226 282 322 408
#     4  11  24  44  72 110 149 184 243 303 356 440
#     4  11  22  41  61  89 121 166 217 276 338 410
#     4  11  24  45  73 104 141 199 240 293 372 432
#     4  10  22  40  56  86 122 159 212 274 341 409
#
# _framework density 24.529250000000001
#
# number of rings (size 3 to 8) (size 9 to 14) (size 15 to 20)
#    0.000    1.440    3.200    1.440    2.240    2.880 
#    0.000    4.000    0.000    0.000    0.000    0.000 
#    0.000    0.000    0.000    0.000    0.000    0.000 
#
# Total GULP energy -139325.722750 kJ/mol
# GULP energy per Si atom -5573.028910 kJ/mol
# Density = 2.447342 g / cm^3
# Si number density = 24.529250 Si / 1000 Ang^3
#
#
#
# Elastic Constant Matrix: (Units=GPa)
#
#
# Indices 1 2 3 4 5 6 
#
# 1 56.0672 55.4880 32.9248 -0.0010 7.2656 -0.0001
# 2 55.4880 238.8068 35.3130 0.0005 -10.7687 -0.0003
# 3 32.9248 35.3130 105.9514 -0.0099 22.2905 0.0009
# 4 -0.0010 0.0005 -0.0099 -215.5279 0.0023 30.1216
# 5 7.2656 -10.7687 22.2905 0.0023 39.6246 -0.0001
# 6 -0.0001 -0.0003 0.0009 30.1216 -0.0001 3.7802
#
#
#
# Elastic Compliance Matrix: (Units=1/GPa)
#
#
# Indices 1 2 3 4 5 6 
#
# 1 0.027284 -0.005605 -0.005941 0.000000 -0.003184 0.000000
# 2 -0.005605 0.005748 -0.000815 0.000000 0.003048 0.000000
# 3 -0.005941 -0.000815 0.012900 -0.000001 -0.006389 0.000001
# 4 0.000000 0.000000 -0.000001 -0.002195 0.000000 0.017492
# 5 -0.003184 0.003048 -0.006389 0.000000 0.030243 -0.000001
# 6 0.000000 0.000000 0.000001 0.017492 -0.000001 0.125157
#
#
# Mechanical properties :
#
#
# Convention : Reuss Voigt Hill
#
# Bulk Modulus (GPa) = 47.14651 72.03077 59.58864
# Shear Modulus (GPa) = 21.65168 -15.95130 2.85019
#
# Velocity S-wave (km/s) = 2.97423 -2.55286 1.07911
# Velocity P-wave (km/s) = 5.57288 4.55407 5.08903
#
# Compressibility (1/GPa) = 0.02121048
#
# Stress axis : x y z
#
# Youngs Moduli (GPa) = 36.65197 173.98006 77.51734
#
# Poissons Ratio (x) = 0.97509 0.46050
# Poissons Ratio (y) = 0.20542 0.06321
# Poissons Ratio (z) = 0.21774 0.14186
#
# Static dielectric constant tensor:
#      x y z
#    x 1.982050 0.000000 0.010640 
#    y 0.000000 1.978860 0.000000 
#    z 0.010640 0.000000 1.994410 
# 
# From -- ./inp_files/373764.got.cif
#   From: 2010.05.17/outbox.cif.g08.bks.cpg/sg12_187_cif.got.tgz:373764.got - 2010.06.03 13:09:07.
