data_PCOD9211997
_publ_section_title
;
Structure prediction by ZEFSAII (Michael W. Deem and Ramdas Pophale) SiO2 
 PCOD9211997
Probable space group: C 2/M
;
_chemical_formula_sum "Si O2"
_cell_formula_units_Z 64
_cell_length_a 18.929755
_cell_length_b 14.370590
_cell_length_c 20.460530
_cell_angle_alpha 90.000000
_cell_angle_beta 34.082221
_cell_angle_gamma 90.000000
_cell_volume 3119.037977
_symmetry_space_group_name_H-M "C 2/M"
_symmetry_group_IT_number 12
_symmetry_cell_setting 'monoclinic'
loop_
_space_group_symop_operation_xyz
x,y,z
-x,y,-z
-x,-y,-z
x,-y,z
1/2+x,1/2+y,z
1/2-x,1/2+y,-z
1/2-x,1/2-y,-z
1/2+x,1/2-y,z
loop_
_atom_site_type_symbol
_atom_site_label
_atom_site_fract_x
_atom_site_fract_y
_atom_site_fract_z
Si Si1 0.702697 0.890767 0.499265
Si Si2 0.240176 0.730685 0.844503
Si Si3 0.004246 0.734100 0.573156
Si Si4 0.312141 0.393777 0.021018
Si Si5 0.614574 0.802030 0.811552
Si Si6 0.654044 0.889040 0.018434
Si Si7 0.405151 0.394971 0.234046
Si Si8 0.200103 0.110186 0.433903
O O1 0.594635 0.834070 0.545101
O O2 0.831501 0.882602 0.358461
O O3 0.730147 0.860328 0.552267
O O4 0.668446 0.000000 0.527042
O O5 0.367781 0.758119 0.709979
O O6 0.185606 0.822242 0.921520
O O7 0.145877 0.688679 0.863329
O O8 0.253370 0.654798 0.891620
O O9 0.070589 0.834561 0.526582
O O10 0.000000 0.706146 0.500000
O O11 0.295372 0.500000 0.056376
O O12 0.200994 0.369432 0.055812
O O13 0.443427 0.390477 0.880601
O O14 0.632456 0.692677 0.781265
O O15 0.713702 0.859168 0.692454
O O16 0.477477 0.838637 0.896311
O O17 0.643187 0.000000 0.019481
O O18 0.372721 0.500000 0.234852
O O19 0.182449 0.000000 0.449588
#
# Coordination Sequence:
#
# PCOD9211997 Si02
#       8
#     8   8   8   8   8   8   8   8
#     4  10  23  42  70 100 129 174 221 269 329 391
#     4  12  26  42  67  97 131 176 219 266 335 387
#     4  12  25  45  65  98 134 173 219 273 333 386
#     4  10  24  44  68 101 132 166 217 276 333 388
#     4  12  24  44  67  95 134 175 219 271 324 391
#     4  11  26  44  67  98 132 174 222 272 324 386
#     4  10  21  40  69  99 131 166 213 272 330 386
#     4  11  25  43  66  97 131 175 223 268 323 389
#
# _framework density 20.519147
#
# number of rings (size 3 to 8) (size 9 to 14) (size 15 to 20)
#    0.000    1.000    3.750    1.500    3.500    3.500 
#    0.000    1.250    0.000    0.000    0.000    0.000 
#    0.000    0.000    0.000    0.000    0.000    0.000 
#
# Total GULP energy -178885.162259 kJ/mol
# GULP energy per Si atom -5590.161321 kJ/mol
# Density = 2.047244 g / cm^3
# Si number density = 20.519147 Si / 1000 Ang^3
#
#
#
# Elastic Constant Matrix: (Units=GPa)
#
#
# Indices 1 2 3 4 5 6 
#
# 1 62.9644 14.3788 10.9090 0.0000 5.9998 0.0001
# 2 14.3788 68.1394 8.9530 -0.0001 8.7395 0.0000
# 3 10.9090 8.9530 80.5038 0.0000 -6.9307 0.0002
# 4 0.0000 -0.0001 0.0000 2.7678 0.0001 -22.4785
# 5 5.9998 8.7395 -6.9307 0.0001 30.0084 -0.0001
# 6 0.0001 0.0000 0.0002 -22.4785 -0.0001 -9.3544
#
#
#
# Elastic Compliance Matrix: (Units=1/GPa)
#
#
# Indices 1 2 3 4 5 6 
#
# 1 0.017245 -0.002940 -0.002278 0.000000 -0.003118 0.000000
# 2 -0.002940 0.016109 -0.001782 0.000000 -0.004515 0.000000
# 3 -0.002278 -0.001782 0.013277 0.000000 0.004041 0.000000
# 4 0.000000 0.000000 0.000000 0.017611 0.000000 -0.042318
# 5 -0.003118 -0.004515 0.004041 0.000000 0.036196 0.000000
# 6 0.000000 0.000000 0.000000 -0.042318 0.000000 -0.005211
#
#
# Mechanical properties :
#
#
# Convention : Reuss Voigt Hill
#
# Bulk Modulus (GPa) = 30.64575 31.12102 30.88339
# Shear Modulus (GPa) = 41.63056 16.50882 29.06969
#
# Velocity S-wave (km/s) = 4.50918 2.83955 3.76800
# Velocity P-wave (km/s) = 6.48675 5.09416 5.83217
#
# Compressibility (1/GPa) = 0.03263095
#
# Stress axis : x y z
#
# Youngs Moduli (GPa) = 57.98716 62.07541 75.32062
#
# Poissons Ratio (x) = 0.18249 0.17161
# Poissons Ratio (y) = 0.17047 0.13422
# Poissons Ratio (z) = 0.13212 0.11061
#
# Static dielectric constant tensor:
#      x y z
#    x 1.718210 0.000000 -0.003200 
#    y 0.000000 1.727300 0.000000 
#    z -0.003200 0.000000 1.727880 
# 
# From -- ./inp_files/278131.got.cif
#   From: 2010.05.17/outbox.cif.g08.bks.cpg/sg12_140_cif.got.tgz:278131.got - 2010.06.03 13:09:07.
