data_PCOD9211519
_publ_section_title
;
Structure prediction by ZEFSAII (Michael W. Deem and Ramdas Pophale) SiO2 
 PCOD9211519
Probable space group: C 2/M
;
_chemical_formula_sum "Si O2"
_cell_formula_units_Z 58
_cell_length_a 24.632035
_cell_length_b 7.747320
_cell_length_c 22.173236
_cell_angle_alpha 90.000000
_cell_angle_beta 38.455491
_cell_angle_gamma 90.000000
_cell_volume 2631.515671
_symmetry_space_group_name_H-M "C 2/M"
_symmetry_group_IT_number 12
_symmetry_cell_setting 'monoclinic'
loop_
_space_group_symop_operation_xyz
x,y,z
-x,y,-z
-x,-y,-z
x,-y,z
1/2+x,1/2+y,z
1/2-x,1/2+y,-z
1/2-x,1/2-y,-z
1/2+x,1/2-y,z
loop_
_atom_site_type_symbol
_atom_site_label
_atom_site_fract_x
_atom_site_fract_y
_atom_site_fract_z
Si Si1 0.706395 0.207285 0.974068
Si Si2 0.476106 0.209266 0.328598
Si Si3 0.347848 0.802985 0.755957
Si Si4 0.500000 0.000000 0.500000
Si Si5 0.561629 0.303326 0.894640
Si Si6 0.751392 0.305341 0.269688
Si Si7 0.394946 0.702686 0.517142
Si Si8 0.988737 0.297151 0.834880
O O1 0.764811 0.292647 0.871896
O O2 0.708265 0.000000 0.962162
O O3 0.750000 0.250000 0.000000
O O4 0.606905 0.270968 0.063584
O O5 0.569240 0.258336 0.278129
O O6 0.405039 0.279945 0.436592
O O7 0.476693 0.271863 0.259025
O O8 0.470986 0.000000 0.333253
O O9 0.322050 0.705030 0.718140
O O10 0.365575 0.000000 0.720869
O O11 0.542244 0.154746 0.507108
O O12 0.532105 0.500000 0.913140
O O13 0.663351 0.299417 0.822733
O O14 0.550093 0.222044 0.838974
O O15 0.500000 0.223090 0.000000
O O16 0.783081 0.500000 0.247330
O O17 0.701433 0.254645 0.373722
O O18 0.412477 0.500000 0.518151
O O19 0.973802 0.500000 0.836852
#
# Coordination Sequence:
#
# PCOD9211519 Si02
#       8
#     8   8   8   2   8   8   8   8
#     4  11  21  36  56  85 124 165 205 257 318 384
#     4  10  21  40  63  91 131 176 214 264 335 393
#     4  11  22  36  59  90 127 167 209 259 320 392
#     4  12  22  40  68  94 138 188 208 284 340 380
#     4  11  25  44  68  97 127 168 221 276 332 396
#     4  11  25  43  64  94 128 169 222 272 324 394
#     4  11  25  41  64  98 133 177 232 273 330 406
#     4  10  22  41  64  91 126 170 219 267 330 399
#
# _framework density 22.04053
#
# number of rings (size 3 to 8) (size 9 to 14) (size 15 to 20)
#    0.000    1.241    2.069    3.517    3.862    7.172 
#    0.000    0.690    0.000    0.000    0.000    0.000 
#    0.000    0.000    0.000    0.000    0.000    0.000 
#
# Total GULP energy -161813.375326 kJ/mol
# GULP energy per Si atom -5579.771563 kJ/mol
# Density = 2.199036 g / cm^3
# Si number density = 22.040530 Si / 1000 Ang^3
#
#
#
# Elastic Constant Matrix: (Units=GPa)
#
#
# Indices 1 2 3 4 5 6 
#
# 1 73.2652 5.8681 31.4085 -0.0034 14.7526 0.0016
# 2 5.8681 65.5586 20.0406 -0.0103 -9.9478 0.0110
# 3 31.4085 20.0406 138.6900 -0.0055 24.2811 0.0093
# 4 -0.0034 -0.0103 -0.0055 26.8900 0.0056 3.3604
# 5 14.7526 -9.9478 24.2811 0.0056 17.8743 -0.0065
# 6 0.0016 0.0110 0.0093 3.3604 -0.0065 22.7518
#
#
#
# Elastic Compliance Matrix: (Units=1/GPa)
#
#
# Indices 1 2 3 4 5 6 
#
# 1 0.017347 -0.003679 -0.000698 0.000004 -0.015417 -0.000004
# 2 -0.003679 0.021035 -0.006281 0.000002 0.023276 -0.000001
# 3 -0.000698 -0.006281 0.011529 0.000005 -0.018581 -0.000008
# 4 0.000004 0.000002 0.000005 0.037888 -0.000023 -0.005596
# 5 -0.015417 0.023276 -0.018581 -0.000023 0.106866 0.000031
# 6 -0.000004 -0.000001 -0.000008 -0.005596 0.000031 0.044779
#
#
# Mechanical properties :
#
#
# Convention : Reuss Voigt Hill
#
# Bulk Modulus (GPa) = 34.97094 43.57201 39.27148
# Shear Modulus (GPa) = 18.49854 28.18301 23.34078
#
# Velocity S-wave (km/s) = 2.90020 3.57976 3.25775
# Velocity P-wave (km/s) = 5.20730 6.07439 5.65748
#
# Compressibility (1/GPa) = 0.02859517
#
# Stress axis : x y z
#
# Youngs Moduli (GPa) = 57.64621 47.54030 86.73660
#
# Poissons Ratio (x) = 0.17489 0.06053
# Poissons Ratio (y) = 0.21206 0.54483
# Poissons Ratio (z) = 0.04023 0.29862
#
# Static dielectric constant tensor:
#      x y z
#    x 1.793930 0.000000 0.004560 
#    y 0.000000 1.807360 0.000000 
#    z 0.004560 0.000000 1.868540 
# 
# From -- ./inp_files/324600.got.cif
#   From: 2010.05.17/outbox.cif.g08.bks.cpg/sg12_163_cif.got.tgz:324600.got - 2010.06.03 13:09:07.
