data_PCOD9211763
_publ_section_title
;
Structure prediction by ZEFSAII (Michael W. Deem and Ramdas Pophale) SiO2 
 PCOD9211763
Probable space group: C 2/M
;
_chemical_formula_sum "Si O2"
_cell_formula_units_Z 56
_cell_length_a 17.654791
_cell_length_b 14.267374
_cell_length_c 17.153215
_cell_angle_alpha 90.000000
_cell_angle_beta 39.359673
_cell_angle_gamma 90.000000
_cell_volume 2740.117171
_symmetry_space_group_name_H-M "C 2/M"
_symmetry_group_IT_number 12
_symmetry_cell_setting 'monoclinic'
loop_
_space_group_symop_operation_xyz
x,y,z
-x,y,-z
-x,-y,-z
x,-y,z
1/2+x,1/2+y,z
1/2-x,1/2+y,-z
1/2-x,1/2-y,-z
1/2+x,1/2-y,z
loop_
_atom_site_type_symbol
_atom_site_label
_atom_site_fract_x
_atom_site_fract_y
_atom_site_fract_z
Si Si1 0.465997 0.894874 0.252193
Si Si2 0.520386 0.711276 0.564933
Si Si3 0.024161 0.110720 0.725611
Si Si4 0.606858 0.899398 0.303950
Si Si5 0.135721 0.167389 0.882490
Si Si6 0.128156 0.254797 0.049753
Si Si7 0.206138 0.770863 0.652188
O O1 0.539049 0.894920 0.275013
O O2 0.561833 0.852392 0.116432
O O3 0.360476 0.819300 0.331638
O O4 0.426026 0.000000 0.267414
O O5 0.500000 0.656978 0.500000
O O6 0.496277 0.652083 0.662161
O O7 0.434077 0.801590 0.627098
O O8 0.654467 0.751127 0.463196
O O9 0.159905 0.139561 0.640192
O O10 0.948349 0.170636 0.849133
O O11 0.004957 0.000000 0.745841
O O12 0.750647 0.897377 0.188498
O O13 0.572294 0.000000 0.367026
O O14 0.161482 0.210465 0.776618
O O15 0.142689 0.241720 0.946786
O O16 0.000000 0.128049 0.000000
O O17 0.250000 0.250000 0.000000
#
# Coordination Sequence:
#
# PCOD9211763 Si02
#       7
#     8   8   8   8   8   8   8
#     4  10  21  40  65  95 127 171 223 264 320 393
#     4  12  24  46  70  92 135 173 224 280 331 391
#     4  11  25  43  65  97 131 174 222 269 335 401
#     4  11  24  42  67  98 128 173 222 270 329 396
#     4  12  22  41  66  98 137 174 215 270 338 395
#     4  11  21  41  67  91 133 177 222 269 328 390
#     4  11  24  43  68  96 133 177 214 276 340 391
#
# _framework density 20.437082
#
# number of rings (size 3 to 8) (size 9 to 14) (size 15 to 20)
#    0.000    0.857    8.571    0.429    0.000    3.714 
#    0.000    1.429    0.000    0.000    0.000    0.000 
#    0.000    0.000    0.000    0.000    0.000    0.000 
#
# Total GULP energy -156166.764279 kJ/mol
# GULP energy per Si atom -5577.384439 kJ/mol
# Density = 2.039057 g / cm^3
# Si number density = 20.437082 Si / 1000 Ang^3
#
#
#
# Elastic Constant Matrix: (Units=GPa)
#
#
# Indices 1 2 3 4 5 6 
#
# 1 101.4031 22.9762 28.2483 0.0000 -2.7948 0.0000
# 2 22.9762 111.1648 22.8740 0.0000 1.7862 0.0000
# 3 28.2483 22.8740 73.6339 0.0000 -2.6993 0.0000
# 4 0.0000 0.0000 0.0000 -4.1532 0.0000 -0.4716
# 5 -2.7948 1.7862 -2.6993 0.0000 59.8339 0.0000
# 6 0.0000 0.0000 0.0000 -0.4716 0.0000 -9.4181
#
#
#
# Elastic Compliance Matrix: (Units=1/GPa)
#
#
# Indices 1 2 3 4 5 6 
#
# 1 0.011293 -0.001551 -0.003836 0.000000 0.000401 0.000000
# 2 -0.001551 0.009834 -0.002477 0.000000 -0.000478 0.000000
# 3 -0.003836 -0.002477 0.015844 0.000000 0.000610 0.000000
# 4 0.000000 0.000000 0.000000 -0.242154 0.000000 0.012125
# 5 0.000401 -0.000478 0.000610 0.000000 0.016773 0.000000
# 6 0.000000 0.000000 0.000000 0.012125 0.000000 -0.106786
#
#
# Mechanical properties :
#
#
# Convention : Reuss Voigt Hill
#
# Bulk Modulus (GPa) = 47.07601 48.26654 47.67127
# Shear Modulus (GPa) = -18.35626 23.39275 2.51824
#
# Velocity S-wave (km/s) = -3.00022 3.38690 1.11125
# Velocity P-wave (km/s) = 3.32909 6.24205 5.00230
#
# Compressibility (1/GPa) = 0.02124224
#
# Stress axis : x y z
#
# Youngs Moduli (GPa) = 88.55300 101.69146 63.11516
#
# Poissons Ratio (x) = 0.15775 0.24209
# Poissons Ratio (y) = 0.13737 0.15635
# Poissons Ratio (z) = 0.33966 0.25191
#
# Static dielectric constant tensor:
#      x y z
#    x 1.844580 0.000000 0.010320 
#    y 0.000000 1.721180 0.000000 
#    z 0.010320 0.000000 1.789310 
# 
# From -- ./inp_files/277836.got.cif
#   From: 2010.05.17/outbox.cif.g08.bks.cpg/sg12_139_cif.got.tgz:277836.got - 2010.06.03 13:09:07.
