data_PCOD9211399
_publ_section_title
;
Structure prediction by ZEFSAII (Michael W. Deem and Ramdas Pophale) SiO2 
 PCOD9211399
Probable space group: C 2/M
;
_chemical_formula_sum "Si O2"
_cell_formula_units_Z 56
_cell_length_a 27.941372
_cell_length_b 8.907511
_cell_length_c 17.604928
_cell_angle_alpha 90.000000
_cell_angle_beta 39.073024
_cell_angle_gamma 90.000000
_cell_volume 2761.803610
_symmetry_space_group_name_H-M "C 2/M"
_symmetry_group_IT_number 12
_symmetry_cell_setting 'monoclinic'
loop_
_space_group_symop_operation_xyz
x,y,z
-x,y,-z
-x,-y,-z
x,-y,z
1/2+x,1/2+y,z
1/2-x,1/2+y,-z
1/2-x,1/2-y,-z
1/2+x,1/2-y,z
loop_
_atom_site_type_symbol
_atom_site_label
_atom_site_fract_x
_atom_site_fract_y
_atom_site_fract_z
Si Si1 0.324572 0.170819 0.940025
Si Si2 0.167313 0.818724 0.624356
Si Si3 0.341049 0.179742 0.666123
Si Si4 0.453130 0.172366 0.654867
Si Si5 0.097950 0.822427 0.549689
Si Si6 0.088629 0.319693 0.872171
Si Si7 0.827949 0.179293 0.086825
O O1 0.358320 0.260237 0.969683
O O2 0.307271 0.000000 0.984679
O O3 0.250000 0.250000 0.000000
O O4 0.384212 0.166407 0.798761
O O5 0.250000 0.750000 0.500000
O O6 0.114044 0.784012 0.617084
O O7 0.126971 0.752622 0.749519
O O8 0.174568 0.000000 0.623089
O O9 0.413952 0.230163 0.625606
O O10 0.342055 0.245352 0.580727
O O11 0.261734 0.217539 0.803042
O O12 0.344961 0.000000 0.658437
O O13 0.518351 0.266430 0.614480
O O14 0.480157 0.000000 0.610600
O O15 0.104293 0.000000 0.534341
O O16 0.094093 0.500000 0.858876
O O17 0.134502 0.259262 0.888114
O O18 0.000000 0.282201 0.000000
O O19 0.836396 0.000000 0.082411
#
# Coordination Sequence:
#
# PCOD9211399 Si02
#       7
#     8   8   8   8   8   8   8
#     4  11  22  39  62  92 128 168 213 258 310 374
#     4  11  25  46  70  97 130 171 221 277 333 397
#     4  10  21  40  62  89 124 167 209 249 306 378
#     4  10  22  40  60  86 125 168 209 249 306 378
#     4  11  25  40  60  94 126 157 205 262 317 369
#     4  11  26  46  68  98 133 171 219 276 336 398
#     4  11  23  41  66  94 127 167 212 261 319 382
#
# _framework density 20.276605
#
# number of rings (size 3 to 8) (size 9 to 14) (size 15 to 20)
#    0.000    1.286    1.429    3.429    2.000   10.286 
#    0.000    0.000    0.000    0.000    0.000    0.000 
#    0.000    0.000    0.000    0.000    0.000    0.000 
#
# Total GULP energy -156456.803010 kJ/mol
# GULP energy per Si atom -5587.742965 kJ/mol
# Density = 2.023045 g / cm^3
# Si number density = 20.276605 Si / 1000 Ang^3
#
#
#
# Elastic Constant Matrix: (Units=GPa)
#
#
# Indices 1 2 3 4 5 6 
#
# 1 145.8068 45.8809 48.2455 0.0040 19.0114 -0.0020
# 2 45.8809 52.4129 35.8894 0.0046 0.3404 -0.0029
# 3 48.2455 35.8894 104.6816 0.0027 12.5221 -0.0031
# 4 0.0040 0.0046 0.0027 32.1437 -0.0036 5.0195
# 5 19.0114 0.3404 12.5221 -0.0036 38.9776 0.0020
# 6 -0.0020 -0.0029 -0.0031 5.0195 0.0020 33.5322
#
#
#
# Elastic Compliance Matrix: (Units=1/GPa)
#
#
# Indices 1 2 3 4 5 6 
#
# 1 0.010516 -0.008144 -0.001508 -0.000001 -0.004574 0.000000
# 2 -0.008144 0.031500 -0.007788 -0.000002 0.006199 0.000001
# 3 -0.001508 -0.007788 0.013334 0.000000 -0.003480 0.000001
# 4 -0.000001 -0.000002 0.000000 0.031855 0.000004 -0.004768
# 5 -0.004574 0.006199 -0.003480 0.000004 0.028951 -0.000002
# 6 0.000000 0.000001 0.000001 -0.004768 -0.000002 0.030536
#
#
# Mechanical properties :
#
#
# Convention : Reuss Voigt Hill
#
# Bulk Modulus (GPa) = 48.84663 62.54810 55.69737
# Shear Modulus (GPa) = 26.54008 32.45640 29.49824
#
# Velocity S-wave (km/s) = 3.62180 4.00519 3.81831
# Velocity P-wave (km/s) = 6.45231 7.23209 6.85330
#
# Compressibility (1/GPa) = 0.02047224
#
# Stress axis : x y z
#
# Youngs Moduli (GPa) = 95.09222 31.74558 74.99624
#
# Poissons Ratio (x) = 0.25852 0.11306
# Poissons Ratio (y) = 0.77438 0.58408
# Poissons Ratio (z) = 0.14336 0.24724
#
# Static dielectric constant tensor:
#      x y z
#    x 1.701420 0.000000 -0.011640 
#    y 0.000000 1.673030 0.000000 
#    z -0.011640 0.000000 1.734150 
# 
# From -- ./inp_files/292455.got.cif
#   From: 2010.05.17/outbox.cif.g08.bks.cpg/sg12_147_cif.got.tgz:292455.got - 2010.06.03 13:09:07.
