data_PCOD9211392
_publ_section_title
;
Structure prediction by ZEFSAII (Michael W. Deem and Ramdas Pophale) SiO2 
 PCOD9211392
Probable space group: C 2/M
;
_chemical_formula_sum "Si O2"
_cell_formula_units_Z 56
_cell_length_a 18.756259
_cell_length_b 9.068992
_cell_length_c 18.333110
_cell_angle_alpha 90.000000
_cell_angle_beta 68.031569
_cell_angle_gamma 90.000000
_cell_volume 2892.037014
_symmetry_space_group_name_H-M "C 2/M"
_symmetry_group_IT_number 12
_symmetry_cell_setting 'monoclinic'
loop_
_space_group_symop_operation_xyz
x,y,z
-x,y,-z
-x,-y,-z
x,-y,z
1/2+x,1/2+y,z
1/2-x,1/2+y,-z
1/2-x,1/2-y,-z
1/2+x,1/2-y,z
loop_
_atom_site_type_symbol
_atom_site_label
_atom_site_fract_x
_atom_site_fract_y
_atom_site_fract_z
Si Si1 0.460939 0.334279 0.435837
Si Si2 0.279824 0.176273 0.706549
Si Si3 0.630803 0.675998 0.850454
Si Si4 0.028024 0.674163 0.135078
Si Si5 0.584500 0.325332 0.261333
Si Si6 0.310653 0.174100 0.528855
Si Si7 0.818311 0.325151 0.019984
O O1 0.500000 0.335237 0.500000
O O2 0.429386 0.500000 0.434487
O O3 0.523554 0.303662 0.350146
O O4 0.393511 0.217501 0.466457
O O5 0.191167 0.202122 0.761540
O O6 0.335526 0.257263 0.741925
O O7 0.300332 0.225081 0.616690
O O8 0.293556 0.000000 0.706779
O O9 0.622459 0.500000 0.863070
O O10 0.548449 0.748299 0.866152
O O11 0.669243 0.746663 0.907356
O O12 0.013278 0.500000 0.149357
O O13 0.052824 0.746274 0.201850
O O14 0.100902 0.691180 0.053655
O O15 0.592511 0.500000 0.245355
O O16 0.250000 0.250000 0.500000
O O17 0.299471 0.000000 0.533028
O O18 0.802826 0.500000 0.034608
O O19 0.750000 0.250000 0.000000
#
# Coordination Sequence:
#
# PCOD9211392 Si02
#       7
#     8   8   8   8   8   8   8
#     4  10  21  40  62  88 122 159 203 257 310 362
#     4  10  23  42  61  87 124 161 201 254 309 361
#     4  11  24  42  65  93 126 164 205 252 305 362
#     4  11  25  43  63  92 129 163 200 251 306 362
#     4  11  23  39  64  92 121 160 207 255 304 365
#     4  11  24  40  61  88 122 163 207 256 309 367
#     4  11  24  43  67  95 127 163 203 250 303 362
#
# _framework density 19.363515
#
# number of rings (size 3 to 8) (size 9 to 14) (size 15 to 20)
#    0.000    1.286    1.429    3.429    2.000   10.571 
#    0.000    0.000    0.000    0.000    0.000    0.000 
#    0.000    0.000    0.000    0.000    0.000    0.000 
#
# Total GULP energy -156561.676993 kJ/mol
# GULP energy per Si atom -5591.488464 kJ/mol
# Density = 1.931944 g / cm^3
# Si number density = 19.363515 Si / 1000 Ang^3
#
#
#
# Elastic Constant Matrix: (Units=GPa)
#
#
# Indices 1 2 3 4 5 6 
#
# 1 125.6956 61.6783 17.6827 0.0000 0.9126 0.0000
# 2 61.6783 90.3708 39.2949 0.0000 -8.5955 -0.0001
# 3 17.6827 39.2949 60.6923 0.0000 -2.4682 0.0000
# 4 0.0000 0.0000 0.0000 32.6784 0.0000 1.2434
# 5 0.9126 -8.5955 -2.4682 0.0000 28.1104 0.0000
# 6 0.0000 -0.0001 0.0000 1.2434 0.0000 43.1439
#
#
#
# Elastic Compliance Matrix: (Units=1/GPa)
#
#
# Indices 1 2 3 4 5 6 
#
# 1 0.012521 -0.010035 0.002718 0.000000 -0.003236 0.000000
# 2 -0.010035 0.023870 -0.012265 0.000000 0.006548 0.000000
# 3 0.002718 -0.012265 0.023553 0.000000 -0.001770 0.000000
# 4 0.000000 0.000000 0.000000 0.030635 0.000000 -0.000883
# 5 -0.003236 0.006548 -0.001770 0.000000 0.037526 0.000000
# 6 0.000000 0.000000 0.000000 -0.000883 0.000000 0.023204
#
#
# Mechanical properties :
#
#
# Convention : Reuss Voigt Hill
#
# Bulk Modulus (GPa) = 48.12235 57.11896 52.62065
# Shear Modulus (GPa) = 25.32923 31.32673 28.32798
#
# Velocity S-wave (km/s) = 3.62068 4.02658 3.82901
# Velocity P-wave (km/s) = 6.51038 7.15402 6.83978
#
# Compressibility (1/GPa) = 0.02078036
#
# Stress axis : x y z
#
# Youngs Moduli (GPa) = 79.86490 41.89321 42.45667
#
# Poissons Ratio (x) = 0.42041 -0.11538
# Poissons Ratio (y) = 0.80146 0.52071
# Poissons Ratio (z) = -0.21704 0.51380
#
# Static dielectric constant tensor:
#      x y z
#    x 1.564130 0.000000 0.019650 
#    y 0.000000 1.655720 0.000000 
#    z 0.019650 0.000000 1.652930 
# 
# From -- ./inp_files/275170.got.cif
#   From: 2010.05.17/outbox.cif.g08.bks.cpg/sg12_138_cif.got.tgz:275170.got - 2010.06.03 13:09:07.
