data_PCOD9211369
_publ_section_title
;
Structure prediction by ZEFSAII (Michael W. Deem and Ramdas Pophale) SiO2 
 PCOD9211369
Probable space group: C 2/M
;
_chemical_formula_sum "Si O2"
_cell_formula_units_Z 40
_cell_length_a 13.270228
_cell_length_b 15.036929
_cell_length_c 10.025175
_cell_angle_alpha 90.000000
_cell_angle_beta 97.549821
_cell_angle_gamma 90.000000
_cell_volume 1983.116274
_symmetry_space_group_name_H-M "C 2/M"
_symmetry_group_IT_number 12
_symmetry_cell_setting 'monoclinic'
loop_
_space_group_symop_operation_xyz
x,y,z
-x,y,-z
-x,-y,-z
x,-y,z
1/2+x,1/2+y,z
1/2-x,1/2+y,-z
1/2-x,1/2-y,-z
1/2+x,1/2-y,z
loop_
_atom_site_type_symbol
_atom_site_label
_atom_site_fract_x
_atom_site_fract_y
_atom_site_fract_z
Si Si1 0.885012 0.668420 0.528397
Si Si2 0.429106 0.500000 0.615966
Si Si3 0.226751 0.146528 0.028275
Si Si4 0.310287 0.330712 0.672774
Si Si5 0.380797 0.000000 0.983497
Si Si6 0.699516 0.000000 0.329962
Si Si7 0.619177 0.500000 0.825764
O O1 0.806047 0.686983 0.393640
O O2 0.875619 0.747993 0.632619
O O3 0.839090 0.583903 0.595239
O O4 0.000000 0.656110 0.500000
O O5 0.500000 0.500000 0.500000
O O6 0.356995 0.415135 0.607380
O O7 0.502985 0.500000 0.759096
O O8 0.329434 0.086894 0.040598
O O9 0.153588 0.088062 0.916590
O O10 0.250000 0.250000 0.000000
O O11 0.184790 0.149409 0.170408
O O12 0.351156 0.000000 0.823866
O O13 0.500000 0.000000 0.000000
O O14 0.815929 0.000000 0.300938
#
# Coordination Sequence:
#
# PCOD9211369 Si02
#       7
#     8   4   8   8   4   4   4
#     4  11  24  40  63  94 127 169 214 265 319 389
#     4  12  24  42  68  91 127 173 211 268 329 376
#     4  10  22  43  66  90 135 169 205 273 326 380
#     4  11  24  41  62  95 128 162 221 263 314 393
#     4  10  23  39  63  98 124 161 220 260 313 401
#     4  10  21  40  62  85 129 157 206 260 320 370
#     4  10  23  43  64 100 126 165 223 268 321 399
#
# _framework density 20.170276000000001
#
# number of rings (size 3 to 8) (size 9 to 14) (size 15 to 20)
#    0.000    1.600    0.000    6.300    2.800    6.400 
#    3.600    0.000    0.000    0.000    0.000    0.000 
#    0.000    0.000    0.000    0.000    0.000    0.000 
#
# Total GULP energy -111655.534260 kJ/mol
# GULP energy per Si atom -5582.776713 kJ/mol
# Density = 2.012437 g / cm^3
# Si number density = 20.170276 Si / 1000 Ang^3
#
#
#
# Elastic Constant Matrix: (Units=GPa)
#
#
# Indices 1 2 3 4 5 6 
#
# 1 119.4792 33.4402 40.9507 0.0000 -3.8134 0.0000
# 2 33.4402 171.6886 41.9526 0.0000 -20.8476 0.0000
# 3 40.9507 41.9526 110.5636 0.0000 -24.3829 0.0000
# 4 0.0000 0.0000 0.0000 42.5950 0.0000 -11.3506
# 5 -3.8134 -20.8476 -24.3829 0.0000 32.0081 0.0000
# 6 0.0000 0.0000 0.0000 -11.3506 0.0000 16.3110
#
#
#
# Elastic Compliance Matrix: (Units=1/GPa)
#
#
# Indices 1 2 3 4 5 6 
#
# 1 0.009941 -0.001331 -0.003735 0.000000 -0.002527 0.000000
# 2 -0.001331 0.006813 -0.001381 0.000000 0.003227 0.000000
# 3 -0.003735 -0.001381 0.012807 0.000000 0.008412 0.000000
# 4 0.000000 0.000000 0.000000 0.028822 0.000000 0.020056
# 5 -0.002527 0.003227 0.008412 0.000000 0.039451 0.000000
# 6 0.000000 0.000000 0.000000 0.020056 0.000000 0.075265
#
#
# Mechanical properties :
#
#
# Convention : Reuss Voigt Hill
#
# Bulk Modulus (GPa) = 59.98980 70.49094 65.24037
# Shear Modulus (GPa) = 26.10334 37.20870 31.65602
#
# Velocity S-wave (km/s) = 3.60133 4.29969 3.96591
# Velocity P-wave (km/s) = 6.86287 7.72487 7.30659
#
# Compressibility (1/GPa) = 0.01666950
#
# Stress axis : x y z
#
# Youngs Moduli (GPa) = 100.58938 146.78085 78.08439
#
# Poissons Ratio (x) = 0.19531 0.29161
# Poissons Ratio (y) = 0.13385 0.10780
# Poissons Ratio (z) = 0.37565 0.20264
#
# Static dielectric constant tensor:
#      x y z
#    x 1.731780 0.000000 0.033680 
#    y 0.000000 1.552070 0.000000 
#    z 0.033680 0.000000 1.715090 
# 
# From -- ./inp_files/59171.got.cif
#   From: 2010.05.17/outbox.cif.g08.bks.cpg/sg12_30_cif.got.tgz:59171.got - 2010.06.03 13:09:07.
