data_PCOD9211995
_publ_section_title
;
Structure prediction by ZEFSAII (Michael W. Deem and Ramdas Pophale) SiO2 
 PCOD9211995
Probable space group: C 2/M
;
_chemical_formula_sum "Si O2"
_cell_formula_units_Z 36
_cell_length_a 12.385333
_cell_length_b 16.465364
_cell_length_c 9.047759
_cell_angle_alpha 90.000000
_cell_angle_beta 127.265458
_cell_angle_gamma 90.000000
_cell_volume 1468.402399
_symmetry_space_group_name_H-M "C 2/M"
_symmetry_group_IT_number 12
_symmetry_cell_setting 'monoclinic'
loop_
_space_group_symop_operation_xyz
x,y,z
-x,y,-z
-x,-y,-z
x,-y,z
1/2+x,1/2+y,z
1/2-x,1/2+y,-z
1/2-x,1/2-y,-z
1/2+x,1/2-y,z
loop_
_atom_site_type_symbol
_atom_site_label
_atom_site_fract_x
_atom_site_fract_y
_atom_site_fract_z
Si Si1 0.628572 0.089623 0.495352
Si Si2 0.125590 0.905338 0.806201
Si Si3 0.766150 0.811982 0.817533
Si Si4 0.000000 0.208481 0.500000
Si Si5 0.870352 0.355607 0.818844
O O1 0.500000 0.086258 0.500000
O O2 0.760137 0.115032 0.696611
O O3 0.611848 0.147142 0.341463
O O4 0.642331 0.000000 0.442597
O O5 0.997862 0.853642 0.638262
O O6 0.235025 0.899617 0.763064
O O7 0.100110 0.000000 0.820314
O O8 0.199721 0.854531 0.999074
O O9 0.623205 0.766885 0.654148
O O10 0.861933 0.736309 0.870913
O O11 0.000000 0.396478 0.000000
#
# Coordination Sequence:
#
# PCOD9211995 Si02
#       5
#     8   8   8   4   8
#     4  11  23  40  64  96 134 171 219 282 339 388
#     4  11  24  44  71 102 138 176 225 282 337 402
#     4  11  23  42  69  96 138 178 225 273 335 413
#     4  10  21  40  69  98 134 180 224 268 337 406
#     4  11  24  40  66  97 135 178 226 271 333 407
#
# _framework density 24.516442000000001
#
# number of rings (size 3 to 8) (size 9 to 14) (size 15 to 20)
#    0.000    1.111    1.111    6.333    3.111    3.556 
#    0.000    0.000    0.000    1.333    0.000    0.000 
#    0.000    0.000    0.000    0.000    0.000    0.000 
#
# Total GULP energy -100407.157140 kJ/mol
# GULP energy per Si atom -5578.175397 kJ/mol
# Density = 2.446064 g / cm^3
# Si number density = 24.516442 Si / 1000 Ang^3
#
#
#
# Elastic Constant Matrix: (Units=GPa)
#
#
# Indices 1 2 3 4 5 6 
#
# 1 53.7334 21.5405 37.7834 0.0000 -14.1481 0.0000
# 2 21.5405 160.6813 44.2758 0.0000 1.2021 0.0000
# 3 37.7834 44.2758 197.5366 0.0000 -8.9602 0.0000
# 4 0.0000 0.0000 0.0000 10.2300 0.0000 -9.1097
# 5 -14.1481 1.2021 -8.9602 0.0000 46.9358 0.0000
# 6 0.0000 0.0000 0.0000 -9.1097 0.0000 10.8763
#
#
#
# Elastic Compliance Matrix: (Units=1/GPa)
#
#
# Indices 1 2 3 4 5 6 
#
# 1 0.023869 -0.002209 -0.003774 0.000000 0.006531 0.000000
# 2 -0.002209 0.006847 -0.001160 0.000000 -0.001063 0.000000
# 3 -0.003774 -0.001160 0.006046 0.000000 0.000046 0.000000
# 4 0.000000 0.000000 0.000000 0.384605 0.000000 0.322132
# 5 0.006531 -0.001063 0.000046 0.000000 0.023311 0.000000
# 6 0.000000 0.000000 0.000000 0.322132 0.000000 0.361750
#
#
# Mechanical properties :
#
#
# Convention : Reuss Voigt Hill
#
# Bulk Modulus (GPa) = 44.49137 68.79450 56.64294
# Shear Modulus (GPa) = 6.03713 34.16519 20.10116
#
# Velocity S-wave (km/s) = 1.57093 3.73709 2.86651
# Velocity P-wave (km/s) = 4.63437 6.83686 5.84038
#
# Compressibility (1/GPa) = 0.02247627
#
# Stress axis : x y z
#
# Youngs Moduli (GPa) = 41.89461 146.04252 165.38547
#
# Poissons Ratio (x) = 0.32257 0.62421
# Poissons Ratio (y) = 0.09253 0.19193
# Poissons Ratio (z) = 0.15812 0.16948
#
# Static dielectric constant tensor:
#      x y z
#    x 2.122920 0.000000 0.148460 
#    y 0.000000 2.069670 0.000000 
#    z 0.148460 0.000000 2.119900 
# 
# From -- ./inp_files/61478.got.cif
#   From: 2010.05.17/outbox.cif.g08.bks.cpg/sg12_31_cif.got.tgz:61478.got - 2010.06.03 13:09:07.
