data_PCOD9211484
_publ_section_title
;
Structure prediction by ZEFSAII (Michael W. Deem and Ramdas Pophale) SiO2 
 PCOD9211484
Probable space group: C 2/M
;
_chemical_formula_sum "Si O2"
_cell_formula_units_Z 48
_cell_length_a 20.823113
_cell_length_b 17.900994
_cell_length_c 9.215729
_cell_angle_alpha 90.000000
_cell_angle_beta 133.610654
_cell_angle_gamma 90.000000
_cell_volume 2487.237328
_symmetry_space_group_name_H-M "C 2/M"
_symmetry_group_IT_number 12
_symmetry_cell_setting 'monoclinic'
loop_
_space_group_symop_operation_xyz
x,y,z
-x,y,-z
-x,-y,-z
x,-y,z
1/2+x,1/2+y,z
1/2-x,1/2+y,-z
1/2-x,1/2-y,-z
1/2+x,1/2-y,z
loop_
_atom_site_type_symbol
_atom_site_label
_atom_site_fract_x
_atom_site_fract_y
_atom_site_fract_z
Si Si1 0.935437 0.585340 0.758596
Si Si2 0.823627 0.295887 0.694623
Si Si3 0.957872 0.307905 0.280850
Si Si4 0.029590 0.184494 0.192972
Si Si5 0.266801 0.823977 0.933535
Si Si6 0.405605 0.588902 0.437275
O O1 0.926157 0.500000 0.703317
O O2 0.843444 0.622593 0.662499
O O3 0.978624 0.633347 0.699165
O O4 0.000000 0.590442 0.000000
O O5 0.750000 0.250000 0.500000
O O6 0.910592 0.248333 0.790330
O O7 0.794626 0.303614 0.813667
O O8 0.000000 0.286774 0.500000
O O9 0.960482 0.232876 0.184139
O O10 0.862462 0.348251 0.146932
O O11 0.081268 0.132986 0.389512
O O12 0.000000 0.141274 0.000000
O O13 0.178639 0.874847 0.780356
O O14 0.250000 0.750000 0.000000
O O15 0.500000 0.596717 0.500000
O O16 0.390148 0.500000 0.433571
#
# Coordination Sequence:
#
# PCOD9211484 Si02
#       6
#     8   8   8   8   8   8
#     4  10  21  40  63  88 126 165 203 261 328 386
#     4  11  21  38  61  98 121 154 214 264 310 385
#     4  11  22  38  64  99 131 164 213 265 325 385
#     4  11  20  38  67  93 126 159 212 270 317 370
#     4  12  23  39  66  94 124 169 215 261 318 379
#     4  11  26  45  62  90 131 176 216 259 318 379
#
# _framework density 19.298518999999999
#
# number of rings (size 3 to 8) (size 9 to 14) (size 15 to 20)
#    0.000    1.000    5.000    3.500    2.333    2.000 
#    0.000    0.000    0.000    0.000    0.000    0.000 
#    0.000    0.000    0.000    0.000    0.000    0.000 
#
# Total GULP energy -133705.731080 kJ/mol
# GULP energy per Si atom -5571.072128 kJ/mol
# Density = 1.925460 g / cm^3
# Si number density = 19.298519 Si / 1000 Ang^3
#
#
#
# Elastic Constant Matrix: (Units=GPa)
#
#
# Indices 1 2 3 4 5 6 
#
# 1 100.8460 39.6457 32.1277 0.0000 3.0184 0.0000
# 2 39.6457 116.9115 35.6511 0.0000 -1.5744 0.0000
# 3 32.1277 35.6511 108.9851 0.0000 9.0426 0.0000
# 4 0.0000 0.0000 0.0000 22.9269 0.0000 6.8561
# 5 3.0184 -1.5744 9.0426 0.0000 33.5817 0.0000
# 6 0.0000 0.0000 0.0000 6.8561 0.0000 21.5427
#
#
#
# Elastic Compliance Matrix: (Units=1/GPa)
#
#
# Indices 1 2 3 4 5 6 
#
# 1 0.012015 -0.003352 -0.002396 0.000000 -0.000592 0.000000
# 2 -0.003352 0.010493 -0.002568 0.000000 0.001485 0.000000
# 3 -0.002396 -0.002568 0.010959 0.000000 -0.002856 0.000000
# 4 0.000000 0.000000 0.000000 0.048205 0.000000 -0.015341
# 5 -0.000592 0.001485 -0.002856 0.000000 0.030670 0.000000
# 6 0.000000 0.000000 0.000000 -0.015341 0.000000 0.051302
#
#
# Mechanical properties :
#
#
# Convention : Reuss Voigt Hill
#
# Bulk Modulus (GPa) = 59.39807 60.17685 59.78746
# Shear Modulus (GPa) = 26.89815 30.23144 28.56480
#
# Velocity S-wave (km/s) = 3.73740 3.96222 3.85145
# Velocity P-wave (km/s) = 7.03347 7.22371 7.12922
#
# Compressibility (1/GPa) = 0.01683556
#
# Stress axis : x y z
#
# Youngs Moduli (GPa) = 83.23012 95.30175 91.25015
#
# Poissons Ratio (x) = 0.31941 0.21867
# Poissons Ratio (y) = 0.27895 0.23430
# Poissons Ratio (z) = 0.19945 0.24470
#
# Static dielectric constant tensor:
#      x y z
#    x 1.738630 0.000000 0.052980 
#    y 0.000000 1.668380 0.000000 
#    z 0.052980 0.000000 1.764120 
# 
# From -- ./inp_files/88144.got.cif
#   From: 2010.05.17/outbox.cif.g08.bks.cpg/sg12_45_cif.got.tgz:88144.got - 2010.06.03 13:09:07.
