data_PCOD9211925
_publ_section_title
;
Structure prediction by ZEFSAII (Michael W. Deem and Ramdas Pophale) SiO2 
 PCOD9211925
Probable space group: C 2/M
;
_chemical_formula_sum "Si O2"
_cell_formula_units_Z 50
_cell_length_a 11.577405
_cell_length_b 21.755863
_cell_length_c 14.208961
_cell_angle_alpha 90.000000
_cell_angle_beta 44.191693
_cell_angle_gamma 90.000000
_cell_volume 2494.713889
_symmetry_space_group_name_H-M "C 2/M"
_symmetry_group_IT_number 12
_symmetry_cell_setting 'monoclinic'
loop_
_space_group_symop_operation_xyz
x,y,z
-x,y,-z
-x,-y,-z
x,-y,z
1/2+x,1/2+y,z
1/2-x,1/2+y,-z
1/2-x,1/2-y,-z
1/2+x,1/2-y,z
loop_
_atom_site_type_symbol
_atom_site_label
_atom_site_fract_x
_atom_site_fract_y
_atom_site_fract_z
Si Si1 0.352253 0.607378 0.952646
Si Si2 0.635647 0.165814 0.344736
Si Si3 0.857156 0.070562 0.330177
Si Si4 0.500000 0.500000 0.000000
Si Si5 0.316107 0.427952 0.576179
Si Si6 0.464738 0.263611 0.121572
Si Si7 0.991637 0.354380 0.789083
O O1 0.454043 0.591081 0.799059
O O2 0.424506 0.674436 0.939486
O O3 0.404779 0.554656 0.995074
O O4 0.155771 0.612822 0.067894
O O5 0.500000 0.186692 0.500000
O O6 0.737569 0.110832 0.334980
O O7 0.774098 0.216337 0.241457
O O8 0.555348 0.144006 0.294084
O O9 0.811746 0.076071 0.465247
O O10 0.840861 0.000000 0.309044
O O11 0.500000 0.408805 0.500000
O O12 0.294636 0.500000 0.614562
O O13 0.167727 0.386639 0.701313
O O14 0.504808 0.216115 0.180003
O O15 0.500000 0.233802 0.000000
#
# Coordination Sequence:
#
# PCOD9211925 Si02
#       7
#     8   8   8   2   8   8   8
#     4  11  22  39  67 102 138 171 221 274 353 403
#     4  11  23  42  64 101 134 166 237 278 339 416
#     4  10  21  40  67  99 138 175 209 292 357 402
#     4  12  20  40  72 106 142 164 210 302 352 394
#     4  10  24  46  66  95 137 181 233 287 347 410
#     4  11  24  44  63  96 145 184 220 280 338 409
#     4  12  25  42  70  99 133 187 230 279 340 421
#
# _framework density 20.042376999999998
#
# number of rings (size 3 to 8) (size 9 to 14) (size 15 to 20)
#    0.000    1.120    4.800    1.440    1.120    3.520 
#    2.880    0.000    0.000    3.360    0.000    0.000 
#    0.000    0.000    0.000    0.000    0.000    0.000 
#
# Total GULP energy -139410.418264 kJ/mol
# GULP energy per Si atom -5576.416731 kJ/mol
# Density = 1.999676 g / cm^3
# Si number density = 20.042377 Si / 1000 Ang^3
#
#
#
# Elastic Constant Matrix: (Units=GPa)
#
#
# Indices 1 2 3 4 5 6 
#
# 1 70.4317 44.0254 32.4689 -0.0013 -18.5790 -0.0004
# 2 44.0254 94.1229 39.7276 -0.0008 -15.9447 -0.0003
# 3 32.4689 39.7276 128.3033 -0.0026 -32.6570 -0.0008
# 4 -0.0013 -0.0008 -0.0026 3.8428 0.0020 0.2984
# 5 -18.5790 -15.9447 -32.6570 0.0020 28.4788 0.0006
# 6 -0.0004 -0.0003 -0.0008 0.2984 0.0006 30.5545
#
#
#
# Elastic Compliance Matrix: (Units=1/GPa)
#
#
# Indices 1 2 3 4 5 6 
#
# 1 0.022244 -0.008602 -0.000703 0.000001 0.008889 0.000000
# 2 -0.008602 0.015805 -0.002673 -0.000002 0.000172 0.000000
# 3 -0.000703 -0.002673 0.011724 0.000001 0.011488 0.000000
# 4 0.000001 -0.000002 0.000001 0.260421 -0.000018 -0.002544
# 5 0.008889 0.000172 0.011488 -0.000018 0.054183 -0.000001
# 6 0.000000 0.000000 0.000000 -0.002544 -0.000001 0.032753
#
#
# Mechanical properties :
#
#
# Convention : Reuss Voigt Hill
#
# Bulk Modulus (GPa) = 38.73483 58.36685 48.55084
# Shear Modulus (GPa) = 11.63621 24.35097 17.99359
#
# Velocity S-wave (km/s) = 2.41214 3.48943 2.99954
# Velocity P-wave (km/s) = 5.20829 6.73942 6.02271
#
# Compressibility (1/GPa) = 0.02581656
#
# Stress axis : x y z
#
# Youngs Moduli (GPa) = 44.95586 63.26954 85.29589
#
# Poissons Ratio (x) = 0.54424 0.05997
# Poissons Ratio (y) = 0.38671 0.22803
# Poissons Ratio (z) = 0.03161 0.16915
#
# Static dielectric constant tensor:
#      x y z
#    x 1.694610 0.000000 0.003110 
#    y 0.000000 1.689920 0.000000 
#    z 0.003110 0.000000 1.741270 
# 
# From -- ./inp_files/208594.got.cif
#   From: 2010.05.17/outbox.cif.g08.bks.cpg/sg12_105_cif.got.tgz:208594.got - 2010.06.03 13:09:07.
