data_PCOD9211359
_publ_section_title
;
Structure prediction by ZEFSAII (Michael W. Deem and Ramdas Pophale) SiO2 
 PCOD9211359
Probable space group: C 2/M
;
_chemical_formula_sum "Si O2"
_cell_formula_units_Z 48
_cell_length_a 29.656870
_cell_length_b 7.488938
_cell_length_c 20.733357
_cell_angle_alpha 90.000000
_cell_angle_beta 150.590659
_cell_angle_gamma 90.000000
_cell_volume 2261.190537
_symmetry_space_group_name_H-M "C 2/M"
_symmetry_group_IT_number 12
_symmetry_cell_setting 'monoclinic'
loop_
_space_group_symop_operation_xyz
x,y,z
-x,y,-z
-x,-y,-z
x,-y,z
1/2+x,1/2+y,z
1/2-x,1/2+y,-z
1/2-x,1/2-y,-z
1/2+x,1/2-y,z
loop_
_atom_site_type_symbol
_atom_site_label
_atom_site_fract_x
_atom_site_fract_y
_atom_site_fract_z
Si Si1 0.091447 0.500000 0.524528
Si Si2 0.517188 0.712872 0.784379
Si Si3 0.622686 0.000000 0.705496
Si Si4 0.656212 0.716146 0.503724
Si Si5 0.947800 0.711982 0.027585
Si Si6 0.358850 0.217326 0.788170
Si Si7 0.844162 0.210550 0.153285
O O1 0.144864 0.500000 0.658339
O O2 0.114947 0.324947 0.512422
O O3 0.985737 0.500000 0.413870
O O4 0.519666 0.500000 0.784815
O O5 0.410849 0.765813 0.639616
O O6 0.561647 0.759953 0.908148
O O7 0.576401 0.775804 0.796922
O O8 0.658212 0.176319 0.784915
O O9 0.651226 0.500000 0.505872
O O10 0.763135 0.770704 0.636228
O O11 0.950240 0.500000 0.021360
O O12 0.049238 0.779438 0.133777
O O13 0.874341 0.775073 0.882367
O O14 0.357935 0.000000 0.785409
O O15 0.855918 0.000000 0.179585
O O16 0.750000 0.250000 0.000000
#
# Coordination Sequence:
#
# PCOD9211359 Si02
#       7
#     4   8   4   8   8   8   8
#     4  11  24  40  64  89 118 162 208 249 298 376
#     4  10  22  37  56  86 118 153 197 244 299 358
#     4  11  24  42  62  92 122 153 210 254 300 362
#     4  10  21  40  62  84 123 160 199 253 300 354
#     4   9  18  34  61  85 114 157 199 242 299 360
#     4   8  17  37  57  84 120 156 196 245 297 356
#     4  11  23  41  64  89 124 161 196 253 306 358
#
# _framework density 21.227755999999999
#
# number of rings (size 3 to 8) (size 9 to 14) (size 15 to 20)
#    0.000    2.167    2.500    1.000    2.333    2.667 
#    3.000    4.167    0.000    0.000    0.000    0.000 
#    0.000    0.000    0.000    0.000    0.000    0.000 
#
# Total GULP energy -133857.761899 kJ/mol
# GULP energy per Si atom -5577.406746 kJ/mol
# Density = 2.117944 g / cm^3
# Si number density = 21.227756 Si / 1000 Ang^3
#
#
#
# Elastic Constant Matrix: (Units=GPa)
#
#
# Indices 1 2 3 4 5 6 
#
# 1 12.9982 -0.2561 -2.2879 -0.0157 -11.1687 0.0223
# 2 -0.2561 72.0192 0.5489 -0.0305 -5.3550 0.0433
# 3 -2.2879 0.5489 77.5481 -0.0056 4.2123 0.0080
# 4 -0.0157 -0.0305 -0.0056********** -0.0047**********
# 5 -11.1687 -5.3550 4.2123 -0.0047 41.3715 0.0067
# 6 0.0223 0.0433 0.0080********** 0.0067**********
#
#
#
# Elastic Compliance Matrix: (Units=1/GPa)
#
#
# Indices 1 2 3 4 5 6 
#
# 1 0.100745 0.002381 0.001470 0.000000 0.027356 0.000000
# 2 0.002381 0.014079 -0.000164 0.000000 0.002482 0.000000
# 3 0.001470 -0.000164 0.012991 0.000000 -0.000947 0.000000
# 4 0.000000 0.000000 0.000000 0.041670 0.000000 0.029371
# 5 0.027356 0.002482 -0.000947 0.000000 0.031974 0.000000
# 6 0.000000 0.000000 0.000000 0.029371 0.000000 0.020706
#
#
# Mechanical properties :
#
#
# Convention : Reuss Voigt Hill
#
# Bulk Modulus (GPa) = 7.39710 17.61947 12.50829
# Shear Modulus (GPa) = 19.24152 96197.67942 48108.46047
#
# Velocity S-wave (km/s) = 3.01397 213.10868 150.70567
# Velocity P-wave (km/s) = 3.95022 246.09361 174.03688
#
# Compressibility (1/GPa) = 0.13518804
#
# Stress axis : x y z
#
# Youngs Moduli (GPa) = 9.92609 71.02554 76.97516
#
# Poissons Ratio (x) = -0.16912 -0.11312
# Poissons Ratio (y) = -0.02364 0.01264
# Poissons Ratio (z) = -0.01459 0.01166
#
# Static dielectric constant tensor:
#      x y z
#    x 1.771760 0.000000 0.015280 
#    y 0.000000 1.769330 0.000000 
#    z 0.015280 0.000000 1.889060 
# 
# From -- ./inp_files/295919.got.cif
#   From: 2010.05.17/outbox.cif.g08.bks.cpg/sg12_148_cif.got.tgz:295919.got - 2010.06.03 13:09:07.
