data_PCOD9211412
_publ_section_title
;
Structure prediction by ZEFSAII (Michael W. Deem and Ramdas Pophale) SiO2 
 PCOD9211412
Probable space group: C 2/M
;
_chemical_formula_sum "Si O2"
_cell_formula_units_Z 36
_cell_length_a 11.182959
_cell_length_b 26.662608
_cell_length_c 15.796330
_cell_angle_alpha 90.000000
_cell_angle_beta 155.272854
_cell_angle_gamma 90.000000
_cell_volume 1970.156801
_symmetry_space_group_name_H-M "C 2/M"
_symmetry_group_IT_number 12
_symmetry_cell_setting 'monoclinic'
loop_
_space_group_symop_operation_xyz
x,y,z
-x,y,-z
-x,-y,-z
x,-y,z
1/2+x,1/2+y,z
1/2-x,1/2+y,-z
1/2-x,1/2-y,-z
1/2+x,1/2-y,z
loop_
_atom_site_type_symbol
_atom_site_label
_atom_site_fract_x
_atom_site_fract_y
_atom_site_fract_z
Si Si1 0.794904 0.500000 0.949772
Si Si2 0.218494 0.500000 0.378359
Si Si3 0.500000 0.856012 0.500000
Si Si4 0.080006 0.818638 0.453766
Si Si5 0.675749 0.212373 0.761183
Si Si6 0.886108 0.916618 0.619458
O O1 0.601846 0.451135 0.810705
O O2 0.000000 0.500000 0.000000
O O3 0.959747 0.500000 0.144896
O O4 0.500000 0.500000 0.500000
O O5 0.236954 0.452096 0.452852
O O6 0.326685 0.818462 0.328093
O O7 0.675735 0.891429 0.551046
O O8 0.422267 0.811875 0.656190
O O9 0.980039 0.869440 0.343704
O O10 0.000000 0.821597 0.500000
O O11 0.927382 0.769382 0.318609
O O12 0.000000 0.210924 0.000000
#
# Coordination Sequence:
#
# PCOD9211412 Si02
#       6
#     4   4   4   8   8   8
#     4  11  23  40  62  94 122 153 202 257 316 365
#     4  11  21  42  60  88 126 151 200 263 304 367
#     4  10  22  45  60  90 128 163 208 252 310 374
#     4  10  21  40  62  91 125 166 213 255 312 372
#     4  10  22  41  60  89 131 167 206 264 306 366
#     4  10  23  40  64  88 124 163 201 260 307 369
#
# _framework density 18.272659000000001
#
# number of rings (size 3 to 8) (size 9 to 14) (size 15 to 20)
#    0.000    1.778    3.333    0.667    0.000    7.111 
#    0.000    1.111    0.000    0.000    0.000    0.000 
#    0.000    0.000    0.000    0.000    0.000    0.000 
#
# Total GULP energy -100379.260100 kJ/mol
# GULP energy per Si atom -5576.625561 kJ/mol
# Density = 1.823107 g / cm^3
# Si number density = 18.272659 Si / 1000 Ang^3
#
#
#
# Elastic Constant Matrix: (Units=GPa)
#
#
# Indices 1 2 3 4 5 6 
#
# 1 117.8745 55.4235 58.8786 0.1273 -19.7442 0.0076
# 2 55.4235 154.5460 65.7371 -0.0153 -16.3312 0.0007
# 3 58.8786 65.7371 156.9292 0.7321 -25.7909 0.0356
# 4 0.1273 -0.0153 0.7321 766.4375 0.2297 54.1320
# 5 -19.7442 -16.3312 -25.7909 0.2297 21.2414 0.0100
# 6 0.0076 0.0007 0.0356 54.1320 0.0100 31.3911
#
#
#
# Elastic Compliance Matrix: (Units=1/GPa)
#
#
# Indices 1 2 3 4 5 6 
#
# 1 0.011935 -0.002620 -0.002359 -0.000002 0.006215 0.000001
# 2 -0.002620 0.008562 -0.002401 0.000003 0.001232 -0.000002
# 3 -0.002359 -0.002401 0.009494 -0.000011 0.007489 0.000007
# 4 -0.000002 0.000003 -0.000011 0.001486 -0.000028 -0.002562
# 5 0.006215 0.001232 0.007489 -0.000028 0.062895 0.000019
# 6 0.000001 -0.000002 0.000007 -0.002562 0.000019 0.036274
#
#
# Mechanical properties :
#
#
# Convention : Reuss Voigt Hill
#
# Bulk Modulus (GPa) = 65.65701 87.71422 76.68562
# Shear Modulus (GPa) = 33.22656 180.43469 106.83062
#
# Velocity S-wave (km/s) = 4.26887 9.94787 7.65452
# Velocity P-wave (km/s) = 7.76579 13.41842 10.96270
#
# Compressibility (1/GPa) = 0.01523067
#
# Stress axis : x y z
#
# Youngs Moduli (GPa) = 83.78855 116.80073 105.33038
#
# Poissons Ratio (x) = 0.30601 0.24847
# Poissons Ratio (y) = 0.21952 0.25290
# Poissons Ratio (z) = 0.19765 0.28044
#
# Static dielectric constant tensor:
#      x y z
#    x 1.682430 0.000010 0.037250 
#    y 0.000010 1.655440 0.000020 
#    z 0.037250 0.000020 1.657710 
# 
# From -- ./inp_files/266006.got.cif
#   From: 2010.05.17/outbox.cif.g08.bks.cpg/sg12_134_cif.got.tgz:266006.got - 2010.06.03 13:09:07.
