data_PCOD9211178
_publ_section_title
;
Structure prediction by ZEFSAII (Michael W. Deem and Ramdas Pophale) SiO2 
 PCOD9211178
Probable space group: C 2/M
;
_chemical_formula_sum "Si O2"
_cell_formula_units_Z 44
_cell_length_a 17.777951
_cell_length_b 28.901990
_cell_length_c 12.173788
_cell_angle_alpha 90.000000
_cell_angle_beta 19.885384
_cell_angle_gamma 90.000000
_cell_volume 2127.612225
_symmetry_space_group_name_H-M "C 2/M"
_symmetry_group_IT_number 12
_symmetry_cell_setting 'monoclinic'
loop_
_space_group_symop_operation_xyz
x,y,z
-x,y,-z
-x,-y,-z
x,-y,z
1/2+x,1/2+y,z
1/2-x,1/2+y,-z
1/2-x,1/2-y,-z
1/2+x,1/2-y,z
loop_
_atom_site_type_symbol
_atom_site_label
_atom_site_fract_x
_atom_site_fract_y
_atom_site_fract_z
Si Si1 0.512343 0.880228 0.201873
Si Si2 0.277171 0.702811 0.753098
Si Si3 0.190524 0.051455 0.328419
Si Si4 0.605618 0.363543 0.603551
Si Si5 0.000000 0.769034 0.000000
Si Si6 0.187330 0.340592 0.326571
O O1 0.316717 0.865277 0.391008
O O2 0.421845 0.880598 0.449206
O O3 0.696023 0.839661 0.940680
O O4 0.607197 0.926346 0.016988
O O5 0.500000 0.723524 0.500000
O O6 0.356607 0.678989 0.531017
O O7 0.068818 0.735561 0.007643
O O8 0.113279 0.089034 0.523737
O O9 0.000000 0.048558 0.500000
O O10 0.235087 0.000000 0.310937
O O11 0.390527 0.356993 0.972898
O O12 0.789344 0.803445 0.273743
O O13 0.000000 0.323464 0.500000
#
# Coordination Sequence:
#
# PCOD9211178 Si02
#       6
#     8   8   8   8   4   8
#     4  11  21  41  62  89 126 161 202 252 303 367
#     4  11  22  39  63  87 121 164 209 259 306 351
#     4  10  21  39  67  98 123 154 203 249 294 362
#     4  11  21  41  62  89 126 161 202 252 303 367
#     4  12  24  42  60  92 118 160 216 266 292 366
#     4  12  25  41  61  86 126 168 203 250 311 365
#
# _framework density 20.680458999999999
#
# number of rings (size 3 to 8) (size 9 to 14) (size 15 to 20)
#    0.000    0.909    3.636    6.545    0.000    4.364 
#    0.000    4.545    0.000    5.455    0.000    0.000 
#    0.000    0.000    0.000    0.000    0.000    0.000 
#
# Total GULP energy -122731.310938 kJ/mol
# GULP energy per Si atom -5578.695952 kJ/mol
# Density = 2.063339 g / cm^3
# Si number density = 20.680459 Si / 1000 Ang^3
#
#
#
# Elastic Constant Matrix: (Units=GPa)
#
#
# Indices 1 2 3 4 5 6 
#
# 1 113.0959 35.0337 43.2825 -0.0091 -24.5946 0.0066
# 2 35.0337 106.4075 34.1197 -0.0005 6.3339 -0.0076
# 3 43.2825 34.1197 120.2458 -0.0105 8.3972 -0.0261
# 4 -0.0091 -0.0005 -0.0105 11.8235 -0.0024 -10.4547
# 5 -24.5946 6.3339 8.3972 -0.0024 58.2552 -0.0086
# 6 0.0066 -0.0076 -0.0261 -10.4547 -0.0086 24.1910
#
#
#
# Elastic Compliance Matrix: (Units=1/GPa)
#
#
# Indices 1 2 3 4 5 6 
#
# 1 0.012822 -0.003276 -0.004130 0.000002 0.006365 -0.000006
# 2 -0.003276 0.011204 -0.001837 -0.000005 -0.002336 0.000000
# 3 -0.004130 -0.001837 0.010538 0.000024 -0.003063 0.000021
# 4 0.000002 -0.000005 0.000024 0.136888 0.000012 0.059159
# 5 0.006365 -0.002336 -0.003063 0.000012 0.020548 0.000007
# 6 -0.000006 0.000000 0.000021 0.059159 0.000007 0.066905
#
#
# Mechanical properties :
#
#
# Convention : Reuss Voigt Hill
#
# Bulk Modulus (GPa) = 62.19573 62.73566 62.46570
# Shear Modulus (GPa) = 17.68343 34.00816 25.84580
#
# Velocity S-wave (km/s) = 2.92735 4.05959 3.53904
# Velocity P-wave (km/s) = 6.44715 7.23708 6.85350
#
# Compressibility (1/GPa) = 0.01607827
#
# Stress axis : x y z
#
# Youngs Moduli (GPa) = 77.99393 89.24988 94.89436
#
# Poissons Ratio (x) = 0.29238 0.39192
# Poissons Ratio (y) = 0.25550 0.17432
# Poissons Ratio (z) = 0.32212 0.16395
#
# Static dielectric constant tensor:
#      x y z
#    x 1.756940 0.000000 -0.010640 
#    y 0.000000 1.790330 0.000020 
#    z -0.010640 0.000020 1.757750 
# 
# From -- ./inp_files/161155.got.cif
#   From: 2010.05.17/outbox.cif.g08.bks.cpg/sg12_81_cif.got.tgz:161155.got - 2010.06.03 13:09:07.
