data_PCOD9211593
_publ_section_title
;
Structure prediction by ZEFSAII (Michael W. Deem and Ramdas Pophale) SiO2 
 PCOD9211593
Probable space group: C 2/M
;
_chemical_formula_sum "Si O2"
_cell_formula_units_Z 44
_cell_length_a 8.568532
_cell_length_b 12.645674
_cell_length_c 19.612819
_cell_angle_alpha 90.000000
_cell_angle_beta 78.359051
_cell_angle_gamma 90.000000
_cell_volume 2081.432826
_symmetry_space_group_name_H-M "C 2/M"
_symmetry_group_IT_number 12
_symmetry_cell_setting 'monoclinic'
loop_
_space_group_symop_operation_xyz
x,y,z
-x,y,-z
-x,-y,-z
x,-y,z
1/2+x,1/2+y,z
1/2-x,1/2+y,-z
1/2-x,1/2-y,-z
1/2+x,1/2-y,z
loop_
_atom_site_type_symbol
_atom_site_label
_atom_site_fract_x
_atom_site_fract_y
_atom_site_fract_z
Si Si1 0.500000 0.816614 0.000000
Si Si2 0.992501 0.000000 0.115418
Si Si3 0.263803 0.000000 0.985157
Si Si4 0.352427 0.699047 0.551606
Si Si5 0.988877 0.622144 0.789746
Si Si6 0.149639 0.791022 0.855744
Si Si7 0.024934 0.380714 0.625767
O O1 0.414226 0.746049 0.064761
O O2 0.372773 0.896158 0.977611
O O3 0.958246 0.108594 0.157175
O O4 0.161068 0.000000 0.063616
O O5 0.859121 0.000000 0.066481
O O6 0.500000 0.642395 0.500000
O O7 0.250000 0.750000 0.500000
O O8 0.216672 0.634630 0.603172
O O9 0.431242 0.791458 0.591034
O O10 0.005190 0.500000 0.808206
O O11 0.828989 0.669770 0.835903
O O12 0.128749 0.692872 0.807420
O O13 0.979988 0.628489 0.709030
O O14 0.985196 0.500000 0.605348
#
# Coordination Sequence:
#
# PCOD9211593 Si02
#       7
#     4   4   4   8   8   8   8
#     4  11  24  37  62  92 118 159 197 280 328 380
#     4  11  22  38  60  86 116 156 195 255 321 391
#     4  10  22  38  58  88 120 144 200 245 336 399
#     4   9  19  36  63  99 131 161 204 249 298 358
#     4  11  25  44  65  90 124 170 217 258 312 378
#     4  12  24  42  64  90 124 161 212 270 327 380
#     4  10  21  40  64  90 128 173 207 252 305 360
#
# _framework density 21.139285000000001
#
# number of rings (size 3 to 8) (size 9 to 14) (size 15 to 20)
#    0.000    1.455    0.909    4.364    2.545    5.818 
#    1.636    2.727    2.000    0.000    0.000    0.000 
#    0.000    0.000    0.000    0.000    0.000    0.000 
#
# Total GULP energy -122987.524198 kJ/mol
# GULP energy per Si atom -5590.342009 kJ/mol
# Density = 2.109117 g / cm^3
# Si number density = 21.139285 Si / 1000 Ang^3
#
#
#
# Elastic Constant Matrix: (Units=GPa)
#
#
# Indices 1 2 3 4 5 6 
#
# 1 78.3163 33.9977 23.7883 0.0000 -12.7658 0.0000
# 2 33.9977 139.6331 31.8220 0.0000 9.3230 0.0000
# 3 23.7883 31.8220 62.3846 0.0000 -2.6310 0.0000
# 4 0.0000 0.0000 0.0000 -38.1622 0.0000 29.7582
# 5 -12.7658 9.3230 -2.6310 0.0000 28.4837 0.0000
# 6 0.0000 0.0000 0.0000 29.7582 0.0000 21.9774
#
#
#
# Elastic Compliance Matrix: (Units=1/GPa)
#
#
# Indices 1 2 3 4 5 6 
#
# 1 0.017070 -0.003758 -0.004234 0.000000 0.008489 0.000000
# 2 -0.003758 0.009203 -0.003473 0.000000 -0.005017 0.000000
# 3 -0.004234 -0.003473 0.019459 0.000000 0.001037 0.000000
# 4 0.000000 0.000000 0.000000 -0.012746 0.000000 0.017259
# 5 0.008489 -0.005017 0.001037 0.000000 0.040651 0.000000
# 6 0.000000 0.000000 0.000000 0.017259 0.000000 0.022133
#
#
# Mechanical properties :
#
#
# Convention : Reuss Voigt Hill
#
# Bulk Modulus (GPa) = 43.85548 51.06110 47.45829
# Shear Modulus (GPa) = 39.58802 15.17484 27.38143
#
# Velocity S-wave (km/s) = 4.33219 2.68218 3.60291
# Velocity P-wave (km/s) = 6.76867 5.81370 6.30928
#
# Compressibility (1/GPa) = 0.02280217
#
# Stress axis : x y z
#
# Youngs Moduli (GPa) = 58.58227 108.65875 51.38900
#
# Poissons Ratio (x) = 0.40835 0.21759
# Poissons Ratio (y) = 0.22016 0.17848
# Poissons Ratio (z) = 0.24804 0.37738
#
# Static dielectric constant tensor:
#      x y z
#    x 1.802030 0.000000 -0.011560 
#    y 0.000000 1.805430 0.000000 
#    z -0.011560 0.000000 1.772330 
# 
# From -- ./inp_files/299330.got.cif
#   From: 2010.05.17/outbox.cif.g08.bks.cpg/sg12_150_cif.got.tgz:299330.got - 2010.06.03 13:09:07.
