data_PCOD9211757
_publ_section_title
;
Structure prediction by ZEFSAII (Michael W. Deem and Ramdas Pophale) SiO2 
 PCOD9211757
Probable space group: C 2/M
;
_chemical_formula_sum "Si O2"
_cell_formula_units_Z 56
_cell_length_a 9.302528
_cell_length_b 18.234209
_cell_length_c 31.025729
_cell_angle_alpha 90.000000
_cell_angle_beta 147.052921
_cell_angle_gamma 90.000000
_cell_volume 2862.202495
_symmetry_space_group_name_H-M "C 2/M"
_symmetry_group_IT_number 12
_symmetry_cell_setting 'monoclinic'
loop_
_space_group_symop_operation_xyz
x,y,z
-x,y,-z
-x,-y,-z
x,-y,z
1/2+x,1/2+y,z
1/2-x,1/2+y,-z
1/2-x,1/2-y,-z
1/2+x,1/2-y,z
loop_
_atom_site_type_symbol
_atom_site_label
_atom_site_fract_x
_atom_site_fract_y
_atom_site_fract_z
Si Si1 0.903069 0.414986 0.333115
Si Si2 0.798738 0.086476 0.353565
Si Si3 0.611016 0.178028 0.225177
Si Si4 0.408101 0.415073 0.927262
Si Si5 0.798428 0.826604 0.488780
Si Si6 0.115815 0.830429 0.796809
Si Si7 0.617796 0.825544 0.982483
O O1 0.943944 0.500000 0.354924
O O2 0.597054 0.394813 0.252823
O O3 0.056729 0.402901 0.326569
O O4 0.038871 0.362745 0.402692
O O5 0.745414 0.133384 0.297648
O O6 0.057224 0.116882 0.442814
O O7 0.819631 0.000000 0.349658
O O8 0.346316 0.134435 0.145193
O O9 0.798390 0.182700 0.230821
O O10 0.522775 0.257842 0.219087
O O11 0.348409 0.500000 0.903482
O O12 0.500000 0.407696 0.000000
O O13 0.652388 0.385922 0.960617
O O14 0.750000 0.750000 0.500000
O O15 0.000000 0.814587 0.500000
O O16 0.380444 0.845181 0.890555
O O17 0.500000 0.815044 0.000000
O O18 0.750000 0.750000 0.000000
#
# Coordination Sequence:
#
# PCOD9211757 Si02
#       7
#     8   8   8   8   8   8   8
#     4  10  23  42  64  95 131 167 208 265 320 374
#     4  10  22  41  66  92 127 170 210 254 315 380
#     4  12  24  41  63  93 124 164 213 261 314 374
#     4  11  24  43  64  90 126 165 206 259 319 377
#     4  10  21  40  65  94 127 167 214 256 310 375
#     4  12  25  40  65  93 126 165 211 265 316 376
#     4  12  24  42  67  93 124 166 215 261 316 379
#
# _framework density 19.565351
#
# number of rings (size 3 to 8) (size 9 to 14) (size 15 to 20)
#    0.000    1.000    2.857    3.857    2.000    7.143 
#    0.000    0.000    0.000    2.571    0.000    0.000 
#    0.000    0.000    0.000    0.000    0.000    0.000 
#
# Total GULP energy -156662.048315 kJ/mol
# GULP energy per Si atom -5595.073154 kJ/mol
# Density = 1.952082 g / cm^3
# Si number density = 19.565351 Si / 1000 Ang^3
#
#
#
# Elastic Constant Matrix: (Units=GPa)
#
#
# Indices 1 2 3 4 5 6 
#
# 1 89.1113 18.4961 10.9063 0.0015 -4.3777 -0.0010
# 2 18.4961 59.0222 -5.2156 0.0017 -3.6057 -0.0017
# 3 10.9063 -5.2156 67.0395 0.0055 1.1272 -0.0048
# 4 0.0015 0.0017 0.0055 19.8794 -0.0006 15.2398
# 5 -4.3777 -3.6057 1.1272 -0.0006 28.4744 0.0015
# 6 -0.0010 -0.0017 -0.0048 15.2398 0.0015 14.1141
#
#
#
# Elastic Compliance Matrix: (Units=1/GPa)
#
#
# Indices 1 2 3 4 5 6 
#
# 1 0.012416 -0.004008 -0.002357 0.000003 0.001495 -0.000004
# 2 -0.004008 0.018481 0.002062 -0.000021 0.001642 0.000025
# 3 -0.002357 0.002062 0.015472 -0.000049 -0.000714 0.000058
# 4 0.000003 -0.000021 -0.000049 0.292040 0.000023 -0.315332
# 5 0.001495 0.001642 -0.000714 0.000023 0.035585 -0.000028
# 6 -0.000004 0.000025 0.000058 -0.315332 -0.000028 0.411333
#
#
# Mechanical properties :
#
#
# Convention : Reuss Voigt Hill
#
# Bulk Modulus (GPa) = 26.47967 29.28295 27.88131
# Shear Modulus (GPa) = 6.19947 25.22598 15.71273
#
# Velocity S-wave (km/s) = 1.78199 3.59460 2.83696
# Velocity P-wave (km/s) = 4.21869 5.67692 5.00124
#
# Compressibility (1/GPa) = 0.03776482
#
# Stress axis : x y z
#
# Youngs Moduli (GPa) = 80.54359 54.10883 64.63109
#
# Poissons Ratio (x) = 0.21685 0.15232
# Poissons Ratio (y) = 0.32280 -0.13328
# Poissons Ratio (z) = 0.18982 -0.11158
#
# Static dielectric constant tensor:
#      x y z
#    x 1.662840 0.000000 -0.000640 
#    y 0.000000 1.657520 0.000000 
#    z -0.000640 0.000000 1.681220 
# 
# From -- ./inp_files/373177.got.cif
#   From: 2010.05.17/outbox.cif.g08.bks.cpg/sg12_187_cif.got.tgz:373177.got - 2010.06.03 13:09:07.
