data_PCOD9211608
_publ_section_title
;
Structure prediction by ZEFSAII (Michael W. Deem and Ramdas Pophale) SiO2 
 PCOD9211608
Probable space group: C 2/M
;
_chemical_formula_sum "Si O2"
_cell_formula_units_Z 48
_cell_length_a 29.255966
_cell_length_b 8.665827
_cell_length_c 16.389103
_cell_angle_alpha 90.000000
_cell_angle_beta 144.086326
_cell_angle_gamma 90.000000
_cell_volume 2437.228664
_symmetry_space_group_name_H-M "C 2/M"
_symmetry_group_IT_number 12
_symmetry_cell_setting 'monoclinic'
loop_
_space_group_symop_operation_xyz
x,y,z
-x,y,-z
-x,-y,-z
x,-y,z
1/2+x,1/2+y,z
1/2-x,1/2+y,-z
1/2-x,1/2-y,-z
1/2+x,1/2-y,z
loop_
_atom_site_type_symbol
_atom_site_label
_atom_site_fract_x
_atom_site_fract_y
_atom_site_fract_z
Si Si1 0.086595 0.823925 0.590380
Si Si2 0.611756 0.181218 0.456338
Si Si3 0.232207 0.317407 0.385074
Si Si4 0.418455 0.314665 0.925745
Si Si5 0.446228 0.814450 0.145320
Si Si6 0.163662 0.185609 0.869807
O O1 0.090640 0.713319 0.519414
O O2 0.136279 0.771945 0.739337
O O3 0.000000 0.830650 0.500000
O O4 0.108958 0.000000 0.598535
O O5 0.689963 0.274469 0.551754
O O6 0.536391 0.229912 0.294204
O O7 0.625789 0.000000 0.461814
O O8 0.221594 0.500000 0.374785
O O9 0.250000 0.250000 0.500000
O O10 0.155587 0.246041 0.232186
O O11 0.414930 0.500000 0.923669
O O12 0.500000 0.269833 0.000000
O O13 0.419498 0.249700 0.019301
O O14 0.392362 0.752406 0.140918
O O15 0.442291 0.000000 0.139138
O O16 0.161482 0.000000 0.872785
O O17 0.250000 0.250000 0.000000
#
# Coordination Sequence:
#
# PCOD9211608 Si02
#       6
#     8   8   8   8   8   8
#     4  10  21  40  64  91 125 170 219 264 318 376
#     4  11  24  41  66  97 131 170 216 266 319 380
#     4  12  26  45  70  98 132 168 211 263 317 380
#     4  11  25  45  70  98 129 168 212 261 321 384
#     4  11  24  42  65  95 130 170 215 265 323 382
#     4  11  24  41  63  90 128 172 217 270 322 381
#
# _framework density 19.694500999999999
#
# number of rings (size 3 to 8) (size 9 to 14) (size 15 to 20)
#    0.000    1.000    1.667    4.500    2.333    7.667 
#    0.000    0.000    0.000    0.000    0.000    0.000 
#    0.000    0.000    0.000    0.000    0.000    0.000 
#
# Total GULP energy -134207.115568 kJ/mol
# GULP energy per Si atom -5591.963149 kJ/mol
# Density = 1.964968 g / cm^3
# Si number density = 19.694501 Si / 1000 Ang^3
#
#
#
# Elastic Constant Matrix: (Units=GPa)
#
#
# Indices 1 2 3 4 5 6 
#
# 1 72.1535 27.5258 45.5811 0.0000 3.6873 0.0000
# 2 27.5258 65.2820 46.7341 0.0000 -2.1129 0.0000
# 3 45.5811 46.7341 192.2860 0.0000 0.2410 0.0000
# 4 0.0000 0.0000 0.0000 26.2257 0.0000 2.3118
# 5 3.6873 -2.1129 0.2410 0.0000 35.6077 0.0000
# 6 0.0000 0.0000 0.0000 2.3118 0.0000 27.8233
#
#
#
# Elastic Compliance Matrix: (Units=1/GPa)
#
#
# Indices 1 2 3 4 5 6 
#
# 1 0.017917 -0.005552 -0.002895 0.000000 -0.002165 0.000000
# 2 -0.005552 0.020311 -0.003623 0.000000 0.001805 0.000000
# 3 -0.002895 -0.003623 0.006767 0.000000 0.000039 0.000000
# 4 0.000000 0.000000 0.000000 0.038412 0.000000 -0.003192
# 5 -0.002165 0.001805 0.000039 0.000000 0.028415 0.000000
# 6 0.000000 0.000000 0.000000 -0.003192 0.000000 0.036206
#
#
# Mechanical properties :
#
#
# Convention : Reuss Voigt Hill
#
# Bulk Modulus (GPa) = 47.94887 63.26706 55.60797
# Shear Modulus (GPa) = 27.91430 31.92337 29.91884
#
# Velocity S-wave (km/s) = 3.76888 4.03044 3.90185
# Velocity P-wave (km/s) = 6.58319 7.33848 6.97107
#
# Compressibility (1/GPa) = 0.02085555
#
# Stress axis : x y z
#
# Youngs Moduli (GPa) = 55.81306 49.23455 147.77023
#
# Poissons Ratio (x) = 0.27336 0.42780
# Poissons Ratio (y) = 0.30988 0.53531
# Poissons Ratio (z) = 0.16158 0.17836
#
# Static dielectric constant tensor:
#      x y z
#    x 1.669080 0.000000 0.009410 
#    y 0.000000 1.679410 0.000000 
#    z 0.009410 0.000000 1.666810 
# 
# From -- ./inp_files/244903.got.cif
#   From: 2010.05.17/outbox.cif.g08.bks.cpg/sg12_123_cif.got.tgz:244903.got - 2010.06.03 13:09:07.
