data_PCOD9211727
_publ_section_title
;
Structure prediction by ZEFSAII (Michael W. Deem and Ramdas Pophale) SiO2 
 PCOD9211727
Probable space group: C 2/M
;
_chemical_formula_sum "Si O2"
_cell_formula_units_Z 56
_cell_length_a 13.215416
_cell_length_b 24.975858
_cell_length_c 13.428103
_cell_angle_alpha 90.000000
_cell_angle_beta 34.714341
_cell_angle_gamma 90.000000
_cell_volume 2524.052749
_symmetry_space_group_name_H-M "C 2/M"
_symmetry_group_IT_number 12
_symmetry_cell_setting 'monoclinic'
loop_
_space_group_symop_operation_xyz
x,y,z
-x,y,-z
-x,-y,-z
x,-y,z
1/2+x,1/2+y,z
1/2-x,1/2+y,-z
1/2-x,1/2-y,-z
1/2+x,1/2-y,z
loop_
_atom_site_type_symbol
_atom_site_label
_atom_site_fract_x
_atom_site_fract_y
_atom_site_fract_z
Si Si1 0.486163 0.292656 0.351211
Si Si2 0.939099 0.097591 0.290327
Si Si3 0.690535 0.914619 0.087030
Si Si4 0.277306 0.825429 0.260428
Si Si5 0.804781 0.562555 0.686229
Si Si6 0.701716 0.940080 0.670057
Si Si7 0.593391 0.793329 0.132489
O O1 0.451574 0.339114 0.299753
O O2 0.680741 0.305763 0.239677
O O3 0.349590 0.303325 0.549809
O O4 0.474305 0.234023 0.315120
O O5 0.840324 0.089145 0.266203
O O6 0.825451 0.072714 0.473505
O O7 0.137235 0.073882 0.119483
O O8 0.723894 0.932339 0.173136
O O9 0.503866 0.937722 0.199036
O O10 0.663626 0.850656 0.108811
O O11 0.274429 0.890301 0.273180
O O12 0.469653 0.803964 0.136718
O O13 0.802472 0.500000 0.660820
O O14 0.000000 0.584090 0.500000
O O15 0.741227 0.000000 0.675387
O O16 0.750000 0.750000 0.000000
#
# Coordination Sequence:
#
# PCOD9211727 Si02
#       7
#     8   8   8   8   8   8   8
#     4  10  21  43  65  91 128 168 212 261 322 377
#     4  11  22  39  64  91 125 166 216 260 314 385
#     4  11  23  40  62  96 128 164 215 262 322 385
#     4   9  22  41  65  94 125 168 211 266 316 381
#     4  11  23  41  63  91 130 172 211 266 327 377
#     4  10  21  40  65  92 127 167 212 265 317 376
#     4  11  22  41  63  94 126 167 209 264 321 375
#
# _framework density 22.186540999999998
#
# number of rings (size 3 to 8) (size 9 to 14) (size 15 to 20)
#    0.000    1.571    2.857    1.714    0.000    4.571 
#    5.143    6.429    0.000    0.857    0.000    0.000 
#    0.000    0.000    0.000    0.000    0.000    0.000 
#
# Total GULP energy -156552.017219 kJ/mol
# GULP energy per Si atom -5591.143472 kJ/mol
# Density = 2.213604 g / cm^3
# Si number density = 22.186541 Si / 1000 Ang^3
#
#
#
# Elastic Constant Matrix: (Units=GPa)
#
#
# Indices 1 2 3 4 5 6 
#
# 1 100.5371 33.9511 8.9818 -0.0002 -10.0213 0.0004
# 2 33.9511 104.2205 11.1278 0.0000 -8.6362 0.0001
# 3 8.9818 11.1278 113.2714 0.0000 -29.1472 0.0001
# 4 -0.0002 0.0000 0.0000 22.1401 0.0000 5.3675
# 5 -10.0213 -8.6362 -29.1472 0.0000 25.7276 -0.0001
# 6 0.0004 0.0001 0.0001 5.3675 -0.0001 5.7484
#
#
#
# Elastic Compliance Matrix: (Units=1/GPa)
#
#
# Indices 1 2 3 4 5 6 
#
# 1 0.011454 -0.003463 0.000396 0.000000 0.003748 -0.000001
# 2 -0.003463 0.010919 -0.000285 0.000000 0.001993 0.000000
# 3 0.000396 -0.000285 0.012478 0.000000 0.014195 0.000000
# 4 0.000000 0.000000 0.000000 0.058384 0.000000 -0.054516
# 5 0.003748 0.001993 0.014195 0.000000 0.057079 0.000001
# 6 -0.000001 0.000000 0.000000 -0.054516 0.000001 0.224867
#
#
# Mechanical properties :
#
#
# Convention : Reuss Voigt Hill
#
# Bulk Modulus (GPa) = 35.52772 47.35005 41.43888
# Shear Modulus (GPa) = 12.77903 28.32109 20.55006
#
# Velocity S-wave (km/s) = 2.40256 3.57669 3.04672
# Velocity P-wave (km/s) = 4.87282 6.20041 5.57626
#
# Compressibility (1/GPa) = 0.02814704
#
# Stress axis : x y z
#
# Youngs Moduli (GPa) = 87.30378 91.58510 80.14398
#
# Poissons Ratio (x) = 0.31717 -0.03177
# Poissons Ratio (y) = 0.30234 0.02285
# Poissons Ratio (z) = -0.03461 0.02612
#
# Static dielectric constant tensor:
#      x y z
#    x 1.770680 0.000000 -0.033600 
#    y 0.000000 1.779930 0.000000 
#    z -0.033600 0.000000 1.916620 
# 
# From -- ./inp_files/218664.got.cif
#   From: 2010.05.17/outbox.cif.g08.bks.cpg/sg12_110_cif.got.tgz:218664.got - 2010.06.03 13:09:07.
