data_PCOD9211474
_publ_section_title
;
Structure prediction by ZEFSAII (Michael W. Deem and Ramdas Pophale) SiO2 
 PCOD9211474
Probable space group: C 2/M
;
_chemical_formula_sum "Si O2"
_cell_formula_units_Z 40
_cell_length_a 19.731230
_cell_length_b 7.778758
_cell_length_c 28.509812
_cell_angle_alpha 90.000000
_cell_angle_beta 23.613197
_cell_angle_gamma 90.000000
_cell_volume 1752.776120
_symmetry_space_group_name_H-M "C 2/M"
_symmetry_group_IT_number 12
_symmetry_cell_setting 'monoclinic'
loop_
_space_group_symop_operation_xyz
x,y,z
-x,y,-z
-x,-y,-z
x,-y,z
1/2+x,1/2+y,z
1/2-x,1/2+y,-z
1/2-x,1/2-y,-z
1/2+x,1/2-y,z
loop_
_atom_site_type_symbol
_atom_site_label
_atom_site_fract_x
_atom_site_fract_y
_atom_site_fract_z
Si Si1 0.394740 0.792941 0.114114
Si Si2 0.961874 0.705368 0.287779
Si Si3 0.007754 0.300022 0.361785
Si Si4 0.864182 0.197492 0.550411
Si Si5 0.200972 0.704341 0.978537
O O1 0.211035 0.711003 0.230824
O O2 0.369762 0.000000 0.132557
O O3 0.500000 0.757784 0.000000
O O4 0.517312 0.732988 0.078339
O O5 0.935753 0.500000 0.307042
O O6 0.822015 0.774906 0.340113
O O7 0.942862 0.771021 0.352959
O O8 0.150025 0.734329 0.150028
O O9 0.958577 0.500000 0.397830
O O10 0.943378 0.202023 0.448241
O O11 0.000000 0.277617 0.500000
O O12 0.839014 0.000000 0.582773
O O13 0.194868 0.500000 0.977924
O O14 0.250000 0.750000 0.000000
#
# Coordination Sequence:
#
# PCOD9211474 Si02
#       5
#     8   8   8   8   8
#     4  10  21  40  63  88 119 159 203 239 289 361
#     4  10  22  41  62  88 121 159 202 246 298 355
#     4  11  23  38  62  92 122 155 197 254 302 344
#     4  10  23  42  63  86 117 159 203 246 298 362
#     4  11  24  40  62  90 123 161 197 244 298 355
#
# _framework density 22.820941999999999
#
# number of rings (size 3 to 8) (size 9 to 14) (size 15 to 20)
#    0.000    1.600    2.000    1.800    2.800    4.000 
#    0.000    0.000    0.000    0.000    0.000    0.000 
#    0.000    0.000    0.000    0.000    0.000    0.000 
#
# Total GULP energy -111812.718826 kJ/mol
# GULP energy per Si atom -5590.635941 kJ/mol
# Density = 2.276900 g / cm^3
# Si number density = 22.820942 Si / 1000 Ang^3
#
#
#
# Elastic Constant Matrix: (Units=GPa)
#
#
# Indices 1 2 3 4 5 6 
#
# 1 136.1458 5.0098 -1.0087 -0.0018 -28.9191 -0.0019
# 2 5.0098 39.5728 -1.4505 -0.0007 -7.1829 -0.0031
# 3 -1.0087 -1.4505 48.7353 -0.0011 -19.9557 0.0001
# 4 -0.0018 -0.0007 -0.0011 19.4756 -0.0003 4.3195
# 5 -28.9191 -7.1829 -19.9557 -0.0003 46.9970 0.0004
# 6 -0.0019 -0.0031 0.0001 4.3195 0.0004 11.8010
#
#
#
# Elastic Compliance Matrix: (Units=1/GPa)
#
#
# Indices 1 2 3 4 5 6 
#
# 1 0.008776 0.000207 0.002920 0.000001 0.006672 0.000001
# 2 0.000207 0.026340 0.003013 0.000000 0.005432 0.000007
# 3 0.002920 0.003013 0.026138 0.000002 0.013356 0.000000
# 4 0.000001 0.000000 0.000002 0.055883 0.000002 -0.020455
# 5 0.006672 0.005432 0.013356 0.000002 0.031885 0.000000
# 6 0.000001 0.000007 0.000000 -0.020455 0.000000 0.092225
#
#
# Mechanical properties :
#
#
# Convention : Reuss Voigt Hill
#
# Bulk Modulus (GPa) = 13.59937 25.50612 19.55275
# Shear Modulus (GPa) = 19.72546 30.44828 25.08687
#
# Velocity S-wave (km/s) = 2.94319 3.65667 3.31915
# Velocity P-wave (km/s) = 4.18592 5.38787 4.82447
#
# Compressibility (1/GPa) = 0.07353280
#
# Stress axis : x y z
#
# Youngs Moduli (GPa) = 113.94382 37.96487 38.25869
#
# Poissons Ratio (x) = -0.00786 -0.11170
# Poissons Ratio (y) = -0.02358 -0.11526
# Poissons Ratio (z) = -0.33268 -0.11437
#
# Static dielectric constant tensor:
#      x y z
#    x 1.881660 0.000000 -0.047040 
#    y 0.000000 1.857440 0.000000 
#    z -0.047040 0.000000 1.819750 
# 
# From -- ./inp_files/221238.got.cif
#   From: 2010.05.17/outbox.cif.g08.bks.cpg/sg12_111_cif.got.tgz:221238.got - 2010.06.03 13:09:07.
