data_PCOD9211883
_publ_section_title
;
Structure prediction by ZEFSAII (Michael W. Deem and Ramdas Pophale) SiO2 
 PCOD9211883
Probable space group: C 2/M
;
_chemical_formula_sum "Si O2"
_cell_formula_units_Z 44
_cell_length_a 17.592681
_cell_length_b 13.418515
_cell_length_c 29.272410
_cell_angle_alpha 90.000000
_cell_angle_beta 18.995191
_cell_angle_gamma 90.000000
_cell_volume 2249.215167
_symmetry_space_group_name_H-M "C 2/M"
_symmetry_group_IT_number 12
_symmetry_cell_setting 'monoclinic'
loop_
_space_group_symop_operation_xyz
x,y,z
-x,y,-z
-x,-y,-z
x,-y,z
1/2+x,1/2+y,z
1/2-x,1/2+y,-z
1/2-x,1/2-y,-z
1/2+x,1/2-y,z
loop_
_atom_site_type_symbol
_atom_site_label
_atom_site_fract_x
_atom_site_fract_y
_atom_site_fract_z
Si Si1 0.726231 0.000000 0.061461
Si Si2 0.401746 0.000000 0.768852
Si Si3 0.950048 0.329504 0.895715
Si Si4 0.222089 0.613092 0.907101
Si Si5 0.570767 0.217566 0.359762
Si Si6 0.560414 0.777171 0.672815
Si Si7 0.754743 0.500000 0.747412
O O1 0.768960 0.000000 0.090987
O O2 0.577726 0.093120 0.129242
O O3 0.979185 0.000000 0.893942
O O4 0.535865 0.105197 0.697095
O O5 0.290882 0.000000 0.781737
O O6 0.204237 0.281246 0.754207
O O7 0.750000 0.250000 0.000000
O O8 0.879404 0.377780 0.984247
O O9 0.317182 0.500000 0.846330
O O10 0.404513 0.701405 0.791652
O O11 0.000000 0.625389 0.000000
O O12 0.528618 0.233409 0.329241
O O13 0.331042 0.247373 0.520215
O O14 0.629386 0.101783 0.335166
#
# Coordination Sequence:
#
# PCOD9211883 Si02
#       7
#     4   4   8   8   8   8   4
#     4  12  23  39  64  93 128 168 209 266 321 376
#     4  10  23  41  64  98 123 168 217 270 311 382
#     4  12  23  40  62  92 132 164 207 260 320 382
#     4  11  23  41  64  96 126 167 216 262 309 377
#     4  10  22  40  64  97 126 170 210 264 320 379
#     4  10  22  41  67  94 130 164 218 264 317 375
#     4  10  21  40  67  93 124 165 224 265 310 377
#
# _framework density 19.562379
#
# number of rings (size 3 to 8) (size 9 to 14) (size 15 to 20)
#    0.000    1.273    4.545    1.364    1.273    0.727 
#    1.636    4.545    0.000    2.182    0.000    0.000 
#    0.000    0.000    0.000    0.000    0.000    0.000 
#
# Total GULP energy -122825.651717 kJ/mol
# GULP energy per Si atom -5582.984169 kJ/mol
# Density = 1.951785 g / cm^3
# Si number density = 19.562379 Si / 1000 Ang^3
#
#
#
# Elastic Constant Matrix: (Units=GPa)
#
#
# Indices 1 2 3 4 5 6 
#
# 1 45.3441 23.7849 17.1253 0.0373 -8.7390 -0.0091
# 2 23.7849 172.8273 83.9543 -0.0189 -17.2292 -0.0038
# 3 17.1253 83.9543 127.9959 0.0602 -25.9078 -0.0537
# 4 0.0373 -0.0189 0.0602 14.2327 -0.0162 11.0160
# 5 -8.7390 -17.2292 -25.9078 -0.0162 32.3762 -0.0050
# 6 -0.0091 -0.0038 -0.0537 11.0160 -0.0050 22.0334
#
#
#
# Elastic Compliance Matrix: (Units=1/GPa)
#
#
# Indices 1 2 3 4 5 6 
#
# 1 0.024570 -0.002610 -0.000614 -0.000109 0.004752 0.000064
# 2 -0.002610 0.008769 -0.005490 0.000084 -0.000431 -0.000055
# 3 -0.000614 -0.005490 0.012972 -0.000126 0.007293 0.000095
# 4 -0.000109 0.000084 -0.000126 0.114616 -0.000037 -0.057305
# 5 0.004752 -0.000431 0.007293 -0.000037 0.037776 0.000047
# 6 0.000064 -0.000055 0.000095 -0.057305 0.000047 0.074037
#
#
# Mechanical properties :
#
#
# Convention : Reuss Voigt Hill
#
# Bulk Modulus (GPa) = 34.62012 66.21068 50.41540
# Shear Modulus (GPa) = 16.67808 28.48198 22.58003
#
# Velocity S-wave (km/s) = 2.92303 3.81984 3.40112
# Velocity P-wave (km/s) = 5.39702 7.30577 6.42270
#
# Compressibility (1/GPa) = 0.02888493
#
# Stress axis : x y z
#
# Youngs Moduli (GPa) = 40.69974 114.03611 77.08841
#
# Poissons Ratio (x) = 0.29758 0.04732
# Poissons Ratio (y) = 0.10621 0.42321
# Poissons Ratio (z) = 0.02498 0.62605
#
# Static dielectric constant tensor:
#      x y z
#    x 1.697540 -0.000020 0.032640 
#    y -0.000020 1.699090 0.000070 
#    z 0.032640 0.000070 1.652270 
# 
# From -- ./inp_files/154432.got.cif
#   From: 2010.05.17/outbox.cif.g08.bks.cpg/sg12_78_cif.got.tgz:154432.got - 2010.06.03 13:09:07.
