data_PCOD9211941
_publ_section_title
;
Structure prediction by ZEFSAII (Michael W. Deem and Ramdas Pophale) SiO2 
 PCOD9211941
Probable space group: C 2/M
;
_chemical_formula_sum "Si O2"
_cell_formula_units_Z 32
_cell_length_a 5.077341
_cell_length_b 23.503168
_cell_length_c 10.924730
_cell_angle_alpha 90.000000
_cell_angle_beta 74.104792
_cell_angle_gamma 90.000000
_cell_volume 1253.839840
_symmetry_space_group_name_H-M "C 2/M"
_symmetry_group_IT_number 12
_symmetry_cell_setting 'monoclinic'
loop_
_space_group_symop_operation_xyz
x,y,z
-x,y,-z
-x,-y,-z
x,-y,z
1/2+x,1/2+y,z
1/2-x,1/2+y,-z
1/2-x,1/2-y,-z
1/2+x,1/2-y,z
loop_
_atom_site_type_symbol
_atom_site_label
_atom_site_fract_x
_atom_site_fract_y
_atom_site_fract_z
Si Si1 0.163684 0.118099 0.352108
Si Si2 0.500000 0.852727 0.000000
Si Si3 0.305920 0.000000 0.410851
Si Si4 0.912963 0.713565 0.777693
Si Si5 0.943228 0.067655 0.860849
O O1 0.330378 0.058394 0.336164
O O2 0.381552 0.168999 0.312633
O O3 0.941720 0.102617 0.270941
O O4 0.000000 0.125767 0.500000
O O5 0.644175 0.812010 0.079552
O O6 0.337257 0.896914 0.103508
O O7 0.500000 0.000000 0.500000
O O8 0.000000 0.000000 0.500000
O O9 0.119019 0.768011 0.762738
O O10 0.954737 0.000000 0.836953
O O11 0.000000 0.073867 0.000000
#
# Coordination Sequence:
#
# PCOD9211941 Si02
#       5
#     8   4   4   8   8
#     4  10  23  45  71 106 146 189 239 291 361 429
#     4  10  23  40  66  96 142 185 246 284 368 412
#     4  10  22  44  69 103 138 184 227 279 349 429
#     4  11  26  44  71 101 140 189 243 298 348 417
#     4  10  21  40  68 106 148 183 232 294 363 430
#
# _framework density 25.521599999999999
#
# number of rings (size 3 to 8) (size 9 to 14) (size 15 to 20)
#    0.000    1.750    1.250    1.125    7.000    5.000 
#    9.000    0.000    0.000    0.000    0.000    0.000 
#    0.000    0.000    0.000    0.000    0.000    0.000 
#
# Total GULP energy -89147.523596 kJ/mol
# GULP energy per Si atom -5571.720225 kJ/mol
# Density = 2.546351 g / cm^3
# Si number density = 25.521600 Si / 1000 Ang^3
#
#
#
# Elastic Constant Matrix: (Units=GPa)
#
#
# Indices 1 2 3 4 5 6 
#
# 1 89.8647 11.1563 16.8303 0.0000 0.4108 0.0000
# 2 11.1563 144.3681 36.2459 0.0000 -5.7647 0.0000
# 3 16.8303 36.2459 140.2139 0.0000 9.4723 0.0000
# 4 0.0000 0.0000 0.0000 69.9191 0.0000 -12.1004
# 5 0.4108 -5.7647 9.4723 0.0000 26.1078 0.0000
# 6 0.0000 0.0000 0.0000 -12.1004 0.0000 20.2150
#
#
#
# Elastic Compliance Matrix: (Units=1/GPa)
#
#
# Indices 1 2 3 4 5 6 
#
# 1 0.011429 -0.000567 -0.001235 0.000000 0.000143 0.000000
# 2 -0.000567 0.007584 -0.002056 0.000000 0.002430 0.000000
# 3 -0.001235 -0.002056 0.008038 0.000000 -0.003351 0.000000
# 4 0.000000 0.000000 0.000000 0.015955 0.000000 0.009550
# 5 0.000143 0.002430 -0.003351 0.000000 0.040053 0.000000
# 6 0.000000 0.000000 0.000000 0.009550 0.000000 0.055185
#
#
# Mechanical properties :
#
#
# Convention : Reuss Voigt Hill
#
# Bulk Modulus (GPa) = 51.72383 55.87909 53.80146
# Shear Modulus (GPa) = 32.80718 43.92934 38.36826
#
# Velocity S-wave (km/s) = 3.58923 4.15331 3.88153
# Velocity P-wave (km/s) = 6.12270 6.70390 6.41988
#
# Compressibility (1/GPa) = 0.01933345
#
# Stress axis : x y z
#
# Youngs Moduli (GPa) = 87.49753 131.85794 124.40638
#
# Poissons Ratio (x) = 0.07482 0.15362
# Poissons Ratio (y) = 0.04965 0.25584
# Poissons Ratio (z) = 0.10804 0.27117
#
# Static dielectric constant tensor:
#      x y z
#    x 2.098450 0.000000 0.007120 
#    y 0.000000 2.015960 0.000000 
#    z 0.007120 0.000000 2.486530 
# 
# From -- ./inp_files/114949.got.cif
#   From: 2010.05.17/outbox.cif.g08.bks.cpg/sg12_58_cif.got.tgz:114949.got - 2010.06.03 13:09:07.
