data_PCOD9211549
_publ_section_title
;
Structure prediction by ZEFSAII (Michael W. Deem and Ramdas Pophale) SiO2 
 PCOD9211549
Probable space group: C 2/M
;
_chemical_formula_sum "Si O2"
_cell_formula_units_Z 40
_cell_length_a 12.074265
_cell_length_b 14.512064
_cell_length_c 14.479772
_cell_angle_alpha 90.000000
_cell_angle_beta 42.146880
_cell_angle_gamma 90.000000
_cell_volume 1702.534045
_symmetry_space_group_name_H-M "C 2/M"
_symmetry_group_IT_number 12
_symmetry_cell_setting 'monoclinic'
loop_
_space_group_symop_operation_xyz
x,y,z
-x,y,-z
-x,-y,-z
x,-y,z
1/2+x,1/2+y,z
1/2-x,1/2+y,-z
1/2-x,1/2-y,-z
1/2+x,1/2-y,z
loop_
_atom_site_type_symbol
_atom_site_label
_atom_site_fract_x
_atom_site_fract_y
_atom_site_fract_z
Si Si1 0.362574 0.603374 0.694680
Si Si2 0.686500 0.798073 0.345366
Si Si3 0.226982 0.140858 0.524451
Si Si4 0.873564 0.390327 0.001759
Si Si5 0.587240 0.895335 0.227472
O O1 0.312155 0.500000 0.696216
O O2 0.288027 0.687841 0.681778
O O3 0.560338 0.608908 0.578505
O O4 0.299418 0.616619 0.838755
O O5 0.500000 0.805915 0.500000
O O6 0.786195 0.861760 0.355527
O O7 0.683396 0.837729 0.244748
O O8 0.250000 0.250000 0.500000
O O9 0.395873 0.101311 0.378802
O O10 0.911245 0.500000 0.969363
O O11 0.892052 0.353306 0.887413
O O12 0.000000 0.352117 0.000000
O O13 0.649678 0.000000 0.188206
#
# Coordination Sequence:
#
# PCOD9211549 Si02
#       5
#     8   8   8   8   8
#     4  11  23  40  65  93 126 166 209 258 312 369
#     4  10  22  39  60  90 129 158 206 259 306 373
#     4  11  22  41  60  90 129 159 203 263 306 369
#     4   9  21  39  61  93 127 161 209 257 308 375
#     4  10  21  40  64  87 121 168 206 250 315 374
#
# _framework density 23.494391
#
# number of rings (size 3 to 8) (size 9 to 14) (size 15 to 20)
#    0.000    1.800    4.000    0.600    2.800    5.600 
#    0.000    1.000    0.000    3.600    0.000    0.000 
#    0.000    0.000    0.000    0.000    0.000    0.000 
#
# Total GULP energy -111692.374728 kJ/mol
# GULP energy per Si atom -5584.618736 kJ/mol
# Density = 2.344092 g / cm^3
# Si number density = 23.494391 Si / 1000 Ang^3
#
#
#
# Elastic Constant Matrix: (Units=GPa)
#
#
# Indices 1 2 3 4 5 6 
#
# 1 47.1026 -2.8875 30.9730 -0.0001 29.0202 0.0001
# 2 -2.8875 79.8138 9.1757 -0.0001 13.3295 0.0001
# 3 30.9730 9.1757 118.9261 -0.0002 37.0484 0.0002
# 4 -0.0001 -0.0001 -0.0002 24.1595 0.0001 18.5280
# 5 29.0202 13.3295 37.0484 0.0001 54.7936 -0.0001
# 6 0.0001 0.0001 0.0002 18.5280 -0.0001 -0.7529
#
#
#
# Elastic Compliance Matrix: (Units=1/GPa)
#
#
# Indices 1 2 3 4 5 6 
#
# 1 0.034408 0.004479 -0.004168 0.000000 -0.016495 0.000001
# 2 0.004479 0.013643 -0.000565 0.000000 -0.005309 0.000000
# 3 -0.004168 -0.000565 0.011157 0.000000 -0.005199 0.000000
# 4 0.000000 0.000000 0.000000 0.002083 0.000000 0.051256
# 5 -0.016495 -0.005309 -0.005199 0.000000 0.031793 -0.000001
# 6 0.000001 0.000000 0.000000 0.051256 -0.000001 -0.066836
#
#
# Mechanical properties :
#
#
# Convention : Reuss Voigt Hill
#
# Bulk Modulus (GPa) = 17.03611 35.59609 26.31610
# Shear Modulus (GPa) = 107.93478 29.54547 68.74013
#
# Velocity S-wave (km/s) = 6.78531 3.55005 5.41494
# Velocity P-wave (km/s) = 8.28578 5.65576 7.09372
#
# Compressibility (1/GPa) = 0.05869884
#
# Stress axis : x y z
#
# Youngs Moduli (GPa) = 29.06278 73.29877 89.62712
#
# Poissons Ratio (x) = -0.32829 0.37359
# Poissons Ratio (y) = -0.13017 0.05066
# Poissons Ratio (z) = 0.12114 0.04143
#
# Static dielectric constant tensor:
#      x y z
#    x 2.021440 0.000000 0.082490 
#    y 0.000000 1.922570 0.000000 
#    z 0.082490 0.000000 1.957630 
# 
# From -- ./inp_files/214577.got.cif
#   From: 2010.05.17/outbox.cif.g08.bks.cpg/sg12_108_cif.got.tgz:214577.got - 2010.06.03 13:09:07.
