data_PCOD9211836
_publ_section_title
;
Structure prediction by ZEFSAII (Michael W. Deem and Ramdas Pophale) SiO2 
 PCOD9211836
Probable space group: C 2/M
;
_chemical_formula_sum "Si O2"
_cell_formula_units_Z 40
_cell_length_a 28.378831
_cell_length_b 10.944959
_cell_length_c 6.196698
_cell_angle_alpha 90.000000
_cell_angle_beta 71.197175
_cell_angle_gamma 90.000000
_cell_volume 1822.010106
_symmetry_space_group_name_H-M "C 2/M"
_symmetry_group_IT_number 12
_symmetry_cell_setting 'monoclinic'
loop_
_space_group_symop_operation_xyz
x,y,z
-x,y,-z
-x,-y,-z
x,-y,z
1/2+x,1/2+y,z
1/2-x,1/2+y,-z
1/2-x,1/2-y,-z
1/2+x,1/2-y,z
loop_
_atom_site_type_symbol
_atom_site_label
_atom_site_fract_x
_atom_site_fract_y
_atom_site_fract_z
Si Si1 0.557572 0.142345 0.993003
Si Si2 0.195583 0.366277 0.149503
Si Si3 0.712038 0.706780 0.739825
Si Si4 0.055580 0.866290 0.325725
Si Si5 0.372507 0.715491 0.426791
O O1 0.564923 0.246822 0.164926
O O2 0.566446 0.000000 0.042882
O O3 0.500000 0.150515 0.000000
O O4 0.593869 0.184607 0.746453
O O5 0.174609 0.500000 0.203102
O O6 0.253188 0.365584 0.144266
O O7 0.164727 0.278127 0.348175
O O8 0.193787 0.321376 0.907546
O O9 0.750000 0.750000 0.500000
O O10 0.663721 0.652247 0.695417
O O11 0.091575 0.863536 0.478895
O O12 0.000000 0.857177 0.500000
O O13 0.060858 0.000000 0.206851
#
# Coordination Sequence:
#
# PCOD9211836 Si02
#       5
#     8   8   8   8   8
#     4  11  24  42  67  99 133 174 225 280 334 390
#     4  10  21  40  66  94 128 167 214 271 333 399
#     4   9  21  39  60  91 126 161 208 261 323 388
#     4  11  25  44  65  93 131 178 228 277 328 391
#     4  11  22  41  65  97 133 174 220 273 329 395
#
# _framework density 21.953775
#
# number of rings (size 3 to 8) (size 9 to 14) (size 15 to 20)
#    0.000    1.600    2.000    1.800    0.000    9.600 
#    0.000   14.000    0.000    0.000    0.000    0.000 
#    0.000    0.000    0.000    0.000    0.000    0.000 
#
# Total GULP energy -111620.228774 kJ/mol
# GULP energy per Si atom -5581.011439 kJ/mol
# Density = 2.190381 g / cm^3
# Si number density = 21.953775 Si / 1000 Ang^3
#
#
#
# Elastic Constant Matrix: (Units=GPa)
#
#
# Indices 1 2 3 4 5 6 
#
# 1 147.1783 26.0582 29.3950 0.0000 12.3417 0.0000
# 2 26.0582 134.1877 34.0857 0.0000 11.7158 0.0000
# 3 29.3950 34.0857 83.6873 0.0000 3.4851 0.0000
# 4 0.0000 0.0000 0.0000 9.5309 0.0000 15.3426
# 5 12.3417 11.7158 3.4851 0.0000 37.7149 0.0000
# 6 0.0000 0.0000 0.0000 15.3426 0.0000 -23.6252
#
#
#
# Elastic Compliance Matrix: (Units=1/GPa)
#
#
# Indices 1 2 3 4 5 6 
#
# 1 0.007546 -0.000709 -0.002277 0.000000 -0.002039 0.000000
# 2 -0.000709 0.008578 -0.003156 0.000000 -0.002141 0.000000
# 3 -0.002277 -0.003156 0.014016 0.000000 0.000430 0.000000
# 4 0.000000 0.000000 0.000000 0.051296 0.000000 0.033313
# 5 -0.002039 -0.002141 0.000430 0.000000 0.027807 0.000000
# 6 0.000000 0.000000 0.000000 0.033313 0.000000 -0.020694
#
#
# Mechanical properties :
#
#
# Convention : Reuss Voigt Hill
#
# Bulk Modulus (GPa) = 55.99891 60.45900 58.22895
# Shear Modulus (GPa) = 46.82282 23.09174 34.95728
#
# Velocity S-wave (km/s) = 4.62323 3.24672 3.99471
# Velocity P-wave (km/s) = 7.35268 6.45398 6.91794
#
# Compressibility (1/GPa) = 0.01785749
#
# Stress axis : x y z
#
# Youngs Moduli (GPa) = 132.52624 116.57057 71.34506
#
# Poissons Ratio (x) = 0.08265 0.16243
# Poissons Ratio (y) = 0.09396 0.22515
# Poissons Ratio (z) = 0.30173 0.36787
#
# Static dielectric constant tensor:
#      x y z
#    x 1.851970 0.000000 0.031780 
#    y 0.000000 1.833490 0.000000 
#    z 0.031780 0.000000 1.763940 
# 
# From -- ./inp_files/27398.got.cif
#   From: 2010.05.17/outbox.cif.g08.bks.cpg/sg12_14_cif.got.tgz:27398.got - 2010.06.03 13:09:07.
