data_PCOD9211753
_publ_section_title
;
Structure prediction by ZEFSAII (Michael W. Deem and Ramdas Pophale) SiO2 
 PCOD9211753
Probable space group: C 2/M
;
_chemical_formula_sum "Si O2"
_cell_formula_units_Z 52
_cell_length_a 14.982651
_cell_length_b 14.601436
_cell_length_c 17.172145
_cell_angle_alpha 90.000000
_cell_angle_beta 141.045949
_cell_angle_gamma 90.000000
_cell_volume 2361.838140
_symmetry_space_group_name_H-M "C 2/M"
_symmetry_group_IT_number 12
_symmetry_cell_setting 'monoclinic'
loop_
_space_group_symop_operation_xyz
x,y,z
-x,y,-z
-x,-y,-z
x,-y,z
1/2+x,1/2+y,z
1/2-x,1/2+y,-z
1/2-x,1/2-y,-z
1/2+x,1/2-y,z
loop_
_atom_site_type_symbol
_atom_site_label
_atom_site_fract_x
_atom_site_fract_y
_atom_site_fract_z
Si Si1 0.442775 0.103989 0.580428
Si Si2 0.340043 0.100516 0.855729
Si Si3 0.667926 0.659702 0.307999
Si Si4 0.749270 0.855496 0.973820
Si Si5 0.920867 0.365638 0.737353
Si Si6 0.750801 0.307068 0.193900
Si Si7 0.544257 0.500000 0.807894
O O1 0.329089 0.149502 0.446550
O O2 0.378391 0.098881 0.624019
O O3 0.585676 0.163508 0.684237
O O4 0.477363 0.000000 0.579379
O O5 0.346160 0.102273 0.765710
O O6 0.266238 0.196876 0.826821
O O7 0.278093 0.000000 0.836944
O O8 0.500000 0.104792 0.000000
O O9 0.602753 0.757224 0.284507
O O10 0.668700 0.658404 0.214426
O O11 0.578320 0.579470 0.284527
O O12 0.586395 0.886879 0.862099
O O13 0.802605 0.855008 0.920881
O O14 0.750000 0.750000 0.000000
O O15 0.841623 0.919719 0.089695
#
# Coordination Sequence:
#
# PCOD9211753 Si02
#       7
#     8   8   8   8   8   8   4
#     4  11  23  41  65  92 124 168 211 256 308 368
#     4  10  21  40  65  94 124 165 207 257 312 373
#     4  11  23  43  63  90 126 164 215 255 306 371
#     4  11  23  42  59  93 132 159 202 259 313 374
#     4  10  22  41  64  89 125 164 205 260 313 364
#     4  10  25  39  63  94 128 166 203 258 315 364
#     4  12  26  39  65  94 126 167 205 256 315 376
#
# _framework density 22.016749999999998
#
# number of rings (size 3 to 8) (size 9 to 14) (size 15 to 20)
#    0.000    1.385    2.308    2.308    8.615    1.231 
#    1.385    0.000    0.000    8.308    0.000    0.000 
#    0.000    0.000    0.000    0.000    0.000    0.000 
#
# Total GULP energy -144870.037905 kJ/mol
# GULP energy per Si atom -5571.924535 kJ/mol
# Density = 2.196664 g / cm^3
# Si number density = 22.016750 Si / 1000 Ang^3
#
#
#
# Elastic Constant Matrix: (Units=GPa)
#
#
# Indices 1 2 3 4 5 6 
#
# 1 44.3549 0.8375 7.1835 -0.0005 -26.3346 0.0000
# 2 0.8375 131.5000 24.0591 -0.0005 11.5128 0.0000
# 3 7.1835 24.0591 69.8699 -0.0022 8.0869 -0.0002
# 4 -0.0005 -0.0005 -0.0022 1365.7817 -0.0009 168.2412
# 5 -26.3346 11.5128 8.0869 -0.0009 33.2292 -0.0001
# 6 0.0000 0.0000 -0.0002 168.2412 -0.0001 33.1551
#
#
#
# Elastic Compliance Matrix: (Units=1/GPa)
#
#
# Indices 1 2 3 4 5 6 
#
# 1 0.048795 -0.002304 -0.009047 0.000000 0.041671 0.000000
# 2 -0.002304 0.008383 -0.002163 0.000000 -0.004204 0.000000
# 3 -0.009047 -0.002163 0.017215 0.000000 -0.010610 0.000000
# 4 0.000000 0.000000 0.000000 0.001953 0.000000 -0.009910
# 5 0.041671 -0.004204 -0.010610 0.000000 0.067157 0.000000
# 6 0.000000 0.000000 0.000000 -0.009910 0.000000 0.080447
#
#
# Mechanical properties :
#
#
# Convention : Reuss Voigt Hill
#
# Bulk Modulus (GPa) = 21.11210 34.43165 27.77188
# Shear Modulus (GPa) = 18.74300 300.67615 159.70957
#
# Velocity S-wave (km/s) = 2.92088 11.69887 8.52628
# Velocity P-wave (km/s) = 4.58097 14.07684 10.46763
#
# Compressibility (1/GPa) = 0.04736620
#
# Stress axis : x y z
#
# Youngs Moduli (GPa) = 20.49389 119.28810 58.08788
#
# Poissons Ratio (x) = 0.27483 0.52549
# Poissons Ratio (y) = 0.04722 0.12566
# Poissons Ratio (z) = 0.18540 0.25804
#
# Static dielectric constant tensor:
#      x y z
#    x 1.898010 0.000000 -0.021010 
#    y 0.000000 1.801220 0.000000 
#    z -0.021010 0.000000 1.766480 
# 
# From -- ./inp_files/270769.got.cif
#   From: 2010.05.17/outbox.cif.g08.bks.cpg/sg12_136_cif.got.tgz:270769.got - 2010.06.03 13:09:07.
