data_PCOD9211122
_publ_section_title
;
Structure prediction by ZEFSAII (Michael W. Deem and Ramdas Pophale) SiO2 
 PCOD9211122
Probable space group: C 2/M
;
_chemical_formula_sum "Si O2"
_cell_formula_units_Z 40
_cell_length_a 8.540870
_cell_length_b 21.508634
_cell_length_c 10.985877
_cell_angle_alpha 90.000000
_cell_angle_beta 110.541683
_cell_angle_gamma 90.000000
_cell_volume 1889.813898
_symmetry_space_group_name_H-M "C 2/M"
_symmetry_group_IT_number 12
_symmetry_cell_setting 'monoclinic'
loop_
_space_group_symop_operation_xyz
x,y,z
-x,y,-z
-x,-y,-z
x,-y,z
1/2+x,1/2+y,z
1/2-x,1/2+y,-z
1/2-x,1/2-y,-z
1/2+x,1/2-y,z
loop_
_atom_site_type_symbol
_atom_site_label
_atom_site_fract_x
_atom_site_fract_y
_atom_site_fract_z
Si Si1 0.180330 0.812071 0.606098
Si Si2 0.236793 0.193335 0.090320
Si Si3 0.903069 0.571490 0.602332
Si Si4 0.519479 0.731308 0.249033
Si Si5 0.117546 0.569502 0.913272
O O1 0.264344 0.874655 0.580468
O O2 0.311254 0.755101 0.639252
O O3 0.000000 0.798071 0.500000
O O4 0.113959 0.815385 0.727495
O O5 0.413948 0.205456 0.207364
O O6 0.087542 0.204101 0.142462
O O7 0.248162 0.124225 0.045733
O O8 0.250000 0.250000 0.000000
O O9 0.837387 0.500000 0.577411
O O10 0.000000 0.582485 0.500000
O O11 0.017262 0.572855 0.756470
O O12 0.188165 0.500000 0.940021
O O13 0.000000 0.578202 0.000000
#
# Coordination Sequence:
#
# PCOD9211122 Si02
#       5
#     8   8   8   8   8
#     4  11  23  38  61  88 128 167 216 273 324 390
#     4  11  21  38  64  92 128 168 217 269 327 394
#     4  10  23  43  67  94 129 174 221 270 329 399
#     4  10  23  38  57  93 125 166 213 267 337 385
#     4  10  21  39  66  95 126 168 218 266 325 398
#
# _framework density 21.166105000000002
#
# number of rings (size 3 to 8) (size 9 to 14) (size 15 to 20)
#    0.000    1.600    2.000    2.400    5.600    1.200 
#    0.000    1.000    0.000    2.400    0.000    0.000 
#    0.000    0.000    0.000    0.000    0.000    0.000 
#
# Total GULP energy -111429.385613 kJ/mol
# GULP energy per Si atom -5571.469281 kJ/mol
# Density = 2.111793 g / cm^3
# Si number density = 21.166105 Si / 1000 Ang^3
#
#
#
# Elastic Constant Matrix: (Units=GPa)
#
#
# Indices 1 2 3 4 5 6 
#
# 1 126.8955 86.0649 38.9842 0.0000 -36.8606 0.0000
# 2 86.0649 138.8981 19.7770 0.0000 -37.7366 0.0000
# 3 38.9842 19.7770 92.8754 0.0000 -25.2930 0.0000
# 4 0.0000 0.0000 0.0000 18.3704 0.0000 -7.3149
# 5 -36.8606 -37.7366 -25.2930 0.0000 51.1324 0.0000
# 6 0.0000 0.0000 0.0000 -7.3149 0.0000 35.2540
#
#
#
# Elastic Compliance Matrix: (Units=1/GPa)
#
#
# Indices 1 2 3 4 5 6 
#
# 1 0.015609 -0.008235 -0.003917 0.000000 0.003238 0.000000
# 2 -0.008235 0.013350 0.001942 0.000000 0.004877 0.000000
# 3 -0.003917 0.001942 0.013428 0.000000 0.005252 0.000000
# 4 0.000000 0.000000 0.000000 0.059338 0.000000 0.012312
# 5 0.003238 0.004877 0.005252 0.000000 0.028088 0.000000
# 6 0.000000 0.000000 0.000000 0.012312 0.000000 0.030920
#
#
# Mechanical properties :
#
#
# Convention : Reuss Voigt Hill
#
# Bulk Modulus (GPa) = 45.51935 72.03569 58.77752
# Shear Modulus (GPa) = 26.52857 35.20755 30.86806
#
# Velocity S-wave (km/s) = 3.54411 4.08290 3.82301
# Velocity P-wave (km/s) = 6.18871 7.50561 6.87874
#
# Compressibility (1/GPa) = 0.02196868
#
# Stress axis : x y z
#
# Youngs Moduli (GPa) = 64.06465 74.90382 74.47186
#
# Poissons Ratio (x) = 0.61680 0.29168
# Poissons Ratio (y) = 0.52754 -0.14461
# Poissons Ratio (z) = 0.25092 -0.14545
#
# Static dielectric constant tensor:
#      x y z
#    x 1.774980 0.000000 0.032510 
#    y 0.000000 1.748480 0.000000 
#    z 0.032510 0.000000 2.175070 
# 
# From -- ./inp_files/120318.got.cif
#   From: 2010.05.17/outbox.cif.g08.bks.cpg/sg12_61_cif.got.tgz:120318.got - 2010.06.03 13:09:07.
