data_PCOD9211796
_publ_section_title
;
Structure prediction by ZEFSAII (Michael W. Deem and Ramdas Pophale) SiO2 
 PCOD9211796
Probable space group: C 2/M
;
_chemical_formula_sum "Si O2"
_cell_formula_units_Z 60
_cell_length_a 15.691554
_cell_length_b 27.412873
_cell_length_c 15.230284
_cell_angle_alpha 90.000000
_cell_angle_beta 28.073753
_cell_angle_gamma 90.000000
_cell_volume 3083.099709
_symmetry_space_group_name_H-M "C 2/M"
_symmetry_group_IT_number 12
_symmetry_cell_setting 'monoclinic'
loop_
_space_group_symop_operation_xyz
x,y,z
-x,y,-z
-x,-y,-z
x,-y,z
1/2+x,1/2+y,z
1/2-x,1/2+y,-z
1/2-x,1/2-y,-z
1/2+x,1/2-y,z
loop_
_atom_site_type_symbol
_atom_site_label
_atom_site_fract_x
_atom_site_fract_y
_atom_site_fract_z
Si Si1 0.379671 0.443113 0.947762
Si Si2 0.000000 0.631988 0.500000
Si Si3 0.329136 0.648655 0.095565
Si Si4 0.775085 0.597677 0.544809
Si Si5 0.299962 0.303661 0.490730
Si Si6 0.464834 0.845257 0.132840
Si Si7 0.194404 0.804555 0.072893
Si Si8 0.514535 0.944293 0.173199
O O1 0.390227 0.500000 0.960286
O O2 0.574138 0.423705 0.738305
O O3 0.326032 0.409336 0.078885
O O4 0.221879 0.437377 0.017992
O O5 0.142852 0.662363 0.312311
O O6 0.122127 0.601190 0.456242
O O7 0.500000 0.661136 0.000000
O O8 0.346128 0.671146 0.984040
O O9 0.765280 0.652895 0.515280
O O10 0.891061 0.566259 0.370940
O O11 0.250000 0.250000 0.500000
O O12 0.203506 0.316917 0.670073
O O13 0.516401 0.306727 0.294186
O O14 0.453524 0.903444 0.159304
O O15 0.500000 0.833642 0.000000
O O16 0.637301 0.829409 0.033337
O O17 0.250000 0.750000 0.000000
O O18 0.492791 0.000000 0.163559
#
# Coordination Sequence:
#
# PCOD9211796 Si02
#       8
#     8   4   8   8   8   8   8   8
#     4  11  21  37  60  87 122 168 211 253 312 375
#     4  12  22  36  59  86 126 168 202 262 315 370
#     4  12  23  42  62  91 128 170 211 260 319 375
#     4  11  21  39  58  87 127 164 213 257 318 379
#     4  11  22  42  68  91 123 171 212 260 323 377
#     4  11  24  43  67  98 134 165 213 269 322 378
#     4  12  24  44  68  90 129 172 215 263 319 382
#     4  10  21  40  66  90 122 171 216 260 321 379
#
# _framework density 19.460934999999999
#
# number of rings (size 3 to 8) (size 9 to 14) (size 15 to 20)
#    0.000    0.800    6.667    1.200    0.000    1.600 
#    2.400    1.667    0.000    0.000    0.000    7.467 
#    0.000    0.000    0.000    0.000    0.000    0.000 
#
# Total GULP energy -167614.088954 kJ/mol
# GULP energy per Si atom -5587.136298 kJ/mol
# Density = 1.941664 g / cm^3
# Si number density = 19.460935 Si / 1000 Ang^3
#
#
#
# Elastic Constant Matrix: (Units=GPa)
#
#
# Indices 1 2 3 4 5 6 
#
# 1 67.5726 25.8858 35.7512 -0.1197 15.9938 0.0298
# 2 25.8858 115.8529 28.9951 -0.0837 3.8837 0.0495
# 3 35.7512 28.9951 163.4430 -0.1927 3.6278 0.1441
# 4 -0.1197 -0.0837 -0.1927 26.3381 0.0446 -4.4436
# 5 15.9938 3.8837 3.6278 0.0446 29.7281 -0.0071
# 6 0.0298 0.0495 0.1441 -4.4436 -0.0071 -2.1819
#
#
#
# Elastic Compliance Matrix: (Units=1/GPa)
#
#
# Indices 1 2 3 4 5 6 
#
# 1 0.020383 -0.003303 -0.003648 0.000053 -0.010089 -0.000114
# 2 -0.003303 0.009597 -0.000994 0.000018 0.000645 0.000067
# 3 -0.003648 -0.000994 0.007065 0.000071 0.001231 0.000245
# 4 0.000053 0.000018 0.000071 0.028260 -0.000096 -0.057548
# 5 -0.010089 0.000645 0.001231 -0.000096 0.038832 0.000028
# 6 -0.000114 0.000067 0.000245 -0.057548 0.000028 -0.341109
#
#
# Mechanical properties :
#
#
# Convention : Reuss Voigt Hill
#
# Bulk Modulus (GPa) = 47.27330 58.68140 52.97735
# Shear Modulus (GPa) = -23.36128 27.85929 2.24900
#
# Velocity S-wave (km/s) = -3.46847 3.78769 1.07618
# Velocity P-wave (km/s) = 2.88163 7.02479 5.36896
#
# Compressibility (1/GPa) = 0.02115359
#
# Stress axis : x y z
#
# Youngs Moduli (GPa) = 49.06136 104.20075 141.53580
#
# Poissons Ratio (x) = 0.34416 0.51638
# Poissons Ratio (y) = 0.16204 0.14074
# Poissons Ratio (z) = 0.17900 0.10362
#
# Static dielectric constant tensor:
#      x y z
#    x 1.671290 -0.000050 -0.003020 
#    y -0.000050 1.716970 0.000060 
#    z -0.003020 0.000060 1.702410 
# 
# From -- ./inp_files/219466.got.cif
#   From: 2010.05.17/outbox.cif.g08.bks.cpg/sg12_110_cif.got.tgz:219466.got - 2010.06.03 13:09:07.
