data_PCOD9211913
_publ_section_title
;
Structure prediction by ZEFSAII (Michael W. Deem and Ramdas Pophale) SiO2 
 PCOD9211913
Probable space group: C 2/M
;
_chemical_formula_sum "Si O2"
_cell_formula_units_Z 24
_cell_length_a 10.227442
_cell_length_b 10.820088
_cell_length_c 8.460741
_cell_angle_alpha 90.000000
_cell_angle_beta 103.594494
_cell_angle_gamma 90.000000
_cell_volume 910.049788
_symmetry_space_group_name_H-M "C 2/M"
_symmetry_group_IT_number 12
_symmetry_cell_setting 'monoclinic'
loop_
_space_group_symop_operation_xyz
x,y,z
-x,y,-z
-x,-y,-z
x,-y,z
1/2+x,1/2+y,z
1/2-x,1/2+y,-z
1/2-x,1/2-y,-z
1/2+x,1/2-y,z
loop_
_atom_site_type_symbol
_atom_site_label
_atom_site_fract_x
_atom_site_fract_y
_atom_site_fract_z
Si Si1 0.754508 0.764635 0.190069
Si Si2 0.629887 0.149342 0.428780
Si Si3 0.204808 0.000000 0.188092
Si Si4 0.087527 0.000000 0.795395
O O1 0.750000 0.750000 0.500000
O O2 0.617302 0.810862 0.237465
O O3 0.784889 0.623437 0.243457
O O4 0.750000 0.750000 0.000000
O O5 0.500000 0.172809 0.500000
O O6 0.656992 0.000000 0.438912
O O7 0.855979 0.125650 0.259145
O O8 0.071382 0.000000 0.254371
O O9 0.145586 0.000000 0.992598
#
# Coordination Sequence:
#
# PCOD9211913 Si02
#       4
#     8   8   4   4
#     4  10  21  40  67  97 129 172 226 278 329 395
#     4  11  27  48  69 100 141 182 227 280 341 409
#     4   9  20  34  61  94 122 166 217 266 335 388
#     4   9  18  38  59  89 132 163 209 282 325 378
#
# _framework density 26.372183
#
# number of rings (size 3 to 8) (size 9 to 14) (size 15 to 20)
#    0.000    2.000    1.667    0.000    7.000    0.667 
#    0.000    1.667    0.000   14.000    0.000    0.000 
#    0.000    0.000    0.000    0.000    0.000    0.000 
#
# Total GULP energy -67001.567145 kJ/mol
# GULP energy per Si atom -5583.463929 kJ/mol
# Density = 2.631216 g / cm^3
# Si number density = 26.372183 Si / 1000 Ang^3
#
#
#
# Elastic Constant Matrix: (Units=GPa)
#
#
# Indices 1 2 3 4 5 6 
#
# 1 143.1635 98.8627 70.2106 0.0000 -30.6778 0.0000
# 2 98.8627 318.3155 76.1519 0.0000 -26.7858 0.0000
# 3 70.2106 76.1519 135.6226 0.0000 -46.8614 0.0000
# 4 0.0000 0.0000 0.0000 60.2414 0.0000 -12.8747
# 5 -30.6778 -26.7858 -46.8614 0.0000 52.2504 0.0000
# 6 0.0000 0.0000 0.0000 -12.8747 0.0000 47.6613
#
#
#
# Elastic Compliance Matrix: (Units=1/GPa)
#
#
# Indices 1 2 3 4 5 6 
#
# 1 0.010766 -0.002319 -0.003620 0.000000 0.001886 0.000000
# 2 -0.002319 0.004129 -0.001242 0.000000 -0.000359 0.000000
# 3 -0.003620 -0.001242 0.013027 0.000000 0.008922 0.000000
# 4 0.000000 0.000000 0.000000 0.017617 0.000000 0.004759
# 5 0.001886 -0.000359 0.008922 0.000000 0.028064 0.000000
# 6 0.000000 0.000000 0.000000 0.004759 0.000000 0.022267
#
#
# Mechanical properties :
#
#
# Convention : Reuss Voigt Hill
#
# Bulk Modulus (GPa) = 73.74053 120.83911 97.28982
# Shear Modulus (GPa) = 43.57316 55.48907 49.53111
#
# Velocity S-wave (km/s) = 4.06918 4.59200 4.33847
# Velocity P-wave (km/s) = 7.07813 8.60438 7.87830
#
# Compressibility (1/GPa) = 0.01356106
#
# Stress axis : x y z
#
# Youngs Moduli (GPa) = 92.88828 242.21113 76.76277
#
# Poissons Ratio (x) = 0.56168 0.27785
# Poissons Ratio (y) = 0.21541 0.09531
# Poissons Ratio (z) = 0.33622 0.30073
#
# Static dielectric constant tensor:
#      x y z
#    x 2.035120 0.000000 -0.015430 
#    y 0.000000 2.012820 0.000000 
#    z -0.015430 0.000000 2.653470 
# 
# From -- ./inp_files/9415.got.cif
#   From: 2010.05.17/outbox.cif.g08.bks.cpg/sg12_5_cif.got.tgz:9415.got - 2010.06.03 13:09:07.
