data_PCOD9211990
_publ_section_title
;
Structure prediction by ZEFSAII (Michael W. Deem and Ramdas Pophale) SiO2 
 PCOD9211990
Probable space group: C 2/M
;
_chemical_formula_sum "Si O2"
_cell_formula_units_Z 40
_cell_length_a 14.229354
_cell_length_b 13.746847
_cell_length_c 8.613296
_cell_angle_alpha 90.000000
_cell_angle_beta 90.364890
_cell_angle_gamma 90.000000
_cell_volume 1684.801917
_symmetry_space_group_name_H-M "C 2/M"
_symmetry_group_IT_number 12
_symmetry_cell_setting 'monoclinic'
loop_
_space_group_symop_operation_xyz
x,y,z
-x,y,-z
-x,-y,-z
x,-y,z
1/2+x,1/2+y,z
1/2-x,1/2+y,-z
1/2-x,1/2-y,-z
1/2+x,1/2-y,z
loop_
_atom_site_type_symbol
_atom_site_label
_atom_site_fract_x
_atom_site_fract_y
_atom_site_fract_z
Si Si1 0.806712 0.608149 0.816878
Si Si2 0.125118 0.110491 0.639212
Si Si3 0.796602 0.194359 0.674010
Si Si4 0.612936 0.883271 0.835896
Si Si5 0.972545 0.208272 0.827166
O O1 0.838361 0.500000 0.773634
O O2 0.694177 0.611109 0.790393
O O3 0.831840 0.693958 0.699367
O O4 0.842701 0.629868 0.990139
O O5 0.177498 0.160863 0.496402
O O6 0.031176 0.161724 0.688174
O O7 0.109424 0.000000 0.593788
O O8 0.692493 0.162455 0.723059
O O9 0.870421 0.157665 0.802408
O O10 0.517221 0.820324 0.823000
O O11 0.600363 0.000000 0.812255
O O12 0.000000 0.178266 0.000000
#
# Coordination Sequence:
#
# PCOD9211990 Si02
#       5
#     8   8   8   8   8
#     4  10  21  40  69  97 131 175 223 274 336 404
#     4  11  25  44  67  99 136 179 227 283 344 406
#     4  12  23  43  69  98 138 182 224 279 344 406
#     4  11  24  44  71 104 138 179 228 282 344 410
#     4  12  25  42  70 100 136 180 228 281 339 409
#
# _framework density 23.741662000000002
#
# number of rings (size 3 to 8) (size 9 to 14) (size 15 to 20)
#    0.000    0.800    4.000    3.600    0.000    4.000 
#    0.000    0.000    0.000    2.400    0.000    0.000 
#    0.000    0.000    0.000    0.000    0.000    0.000 
#
# Total GULP energy -111449.158071 kJ/mol
# GULP energy per Si atom -5572.457904 kJ/mol
# Density = 2.368763 g / cm^3
# Si number density = 23.741662 Si / 1000 Ang^3
#
#
#
# Elastic Constant Matrix: (Units=GPa)
#
#
# Indices 1 2 3 4 5 6 
#
# 1 90.1242 -13.1578 19.5003 0.0000 -2.7604 0.0000
# 2 -13.1578 126.5539 47.8148 0.0000 -11.2082 0.0000
# 3 19.5003 47.8148 107.2706 0.0000 -9.5590 0.0000
# 4 0.0000 0.0000 0.0000 18.9254 0.0000 9.9096
# 5 -2.7604 -11.2082 -9.5590 0.0000 35.9788 0.0000
# 6 0.0000 0.0000 0.0000 9.9096 0.0000 4.7995
#
#
#
# Elastic Compliance Matrix: (Units=1/GPa)
#
#
# Indices 1 2 3 4 5 6 
#
# 1 0.012215 0.002593 -0.003299 0.000000 0.000869 0.000000
# 2 0.002593 0.010178 -0.004822 0.000000 0.002089 0.000000
# 3 -0.003299 -0.004822 0.012204 0.000000 0.001487 0.000000
# 4 0.000000 0.000000 0.000000 -0.651508 0.000000 1.345165
# 5 0.000869 0.002089 0.001487 0.000000 0.028907 0.000000
# 6 0.000000 0.000000 0.000000 1.345165 0.000000 -2.569003
#
#
# Mechanical properties :
#
#
# Convention : Reuss Voigt Hill
#
# Bulk Modulus (GPa) = 42.47863 48.02925 45.25394
# Shear Modulus (GPa) = -1.59332 29.92683 14.16676
#
# Velocity S-wave (km/s) = -0.82010 3.55423 2.44540
# Velocity P-wave (km/s) = 4.12724 6.09240 5.20343
#
# Compressibility (1/GPa) = 0.02354125
#
# Stress axis : x y z
#
# Youngs Moduli (GPa) = 81.86765 98.24812 81.94097
#
# Poissons Ratio (x) = -0.25479 0.27033
# Poissons Ratio (y) = -0.21231 0.39514
# Poissons Ratio (z) = 0.27009 0.47377
#
# Static dielectric constant tensor:
#      x y z
#    x 2.281460 0.000000 0.115520 
#    y 0.000000 2.034810 0.000000 
#    z 0.115520 0.000000 1.848580 
# 
# From -- ./inp_files/58982.got.cif
#   From: 2010.05.17/outbox.cif.g08.bks.cpg/sg12_30_cif.got.tgz:58982.got - 2010.06.03 13:09:07.
