data_PCOD9211861
_publ_section_title
;
Structure prediction by ZEFSAII (Michael W. Deem and Ramdas Pophale) SiO2 
 PCOD9211861
Probable space group: C 2/M
;
_chemical_formula_sum "Si O2"
_cell_formula_units_Z 56
_cell_length_a 9.434550
_cell_length_b 26.336245
_cell_length_c 12.912594
_cell_angle_alpha 90.000000
_cell_angle_beta 124.642604
_cell_angle_gamma 90.000000
_cell_volume 2639.595486
_symmetry_space_group_name_H-M "C 2/M"
_symmetry_group_IT_number 12
_symmetry_cell_setting 'monoclinic'
loop_
_space_group_symop_operation_xyz
x,y,z
-x,y,-z
-x,-y,-z
x,-y,z
1/2+x,1/2+y,z
1/2-x,1/2+y,-z
1/2-x,1/2-y,-z
1/2+x,1/2-y,z
loop_
_atom_site_type_symbol
_atom_site_label
_atom_site_fract_x
_atom_site_fract_y
_atom_site_fract_z
Si Si1 0.060083 0.442110 0.906253
Si Si2 0.298705 0.155238 0.381738
Si Si3 0.808889 0.373698 0.667456
Si Si4 0.451362 0.321682 0.289246
Si Si5 0.616759 0.794743 0.788154
Si Si6 0.347444 0.641676 0.020515
Si Si7 0.304541 0.056480 0.459175
O O1 0.079662 0.500000 0.876964
O O2 0.232604 0.409145 0.966132
O O3 0.911853 0.412393 0.783916
O O4 0.000000 0.443064 0.000000
O O5 0.500000 0.158865 0.500000
O O6 0.281038 0.181845 0.265590
O O7 0.239579 0.096476 0.347392
O O8 0.156256 0.180024 0.395939
O O9 0.643658 0.351391 0.657950
O O10 0.789934 0.408441 0.556092
O O11 0.935841 0.325108 0.709023
O O12 0.396166 0.264180 0.242613
O O13 0.408223 0.349836 0.163163
O O14 0.718696 0.812171 0.932762
O O15 0.500000 0.640402 0.000000
O O16 0.500000 0.050317 0.500000
O O17 0.230320 0.000000 0.439549
#
# Coordination Sequence:
#
# PCOD9211861 Si02
#       7
#     8   8   8   8   8   8   8
#     4  10  21  40  66  97 135 169 209 275 340 389
#     4  11  23  46  63  94 132 168 227 273 325 398
#     4  11  22  41  65  98 129 169 225 273 326 403
#     4  12  25  42  65 100 133 178 218 276 331 385
#     4  11  23  43  67  95 137 176 221 267 333 393
#     4  11  23  42  67  97 139 176 224 266 316 409
#     4  10  21  43  69  91 123 171 219 266 327 392
#
# _framework density 21.215371000000001
#
# number of rings (size 3 to 8) (size 9 to 14) (size 15 to 20)
#    0.000    1.143    5.714    1.714    0.000    1.429 
#    2.571    2.857    0.000    0.000    0.000    0.000 
#    0.000    0.000    0.000    0.000    0.000    0.000 
#
# Total GULP energy -156127.087945 kJ/mol
# GULP energy per Si atom -5575.967427 kJ/mol
# Density = 2.116708 g / cm^3
# Si number density = 21.215371 Si / 1000 Ang^3
#
#
#
# Elastic Constant Matrix: (Units=GPa)
#
#
# Indices 1 2 3 4 5 6 
#
# 1 137.1196 52.6878 34.7144 0.0000 2.1961 0.0000
# 2 52.6878 165.5485 45.4567 0.0000 3.5161 0.0000
# 3 34.7144 45.4567 48.2347 0.0000 11.3752 0.0000
# 4 0.0000 0.0000 0.0000 -5.1020 0.0000 4.5803
# 5 2.1961 3.5161 11.3752 0.0000 24.2828 0.0000
# 6 0.0000 0.0000 0.0000 4.5803 0.0000 -12.2166
#
#
#
# Elastic Compliance Matrix: (Units=1/GPa)
#
#
# Indices 1 2 3 4 5 6 
#
# 1 0.009277 -0.001386 -0.005868 0.000000 0.002111 0.000000
# 2 -0.001386 0.008519 -0.007610 0.000000 0.002457 0.000000
# 3 -0.005868 -0.007610 0.035685 0.000000 -0.015084 0.000000
# 4 0.000000 0.000000 0.000000 -0.295444 0.000000 -0.110770
# 5 0.002111 0.002457 -0.015084 0.000000 0.047701 0.000000
# 6 0.000000 0.000000 0.000000 -0.110770 0.000000 -0.123387
#
#
# Mechanical properties :
#
#
# Convention : Reuss Voigt Hill
#
# Bulk Modulus (GPa) = 42.10254 68.51340 55.30797
# Shear Modulus (GPa) = -17.85705 15.92909 -0.96398
#
# Velocity S-wave (km/s) = -2.90436 2.74310 -0.67481
# Velocity P-wave (km/s) = 2.93961 6.51131 5.05165
#
# Compressibility (1/GPa) = 0.02375154
#
# Stress axis : x y z
#
# Youngs Moduli (GPa) = 107.78871 117.38261 28.02322
#
# Poissons Ratio (x) = 0.16271 0.16445
# Poissons Ratio (y) = 0.14941 0.21327
# Poissons Ratio (z) = 0.63255 0.89332
#
# Static dielectric constant tensor:
#      x y z
#    x 1.822930 0.000000 -0.024680 
#    y 0.000000 1.783370 0.000000 
#    z -0.024680 0.000000 1.833990 
# 
# From -- ./inp_files/198969.got.cif
#   From: 2010.05.17/outbox.cif.g08.bks.cpg/sg12_100_cif.got.tgz:198969.got - 2010.06.03 13:09:07.
