data_PCOD9211659
_publ_section_title
;
Structure prediction by ZEFSAII (Michael W. Deem and Ramdas Pophale) SiO2 
 PCOD9211659
Probable space group: C 2/M
;
_chemical_formula_sum "Si O2"
_cell_formula_units_Z 44
_cell_length_a 24.493984
_cell_length_b 7.784591
_cell_length_c 28.751350
_cell_angle_alpha 90.000000
_cell_angle_beta 18.764320
_cell_angle_gamma 90.000000
_cell_volume 1763.487138
_symmetry_space_group_name_H-M "C 2/M"
_symmetry_group_IT_number 12
_symmetry_cell_setting 'monoclinic'
loop_
_space_group_symop_operation_xyz
x,y,z
-x,y,-z
-x,-y,-z
x,-y,z
1/2+x,1/2+y,z
1/2-x,1/2+y,-z
1/2-x,1/2-y,-z
1/2+x,1/2-y,z
loop_
_atom_site_type_symbol
_atom_site_label
_atom_site_fract_x
_atom_site_fract_y
_atom_site_fract_z
Si Si1 0.143893 0.804809 0.540271
Si Si2 0.167184 0.690395 0.342973
Si Si3 0.033723 0.198926 0.765943
Si Si4 0.472475 0.801347 0.970604
Si Si5 0.067090 0.500000 0.331352
Si Si6 0.254528 0.699419 0.064343
O O1 0.250000 0.750000 0.500000
O O2 0.290166 0.794936 0.382340
O O3 0.013821 0.652656 0.635740
O O4 0.079054 0.000000 0.595258
O O5 0.187247 0.500000 0.350291
O O6 0.345930 0.783580 0.201002
O O7 0.000000 0.772595 0.500000
O O8 0.126998 0.646685 0.321946
O O9 0.915532 0.208287 0.815037
O O10 0.074849 0.000000 0.741983
O O11 0.908223 0.264661 0.907417
O O12 0.424880 0.000000 0.013599
O O13 0.500000 0.726415 0.000000
O O14 0.328899 0.711587 0.056023
O O15 0.227497 0.500000 0.074986
#
# Coordination Sequence:
#
# PCOD9211659 Si02
#       6
#     8   8   8   8   4   8
#     4  12  24  41  65  95 133 177 220 270 340 398
#     4   9  22  43  68  95 128 172 227 274 343 395
#     4  10  21  40  64  96 133 167 217 277 337 404
#     4  11  25  43  64  95 136 179 229 283 340 406
#     4  10  23  44  65  96 137 174 219 288 323 410
#     4  10  22  39  66  95 128 172 219 276 339 399
#
# _framework density 24.950564
#
# number of rings (size 3 to 8) (size 9 to 14) (size 15 to 20)
#    0.545    1.091    1.818    1.636    2.545    6.182 
#    3.273    1.818    0.000    0.545    0.000    0.000 
#    0.000    0.000    0.000    0.000    0.000    0.000 
#
# Total GULP energy -122604.032976 kJ/mol
# GULP energy per Si atom -5572.910590 kJ/mol
# Density = 2.489378 g / cm^3
# Si number density = 24.950564 Si / 1000 Ang^3
#
#
#
# Elastic Constant Matrix: (Units=GPa)
#
#
# Indices 1 2 3 4 5 6 
#
# 1 102.1060 15.2199 25.8025 -0.0199 -32.3047 0.0120
# 2 15.2199 126.1739 18.5493 -0.0613 -12.5315 0.0719
# 3 25.8025 18.5493 131.2991 -0.0056 6.2866 0.0273
# 4 -0.0199 -0.0613 -0.0056 -0.2434 0.0101 13.9571
# 5 -32.3047 -12.5315 6.2866 0.0101 29.8499 -0.0078
# 6 0.0120 0.0719 0.0273 13.9571 -0.0078 16.0925
#
#
#
# Elastic Compliance Matrix: (Units=1/GPa)
#
#
# Indices 1 2 3 4 5 6 
#
# 1 0.016992 0.000529 -0.004349 -0.000010 0.019528 0.000011
# 2 0.000529 0.008530 -0.001523 -0.000077 0.004475 0.000033
# 3 -0.004349 -0.001523 0.009033 -0.000005 -0.007249 -0.000004
# 4 -0.000010 -0.000077 -0.000005 -0.080981 0.000003 0.070236
# 5 0.019528 0.004475 -0.007249 0.000003 0.058040 0.000003
# 6 0.000011 0.000033 -0.000004 0.070236 0.000003 0.001225
#
#
# Mechanical properties :
#
#
# Convention : Reuss Voigt Hill
#
# Bulk Modulus (GPa) = 41.89549 53.19137 47.54343
# Shear Modulus (GPa) = 158.82618 29.14029 93.98323
#
# Velocity S-wave (km/s) = 7.98715 3.42119 6.14407
# Velocity P-wave (km/s) = 10.09392 6.08038 8.33242
#
# Compressibility (1/GPa) = 0.02386892
#
# Stress axis : x y z
#
# Youngs Moduli (GPa) = 58.85095 117.23264 110.70379
#
# Poissons Ratio (x) = -0.06203 0.48145
# Poissons Ratio (y) = -0.03114 0.16864
# Poissons Ratio (z) = 0.25594 0.17858
#
# Static dielectric constant tensor:
#      x y z
#    x 2.015280 -0.000020 0.108990 
#    y -0.000020 1.892080 0.000020 
#    z 0.108990 0.000020 2.030870 
# 
# From -- ./inp_files/382155.got.cif
#   From: 2010.05.17/outbox.cif.g08.bks.cpg/sg12_192_cif.got.tgz:382155.got - 2010.06.03 13:09:07.
