data_PCOD9211853
_publ_section_title
;
Structure prediction by ZEFSAII (Michael W. Deem and Ramdas Pophale) SiO2 
 PCOD9211853
Probable space group: C 2/M
;
_chemical_formula_sum "Si O2"
_cell_formula_units_Z 44
_cell_length_a 9.429999
_cell_length_b 24.251441
_cell_length_c 12.119366
_cell_angle_alpha 90.000000
_cell_angle_beta 37.788851
_cell_angle_gamma 90.000000
_cell_volume 1698.301322
_symmetry_space_group_name_H-M "C 2/M"
_symmetry_group_IT_number 12
_symmetry_cell_setting 'monoclinic'
loop_
_space_group_symop_operation_xyz
x,y,z
-x,y,-z
-x,-y,-z
x,-y,z
1/2+x,1/2+y,z
1/2-x,1/2+y,-z
1/2-x,1/2-y,-z
1/2+x,1/2-y,z
loop_
_atom_site_type_symbol
_atom_site_label
_atom_site_fract_x
_atom_site_fract_y
_atom_site_fract_z
Si Si1 0.663650 0.061217 0.177162
Si Si2 0.705107 0.060108 0.781703
Si Si3 0.000000 0.617558 0.500000
Si Si4 0.156433 0.319967 0.795618
Si Si5 0.690994 0.720163 0.648133
Si Si6 0.675609 0.669802 0.992000
O O1 0.425963 0.058285 0.254183
O O2 0.603643 0.083355 0.335155
O O3 0.757183 0.000000 0.122120
O O4 0.828494 0.103175 0.008555
O O5 0.801405 0.123093 0.719950
O O6 0.828079 0.000000 0.721258
O O7 0.500000 0.060997 0.000000
O O8 0.192473 0.660503 0.422065
O O9 0.275087 0.262727 0.691961
O O10 0.954352 0.322885 0.823199
O O11 0.000000 0.316445 0.000000
O O12 0.750000 0.750000 0.500000
O O13 0.429284 0.703466 0.841786
O O14 0.500000 0.684881 0.000000
#
# Coordination Sequence:
#
# PCOD9211853 Si02
#       6
#     8   8   4   8   8   8
#     4  10  21  40  66  96 132 173 219 275 343 409
#     4   8  15  32  59  90 118 153 210 270 320 382
#     4  12  25  42  60  96 135 176 220 278 344 406
#     4  10  22  38  64  91 121 171 226 270 324 393
#     4  12  26  39  60  87 130 175 219 272 329 396
#     4  11  22  42  64  93 129 171 224 277 328 398
#
# _framework density 25.908241
#
# number of rings (size 3 to 8) (size 9 to 14) (size 15 to 20)
#    0.000    1.636    1.818    3.545    2.545    0.364 
#    0.000    0.000    0.000    1.091    0.000    0.636 
#    0.000    1.091    0.000    0.000    0.000    0.000 
#
# Total GULP energy -122759.617136 kJ/mol
# GULP energy per Si atom -5579.982597 kJ/mol
# Density = 2.584927 g / cm^3
# Si number density = 25.908241 Si / 1000 Ang^3
#
#
#
# Elastic Constant Matrix: (Units=GPa)
#
#
# Indices 1 2 3 4 5 6 
#
# 1 70.4330 -4.0565 4.9557 0.0000 6.8464 0.0000
# 2 -4.0565 226.9292 56.9535 0.0000 18.6830 0.0000
# 3 4.9557 56.9535 101.6048 0.0000 23.7677 0.0000
# 4 0.0000 0.0000 0.0000 17.1658 0.0000 1.5033
# 5 6.8464 18.6830 23.7677 0.0000 42.5387 0.0000
# 6 0.0000 0.0000 0.0000 1.5033 0.0000 0.5712
#
#
#
# Elastic Compliance Matrix: (Units=1/GPa)
#
#
# Indices 1 2 3 4 5 6 
#
# 1 0.014490 0.000571 -0.000486 0.000000 -0.002311 0.000000
# 2 0.000571 0.005171 -0.002731 0.000000 -0.000837 0.000000
# 3 -0.000486 -0.002731 0.012766 0.000000 -0.005855 0.000000
# 4 0.000000 0.000000 0.000000 0.075705 0.000000 -0.199249
# 5 -0.002311 -0.000837 -0.005855 0.000000 0.027519 0.000000
# 6 0.000000 0.000000 0.000000 -0.199249 0.000000 2.275106
#
#
# Mechanical properties :
#
#
# Convention : Reuss Voigt Hill
#
# Bulk Modulus (GPa) = 36.85179 57.18582 47.01880
# Shear Modulus (GPa) = 2.06178 34.79611 18.42894
#
# Velocity S-wave (km/s) = 0.89304 3.66874 2.66994
# Velocity P-wave (km/s) = 3.91385 6.32982 5.26236
#
# Compressibility (1/GPa) = 0.02713572
#
# Stress axis : x y z
#
# Youngs Moduli (GPa) = 69.01467 193.38133 78.33278
#
# Poissons Ratio (x) = -0.11049 0.03810
# Poissons Ratio (y) = -0.03943 0.21389
# Poissons Ratio (z) = 0.03356 0.52804
#
# Static dielectric constant tensor:
#      x y z
#    x 2.261270 0.000000 -0.054380 
#    y 0.000000 2.117490 0.000000 
#    z -0.054380 0.000000 2.053470 
# 
# From -- ./inp_files/135733.got.cif
#   From: 2010.05.17/outbox.cif.g08.bks.cpg/sg12_68_cif.got.tgz:135733.got - 2010.06.03 13:09:07.
