data_PCOD9211746
_publ_section_title
;
Structure prediction by ZEFSAII (Michael W. Deem and Ramdas Pophale) SiO2 
 PCOD9211746
Probable space group: C 2/M
;
_chemical_formula_sum "Si O2"
_cell_formula_units_Z 48
_cell_length_a 18.168707
_cell_length_b 27.079097
_cell_length_c 9.207290
_cell_angle_alpha 90.000000
_cell_angle_beta 31.536550
_cell_angle_gamma 90.000000
_cell_volume 2369.337318
_symmetry_space_group_name_H-M "C 2/M"
_symmetry_group_IT_number 12
_symmetry_cell_setting 'monoclinic'
loop_
_space_group_symop_operation_xyz
x,y,z
-x,y,-z
-x,-y,-z
x,-y,z
1/2+x,1/2+y,z
1/2-x,1/2+y,-z
1/2-x,1/2-y,-z
1/2+x,1/2-y,z
loop_
_atom_site_type_symbol
_atom_site_label
_atom_site_fract_x
_atom_site_fract_y
_atom_site_fract_z
Si Si1 0.097950 0.444892 0.716230
Si Si2 0.088489 0.229626 0.481498
Si Si3 0.892198 0.555815 0.795974
Si Si4 0.857450 0.119839 0.305893
Si Si5 0.618551 0.275640 0.898930
Si Si6 0.641516 0.379963 0.344046
O O1 0.141602 0.500000 0.694847
O O2 0.229173 0.411601 0.462877
O O3 0.994202 0.450681 0.759274
O O4 0.000000 0.419494 0.000000
O O5 0.227998 0.254350 0.317228
O O6 0.147941 0.178978 0.312260
O O7 0.000000 0.255807 0.500000
O O8 0.971673 0.216596 0.801443
O O9 0.847236 0.500000 0.823168
O O10 0.000000 0.578798 0.500000
O O11 0.765875 0.589947 0.059585
O O12 0.851113 0.175170 0.248748
O O13 0.857995 0.115275 0.480510
O O14 0.000000 0.098548 0.000000
O O15 0.500000 0.246729 0.000000
O O16 0.500000 0.396596 0.500000
#
# Coordination Sequence:
#
# PCOD9211746 Si02
#       6
#     8   8   8   8   8   8
#     4  10  21  40  65  93 128 167 215 268 318 380
#     4  11  24  44  66  95 133 172 219 276 331 389
#     4  10  23  43  66  96 132 171 217 269 324 390
#     4  11  23  41  64  94 131 169 214 269 325 389
#     4  11  23  43  66  94 129 172 224 272 322 394
#     4  11  24  42  64  93 131 170 212 270 330 389
#
# _framework density 20.25883
#
# number of rings (size 3 to 8) (size 9 to 14) (size 15 to 20)
#    0.000    1.333    5.000    1.000    2.333    2.000 
#    0.000    1.667    0.000    0.000    0.000    0.000 
#    0.000    0.000    0.000    0.000    0.000    0.000 
#
# Total GULP energy -133635.857940 kJ/mol
# GULP energy per Si atom -5568.160748 kJ/mol
# Density = 2.021272 g / cm^3
# Si number density = 20.258830 Si / 1000 Ang^3
#
#
#
# Elastic Constant Matrix: (Units=GPa)
#
#
# Indices 1 2 3 4 5 6 
#
# 1 113.4869 31.9156 63.1357 0.0000 -16.8848 0.0000
# 2 31.9156 60.3939 71.4798 0.0000 -20.7992 0.0000
# 3 63.1357 71.4798 182.2275 -0.0001 -15.1912 0.0000
# 4 0.0000 0.0000 -0.0001 39.2329 0.0000 -25.3846
# 5 -16.8848 -20.7992 -15.1912 0.0000 46.3139 0.0000
# 6 0.0000 0.0000 0.0000 -25.3846 0.0000 24.0909
#
#
#
# Elastic Compliance Matrix: (Units=1/GPa)
#
#
# Indices 1 2 3 4 5 6 
#
# 1 0.011336 -0.001371 -0.003184 0.000000 0.002473 0.000000
# 2 -0.001371 0.036574 -0.012896 0.000000 0.011695 0.000000
# 3 -0.003184 -0.012896 0.011381 0.000000 -0.003219 0.000000
# 4 0.000000 0.000000 0.000000 0.080096 0.000000 0.084397
# 5 0.002473 0.011695 -0.003219 0.000000 0.026690 0.000000
# 6 0.000000 0.000000 0.000000 0.084397 0.000000 0.130439
#
#
# Mechanical properties :
#
#
# Convention : Reuss Voigt Hill
#
# Bulk Modulus (GPa) = 41.00216 76.57452 58.78834
# Shear Modulus (GPa) = 14.72552 34.56602 24.64577
#
# Velocity S-wave (km/s) = 2.69898 4.13512 3.49168
# Velocity P-wave (km/s) = 5.47684 7.78968 6.73331
#
# Compressibility (1/GPa) = 0.02438896
#
# Stress axis : x y z
#
# Youngs Moduli (GPa) = 88.21267 27.34203 87.86596
#
# Poissons Ratio (x) = 0.03749 0.27974
# Poissons Ratio (y) = 0.12094 1.13315
# Poissons Ratio (z) = 0.28084 0.35261
#
# Static dielectric constant tensor:
#      x y z
#    x 1.777540 0.000000 -0.047160 
#    y 0.000000 1.749570 0.000000 
#    z -0.047160 0.000000 1.861270 
# 
# From -- ./inp_files/80570.got.cif
#   From: 2010.05.17/outbox.cif.g08.bks.cpg/sg12_41_cif.got.tgz:80570.got - 2010.06.03 13:09:07.
