data_PCOD9211975
_publ_section_title
;
Structure prediction by ZEFSAII (Michael W. Deem and Ramdas Pophale) SiO2 
 PCOD9211975
Probable space group: C 2/M
;
_chemical_formula_sum "Si O2"
_cell_formula_units_Z 48
_cell_length_a 11.342910
_cell_length_b 13.774422
_cell_length_c 20.324595
_cell_angle_alpha 90.000000
_cell_angle_beta 140.859260
_cell_angle_gamma 90.000000
_cell_volume 2004.498104
_symmetry_space_group_name_H-M "C 2/M"
_symmetry_group_IT_number 12
_symmetry_cell_setting 'monoclinic'
loop_
_space_group_symop_operation_xyz
x,y,z
-x,y,-z
-x,-y,-z
x,-y,z
1/2+x,1/2+y,z
1/2-x,1/2+y,-z
1/2-x,1/2-y,-z
1/2+x,1/2-y,z
loop_
_atom_site_type_symbol
_atom_site_label
_atom_site_fract_x
_atom_site_fract_y
_atom_site_fract_z
Si Si1 0.921517 0.818023 0.800392
Si Si2 0.805465 0.603168 0.783548
Si Si3 0.778228 0.615798 0.418227
Si Si4 0.430193 0.609333 0.539179
Si Si5 0.795997 0.104141 0.877440
Si Si6 0.222971 0.681228 0.095676
O O1 0.904538 0.705671 0.814566
O O2 0.836173 0.833322 0.690835
O O3 0.812210 0.881783 0.806071
O O4 0.139471 0.848497 0.902593
O O5 0.907987 0.500000 0.822909
O O6 0.627690 0.601950 0.660534
O O7 0.726535 0.612343 0.822591
O O8 0.739202 0.500000 0.397886
O O9 0.709334 0.646051 0.462609
O O10 0.000000 0.627899 0.500000
O O11 0.500000 0.656494 0.500000
O O12 0.359357 0.500000 0.491416
O O13 0.716315 0.207538 0.865124
O O14 0.705419 0.000000 0.851545
O O15 0.000000 0.102115 0.000000
O O16 0.000000 0.677073 0.000000
#
# Coordination Sequence:
#
# PCOD9211975 Si02
#       6
#     8   8   8   8   8   8
#     4  11  22  40  65  93 125 169 218 271 319 388
#     4  10  22  40  61  91 129 169 214 268 326 387
#     4  10  21  40  69 101 132 171 219 270 328 393
#     4   9  18  38  65  93 128 169 211 264 326 388
#     4   9  20  38  61  90 126 166 207 260 328 387
#     4  10  22  40  63  91 124 164 216 269 324 387
#
# _framework density 23.946145000000001
#
# number of rings (size 3 to 8) (size 9 to 14) (size 15 to 20)
#    0.000    2.167    1.667    0.500    0.000    8.333 
#    6.000    5.000    0.000    0.000    0.000    0.000 
#    0.000    0.667    0.000    0.000    0.000    0.000 
#
# Total GULP energy -133657.942952 kJ/mol
# GULP energy per Si atom -5569.080956 kJ/mol
# Density = 2.389164 g / cm^3
# Si number density = 23.946145 Si / 1000 Ang^3
#
#
#
# Elastic Constant Matrix: (Units=GPa)
#
#
# Indices 1 2 3 4 5 6 
#
# 1 122.7465 -12.0346 26.6573 0.0000 -14.9318 0.0000
# 2 -12.0346 103.4629 17.4636 0.0000 -24.8655 0.0000
# 3 26.6573 17.4636 51.7115 0.0000 -9.4098 0.0000
# 4 0.0000 0.0000 0.0000 32.4775 0.0000 -10.5080
# 5 -14.9318 -24.8655 -9.4098 0.0000 26.8283 0.0000
# 6 0.0000 0.0000 0.0000 -10.5080 0.0000 -24.1742
#
#
#
# Elastic Compliance Matrix: (Units=1/GPa)
#
#
# Indices 1 2 3 4 5 6 
#
# 1 0.010668 0.004025 -0.005447 0.000000 0.007757 0.000000
# 2 0.004025 0.014203 -0.004345 0.000000 0.013879 0.000000
# 3 -0.005447 -0.004345 0.023851 0.000000 0.001306 0.000000
# 4 0.000000 0.000000 0.000000 0.026994 0.000000 -0.011734
# 5 0.007757 0.013879 0.001306 0.000000 0.054914 0.000000
# 6 0.000000 0.000000 0.000000 -0.011734 0.000000 -0.036266
#
#
# Mechanical properties :
#
#
# Convention : Reuss Voigt Hill
#
# Bulk Modulus (GPa) = 26.89175 38.01039 32.45107
# Shear Modulus (GPa) = 42.26728 23.41528 32.84128
#
# Velocity S-wave (km/s) = 4.20586 3.13042 3.70735
# Velocity P-wave (km/s) = 5.90256 5.38273 5.64863
#
# Compressibility (1/GPa) = 0.03718612
#
# Stress axis : x y z
#
# Youngs Moduli (GPa) = 93.73793 70.40986 41.92651
#
# Poissons Ratio (x) = -0.28337 0.22837
# Poissons Ratio (y) = -0.37726 0.18219
# Poissons Ratio (z) = 0.51059 0.30596
#
# Static dielectric constant tensor:
#      x y z
#    x 1.979490 0.000000 0.004750 
#    y 0.000000 1.940910 0.000000 
#    z 0.004750 0.000000 1.904260 
# 
# From -- ./inp_files/305700.got.cif
#   From: 2010.05.17/outbox.cif.g08.bks.cpg/sg12_153_cif.got.tgz:305700.got - 2010.06.03 13:09:07.
