data_PCOD9211656
_publ_section_title
;
Structure prediction by ZEFSAII (Michael W. Deem and Ramdas Pophale) SiO2 
 PCOD9211656
Probable space group: C 2/M
;
_chemical_formula_sum "Si O2"
_cell_formula_units_Z 48
_cell_length_a 10.441317
_cell_length_b 22.107227
_cell_length_c 15.310868
_cell_angle_alpha 90.000000
_cell_angle_beta 35.631938
_cell_angle_gamma 90.000000
_cell_volume 2058.932191
_symmetry_space_group_name_H-M "C 2/M"
_symmetry_group_IT_number 12
_symmetry_cell_setting 'monoclinic'
loop_
_space_group_symop_operation_xyz
x,y,z
-x,y,-z
-x,-y,-z
x,-y,z
1/2+x,1/2+y,z
1/2-x,1/2+y,-z
1/2-x,1/2-y,-z
1/2+x,1/2-y,z
loop_
_atom_site_type_symbol
_atom_site_label
_atom_site_fract_x
_atom_site_fract_y
_atom_site_fract_z
Si Si1 0.452287 0.070459 0.216132
Si Si2 0.235402 0.067803 0.662955
Si Si3 0.188016 0.769298 0.131958
Si Si4 0.000000 0.861832 0.500000
Si Si5 0.000000 0.621356 0.000000
Si Si6 0.662826 0.153650 0.244861
Si Si7 0.826364 0.828614 0.419579
O O1 0.209874 0.095817 0.369720
O O2 0.491564 0.082484 0.092334
O O3 0.603926 0.112019 0.194014
O O4 0.475114 0.000000 0.225715
O O5 0.500000 0.064127 0.500000
O O6 0.203210 0.111850 0.763034
O O7 0.136160 0.102989 0.636041
O O8 0.152574 0.000000 0.721095
O O9 0.260775 0.715554 0.155620
O O10 0.928731 0.781853 0.293687
O O11 0.250000 0.750000 0.000000
O O12 0.299877 0.831756 0.097821
O O13 0.950161 0.822182 0.442484
O O14 0.433898 0.172561 0.419441
#
# Coordination Sequence:
#
# PCOD9211656 Si02
#       7
#     8   8   8   4   4   8   8
#     4  11  22  40  64  92 125 164 209 257 316 374
#     4   9  19  38  63  94 126 157 200 254 312 370
#     4  12  25  43  63  87 130 165 214 254 313 377
#     4  10  21  40  64  96 126 156 209 264 314 368
#     4  12  25  44  60  90 127 170 206 262 316 378
#     4  10  22  40  66  94 123 164 208 261 310 367
#     4  10  22  41  65  97 124 161 209 258 314 366
#
# _framework density 23.313054999999999
#
# number of rings (size 3 to 8) (size 9 to 14) (size 15 to 20)
#    0.000    1.500    3.333    1.500    2.333    4.667 
#    4.500    0.000    0.000    1.000    0.000    0.000 
#    0.000    0.000    0.000    0.000    0.000    0.000 
#
# Total GULP energy -134278.445167 kJ/mol
# GULP energy per Si atom -5594.935215 kJ/mol
# Density = 2.325999 g / cm^3
# Si number density = 23.313055 Si / 1000 Ang^3
#
#
#
# Elastic Constant Matrix: (Units=GPa)
#
#
# Indices 1 2 3 4 5 6 
#
# 1 62.7845 4.2253 23.2630 -0.0123 20.2026 0.0030
# 2 4.2253 112.8324 35.9131 -0.0004 5.7192 0.0002
# 3 23.2630 35.9131 101.7343 -0.0318 23.6812 0.0190
# 4 -0.0123 -0.0004 -0.0318 25.9136 0.0194 18.8527
# 5 20.2026 5.7192 23.6812 0.0194 32.7468 -0.0083
# 6 0.0030 0.0002 0.0190 18.8527 -0.0083 23.6456
#
#
#
# Elastic Compliance Matrix: (Units=1/GPa)
#
#
# Indices 1 2 3 4 5 6 
#
# 1 0.020255 0.000518 -0.002266 0.000044 -0.010948 -0.000040
# 2 0.000518 0.010023 -0.003817 -0.000017 0.000691 0.000017
# 3 -0.002266 -0.003817 0.013485 0.000073 -0.007687 -0.000072
# 4 0.000044 -0.000017 0.000073 0.091893 -0.000150 -0.073267
# 5 -0.010948 0.000691 -0.007687 -0.000150 0.042730 0.000142
# 6 -0.000040 0.000017 -0.000072 -0.073267 0.000142 0.100707
#
#
# Mechanical properties :
#
#
# Convention : Reuss Voigt Hill
#
# Bulk Modulus (GPa) = 30.64537 44.90602 37.77569
# Shear Modulus (GPa) = 16.60570 30.72454 23.66512
#
# Velocity S-wave (km/s) = 2.67177 3.63424 3.18952
# Velocity P-wave (km/s) = 4.76356 6.07571 5.45920
#
# Compressibility (1/GPa) = 0.03263136
#
# Stress axis : x y z
#
# Youngs Moduli (GPa) = 49.37057 99.76693 74.15849
#
# Poissons Ratio (x) = -0.05164 0.16804
# Poissons Ratio (y) = -0.02556 0.28310
# Poissons Ratio (z) = 0.11187 0.38086
#
# Static dielectric constant tensor:
#      x y z
#    x 1.893880 0.000000 -0.038860 
#    y 0.000000 1.829440 0.000000 
#    z -0.038860 0.000000 1.955380 
# 
# From -- ./inp_files/207947.got.cif
#   From: 2010.05.17/outbox.cif.g08.bks.cpg/sg12_104_cif.got.tgz:207947.got - 2010.06.03 13:09:07.
