data_PCOD9211187
_publ_section_title
;
Structure prediction by ZEFSAII (Michael W. Deem and Ramdas Pophale) SiO2 
 PCOD9211187
Probable space group: C 2/M
;
_chemical_formula_sum "Si O2"
_cell_formula_units_Z 40
_cell_length_a 9.310784
_cell_length_b 15.255461
_cell_length_c 13.651953
_cell_angle_alpha 90.000000
_cell_angle_beta 99.187525
_cell_angle_gamma 90.000000
_cell_volume 1914.250564
_symmetry_space_group_name_H-M "C 2/M"
_symmetry_group_IT_number 12
_symmetry_cell_setting 'monoclinic'
loop_
_space_group_symop_operation_xyz
x,y,z
-x,y,-z
-x,-y,-z
x,-y,z
1/2+x,1/2+y,z
1/2-x,1/2+y,-z
1/2-x,1/2-y,-z
1/2+x,1/2-y,z
loop_
_atom_site_type_symbol
_atom_site_label
_atom_site_fract_x
_atom_site_fract_y
_atom_site_fract_z
Si Si1 0.569247 0.000000 0.901560
Si Si2 0.860569 0.158234 0.199560
Si Si3 0.529271 0.175187 0.216087
Si Si4 0.396291 0.896416 0.394905
Si Si5 0.065462 0.894440 0.403857
Si Si6 0.646056 0.500000 0.955222
O O1 0.518355 0.913640 0.841554
O O2 0.500000 0.000000 0.000000
O O3 0.737294 0.000000 0.945137
O O4 0.701845 0.183730 0.223022
O O5 0.944080 0.241691 0.164679
O O6 0.842115 0.083306 0.115901
O O7 0.960837 0.126801 0.301279
O O8 0.472610 0.161553 0.320377
O O9 0.500000 0.893564 0.500000
O O10 0.231847 0.866193 0.400974
O O11 0.388797 0.000000 0.363026
O O12 0.000000 0.860705 0.500000
O O13 0.072549 0.000000 0.413075
O O14 0.500000 0.500000 0.000000
#
# Coordination Sequence:
#
# PCOD9211187 Si02
#       6
#     4   8   8   8   8   4
#     4  12  26  52  73 100 133 182 225 286 349 400
#     4  12  26  46  69 106 137 181 226 283 340 406
#     4  12  26  44  73 101 142 176 231 280 340 409
#     4  10  21  39  68 103 138 184 226 274 336 405
#     4  10  21  39  68 101 142 181 227 275 334 405
#     4  12  30  48  77  98 137 178 229 286 345 408
#
# _framework density 20.895907000000001
#
# number of rings (size 3 to 8) (size 9 to 14) (size 15 to 20)
#    0.000    0.800    4.000    2.400    5.600    4.000 
#    0.000    4.000    0.000    0.000    0.000    0.000 
#    0.000    0.000    0.000    0.000    0.000    0.000 
#
# Total GULP energy -111864.619893 kJ/mol
# GULP energy per Si atom -5593.230995 kJ/mol
# Density = 2.084835 g / cm^3
# Si number density = 20.895907 Si / 1000 Ang^3
#
#
#
# Elastic Constant Matrix: (Units=GPa)
#
#
# Indices 1 2 3 4 5 6 
#
# 1 213.2020 24.9034 26.6155 0.0000 -3.9966 0.0000
# 2 24.9034 77.8055 10.4735 0.0000 -5.9956 0.0000
# 3 26.6155 10.4735 49.0717 0.0000 -1.7620 0.0000
# 4 0.0000 0.0000 0.0000 -19.4779 0.0000 5.2495
# 5 -3.9966 -5.9956 -1.7620 0.0000 40.8961 0.0000
# 6 0.0000 0.0000 0.0000 5.2495 0.0000 24.5232
#
#
#
# Elastic Compliance Matrix: (Units=1/GPa)
#
#
# Indices 1 2 3 4 5 6 
#
# 1 0.005160 -0.001297 -0.002514 0.000000 0.000206 0.000000
# 2 -0.001297 0.013696 -0.002155 0.000000 0.001788 0.000000
# 3 -0.002514 -0.002155 0.022216 0.000000 0.000395 0.000000
# 4 0.000000 0.000000 0.000000 -0.048540 0.000000 0.010391
# 5 0.000206 0.001788 0.000395 0.000000 0.024752 0.000000
# 6 0.000000 0.000000 0.000000 0.010391 0.000000 0.038553
#
#
# Mechanical properties :
#
#
# Convention : Reuss Voigt Hill
#
# Bulk Modulus (GPa) = 34.31933 51.56265 42.94099
# Shear Modulus (GPa) = 64.53038 27.72740 46.12889
#
# Velocity S-wave (km/s) = 5.56317 3.64666 4.70356
# Velocity P-wave (km/s) = 7.59768 6.51616 7.07761
#
# Compressibility (1/GPa) = 0.02913810
#
# Stress axis : x y z
#
# Youngs Moduli (GPa) = 193.81240 73.01574 45.01209
#
# Poissons Ratio (x) = 0.09471 0.11317
# Poissons Ratio (y) = 0.25141 0.09702
# Poissons Ratio (z) = 0.48729 0.15737
#
# Static dielectric constant tensor:
#      x y z
#    x 1.671360 0.000000 -0.061460 
#    y 0.000000 1.886370 0.000000 
#    z -0.061460 0.000000 1.705450 
# 
# From -- ./inp_files/194584.got.cif
#   From: 2010.05.17/outbox.cif.g08.bks.cpg/sg12_98_cif.got.tgz:194584.got - 2010.06.03 13:09:07.
