data_PCOD9211561
_publ_section_title
;
Structure prediction by ZEFSAII (Michael W. Deem and Ramdas Pophale) SiO2 
 PCOD9211561
Probable space group: C 2/M
;
_chemical_formula_sum "Si O2"
_cell_formula_units_Z 60
_cell_length_a 28.009929
_cell_length_b 14.986751
_cell_length_c 10.034274
_cell_angle_alpha 90.000000
_cell_angle_beta 129.659727
_cell_angle_gamma 90.000000
_cell_volume 3242.728886
_symmetry_space_group_name_H-M "C 2/M"
_symmetry_group_IT_number 12
_symmetry_cell_setting 'monoclinic'
loop_
_space_group_symop_operation_xyz
x,y,z
-x,y,-z
-x,-y,-z
x,-y,z
1/2+x,1/2+y,z
1/2-x,1/2+y,-z
1/2-x,1/2-y,-z
1/2+x,1/2-y,z
loop_
_atom_site_type_symbol
_atom_site_label
_atom_site_fract_x
_atom_site_fract_y
_atom_site_fract_z
Si Si1 0.932608 0.770898 0.887870
Si Si2 0.084707 0.103343 0.893149
Si Si3 0.779153 0.107981 0.951134
Si Si4 0.218666 0.892765 0.744089
Si Si5 0.096709 0.779548 0.460581
Si Si6 0.200902 0.321525 0.350388
Si Si7 0.500000 0.659336 0.500000
Si Si8 0.830900 0.398619 0.438905
O O1 0.924666 0.810185 0.724634
O O2 0.867966 0.718231 0.795038
O O3 0.936614 0.840297 0.016993
O O4 0.000000 0.722264 0.000000
O O5 0.152746 0.138433 0.971149
O O6 0.041386 0.108518 0.684542
O O7 0.089746 0.000000 0.941571
O O8 0.763531 0.133200 0.073806
O O9 0.781764 0.000000 0.952694
O O10 0.725815 0.133829 0.754282
O O11 0.154895 0.841823 0.599498
O O12 0.269301 0.861325 0.728521
O O13 0.210196 0.000000 0.722534
O O14 0.117028 0.676570 0.482577
O O15 0.046733 0.787317 0.488060
O O16 0.250000 0.250000 0.500000
O O17 0.192572 0.394198 0.451502
O O18 0.848278 0.500000 0.434316
#
# Coordination Sequence:
#
# PCOD9211561 Si02
#       8
#     8   8   8   8   8   8   4   8
#     4  11  23  41  58  86 123 160 203 257 299 368
#     4  11  23  37  59  89 121 163 203 243 297 366
#     4   9  20  36  56  90 121 147 194 248 304 364
#     4  11  22  38  61  91 125 159 202 253 304 364
#     4  11  24  41  62  89 121 163 207 247 309 366
#     4  11  21  39  62  91 120 159 206 252 307 364
#     4  12  23  42  57  86 124 170 198 242 302 368
#     4  10  21  40  64  89 119 155 201 262 313 359
#
# _framework density 18.502934
#
# number of rings (size 3 to 8) (size 9 to 14) (size 15 to 20)
#    0.000    1.333    5.333    1.400    0.000    2.933 
#    0.000    0.333    0.000   10.000    0.000    0.000 
#    0.000    0.000    0.000    0.000    0.000    0.000 
#
# Total GULP energy -167284.334767 kJ/mol
# GULP energy per Si atom -5576.144492 kJ/mol
# Density = 1.846082 g / cm^3
# Si number density = 18.502934 Si / 1000 Ang^3
#
#
#
# Elastic Constant Matrix: (Units=GPa)
#
#
# Indices 1 2 3 4 5 6 
#
# 1 154.6630 39.6844 48.5455 0.0000 -17.7054 0.0000
# 2 39.6844 69.1795 21.1549 0.0000 -8.3674 0.0000
# 3 48.5455 21.1549 114.3632 0.0000 -21.8593 0.0000
# 4 0.0000 0.0000 0.0000 18.4792 0.0000 -4.7758
# 5 -17.7054 -8.3674 -21.8593 0.0000 30.3691 0.0000
# 6 0.0000 0.0000 0.0000 -4.7758 0.0000 17.9324
#
#
#
# Elastic Compliance Matrix: (Units=1/GPa)
#
#
# Indices 1 2 3 4 5 6 
#
# 1 0.008472 -0.003847 -0.002485 0.000000 0.002091 0.000000
# 2 -0.003847 0.017238 -0.001248 0.000000 0.001608 0.000000
# 3 -0.002485 -0.001248 0.011233 0.000000 0.006292 0.000000
# 4 0.000000 0.000000 0.000000 0.058115 0.000000 0.015477
# 5 0.002091 0.001608 0.006292 0.000000 0.039119 0.000000
# 6 0.000000 0.000000 0.000000 0.015477 0.000000 0.059887
#
#
# Mechanical properties :
#
#
# Convention : Reuss Voigt Hill
#
# Bulk Modulus (GPa) = 45.90958 61.88614 53.89786
# Shear Modulus (GPa) = 23.09621 28.61087 25.85354
#
# Velocity S-wave (km/s) = 3.53689 3.93655 3.74206
# Velocity P-wave (km/s) = 6.44557 7.36079 6.91833
#
# Compressibility (1/GPa) = 0.02178195
#
# Stress axis : x y z
#
# Youngs Moduli (GPa) = 118.03391 58.01031 89.02684
#
# Poissons Ratio (x) = 0.22318 0.22124
# Poissons Ratio (y) = 0.45410 0.11113
# Poissons Ratio (z) = 0.29332 0.07241
#
# Static dielectric constant tensor:
#      x y z
#    x 1.644870 0.000000 0.013790 
#    y 0.000000 1.636780 0.000000 
#    z 0.013790 0.000000 1.655370 
# 
# From -- ./inp_files/112045.got.cif
#   From: 2010.05.17/outbox.cif.g08.bks.cpg/sg12_57_cif.got.tgz:112045.got - 2010.06.03 13:09:07.
