data_PCOD9211958
_publ_section_title
;
Structure prediction by ZEFSAII (Michael W. Deem and Ramdas Pophale) SiO2 
 PCOD9211958
Probable space group: C 2/M
;
_chemical_formula_sum "Si O2"
_cell_formula_units_Z 28
_cell_length_a 8.176337
_cell_length_b 23.821249
_cell_length_c 5.570660
_cell_angle_alpha 90.000000
_cell_angle_beta 92.930433
_cell_angle_gamma 90.000000
_cell_volume 1083.581757
_symmetry_space_group_name_H-M "C 2/M"
_symmetry_group_IT_number 12
_symmetry_cell_setting 'monoclinic'
loop_
_space_group_symop_operation_xyz
x,y,z
-x,y,-z
-x,-y,-z
x,-y,z
1/2+x,1/2+y,z
1/2-x,1/2+y,-z
1/2-x,1/2-y,-z
1/2+x,1/2-y,z
loop_
_atom_site_type_symbol
_atom_site_label
_atom_site_fract_x
_atom_site_fract_y
_atom_site_fract_z
Si Si1 0.500000 0.902459 0.500000
Si Si2 0.854331 0.940323 0.679050
Si Si3 0.163971 0.185324 0.231939
Si Si4 0.139958 0.693926 0.249181
O O1 0.669986 0.934797 0.554516
O O2 0.474274 0.860118 0.722982
O O3 0.893194 0.878876 0.787261
O O4 0.000000 0.945310 0.500000
O O5 0.852032 0.000000 0.819295
O O6 0.061458 0.243656 0.243049
O O7 0.253098 0.188392 0.499213
O O8 0.261551 0.190699 0.989356
#
# Coordination Sequence:
#
# PCOD9211958 Si02
#       4
#     4   8   8   8
#     4  10  21  40  68  96 131 174 230 280 342 400
#     4  10  22  41  66  97 138 182 228 278 337 410
#     4   9  19  39  61  94 134 170 219 277 337 399
#     4   9  19  36  65  96 130 169 219 282 339 396
#
# _framework density 25.840229999999998
#
# number of rings (size 3 to 8) (size 9 to 14) (size 15 to 20)
#    0.000    2.571    0.000    0.429    2.000    4.571 
#    0.000   14.286    0.000   13.714    0.000    0.000 
#    0.000    0.000    0.000    0.000    0.000    0.000 
#
# Total GULP energy -77974.446029 kJ/mol
# GULP energy per Si atom -5569.603288 kJ/mol
# Density = 2.578142 g / cm^3
# Si number density = 25.840230 Si / 1000 Ang^3
#
#
#
# Elastic Constant Matrix: (Units=GPa)
#
#
# Indices 1 2 3 4 5 6 
#
# 1 137.8715 37.5536 64.7829 0.0000 10.8667 0.0000
# 2 37.5536 286.0379 30.6157 0.0000 -13.2233 0.0000
# 3 64.7829 30.6157 183.9968 0.0000 4.5306 0.0000
# 4 0.0000 0.0000 0.0000 15.2312 0.0000 -52.9797
# 5 10.8667 -13.2233 4.5306 0.0000 67.1261 0.0000
# 6 0.0000 0.0000 0.0000 -52.9797 0.0000 56.5092
#
#
#
# Elastic Compliance Matrix: (Units=1/GPa)
#
#
# Indices 1 2 3 4 5 6 
#
# 1 0.009024 -0.000932 -0.002987 0.000000 -0.001443 0.000000
# 2 -0.000932 0.003693 -0.000309 0.000000 0.000899 0.000000
# 3 -0.002987 -0.000309 0.006538 0.000000 -0.000019 0.000000
# 4 0.000000 0.000000 0.000000 -0.029036 0.000000 -0.027223
# 5 -0.001443 0.000899 -0.000019 0.000000 0.015309 0.000000
# 6 0.000000 0.000000 0.000000 -0.027223 0.000000 -0.007826
#
#
# Mechanical properties :
#
#
# Convention : Reuss Voigt Hill
#
# Bulk Modulus (GPa) = 92.58217 97.09008 94.83613
# Shear Modulus (GPa) = 512.49389 59.43689 285.96539
#
# Velocity S-wave (km/s) = 14.09831 4.80121 10.53124
# Velocity P-wave (km/s) = 17.34713 8.26984 13.58884
#
# Compressibility (1/GPa) = 0.01080122
#
# Stress axis : x y z
#
# Youngs Moduli (GPa) = 110.81534 270.78511 152.94622
#
# Poissons Ratio (x) = 0.25231 0.45680
# Poissons Ratio (y) = 0.10326 0.04719
# Poissons Ratio (z) = 0.33097 0.08355
#
# Static dielectric constant tensor:
#      x y z
#    x 2.328670 0.000000 0.115320 
#    y 0.000000 2.084390 0.000000 
#    z 0.115320 0.000000 2.005240 
# 
# From -- ./inp_files/3144.got.cif
#   From: 2010.05.17/outbox.cif.g08.bks.cpg/sg12_2_cif.got.tgz:3144.got - 2010.06.03 13:09:07.
