data_PCOD9211607
_publ_section_title
;
Structure prediction by ZEFSAII (Michael W. Deem and Ramdas Pophale) SiO2 
 PCOD9211607
Probable space group: C 2/M
;
_chemical_formula_sum "Si O2"
_cell_formula_units_Z 64
_cell_length_a 15.334862
_cell_length_b 26.119003
_cell_length_c 11.317199
_cell_angle_alpha 90.000000
_cell_angle_beta 43.427640
_cell_angle_gamma 90.000000
_cell_volume 3116.082270
_symmetry_space_group_name_H-M "C 2/M"
_symmetry_group_IT_number 12
_symmetry_cell_setting 'monoclinic'
loop_
_space_group_symop_operation_xyz
x,y,z
-x,y,-z
-x,-y,-z
x,-y,z
1/2+x,1/2+y,z
1/2-x,1/2+y,-z
1/2-x,1/2-y,-z
1/2+x,1/2-y,z
loop_
_atom_site_type_symbol
_atom_site_label
_atom_site_fract_x
_atom_site_fract_y
_atom_site_fract_z
Si Si1 0.516843 0.894034 0.621076
Si Si2 0.727195 0.557856 0.534951
Si Si3 0.269462 0.099409 0.003813
Si Si4 0.686080 0.216418 0.962654
Si Si5 0.566372 0.214720 0.670698
Si Si6 0.305836 0.700482 0.599680
Si Si7 0.852841 0.084045 0.633607
Si Si8 0.034096 0.939606 0.103441
O O1 0.500000 0.905939 0.500000
O O2 0.651669 0.913870 0.533824
O O3 0.517042 0.832873 0.642097
O O4 0.402019 0.916410 0.813524
O O5 0.729448 0.500000 0.579934
O O6 0.722129 0.557935 0.399002
O O7 0.590553 0.580198 0.706183
O O8 0.286711 0.157745 0.028898
O O9 0.218758 0.073351 0.173348
O O10 0.158014 0.091350 0.018742
O O11 0.743951 0.226105 0.776971
O O12 0.750000 0.250000 0.000000
O O13 0.536235 0.225008 0.126012
O O14 0.589431 0.263554 0.564305
O O15 0.695625 0.197640 0.608893
O O16 0.350464 0.644513 0.598305
O O17 0.000000 0.068285 0.500000
O O18 0.054845 0.000000 0.112152
O O19 0.000000 0.936108 0.000000
#
# Coordination Sequence:
#
# PCOD9211607 Si02
#       8
#     8   8   8   8   8   8   8   8
#     4  11  24  42  64  92 130 166 210 258 312 379
#     4  11  24  42  66  96 128 162 208 264 316 370
#     4  10  23  40  63  92 122 170 205 254 311 374
#     4  10  23  37  58  89 125 159 207 254 306 363
#     4  10  22  39  61  87 121 166 208 252 308 365
#     4  10  22  39  62  86 122 166 205 253 307 371
#     4  11  22  40  66  92 126 163 210 259 314 375
#     4  10  21  40  64  91 125 163 208 259 310 367
#
# _framework density 20.538611
#
# number of rings (size 3 to 8) (size 9 to 14) (size 15 to 20)
#    0.000    1.625    2.500    1.125    7.000    2.000 
#    0.000    0.625    0.000    0.000    0.000    0.000 
#    0.000    0.000    0.000    0.000    0.000    0.000 
#
# Total GULP energy -178701.572557 kJ/mol
# GULP energy per Si atom -5584.424142 kJ/mol
# Density = 2.049186 g / cm^3
# Si number density = 20.538611 Si / 1000 Ang^3
#
#
#
# Elastic Constant Matrix: (Units=GPa)
#
#
# Indices 1 2 3 4 5 6 
#
# 1 83.4404 3.7714 22.2495 0.0000 2.0313 0.0000
# 2 3.7714 24.8374 22.1349 0.0000 -1.6981 0.0000
# 3 22.2495 22.1349 100.7046 0.0000 1.7018 0.0000
# 4 0.0000 0.0000 0.0000 11.3515 0.0000 -2.3398
# 5 2.0313 -1.6981 1.7018 0.0000 38.8537 0.0000
# 6 0.0000 0.0000 0.0000 -2.3398 0.0000 2.1900
#
#
#
# Elastic Compliance Matrix: (Units=1/GPa)
#
#
# Indices 1 2 3 4 5 6 
#
# 1 0.012755 0.000662 -0.002955 0.000000 -0.000508 0.000000
# 2 0.000662 0.050383 -0.011265 0.000000 0.002661 0.000000
# 3 -0.002955 -0.011265 0.013074 0.000000 -0.000911 0.000000
# 4 0.000000 0.000000 0.000000 0.112973 0.000000 0.120700
# 5 -0.000508 0.002661 -0.000911 0.000000 0.025920 0.000000
# 6 0.000000 0.000000 0.000000 0.120700 0.000000 0.585572
#
#
# Mechanical properties :
#
#
# Convention : Reuss Voigt Hill
#
# Bulk Modulus (GPa) = 20.36846 33.92152 27.14499
# Shear Modulus (GPa) = 5.92305 21.20082 13.56193
#
# Velocity S-wave (km/s) = 1.70004 3.21634 2.57245
# Velocity P-wave (km/s) = 3.71378 5.50862 4.69772
#
# Compressibility (1/GPa) = 0.04909552
#
# Stress axis : x y z
#
# Youngs Moduli (GPa) = 78.40055 19.84801 76.48533
#
# Poissons Ratio (x) = -0.01314 0.22601
# Poissons Ratio (y) = -0.05190 0.86163
# Poissons Ratio (z) = 0.23167 0.22359
#
# Static dielectric constant tensor:
#      x y z
#    x 1.689360 0.000000 0.050860 
#    y 0.000000 1.805710 0.000000 
#    z 0.050860 0.000000 1.617270 
# 
# From -- ./inp_files/150262.got.cif
#   From: 2010.05.17/outbox.cif.g08.bks.cpg/sg12_76_cif.got.tgz:150262.got - 2010.06.03 13:09:07.
