data_PCOD9211719
_publ_section_title
;
Structure prediction by ZEFSAII (Michael W. Deem and Ramdas Pophale) SiO2 
 PCOD9211719
Probable space group: C 2/M
;
_chemical_formula_sum "Si O2"
_cell_formula_units_Z 48
_cell_length_a 14.036307
_cell_length_b 20.395611
_cell_length_c 11.819448
_cell_angle_alpha 90.000000
_cell_angle_beta 142.681816
_cell_angle_gamma 90.000000
_cell_volume 2051.313108
_symmetry_space_group_name_H-M "C 2/M"
_symmetry_group_IT_number 12
_symmetry_cell_setting 'monoclinic'
loop_
_space_group_symop_operation_xyz
x,y,z
-x,y,-z
-x,-y,-z
x,-y,z
1/2+x,1/2+y,z
1/2-x,1/2+y,-z
1/2-x,1/2-y,-z
1/2+x,1/2-y,z
loop_
_atom_site_type_symbol
_atom_site_label
_atom_site_fract_x
_atom_site_fract_y
_atom_site_fract_z
Si Si1 0.206751 0.883048 0.553142
Si Si2 0.758071 0.121523 0.778900
Si Si3 0.466506 0.872176 0.243893
Si Si4 0.887536 0.258093 0.492915
Si Si5 0.328934 0.925158 0.898981
Si Si6 0.505845 0.572584 0.168039
O O1 0.370047 0.903280 0.645331
O O2 0.199478 0.804303 0.540002
O O3 0.214129 0.903792 0.690335
O O4 0.062076 0.911503 0.346535
O O5 0.606880 0.100153 0.709180
O O6 0.718502 0.187241 0.671198
O O7 0.838525 0.074732 0.763574
O O8 0.891094 0.125456 0.002307
O O9 0.507358 0.797755 0.317709
O O10 0.346288 0.881297 0.026879
O O11 0.000000 0.232004 0.500000
O O12 0.299190 0.000000 0.905007
O O13 0.500000 0.922233 0.000000
O O14 0.435067 0.500000 0.094029
#
# Coordination Sequence:
#
# PCOD9211719 Si02
#       6
#     8   8   8   8   8   8
#     4  11  22  40  67  93 129 165 209 261 318 370
#     4  10  22  42  63  90 127 164 212 257 315 372
#     4  10  21  40  65  92 122 165 213 263 306 373
#     4  10  22  41  65  97 128 162 211 261 318 379
#     4   9  20  38  59  89 124 162 208 254 307 368
#     4  11  24  42  65  93 130 169 209 257 318 378
#
# _framework density 23.399645
#
# number of rings (size 3 to 8) (size 9 to 14) (size 15 to 20)
#    0.000    1.833    1.667    2.000    0.000    4.667 
#    6.000    4.167    0.000    3.000    0.000    0.000 
#    0.000    0.000    0.000    0.000    0.000    0.000 
#
# Total GULP energy -133998.400821 kJ/mol
# GULP energy per Si atom -5583.266701 kJ/mol
# Density = 2.334639 g / cm^3
# Si number density = 23.399645 Si / 1000 Ang^3
#
#
#
# Elastic Constant Matrix: (Units=GPa)
#
#
# Indices 1 2 3 4 5 6 
#
# 1 96.0894 25.0996 25.0967 0.0000 -15.5569 0.0000
# 2 25.0996 79.4428 52.7939 0.0000 -9.9778 0.0000
# 3 25.0967 52.7939 174.9327 0.0000 -46.6540 0.0000
# 4 0.0000 0.0000 0.0000 28.0764 0.0000 -4.7868
# 5 -15.5569 -9.9778 -46.6540 0.0000 34.8717 0.0000
# 6 0.0000 0.0000 0.0000 -4.7868 0.0000 12.9521
#
#
#
# Elastic Compliance Matrix: (Units=1/GPa)
#
#
# Indices 1 2 3 4 5 6 
#
# 1 0.012027 -0.003669 0.000828 0.000000 0.005424 0.000000
# 2 -0.003669 0.017053 -0.005839 0.000000 -0.004569 0.000000
# 3 0.000828 -0.005839 0.010903 0.000000 0.013286 0.000000
# 4 0.000000 0.000000 0.000000 0.038012 0.000000 0.014049
# 5 0.005424 -0.004569 0.013286 0.000000 0.047564 0.000000
# 6 0.000000 0.000000 0.000000 0.014049 0.000000 0.082400
#
#
# Mechanical properties :
#
#
# Convention : Reuss Voigt Hill
#
# Bulk Modulus (GPa) = 44.19994 61.82724 53.01359
# Shear Modulus (GPa) = 21.47215 31.67836 26.57526
#
# Velocity S-wave (km/s) = 3.03252 3.68339 3.37369
# Velocity P-wave (km/s) = 5.58496 6.67604 6.15472
#
# Compressibility (1/GPa) = 0.02262446
#
# Stress axis : x y z
#
# Youngs Moduli (GPa) = 83.14486 58.63987 91.71777
#
# Poissons Ratio (x) = 0.21516 -0.07599
# Poissons Ratio (y) = 0.30508 0.53551
# Poissons Ratio (z) = -0.06888 0.34238
#
# Static dielectric constant tensor:
#      x y z
#    x 1.946660 0.000000 0.035240 
#    y 0.000000 1.832880 0.000000 
#    z 0.035240 0.000000 1.913160 
# 
# From -- ./inp_files/148013.got.cif
#   From: 2010.05.17/outbox.cif.g08.bks.cpg/sg12_75_cif.got.tgz:148013.got - 2010.06.03 13:09:07.
