data_PCOD9211469
_publ_section_title
;
Structure prediction by ZEFSAII (Michael W. Deem and Ramdas Pophale) SiO2 
 PCOD9211469
Probable space group: C 2/M
;
_chemical_formula_sum "Si O2"
_cell_formula_units_Z 48
_cell_length_a 29.724637
_cell_length_b 8.112953
_cell_length_c 14.924700
_cell_angle_alpha 90.000000
_cell_angle_beta 38.900733
_cell_angle_gamma 90.000000
_cell_volume 2260.175229
_symmetry_space_group_name_H-M "C 2/M"
_symmetry_group_IT_number 12
_symmetry_cell_setting 'monoclinic'
loop_
_space_group_symop_operation_xyz
x,y,z
-x,y,-z
-x,-y,-z
x,-y,z
1/2+x,1/2+y,z
1/2-x,1/2+y,-z
1/2-x,1/2-y,-z
1/2+x,1/2-y,z
loop_
_atom_site_type_symbol
_atom_site_label
_atom_site_fract_x
_atom_site_fract_y
_atom_site_fract_z
Si Si1 0.804353 0.802296 0.494233
Si Si2 0.958016 0.305183 0.301647
Si Si3 0.817374 0.196934 0.955555
Si Si4 0.553563 0.798940 0.992611
Si Si5 0.706299 0.198694 0.802977
Si Si6 0.969410 0.805188 0.640566
O O1 0.750000 0.750000 0.500000
O O2 0.883888 0.730679 0.366217
O O3 0.772807 0.746172 0.639720
O O4 0.808824 0.000000 0.486426
O O5 0.963999 0.500000 0.306704
O O6 0.021817 0.250239 0.137435
O O7 0.970431 0.218158 0.376633
O O8 0.801811 0.250079 0.081769
O O9 0.821791 0.000000 0.948498
O O10 0.750000 0.250000 0.000000
O O11 0.893266 0.261757 0.796941
O O12 0.552934 0.000000 0.989787
O O13 0.500000 0.737743 0.000000
O O14 0.635038 0.744708 0.860761
O O15 0.707268 0.000000 0.800939
O O16 0.000000 0.734642 0.500000
O O17 0.957606 0.000000 0.644540
#
# Coordination Sequence:
#
# PCOD9211469 Si02
#       6
#     8   8   8   8   8   8
#     4  11  24  41  63  90 126 167 208 253 304 364
#     4  11  22  38  63  92 124 159 201 254 305 362
#     4  11  24  41  64  92 124 159 202 255 307 365
#     4   9  17  33  59  87 115 152 197 240 290 355
#     4  10  21  40  63  87 121 164 205 248 302 362
#     4  10  23  43  64  88 122 163 203 247 307 370
#
# _framework density 21.237290999999999
#
# number of rings (size 3 to 8) (size 9 to 14) (size 15 to 20)
#    0.000    1.667    1.667    2.500    2.333    5.000 
#    0.000    0.000    0.000    2.500    0.000    0.000 
#    0.000    0.000    0.000    0.000    0.000    0.000 
#
# Total GULP energy -134039.459349 kJ/mol
# GULP energy per Si atom -5584.977473 kJ/mol
# Density = 2.118895 g / cm^3
# Si number density = 21.237291 Si / 1000 Ang^3
#
#
#
# Elastic Constant Matrix: (Units=GPa)
#
#
# Indices 1 2 3 4 5 6 
#
# 1 74.8499 -15.4820 -2.4880 -0.0001 3.1490 0.0000
# 2 -15.4820 15.5364 9.9255 -0.0010 3.1966 0.0001
# 3 -2.4880 9.9255 72.5190 -0.0003 1.1643 0.0000
# 4 -0.0001 -0.0010 -0.0003 18.5728 0.0001 0.9271
# 5 3.1490 3.1966 1.1643 0.0001 39.2278 0.0000
# 6 0.0000 0.0001 0.0000 0.9271 0.0000 32.8072
#
#
#
# Elastic Compliance Matrix: (Units=1/GPa)
#
#
# Indices 1 2 3 4 5 6 
#
# 1 0.017385 0.019188 -0.001983 0.000001 -0.002900 0.000000
# 2 0.019188 0.092900 -0.011916 0.000005 -0.008757 0.000000
# 3 -0.001983 -0.011916 0.015342 0.000000 0.000675 0.000000
# 4 0.000001 0.000005 0.000000 0.053918 -0.000001 -0.001524
# 5 -0.002900 -0.008757 0.000675 -0.000001 0.026419 0.000000
# 6 0.000000 0.000000 0.000000 -0.001524 0.000000 0.030524
#
#
# Mechanical properties :
#
#
# Convention : Reuss Voigt Hill
#
# Bulk Modulus (GPa) = 7.34192 16.31290 11.82741
# Shear Modulus (GPa) = 18.42894 29.51820 23.97357
#
# Velocity S-wave (km/s) = 2.94898 3.73221 3.36347
# Velocity P-wave (km/s) = 3.88071 5.12547 4.54590
#
# Compressibility (1/GPa) = 0.13620415
#
# Stress axis : x y z
#
# Youngs Moduli (GPa) = 57.52077 10.76421 65.18239
#
# Poissons Ratio (x) = -0.20654 0.12927
# Poissons Ratio (y) = -1.10370 0.77673
# Poissons Ratio (z) = 0.11407 0.12827
#
# Static dielectric constant tensor:
#      x y z
#    x 1.734500 0.000000 0.007860 
#    y 0.000000 1.758130 0.000000 
#    z 0.007860 0.000000 1.774320 
# 
# From -- ./inp_files/248799.got.cif
#   From: 2010.05.17/outbox.cif.g08.bks.cpg/sg12_125_cif.got.tgz:248799.got - 2010.06.03 13:09:07.
