data_PCOD9211264
_publ_section_title
;
Structure prediction by ZEFSAII (Michael W. Deem and Ramdas Pophale) SiO2 
 PCOD9211264
Probable space group: C 2/M
;
_chemical_formula_sum "Si O2"
_cell_formula_units_Z 56
_cell_length_a 15.924483
_cell_length_b 20.819266
_cell_length_c 17.271324
_cell_angle_alpha 90.000000
_cell_angle_beta 30.709691
_cell_angle_gamma 90.000000
_cell_volume 2924.235426
_symmetry_space_group_name_H-M "C 2/M"
_symmetry_group_IT_number 12
_symmetry_cell_setting 'monoclinic'
loop_
_space_group_symop_operation_xyz
x,y,z
-x,y,-z
-x,-y,-z
x,-y,z
1/2+x,1/2+y,z
1/2-x,1/2+y,-z
1/2-x,1/2-y,-z
1/2+x,1/2-y,z
loop_
_atom_site_type_symbol
_atom_site_label
_atom_site_fract_x
_atom_site_fract_y
_atom_site_fract_z
Si Si1 0.260167 0.686334 0.828791
Si Si2 0.465454 0.287683 0.260470
Si Si3 0.612390 0.927375 0.194260
Si Si4 0.817615 0.655375 0.419872
Si Si5 0.614626 0.324743 0.976870
Si Si6 0.321359 0.611534 0.629751
Si Si7 0.549582 0.070130 0.061867
O O1 0.401226 0.689051 0.782345
O O2 0.320554 0.667746 0.695178
O O3 0.182788 0.756733 0.892061
O O4 0.132147 0.630797 0.955226
O O5 0.291911 0.317068 0.424387
O O6 0.438954 0.211037 0.290705
O O7 0.522325 0.308082 0.130436
O O8 0.429862 0.902836 0.359260
O O9 0.608560 0.926988 0.103823
O O10 0.644311 0.000000 0.195090
O O11 0.743209 0.875836 0.119258
O O12 0.702332 0.635787 0.439249
O O13 0.500000 0.351055 0.000000
O O14 0.500000 0.579172 0.500000
O O15 0.149076 0.574677 0.780486
O O16 0.601358 0.000000 0.990238
#
# Coordination Sequence:
#
# PCOD9211264 Si02
#       7
#     8   8   8   8   8   8   8
#     4  12  21  38  60  91 123 154 197 242 293 353
#     4  11  21  37  63  88 118 156 195 246 298 345
#     4  10  21  40  63  85 117 161 198 238 297 353
#     4  10  21  40  59  86 122 157 196 238 293 357
#     4  12  23  39  62  93 117 146 198 254 297 345
#     4  11  22  36  56  89 123 156 195 241 288 346
#     4  10  22  39  59  84 122 164 200 238 287 353
#
# _framework density 19.150303999999998
#
# number of rings (size 3 to 8) (size 9 to 14) (size 15 to 20)
#    0.000    1.143    4.286    4.286    0.000    1.714 
#    0.000    2.143    0.000    0.857    0.000    0.000 
#    0.000    0.000    0.000    0.000    0.000    0.000 
#
# Total GULP energy -156314.921420 kJ/mol
# GULP energy per Si atom -5582.675765 kJ/mol
# Density = 1.910672 g / cm^3
# Si number density = 19.150304 Si / 1000 Ang^3
#
#
#
# Elastic Constant Matrix: (Units=GPa)
#
#
# Indices 1 2 3 4 5 6 
#
# 1 99.0523 22.3539 22.7267 -0.0015 -23.4155 0.0017
# 2 22.3539 116.4434 30.2448 -0.0006 -21.1927 0.0026
# 3 22.7267 30.2448 60.2158 0.0001 -19.6177 0.0027
# 4 -0.0015 -0.0006 0.0001 14.1957 -0.0004 0.0171
# 5 -23.4155 -21.1927 -19.6177 -0.0004 30.5991 -0.0015
# 6 0.0017 0.0026 0.0027 0.0171 -0.0015 -5.0595
#
#
#
# Elastic Compliance Matrix: (Units=1/GPa)
#
#
# Indices 1 2 3 4 5 6 
#
# 1 0.012537 -0.000449 -0.001873 0.000001 0.008082 0.000001
# 2 -0.000449 0.010439 -0.003577 0.000000 0.004593 0.000002
# 3 -0.001873 -0.003577 0.022546 0.000000 0.010543 0.000006
# 4 0.000001 0.000000 0.000000 0.070444 0.000002 0.000238
# 5 0.008082 0.004593 0.010543 0.000002 0.048806 -0.000004
# 6 0.000001 0.000002 0.000006 0.000238 -0.000004 -0.197649
#
#
# Mechanical properties :
#
#
# Convention : Reuss Voigt Hill
#
# Bulk Modulus (GPa) = 29.65403 47.37357 38.51380
# Shear Modulus (GPa) = -508.31414 21.30614 -243.50400
#
# Velocity S-wave (km/s) = -16.30982 3.33915 -11.28850
# Velocity P-wave (km/s) = 18.41635 6.29746 12.23732
#
# Compressibility (1/GPa) = 0.03372222
#
# Stress axis : x y z
#
# Youngs Moduli (GPa) = 79.76136 95.79272 44.35439
#
# Poissons Ratio (x) = 0.04305 0.08308
# Poissons Ratio (y) = 0.03584 0.15868
# Poissons Ratio (z) = 0.14941 0.34270
#
# Static dielectric constant tensor:
#      x y z
#    x 1.660680 0.000000 -0.017720 
#    y 0.000000 1.665730 0.000000 
#    z -0.017720 0.000000 1.685720 
# 
# From -- ./inp_files/272347.got.cif
#   From: 2010.05.17/outbox.cif.g08.bks.cpg/sg12_137_cif.got.tgz:272347.got - 2010.06.03 13:09:07.
