data_PCOD9211587
_publ_section_title
;
Structure prediction by ZEFSAII (Michael W. Deem and Ramdas Pophale) SiO2 
 PCOD9211587
Probable space group: C 2/M
;
_chemical_formula_sum "Si O2"
_cell_formula_units_Z 56
_cell_length_a 34.925861
_cell_length_b 18.848674
_cell_length_c 9.497170
_cell_angle_alpha 90.000000
_cell_angle_beta 150.374378
_cell_angle_gamma 90.000000
_cell_volume 3090.577730
_symmetry_space_group_name_H-M "C 2/M"
_symmetry_group_IT_number 12
_symmetry_cell_setting 'monoclinic'
loop_
_space_group_symop_operation_xyz
x,y,z
-x,y,-z
-x,-y,-z
x,-y,z
1/2+x,1/2+y,z
1/2-x,1/2+y,-z
1/2-x,1/2-y,-z
1/2+x,1/2-y,z
loop_
_atom_site_type_symbol
_atom_site_label
_atom_site_fract_x
_atom_site_fract_y
_atom_site_fract_z
Si Si1 0.713301 0.829125 0.384697
Si Si2 0.666478 0.416709 0.411897
Si Si3 0.511740 0.330109 0.873016
Si Si4 0.552727 0.082863 0.307902
Si Si5 0.785453 0.415175 0.320360
Si Si6 0.140507 0.917399 0.655762
Si Si7 0.533648 0.810778 0.762947
O O1 0.750000 0.750000 0.500000
O O2 0.765562 0.876651 0.450025
O O3 0.714401 0.865639 0.542301
O O4 0.624473 0.829164 0.051159
O O5 0.667539 0.500000 0.383797
O O6 0.672503 0.407501 0.599638
O O7 0.584767 0.382887 0.104344
O O8 0.434761 0.368922 0.572716
O O9 0.527437 0.261546 0.831191
O O10 0.500000 0.310478 0.000000
O O11 0.639926 0.101086 0.538421
O O12 0.516226 0.130806 0.312204
O O13 0.551341 0.000000 0.344588
O O14 0.500000 0.091009 0.000000
O O15 0.790458 0.500000 0.372617
O O16 0.707299 0.403511 0.982053
O O17 0.117286 0.000000 0.593187
O O18 0.500000 0.802292 0.500000
#
# Coordination Sequence:
#
# PCOD9211587 Si02
#       7
#     8   8   8   8   8   8   8
#     4  12  25  41  59  87 127 165 201 246 303 363
#     4  10  21  40  65  92 123 160 200 252 306 358
#     4  10  21  40  64  90 123 165 200 243 303 369
#     4  10  21  42  66  85 113 158 207 253 301 356
#     4  10  22  41  66  92 119 156 204 256 305 362
#     4   9  20  38  65  96 121 151 203 255 301 362
#     4  12  27  41  59  90 128 163 204 250 301 360
#
# _framework density 18.119589999999999
#
# number of rings (size 3 to 8) (size 9 to 14) (size 15 to 20)
#    0.000    1.571    2.857    1.286    4.000    2.571 
#    0.000    1.429    0.000    3.429    0.000    0.000 
#    0.000    0.000    0.000    0.000    0.000    0.000 
#
# Total GULP energy -156434.767544 kJ/mol
# GULP energy per Si atom -5586.955984 kJ/mol
# Density = 1.807835 g / cm^3
# Si number density = 18.119590 Si / 1000 Ang^3
#
#
#
# Elastic Constant Matrix: (Units=GPa)
#
#
# Indices 1 2 3 4 5 6 
#
# 1 91.6905 81.0946 69.8913 0.0000 20.5168 0.0000
# 2 81.0946 111.8327 63.9652 0.0000 4.4271 0.0000
# 3 69.8913 63.9652 137.7342 0.0000 5.1173 0.0000
# 4 0.0000 0.0000 0.0000 23.7060 0.0000 6.6932
# 5 20.5168 4.4271 5.1173 0.0000 24.6031 0.0000
# 6 0.0000 0.0000 0.0000 6.6932 0.0000 26.7014
#
#
#
# Elastic Compliance Matrix: (Units=1/GPa)
#
#
# Indices 1 2 3 4 5 6 
#
# 1 0.062631 -0.036019 -0.013458 0.000000 -0.042948 0.000000
# 2 -0.036019 0.032916 0.002111 0.000000 0.023674 0.000000
# 3 -0.013458 0.002111 0.012805 0.000000 0.008180 0.000000
# 4 0.000000 0.000000 0.000000 0.045396 0.000000 -0.011379
# 5 -0.042948 0.023674 0.008180 0.000000 0.070499 0.000000
# 6 0.000000 0.000000 0.000000 -0.011379 0.000000 0.040304
#
#
# Mechanical properties :
#
#
# Convention : Reuss Voigt Hill
#
# Bulk Modulus (GPa) = 73.41704 85.68440 79.55072
# Shear Modulus (GPa) = 13.74294 23.42252 18.58273
#
# Velocity S-wave (km/s) = 2.75700 3.59926 3.20591
# Velocity P-wave (km/s) = 7.12325 8.04138 7.59620
#
# Compressibility (1/GPa) = 0.01362082
#
# Stress axis : x y z
#
# Youngs Moduli (GPa) = 15.96647 30.38052 78.09302
#
# Poissons Ratio (x) = 1.09426 1.05100
# Poissons Ratio (y) = 0.57509 -0.16486
# Poissons Ratio (z) = 0.21488 -0.06414
#
# Static dielectric constant tensor:
#      x y z
#    x 1.596850 0.000000 0.004680 
#    y 0.000000 1.608450 0.000000 
#    z 0.004680 0.000000 1.596500 
# 
# From -- ./inp_files/75891.got.cif
#   From: 2010.05.17/outbox.cif.g08.bks.cpg/sg12_38_cif.got.tgz:75891.got - 2010.06.03 13:09:07.
