data_PCOD9211911
_publ_section_title
;
Structure prediction by ZEFSAII (Michael W. Deem and Ramdas Pophale) SiO2 
 PCOD9211911
Probable space group: C 2/M
;
_chemical_formula_sum "Si O2"
_cell_formula_units_Z 48
_cell_length_a 8.193802
_cell_length_b 25.791466
_cell_length_c 9.247559
_cell_angle_alpha 90.000000
_cell_angle_beta 99.021228
_cell_angle_gamma 90.000000
_cell_volume 1930.114245
_symmetry_space_group_name_H-M "C 2/M"
_symmetry_group_IT_number 12
_symmetry_cell_setting 'monoclinic'
loop_
_space_group_symop_operation_xyz
x,y,z
-x,y,-z
-x,-y,-z
x,-y,z
1/2+x,1/2+y,z
1/2-x,1/2+y,-z
1/2-x,1/2-y,-z
1/2+x,1/2-y,z
loop_
_atom_site_type_symbol
_atom_site_label
_atom_site_fract_x
_atom_site_fract_y
_atom_site_fract_z
Si Si1 0.439044 0.059386 0.167381
Si Si2 0.300627 0.943131 0.441092
Si Si3 0.737958 0.129996 0.322720
Si Si4 0.045070 0.731061 0.338572
Si Si5 0.839635 0.900241 0.042868
Si Si6 0.723572 0.707643 0.126312
O O1 0.294985 0.063181 0.270020
O O2 0.571187 0.101911 0.237626
O O3 0.500949 0.000000 0.185695
O O4 0.331717 0.069117 0.008752
O O5 0.500000 0.942305 0.500000
O O6 0.221619 0.898166 0.522898
O O7 0.239896 0.000000 0.476484
O O8 0.695285 0.189609 0.347322
O O9 0.862002 0.115835 0.212475
O O10 0.091380 0.775405 0.229550
O O11 0.000000 0.742465 0.500000
O O12 0.889319 0.703853 0.242574
O O13 0.815000 0.846069 0.955340
O O14 0.000000 0.927240 0.000000
O O15 0.750000 0.750000 0.000000
#
# Coordination Sequence:
#
# PCOD9211911 Si02
#       6
#     8   8   8   8   8   8
#     4  10  21  40  67  97 127 162 213 271 322 385
#     4   8  16  34  62  95 124 155 201 265 327 375
#     4  11  21  38  68  95 125 164 216 267 321 385
#     4  12  25  43  69 101 130 166 221 275 325 382
#     4  12  26  42  59  91 130 176 218 260 322 388
#     4  12  25  45  67  93 132 176 215 266 325 393
#
# _framework density 24.868993
#
# number of rings (size 3 to 8) (size 9 to 14) (size 15 to 20)
#    0.000    1.167    3.333    5.500    0.000    2.333 
#    0.000    0.833    0.000    2.000    0.000    0.000 
#    0.000    0.000    0.000    0.000    0.000    0.000 
#
# Total GULP energy -134179.551360 kJ/mol
# GULP energy per Si atom -5590.814640 kJ/mol
# Density = 2.481239 g / cm^3
# Si number density = 24.868993 Si / 1000 Ang^3
#
#
#
# Elastic Constant Matrix: (Units=GPa)
#
#
# Indices 1 2 3 4 5 6 
#
# 1 47.7422 -10.7819 -19.6207 0.0000 -2.2947 0.0000
# 2 -10.7819 72.9477 3.2184 0.0000 -4.5953 0.0000
# 3 -19.6207 3.2184 123.8694 0.0000 -21.2782 0.0000
# 4 0.0000 0.0000 0.0000 29.7684 0.0000 -9.8045
# 5 -2.2947 -4.5953 -21.2782 0.0000 39.8332 0.0000
# 6 0.0000 0.0000 0.0000 -9.8045 0.0000 10.9029
#
#
#
# Elastic Compliance Matrix: (Units=1/GPa)
#
#
# Indices 1 2 3 4 5 6 
#
# 1 0.023750 0.003577 0.004377 0.000000 0.004119 0.000000
# 2 0.003577 0.014348 0.000565 0.000000 0.002163 0.000000
# 3 0.004377 0.000565 0.009696 0.000000 0.005497 0.000000
# 4 0.000000 0.000000 0.000000 0.047729 0.000000 0.042920
# 5 0.004119 0.002163 0.005497 0.000000 0.028528 0.000000
# 6 0.000000 0.000000 0.000000 0.042920 0.000000 0.130315
#
#
# Mechanical properties :
#
#
# Convention : Reuss Voigt Hill
#
# Bulk Modulus (GPa) = 15.42456 21.13232 18.27844
# Shear Modulus (GPa) = 19.30956 34.21714 26.76335
#
# Velocity S-wave (km/s) = 2.78951 3.71333 3.28407
# Velocity P-wave (km/s) = 4.07320 5.18662 4.66326
#
# Compressibility (1/GPa) = 0.06483169
#
# Stress axis : x y z
#
# Youngs Moduli (GPa) = 42.10494 69.69402 103.13766
#
# Poissons Ratio (x) = -0.24928 -0.45139
# Poissons Ratio (y) = -0.15060 -0.05831
# Poissons Ratio (z) = -0.18427 -0.03940
#
# Static dielectric constant tensor:
#      x y z
#    x 2.060050 0.000000 -0.047610 
#    y 0.000000 1.932260 0.000000 
#    z -0.047610 0.000000 2.065740 
# 
# From -- ./inp_files/42164.got.cif
#   From: 2010.05.17/outbox.cif.g08.bks.cpg/sg12_22_cif.got.tgz:42164.got - 2010.06.03 13:09:07.
