data_PCOD9211900
_publ_section_title
;
Structure prediction by ZEFSAII (Michael W. Deem and Ramdas Pophale) SiO2 
 PCOD9211900
Probable space group: C 2/M
;
_chemical_formula_sum "Si O2"
_cell_formula_units_Z 56
_cell_length_a 18.963637
_cell_length_b 8.668970
_cell_length_c 18.248147
_cell_angle_alpha 90.000000
_cell_angle_beta 68.157194
_cell_angle_gamma 90.000000
_cell_volume 2784.538751
_symmetry_space_group_name_H-M "C 2/M"
_symmetry_group_IT_number 12
_symmetry_cell_setting 'monoclinic'
loop_
_space_group_symop_operation_xyz
x,y,z
-x,y,-z
-x,-y,-z
x,-y,z
1/2+x,1/2+y,z
1/2-x,1/2+y,-z
1/2-x,1/2-y,-z
1/2+x,1/2-y,z
loop_
_atom_site_type_symbol
_atom_site_label
_atom_site_fract_x
_atom_site_fract_y
_atom_site_fract_z
Si Si1 0.938128 0.818911 0.467642
Si Si2 0.267617 0.320337 0.572249
Si Si3 0.074089 0.813929 0.017146
Si Si4 0.468954 0.182644 0.298301
Si Si5 0.109052 0.813614 0.168679
Si Si6 0.283973 0.184114 0.125711
Si Si7 0.667545 0.682074 0.737911
O O1 0.858230 0.812697 0.540056
O O2 0.940000 0.732019 0.389834
O O3 0.000000 0.757678 0.500000
O O4 0.953836 0.000000 0.445337
O O5 0.243733 0.500000 0.585813
O O6 0.250000 0.250000 0.500000
O O7 0.226044 0.224924 0.650809
O O8 0.152150 0.757413 0.950727
O O9 0.073187 0.000000 0.015317
O O10 0.076367 0.767839 0.101529
O O11 0.000000 0.759642 0.000000
O O12 0.554228 0.241209 0.250705
O O13 0.413900 0.262075 0.260163
O O14 0.464656 0.000000 0.292122
O O15 0.197316 0.766661 0.141888
O O16 0.105882 0.000000 0.175835
O O17 0.306387 0.232070 0.199135
O O18 0.286804 0.000000 0.116839
O O19 0.665312 0.500000 0.752165
#
# Coordination Sequence:
#
# PCOD9211900 Si02
#       7
#     8   8   8   8   8   8   8
#     4  10  23  42  64  89 123 168 210 254 315 376
#     4  11  22  39  64  93 124 163 209 261 316 374
#     4  10  21  40  67  96 126 167 212 254 307 373
#     4  12  25  41  64  94 126 162 212 265 313 374
#     4  10  23  42  64  92 132 172 206 251 314 375
#     4  11  24  41  64  95 129 167 210 260 311 369
#     4  12  25  42  64  89 125 168 212 264 318 374
#
# _framework density 20.111051
#
# number of rings (size 3 to 8) (size 9 to 14) (size 15 to 20)
#    0.000    1.143    1.429    4.714    2.000    4.000 
#    0.000    0.000    0.000    0.000    0.000    0.000 
#    0.000    0.000    0.000    0.000    0.000    0.000 
#
# Total GULP energy -156593.440259 kJ/mol
# GULP energy per Si atom -5592.622866 kJ/mol
# Density = 2.006528 g / cm^3
# Si number density = 20.111051 Si / 1000 Ang^3
#
#
#
# Elastic Constant Matrix: (Units=GPa)
#
#
# Indices 1 2 3 4 5 6 
#
# 1 104.8013 11.1558 5.0329 0.0000 -6.9914 0.0000
# 2 11.1558 14.7402 -12.0588 0.0000 -6.5038 0.0000
# 3 5.0329 -12.0588 60.3015 0.0000 -16.8565 0.0000
# 4 0.0000 0.0000 0.0000 35.0902 0.0000 -6.1418
# 5 -6.9914 -6.5038 -16.8565 0.0000 34.2441 0.0000
# 6 0.0000 0.0000 0.0000 -6.1418 0.0000 27.1471
#
#
#
# Elastic Compliance Matrix: (Units=1/GPa)
#
#
# Indices 1 2 3 4 5 6 
#
# 1 0.010919 -0.012453 -0.003988 0.000000 -0.002099 0.000000
# 2 -0.012453 0.124982 0.037056 0.000000 0.039436 0.000000
# 3 -0.003988 0.037056 0.030225 0.000000 0.021102 0.000000
# 4 0.000000 0.000000 0.000000 0.029673 0.000000 0.006713
# 5 -0.002099 0.039436 0.021102 0.000000 0.046651 0.000000
# 6 0.000000 0.000000 0.000000 0.006713 0.000000 0.038355
#
#
# Mechanical properties :
#
#
# Convention : Reuss Voigt Hill
#
# Bulk Modulus (GPa) = 4.82263 20.90032 12.86147
# Shear Modulus (GPa) = 16.19732 31.01048 23.60390
#
# Velocity S-wave (km/s) = 2.84103 3.93104 3.42962
# Velocity P-wave (km/s) = 3.62837 5.56948 4.70023
#
# Compressibility (1/GPa) = 0.20735587
#
# Stress axis : x y z
#
# Youngs Moduli (GPa) = 91.58411 8.00118 33.08497
#
# Poissons Ratio (x) = 0.09964 0.13195
# Poissons Ratio (y) = 1.14047 -1.22600
# Poissons Ratio (z) = 0.36526 -0.29649
#
# Static dielectric constant tensor:
#      x y z
#    x 1.703260 0.000000 0.040660 
#    y 0.000000 1.669380 0.000000 
#    z 0.040660 0.000000 1.595160 
# 
# From -- ./inp_files/275342.got.cif
#   From: 2010.05.17/outbox.cif.g08.bks.cpg/sg12_138_cif.got.tgz:275342.got - 2010.06.03 13:09:07.
