data_PCOD9211532
_publ_section_title
;
Structure prediction by ZEFSAII (Michael W. Deem and Ramdas Pophale) SiO2 
 PCOD9211532
Probable space group: C 2/M
;
_chemical_formula_sum "Si O2"
_cell_formula_units_Z 58
_cell_length_a 16.131543
_cell_length_b 21.275743
_cell_length_c 8.844324
_cell_angle_alpha 90.000000
_cell_angle_beta 62.756625
_cell_angle_gamma 90.000000
_cell_volume 2698.741480
_symmetry_space_group_name_H-M "C 2/M"
_symmetry_group_IT_number 12
_symmetry_cell_setting 'monoclinic'
loop_
_space_group_symop_operation_xyz
x,y,z
-x,y,-z
-x,-y,-z
x,-y,z
1/2+x,1/2+y,z
1/2-x,1/2+y,-z
1/2-x,1/2-y,-z
1/2+x,1/2-y,z
loop_
_atom_site_type_symbol
_atom_site_label
_atom_site_fract_x
_atom_site_fract_y
_atom_site_fract_z
Si Si1 0.681692 0.713026 0.942563
Si Si2 0.127101 0.134135 0.454918
Si Si3 0.182760 0.271896 0.421058
Si Si4 0.031304 0.625769 0.631408
Si Si5 0.593552 0.158671 0.008125
Si Si6 0.500000 0.500000 0.000000
Si Si7 0.550477 0.609253 0.204897
Si Si8 0.812488 0.572563 0.289532
O O1 0.750434 0.692210 0.751896
O O2 0.750000 0.750000 0.000000
O O3 0.617168 0.770630 0.942549
O O4 0.617775 0.659772 0.067680
O O5 0.144936 0.205752 0.387563
O O6 0.098402 0.094793 0.328768
O O7 0.221184 0.103258 0.439124
O O8 0.048236 0.135658 0.649346
O O9 0.250000 0.250000 0.500000
O O10 0.096371 0.313671 0.545513
O O11 0.098163 0.582385 0.676987
O O12 0.000000 0.596486 0.500000
O O13 0.937487 0.648540 0.794702
O O14 0.500000 0.140514 0.000000
O O15 0.671056 0.112567 0.877370
O O16 0.471201 0.554794 0.896739
O O17 0.799454 0.500000 0.268338
#
# Coordination Sequence:
#
# PCOD9211532 Si02
#       8
#     8   8   8   8   8   2   8   8
#     4  12  22  42  70 104 145 181 240 303 372 432
#     4  11  24  48  74 104 141 200 247 297 369 456
#     4  12  22  39  69 109 145 181 240 299 372 447
#     4  11  24  39  65 104 145 175 223 306 374 434
#     4  10  21  40  63  97 130 175 232 287 359 432
#     4  12  32  50  64 112 148 202 262 304 378 442
#     4  11  28  46  73 105 149 198 245 308 374 458
#     4  11  24  45  72  95 134 195 252 293 351 446
#
# _framework density 21.491499999999998
#
# number of rings (size 3 to 8) (size 9 to 14) (size 15 to 20)
#    0.000    0.828    4.138    2.483    6.759    3.310 
#    0.000    0.000    0.000    0.000    0.000    0.000 
#    0.000    0.000    0.000    0.000    0.000    0.000 
#
# Total GULP energy -161669.114973 kJ/mol
# GULP energy per Si atom -5574.797068 kJ/mol
# Density = 2.144258 g / cm^3
# Si number density = 21.491500 Si / 1000 Ang^3
#
#
#
# Elastic Constant Matrix: (Units=GPa)
#
#
# Indices 1 2 3 4 5 6 
#
# 1 71.2087 19.7637 43.8154 0.0000 -16.0747 0.0000
# 2 19.7637 121.0403 52.9847 0.0000 -12.2611 0.0000
# 3 43.8154 52.9847 140.1696 0.0000 -13.1220 0.0000
# 4 0.0000 0.0000 0.0000 9.3328 0.0000 13.2688
# 5 -16.0747 -12.2611 -13.1220 0.0000 34.0799 0.0000
# 6 0.0000 0.0000 0.0000 13.2688 0.0000 22.4389
#
#
#
# Elastic Compliance Matrix: (Units=1/GPa)
#
#
# Indices 1 2 3 4 5 6 
#
# 1 0.018816 -0.000102 -0.005203 0.000000 0.006835 0.000000
# 2 -0.000102 0.010062 -0.003566 0.000000 0.002199 0.000000
# 3 -0.005203 -0.003566 0.010124 0.000000 0.000161 0.000000
# 4 0.000000 0.000000 0.000000 0.672704 0.000000 -0.397790
# 5 0.006835 0.002199 0.000161 0.000000 0.033420 0.000000
# 6 0.000000 0.000000 0.000000 -0.397790 0.000000 0.279790
#
#
# Mechanical properties :
#
#
# Convention : Reuss Voigt Hill
#
# Bulk Modulus (GPa) = 47.03801 62.83848 54.93824
# Shear Modulus (GPa) = 4.76307 27.56062 16.16184
#
# Velocity S-wave (km/s) = 1.49032 3.58494 2.74526
# Velocity P-wave (km/s) = 4.98956 6.81454 5.97217
#
# Compressibility (1/GPa) = 0.02125940
#
# Stress axis : x y z
#
# Youngs Moduli (GPa) = 53.14596 99.38376 98.77941
#
# Poissons Ratio (x) = 0.01017 0.51397
# Poissons Ratio (y) = 0.00544 0.35221
# Poissons Ratio (z) = 0.27653 0.35437
#
# Static dielectric constant tensor:
#      x y z
#    x 1.792100 0.000000 0.000450 
#    y 0.000000 1.697560 0.000000 
#    z 0.000450 0.000000 1.871430 
# 
# From -- ./inp_files/78016.got.cif
#   From: 2010.05.17/outbox.cif.g08.bks.cpg/sg12_40_cif.got.tgz:78016.got - 2010.06.03 13:09:07.
