data_PCOD9211680
_publ_section_title
;
Structure prediction by ZEFSAII (Michael W. Deem and Ramdas Pophale) SiO2 
 PCOD9211680
Probable space group: C 2/M
;
_chemical_formula_sum "Si O2"
_cell_formula_units_Z 48
_cell_length_a 13.715003
_cell_length_b 34.484450
_cell_length_c 14.497629
_cell_angle_alpha 90.000000
_cell_angle_beta 20.361882
_cell_angle_gamma 90.000000
_cell_volume 2385.783606
_symmetry_space_group_name_H-M "C 2/M"
_symmetry_group_IT_number 12
_symmetry_cell_setting 'monoclinic'
loop_
_space_group_symop_operation_xyz
x,y,z
-x,y,-z
-x,-y,-z
x,-y,z
1/2+x,1/2+y,z
1/2-x,1/2+y,-z
1/2-x,1/2-y,-z
1/2+x,1/2-y,z
loop_
_atom_site_type_symbol
_atom_site_label
_atom_site_fract_x
_atom_site_fract_y
_atom_site_fract_z
Si Si1 0.305172 0.164619 0.262019
Si Si2 0.381135 0.394188 0.002546
Si Si3 0.829893 0.954137 0.887150
Si Si4 0.890860 0.655638 0.493649
Si Si5 0.725886 0.576160 0.380233
Si Si6 0.504867 0.221622 0.747162
O O1 0.262919 0.122717 0.346789
O O2 0.432871 0.195199 0.219156
O O3 0.000000 0.178301 0.500000
O O4 0.500000 0.159231 0.000000
O O5 0.369780 0.430941 0.946725
O O6 0.571481 0.359707 0.787528
O O7 0.500000 0.401430 0.000000
O O8 0.066549 0.379838 0.296572
O O9 0.081446 0.940245 0.599167
O O10 0.832486 0.000000 0.897482
O O11 0.536094 0.941669 0.099469
O O12 0.986243 0.691397 0.345884
O O13 0.000000 0.663381 0.500000
O O14 0.500000 0.567228 0.500000
O O15 0.750000 0.250000 0.500000
O O16 0.250000 0.250000 0.000000
#
# Coordination Sequence:
#
# PCOD9211680 Si02
#       6
#     8   8   8   8   8   8
#     4  11  23  42  65  88 118 161 208 249 292 353
#     4  10  21  40  65  89 117 159 207 249 292 354
#     4  12  24  38  61  93 128 160 194 250 312 361
#     4  10  22  41  64  87 116 159 206 248 291 351
#     4  11  24  42  64  88 118 163 211 250 293 355
#     4  12  25  39  61  92 124 157 192 245 309 361
#
# _framework density 20.119177000000001
#
# number of rings (size 3 to 8) (size 9 to 14) (size 15 to 20)
#    0.000    1.000    0.000    8.000    0.000    4.333 
#    0.000    0.000    0.000    5.000    0.000    0.000 
#    0.000    0.000    0.000    0.000    0.000    0.000 
#
# Total GULP energy -134091.649304 kJ/mol
# GULP energy per Si atom -5587.152054 kJ/mol
# Density = 2.007339 g / cm^3
# Si number density = 20.119177 Si / 1000 Ang^3
#
#
#
# Elastic Constant Matrix: (Units=GPa)
#
#
# Indices 1 2 3 4 5 6 
#
# 1 71.1395 65.0034 21.1250 0.0018 10.5845 -0.0027
# 2 65.0034 134.1719 30.6551 0.0001 12.2125 0.0011
# 3 21.1250 30.6551 103.0474 -0.0013 -8.2575 0.0027
# 4 0.0018 0.0001 -0.0013 8.7834 -0.0002 -38.6702
# 5 10.5845 12.2125 -8.2575 -0.0002 24.8946 0.0000
# 6 -0.0027 0.0011 0.0027 -38.6702 0.0000 -1.1267
#
#
#
# Elastic Compliance Matrix: (Units=1/GPa)
#
#
# Indices 1 2 3 4 5 6 
#
# 1 0.026353 -0.011634 -0.002447 -0.000002 -0.006309 0.000001
# 2 -0.011634 0.013744 -0.001898 0.000001 -0.002425 0.000000
# 3 -0.002447 -0.001898 0.011227 0.000001 0.005695 0.000000
# 4 -0.000002 0.000001 0.000001 0.000748 0.000001 -0.025690
# 5 -0.006309 -0.002425 0.005695 0.000001 0.045931 -0.000001
# 6 0.000001 0.000000 0.000000 -0.025690 -0.000001 -0.005835
#
#
# Mechanical properties :
#
#
# Convention : Reuss Voigt Hill
#
# Bulk Modulus (GPa) = 51.63779 60.21397 55.92588
# Shear Modulus (GPa) = 38.29046 19.28195 28.78621
#
# Velocity S-wave (km/s) = 4.36728 3.09914 3.78667
# Velocity P-wave (km/s) = 7.15210 6.54216 6.85392
#
# Compressibility (1/GPa) = 0.01936566
#
# Stress axis : x y z
#
# Youngs Moduli (GPa) = 37.94679 72.75932 89.07154
#
# Poissons Ratio (x) = 0.84648 0.21796
# Poissons Ratio (y) = 0.44147 0.16906
# Poissons Ratio (z) = 0.09286 0.13810
#
# Static dielectric constant tensor:
#      x y z
#    x 1.736790 0.000000 -0.004670 
#    y 0.000000 1.695960 0.000000 
#    z -0.004670 0.000000 1.689510 
# 
# From -- ./inp_files/219555.got.cif
#   From: 2010.05.17/outbox.cif.g08.bks.cpg/sg12_110_cif.got.tgz:219555.got - 2010.06.03 13:09:07.
