data_PCOD9211740
_publ_section_title
;
Structure prediction by ZEFSAII (Michael W. Deem and Ramdas Pophale) SiO2 
 PCOD9211740
Probable space group: C 2/M
;
_chemical_formula_sum "Si O2"
_cell_formula_units_Z 32
_cell_length_a 28.454111
_cell_length_b 11.772550
_cell_length_c 22.951918
_cell_angle_alpha 90.000000
_cell_angle_beta 10.773176
_cell_angle_gamma 90.000000
_cell_volume 1437.121938
_symmetry_space_group_name_H-M "C 2/M"
_symmetry_group_IT_number 12
_symmetry_cell_setting 'monoclinic'
loop_
_space_group_symop_operation_xyz
x,y,z
-x,y,-z
-x,-y,-z
x,-y,z
1/2+x,1/2+y,z
1/2-x,1/2+y,-z
1/2-x,1/2-y,-z
1/2+x,1/2-y,z
loop_
_atom_site_type_symbol
_atom_site_label
_atom_site_fract_x
_atom_site_fract_y
_atom_site_fract_z
Si Si1 0.986350 0.876398 0.946316
Si Si2 0.081459 0.293936 0.652527
Si Si3 0.455763 0.627524 0.702053
Si Si4 0.762335 0.627614 0.214885
O O1 0.253229 0.878132 0.588238
O O2 0.860335 0.000000 0.085230
O O3 0.000000 0.873915 0.000000
O O4 0.880936 0.751335 0.056679
O O5 0.250000 0.250000 0.500000
O O6 0.012723 0.197635 0.689845
O O7 0.810296 0.338921 0.002971
O O8 0.426846 0.500000 0.756132
O O9 0.680782 0.635879 0.381967
O O10 0.500000 0.622284 0.500000
O O11 0.883952 0.500000 0.057650
#
# Coordination Sequence:
#
# PCOD9211740 Si02
#       4
#     8   8   8   8
#     4  11  23  40  63  93 130 168 209 265 329 388
#     4  11  23  41  64  92 129 172 219 268 328 392
#     4  10  22  40  62  90 125 168 218 272 323 382
#     4  10  21  40  65  93 125 166 217 269 322 386
#
# _framework density 22.266725999999998
#
# number of rings (size 3 to 8) (size 9 to 14) (size 15 to 20)
#    0.000    1.500    2.500    2.250    0.000    4.000 
#    0.000    0.000    0.000    0.000    0.000    0.000 
#    0.000    0.000    0.000    0.000    0.000    0.000 
#
# Total GULP energy -89196.010155 kJ/mol
# GULP energy per Si atom -5574.750635 kJ/mol
# Density = 2.221605 g / cm^3
# Si number density = 22.266726 Si / 1000 Ang^3
#
#
#
# Elastic Constant Matrix: (Units=GPa)
#
#
# Indices 1 2 3 4 5 6 
#
# 1 57.2765 22.8234 25.3002 -0.0110 6.3329 -0.0128
# 2 22.8234 230.5413 52.7815 0.0698 -15.1738 -0.1020
# 3 25.3002 52.7815 76.0459 -0.0311 -5.8929 0.0352
# 4 -0.0110 0.0698 -0.0311 5.3878 0.0164 -29.1568
# 5 6.3329 -15.1738 -5.8929 0.0164 27.8910 0.0384
# 6 -0.0128 -0.1020 0.0352 -29.1568 0.0384 -22.8260
#
#
#
# Elastic Compliance Matrix: (Units=1/GPa)
#
#
# Indices 1 2 3 4 5 6 
#
# 1 0.021758 -0.000989 -0.007093 -0.000016 -0.006977 -0.000010
# 2 -0.000989 0.005324 -0.003176 -0.000029 0.002450 0.000013
# 3 -0.007093 -0.003176 0.018000 0.000051 0.003686 -0.000013
# 4 -0.000016 -0.000029 0.000051 0.023457 0.000026 -0.029963
# 5 -0.006977 0.002450 0.003686 0.000026 0.039550 0.000032
# 6 -0.000010 0.000013 -0.000013 -0.029963 0.000032 -0.005537
#
#
# Mechanical properties :
#
#
# Convention : Reuss Voigt Hill
#
# Bulk Modulus (GPa) = 44.31641 62.85266 53.58454
# Shear Modulus (GPa) = 37.71014 19.62114 28.66564
#
# Velocity S-wave (km/s) = 4.11976 2.97170 3.59189
# Velocity P-wave (km/s) = 6.52500 6.32954 6.42801
#
# Compressibility (1/GPa) = 0.02256500
#
# Stress axis : x y z
#
# Youngs Moduli (GPa) = 45.96038 187.82750 55.55595
#
# Poissons Ratio (x) = 0.18583 0.39404
# Poissons Ratio (y) = 0.04547 0.17646
# Poissons Ratio (z) = 0.32598 0.59659
#
# Static dielectric constant tensor:
#      x y z
#    x 1.781020 -0.000030 0.002250 
#    y -0.000030 1.874010 0.000040 
#    z 0.002250 0.000040 1.884330 
# 
# From -- ./inp_files/70267.got.cif
#   From: 2010.05.17/outbox.cif.g08.bks.cpg/sg12_36_cif.got.tgz:70267.got - 2010.06.03 13:09:07.
