data_PCOD9211576
_publ_section_title
;
Structure prediction by ZEFSAII (Michael W. Deem and Ramdas Pophale) SiO2 
 PCOD9211576
Probable space group: C 2/M
;
_chemical_formula_sum "Si O2"
_cell_formula_units_Z 48
_cell_length_a 14.687351
_cell_length_b 8.645195
_cell_length_c 16.724002
_cell_angle_alpha 90.000000
_cell_angle_beta 102.467618
_cell_angle_gamma 90.000000
_cell_volume 2073.453661
_symmetry_space_group_name_H-M "C 2/M"
_symmetry_group_IT_number 12
_symmetry_cell_setting 'monoclinic'
loop_
_space_group_symop_operation_xyz
x,y,z
-x,y,-z
-x,-y,-z
x,-y,z
1/2+x,1/2+y,z
1/2-x,1/2+y,-z
1/2-x,1/2-y,-z
1/2+x,1/2-y,z
loop_
_atom_site_type_symbol
_atom_site_label
_atom_site_fract_x
_atom_site_fract_y
_atom_site_fract_z
Si Si1 0.863482 0.681263 0.182508
Si Si2 0.696561 0.181901 0.066213
Si Si3 0.039476 0.813066 0.642090
Si Si4 0.695157 0.320477 0.563458
Si Si5 0.648909 0.319834 0.315371
Si Si6 0.966751 0.819096 0.871531
O O1 0.840760 0.500000 0.176300
O O2 0.770675 0.779016 0.150062
O O3 0.911320 0.728995 0.274320
O O4 0.940296 0.722695 0.129280
O O5 0.599113 0.262496 0.069648
O O6 0.682915 0.000000 0.055128
O O7 0.750000 0.250000 0.000000
O O8 0.093851 0.763597 0.572828
O O9 0.929889 0.785740 0.632411
O O10 0.050973 0.000000 0.653429
O O11 0.685356 0.500000 0.544875
O O12 0.750000 0.250000 0.500000
O O13 0.763557 0.287663 0.651537
O O14 0.677718 0.500000 0.327558
O O15 0.596614 0.302724 0.220988
O O16 0.990730 0.000000 0.884504
#
# Coordination Sequence:
#
# PCOD9211576 Si02
#       6
#     8   8   8   8   8   8
#     4  11  22  38  62  91 119 152 193 239 289 345
#     4  12  25  41  60  86 120 157 196 240 290 346
#     4   9  20  39  60  82 111 151 191 233 285 342
#     4  11  23  37  55  80 113 150 189 232 285 342
#     4   9  19  37  60  83 110 144 186 232 281 336
#     4  10  21  40  64  90 118 152 193 240 290 343
#
# _framework density 23.149781999999998
#
# number of rings (size 3 to 8) (size 9 to 14) (size 15 to 20)
#    0.000    1.667    0.000    6.000    0.000    8.667 
#    0.000    6.667    0.000    0.000    0.000    0.000 
#    0.000    0.000    0.000    0.000    0.000    0.000 
#
# Total GULP energy -134306.139123 kJ/mol
# GULP energy per Si atom -5596.089130 kJ/mol
# Density = 2.309709 g / cm^3
# Si number density = 23.149782 Si / 1000 Ang^3
#
#
#
# Elastic Constant Matrix: (Units=GPa)
#
#
# Indices 1 2 3 4 5 6 
#
# 1 104.1725 15.2448 24.2100 0.0000 -36.6674 0.0000
# 2 15.2448 47.0232 9.7419 0.0000 -13.5242 0.0000
# 3 24.2100 9.7419 65.7314 0.0000 -25.4870 0.0000
# 4 0.0000 0.0000 0.0000 30.1086 0.0000 -2.0354
# 5 -36.6674 -13.5242 -25.4870 0.0000 51.0466 0.0000
# 6 0.0000 0.0000 0.0000 -2.0354 0.0000 30.8809
#
#
#
# Elastic Compliance Matrix: (Units=1/GPa)
#
#
# Indices 1 2 3 4 5 6 
#
# 1 0.013063 -0.001569 -0.001366 0.000000 0.008286 0.000000
# 2 -0.001569 0.023298 -0.001139 0.000000 0.004477 0.000000
# 3 -0.001366 -0.001139 0.019082 0.000000 0.008244 0.000000
# 4 0.000000 0.000000 0.000000 0.033362 0.000000 0.002199
# 5 0.008286 0.004477 0.008244 0.000000 0.030844 0.000000
# 6 0.000000 0.000000 0.000000 0.002199 0.000000 0.032527
#
#
# Mechanical properties :
#
#
# Convention : Reuss Voigt Hill
#
# Bulk Modulus (GPa) = 21.14399 35.03561 28.08980
# Shear Modulus (GPa) = 28.39456 33.58926 30.99191
#
# Velocity S-wave (km/s) = 3.50602 3.81327 3.66287
# Velocity P-wave (km/s) = 5.05401 5.87837 5.48171
#
# Compressibility (1/GPa) = 0.04729475
#
# Stress axis : x y z
#
# Youngs Moduli (GPa) = 76.55241 42.92149 52.40500
#
# Poissons Ratio (x) = 0.06734 0.07159
# Poissons Ratio (y) = 0.12011 0.05970
# Poissons Ratio (z) = 0.10458 0.04890
#
# Static dielectric constant tensor:
#      x y z
#    x 1.881400 0.000000 -0.005710 
#    y 0.000000 1.770680 0.000000 
#    z -0.005710 0.000000 1.982400 
# 
# From -- ./inp_files/267643.got.cif
#   From: 2010.05.17/outbox.cif.g08.bks.cpg/sg12_134_cif.got.tgz:267643.got - 2010.06.03 13:09:07.
