data_PCOD9211405
_publ_section_title
;
Structure prediction by ZEFSAII (Michael W. Deem and Ramdas Pophale) SiO2 
 PCOD9211405
Probable space group: C 2/M
;
_chemical_formula_sum "Si O2"
_cell_formula_units_Z 56
_cell_length_a 22.609385
_cell_length_b 8.268706
_cell_length_c 18.357171
_cell_angle_alpha 90.000000
_cell_angle_beta 130.036787
_cell_angle_gamma 90.000000
_cell_volume 2627.555464
_symmetry_space_group_name_H-M "C 2/M"
_symmetry_group_IT_number 12
_symmetry_cell_setting 'monoclinic'
loop_
_space_group_symop_operation_xyz
x,y,z
-x,y,-z
-x,-y,-z
x,-y,z
1/2+x,1/2+y,z
1/2-x,1/2+y,-z
1/2-x,1/2-y,-z
1/2+x,1/2-y,z
loop_
_atom_site_type_symbol
_atom_site_label
_atom_site_fract_x
_atom_site_fract_y
_atom_site_fract_z
Si Si1 0.352291 0.810607 0.249579
Si Si2 0.745666 0.193257 0.579592
Si Si3 0.918793 0.805480 0.739903
Si Si4 0.709488 0.693399 0.043507
Si Si5 0.513450 0.309089 0.355756
Si Si6 0.107735 0.187287 0.562147
Si Si7 0.038326 0.691340 0.954787
O O1 0.269757 0.754581 0.154589
O O2 0.424051 0.721232 0.269044
O O3 0.366751 0.781439 0.346059
O O4 0.359306 0.000000 0.238795
O O5 0.750000 0.250000 0.500000
O O6 0.828720 0.222726 0.682368
O O7 0.680280 0.296915 0.566176
O O8 0.729431 0.000000 0.570590
O O9 0.938227 0.744041 0.673788
O O10 0.976450 0.728980 0.842975
O O11 0.931011 0.000000 0.750098
O O12 0.707163 0.500000 0.038853
O O13 0.750000 0.750000 0.000000
O O14 0.622743 0.747719 0.995373
O O15 0.528615 0.500000 0.372274
O O16 0.538789 0.247217 0.455654
O O17 0.092932 0.000000 0.571379
O O18 0.046928 0.500000 0.970873
O O19 0.000000 0.757156 0.000000
#
# Coordination Sequence:
#
# PCOD9211405 Si02
#       7
#     8   8   8   8   8   8   8
#     4  11  25  41  61  94 126 160 207 261 316 374
#     4  11  22  39  62  93 128 167 211 256 306 370
#     4  10  22  41  65  91 125 167 211 257 313 378
#     4  11  25  46  71  97 129 170 219 274 332 394
#     4  10  21  40  62  90 125 166 209 251 306 375
#     4  11  23  40  61  89 127 169 209 254 311 374
#     4  11  26  45  66  98 133 168 218 275 330 390
#
# _framework density 21.312587000000001
#
# number of rings (size 3 to 8) (size 9 to 14) (size 15 to 20)
#    0.000    1.286    1.429    3.429    2.000   10.286 
#    0.000    0.000    0.000    0.000    0.000    0.000 
#    0.000    0.000    0.000    0.000    0.000    0.000 
#
# Total GULP energy -156417.782316 kJ/mol
# GULP energy per Si atom -5586.349368 kJ/mol
# Density = 2.126408 g / cm^3
# Si number density = 21.312587 Si / 1000 Ang^3
#
#
#
# Elastic Constant Matrix: (Units=GPa)
#
#
# Indices 1 2 3 4 5 6 
#
# 1 111.5352 17.0269 47.1849 0.0000 10.9735 0.0000
# 2 17.0269 35.7517 23.0366 0.0000 8.3013 0.0000
# 3 47.1849 23.0366 133.9789 0.0000 14.3443 0.0000
# 4 0.0000 0.0000 0.0000 29.2046 0.0000 3.0223
# 5 10.9735 8.3013 14.3443 0.0000 38.4046 0.0000
# 6 0.0000 0.0000 0.0000 3.0223 0.0000 32.8205
#
#
#
# Elastic Compliance Matrix: (Units=1/GPa)
#
#
# Indices 1 2 3 4 5 6 
#
# 1 0.010881 -0.002812 -0.003209 0.000000 -0.001303 0.000000
# 2 -0.002812 0.033123 -0.004192 0.000000 -0.004791 0.000000
# 3 -0.003209 -0.004192 0.009500 0.000000 -0.001725 0.000000
# 4 0.000000 0.000000 0.000000 0.034571 0.000000 -0.003183
# 5 -0.001303 -0.004791 -0.001725 0.000000 0.028091 0.000000
# 6 0.000000 0.000000 0.000000 -0.003183 0.000000 0.030762
#
#
# Mechanical properties :
#
#
# Convention : Reuss Voigt Hill
#
# Bulk Modulus (GPa) = 30.23189 50.64031 40.43610
# Shear Modulus (GPa) = 28.03026 33.02045 30.52536
#
# Velocity S-wave (km/s) = 3.63050 3.94044 3.78864
# Velocity P-wave (km/s) = 5.63825 6.67196 6.17677
#
# Compressibility (1/GPa) = 0.03307766
#
# Stress axis : x y z
#
# Youngs Moduli (GPa) = 91.90517 30.19016 105.26829
#
# Poissons Ratio (x) = 0.08489 0.33781
# Poissons Ratio (y) = 0.25842 0.44130
# Poissons Ratio (z) = 0.29493 0.12656
#
# Static dielectric constant tensor:
#      x y z
#    x 1.805000 0.000000 -0.013190 
#    y 0.000000 1.756820 0.000000 
#    z -0.013190 0.000000 1.772440 
# 
# From -- ./inp_files/288398.got.cif
#   From: 2010.05.17/outbox.cif.g08.bks.cpg/sg12_145_cif.got.tgz:288398.got - 2010.06.03 13:09:07.
