data_PCOD9211072
_publ_section_title
;
Structure prediction by ZEFSAII (Michael W. Deem and Ramdas Pophale) SiO2 
 PCOD9211072
Probable space group: C 2/M
;
_chemical_formula_sum "Si O2"
_cell_formula_units_Z 44
_cell_length_a 5.069197
_cell_length_b 24.618857
_cell_length_c 17.179490
_cell_angle_alpha 90.000000
_cell_angle_beta 91.472298
_cell_angle_gamma 90.000000
_cell_volume 2143.255378
_symmetry_space_group_name_H-M "C 2/M"
_symmetry_group_IT_number 12
_symmetry_cell_setting 'monoclinic'
loop_
_space_group_symop_operation_xyz
x,y,z
-x,y,-z
-x,-y,-z
x,-y,z
1/2+x,1/2+y,z
1/2-x,1/2+y,-z
1/2-x,1/2-y,-z
1/2+x,1/2-y,z
loop_
_atom_site_type_symbol
_atom_site_label
_atom_site_fract_x
_atom_site_fract_y
_atom_site_fract_z
Si Si1 0.095454 0.632491 0.727636
Si Si2 0.742857 0.285955 0.132326
Si Si3 0.321638 0.559183 0.075134
Si Si4 0.077509 0.937103 0.753020
Si Si5 0.500000 0.151053 0.000000
Si Si6 0.545962 0.212837 0.587882
O O1 0.350468 0.596432 0.709346
O O2 0.009682 0.668879 0.654206
O O3 0.178539 0.672732 0.798490
O O4 0.857153 0.592630 0.747877
O O5 0.945280 0.235114 0.138731
O O6 0.799858 0.313141 0.049047
O O7 0.182480 0.500000 0.079669
O O8 0.487820 0.564422 0.154929
O O9 0.136818 0.610567 0.062105
O O10 0.500000 0.558429 0.000000
O O11 0.091557 0.000000 0.729597
O O12 0.500000 0.191426 0.500000
O O13 0.335969 0.261382 0.596564
#
# Coordination Sequence:
#
# PCOD9211072 Si02
#       6
#     8   8   8   8   4   8
#     4  12  22  42  66  88 125 162 202 250 309 366
#     4  12  26  40  57  83 117 160 203 242 295 364
#     4  10  22  38  59  84 111 153 211 266 314 359
#     4  11  24  41  63  92 120 158 208 258 309 368
#     4  12  23  38  58  76 120 152 201 252 314 354
#     4  10  21  39  66 100 131 161 203 251 299 357
#
# _framework density 20.529520000000002
#
# number of rings (size 3 to 8) (size 9 to 14) (size 15 to 20)
#    0.000    0.909    1.818    5.727    2.545    0.000 
#    0.000    0.000    0.000    3.273    0.000    0.000 
#    0.000    0.000    0.000    0.000    0.000    0.000 
#
# Total GULP energy -123123.979716 kJ/mol
# GULP energy per Si atom -5596.544533 kJ/mol
# Density = 2.048279 g / cm^3
# Si number density = 20.529520 Si / 1000 Ang^3
#
#
#
# Elastic Constant Matrix: (Units=GPa)
#
#
# Indices 1 2 3 4 5 6 
#
# 1 43.8141 1.0144 -9.7495 0.0000 5.9365 0.0000
# 2 1.0144 92.5840 37.0716 0.0000 7.0804 0.0000
# 3 -9.7495 37.0716 71.6198 0.0000 4.6605 0.0000
# 4 0.0000 0.0000 0.0000 16.6494 0.0000 -3.4851
# 5 5.9365 7.0804 4.6605 0.0000 20.3934 0.0000
# 6 0.0000 0.0000 0.0000 -3.4851 0.0000 29.1614
#
#
#
# Elastic Compliance Matrix: (Units=1/GPa)
#
#
# Indices 1 2 3 4 5 6 
#
# 1 0.024967 -0.001565 0.004717 0.000000 -0.007802 0.000000
# 2 -0.001565 0.013927 -0.007245 0.000000 -0.002724 0.000000
# 3 0.004717 -0.007245 0.018556 0.000000 -0.003098 0.000000
# 4 0.000000 0.000000 0.000000 0.061603 0.000000 0.007362
# 5 -0.007802 -0.002724 -0.003098 0.000000 0.052960 0.000000
# 6 0.000000 0.000000 0.000000 0.007362 0.000000 0.035172
#
#
# Mechanical properties :
#
#
# Convention : Reuss Voigt Hill
#
# Bulk Modulus (GPa) = 20.29915 29.41007 24.85461
# Shear Modulus (GPa) = 21.57082 25.21960 23.39521
#
# Velocity S-wave (km/s) = 3.24500 3.50874 3.37944
# Velocity P-wave (km/s) = 4.89380 5.54723 5.23073
#
# Compressibility (1/GPa) = 0.04926315
#
# Stress axis : x y z
#
# Youngs Moduli (GPa) = 40.05338 71.80084 53.88974
#
# Poissons Ratio (x) = 0.11240 -0.25418
# Poissons Ratio (y) = 0.06270 0.39043
# Poissons Ratio (z) = -0.18892 0.52019
#
# Static dielectric constant tensor:
#      x y z
#    x 1.751420 0.000000 -0.000810 
#    y 0.000000 1.752140 0.000000 
#    z -0.000810 0.000000 1.715910 
# 
# From -- ./inp_files/252872.got.cif
#   From: 2010.05.17/outbox.cif.g08.bks.cpg/sg12_127_cif.got.tgz:252872.got - 2010.06.03 13:09:07.
