data_PCOD9211296
_publ_section_title
;
Structure prediction by ZEFSAII (Michael W. Deem and Ramdas Pophale) SiO2 
 PCOD9211296
Probable space group: C 2/M
;
_chemical_formula_sum "Si O2"
_cell_formula_units_Z 56
_cell_length_a 12.177958
_cell_length_b 17.794129
_cell_length_c 14.006451
_cell_angle_alpha 90.000000
_cell_angle_beta 66.602177
_cell_angle_gamma 90.000000
_cell_volume 2785.563322
_symmetry_space_group_name_H-M "C 2/M"
_symmetry_group_IT_number 12
_symmetry_cell_setting 'monoclinic'
loop_
_space_group_symop_operation_xyz
x,y,z
-x,y,-z
-x,-y,-z
x,-y,z
1/2+x,1/2+y,z
1/2-x,1/2+y,-z
1/2-x,1/2-y,-z
1/2+x,1/2-y,z
loop_
_atom_site_type_symbol
_atom_site_label
_atom_site_fract_x
_atom_site_fract_y
_atom_site_fract_z
Si Si1 0.233074 0.155719 0.725535
Si Si2 0.176134 0.410674 0.756017
Si Si3 0.209973 0.700588 0.605213
Si Si4 0.015932 0.167157 0.104197
Si Si5 0.919276 0.327818 0.835067
Si Si6 0.739070 0.087742 0.954921
Si Si7 0.368345 0.081684 0.505544
O O1 0.198954 0.235212 0.688370
O O2 0.337179 0.164066 0.768807
O O3 0.280792 0.104703 0.622356
O O4 0.109098 0.132047 0.817254
O O5 0.172640 0.500000 0.742017
O O6 0.265127 0.366408 0.652649
O O7 0.211970 0.397264 0.853250
O O8 0.044410 0.373390 0.788223
O O9 0.250000 0.750000 0.500000
O O10 0.121991 0.646325 0.576565
O O11 0.053088 0.240677 0.152285
O O12 0.123924 0.108711 0.072943
O O13 0.000000 0.191959 0.000000
O O14 0.843147 0.361796 0.948765
O O15 0.714905 0.000000 0.982658
O O16 0.500000 0.075577 0.500000
O O17 0.331628 0.000000 0.479766
#
# Coordination Sequence:
#
# PCOD9211296 Si02
#       7
#     8   8   8   8   8   8   8
#     4  11  24  40  64 100 129 172 217 262 323 389
#     4  11  22  40  67  96 126 167 215 268 326 378
#     4  10  21  40  60  88 125 159 206 263 321 379
#     4  12  24  41  64  92 133 181 217 259 314 388
#     4  12  23  40  66  95 131 167 218 268 317 378
#     4  11  25  42  62  94 135 174 215 260 314 385
#     4  10  22  41  66  96 128 164 214 277 332 380
#
# _framework density 20.103653999999999
#
# number of rings (size 3 to 8) (size 9 to 14) (size 15 to 20)
#    0.000    1.000    2.857    4.286    0.000    4.286 
#    0.000    0.000    0.000    0.000    0.000    6.000 
#    0.000    0.000    0.000    0.000    0.000    0.000 
#
# Total GULP energy -155924.286874 kJ/mol
# GULP energy per Si atom -5568.724531 kJ/mol
# Density = 2.005790 g / cm^3
# Si number density = 20.103654 Si / 1000 Ang^3
#
#
#
# Elastic Constant Matrix: (Units=GPa)
#
#
# Indices 1 2 3 4 5 6 
#
# 1 84.7618 21.8951 35.4821 0.0000 6.3256 0.0000
# 2 21.8951 70.9772 21.5441 0.0000 2.3118 0.0000
# 3 35.4821 21.5441 86.7408 0.0000 10.4885 0.0000
# 4 0.0000 0.0000 0.0000 35.4891 0.0000 17.7603
# 5 6.3256 2.3118 10.4885 0.0000 37.8818 0.0000
# 6 0.0000 0.0000 0.0000 17.7603 0.0000 27.7067
#
#
#
# Elastic Compliance Matrix: (Units=1/GPa)
#
#
# Indices 1 2 3 4 5 6 
#
# 1 0.014810 -0.002956 -0.005222 0.000000 -0.000847 0.000000
# 2 -0.002956 0.015828 -0.002757 0.000000 0.000291 0.000000
# 3 -0.005222 -0.002757 0.014716 0.000000 -0.003034 0.000000
# 4 0.000000 0.000000 0.000000 0.041486 0.000000 -0.026593
# 5 -0.000847 0.000291 -0.003034 0.000000 0.027362 0.000000
# 6 0.000000 0.000000 0.000000 -0.026593 0.000000 0.053139
#
#
# Mechanical properties :
#
#
# Convention : Reuss Voigt Hill
#
# Bulk Modulus (GPa) = 42.58069 44.48027 43.53048
# Shear Modulus (GPa) = 25.37557 31.11942 28.24749
#
# Velocity S-wave (km/s) = 3.55665 3.93867 3.75252
# Velocity P-wave (km/s) = 6.17195 6.54657 6.36202
#
# Compressibility (1/GPa) = 0.02348482
#
# Stress axis : x y z
#
# Youngs Moduli (GPa) = 67.51992 63.17753 67.95171
#
# Poissons Ratio (x) = 0.18676 0.35482
# Poissons Ratio (y) = 0.19960 0.18736
# Poissons Ratio (z) = 0.35257 0.17420
#
# Static dielectric constant tensor:
#      x y z
#    x 1.704780 0.000000 -0.008060 
#    y 0.000000 1.719400 0.000000 
#    z -0.008060 0.000000 1.784810 
# 
# From -- ./inp_files/206082.got.cif
#   From: 2010.05.17/outbox.cif.g08.bks.cpg/sg12_104_cif.got.tgz:206082.got - 2010.06.03 13:09:07.
