data_PCOD9211751
_publ_section_title
;
Structure prediction by ZEFSAII (Michael W. Deem and Ramdas Pophale) SiO2 
 PCOD9211751
Probable space group: C 2/M
;
_chemical_formula_sum "Si O2"
_cell_formula_units_Z 56
_cell_length_a 11.581181
_cell_length_b 31.556013
_cell_length_c 8.142646
_cell_angle_alpha 90.000000
_cell_angle_beta 64.371880
_cell_angle_gamma 90.000000
_cell_volume 2683.022026
_symmetry_space_group_name_H-M "C 2/M"
_symmetry_group_IT_number 12
_symmetry_cell_setting 'monoclinic'
loop_
_space_group_symop_operation_xyz
x,y,z
-x,y,-z
-x,-y,-z
x,-y,z
1/2+x,1/2+y,z
1/2-x,1/2+y,-z
1/2-x,1/2-y,-z
1/2+x,1/2-y,z
loop_
_atom_site_type_symbol
_atom_site_label
_atom_site_fract_x
_atom_site_fract_y
_atom_site_fract_z
Si Si1 0.128352 0.546061 0.317864
Si Si2 0.798346 0.306536 0.983600
Si Si3 0.364248 0.580090 0.370234
Si Si4 0.888874 0.168412 0.192316
Si Si5 0.874455 0.400744 0.977248
Si Si6 0.635466 0.550398 0.256463
Si Si7 0.554058 0.737344 0.281512
O O1 0.142342 0.500000 0.222216
O O2 0.254014 0.553761 0.349019
O O3 0.106110 0.587540 0.222820
O O4 0.000000 0.542832 0.500000
O O5 0.721164 0.314658 0.860369
O O6 0.839640 0.351995 0.024720
O O7 0.918644 0.277887 0.852780
O O8 0.695410 0.285219 0.172787
O O9 0.349728 0.629069 0.329167
O O10 0.507243 0.564354 0.240757
O O11 0.358782 0.571837 0.567695
O O12 0.952329 0.205793 0.259444
O O13 0.000000 0.152727 0.000000
O O14 0.757521 0.431033 0.092849
O O15 0.000000 0.412131 0.000000
O O16 0.635683 0.500000 0.276209
O O17 0.500000 0.745626 0.500000
#
# Coordination Sequence:
#
# PCOD9211751 Si02
#       7
#     8   8   8   8   8   8   8
#     4  11  24  43  66  95 133 181 229 276 340 406
#     4  10  23  45  63  95 136 169 224 275 339 415
#     4  11  22  40  69  98 135 178 223 280 336 395
#     4  10  21  40  65  93 134 170 216 275 334 401
#     4  12  26  44  66  94 134 183 223 283 339 405
#     4  11  24  41  65 101 135 176 230 282 334 398
#     4  10  23  41  69  98 127 172 218 280 347 402
#
# _framework density 20.871986
#
# number of rings (size 3 to 8) (size 9 to 14) (size 15 to 20)
#    0.000    1.286    1.429    4.714    4.000    6.286 
#    2.571    1.429    0.000    0.000    0.000    0.000 
#    0.000    0.000    0.000    0.000    0.000    0.000 
#
# Total GULP energy -156317.996913 kJ/mol
# GULP energy per Si atom -5582.785604 kJ/mol
# Density = 2.082448 g / cm^3
# Si number density = 20.871986 Si / 1000 Ang^3
#
#
#
# Elastic Constant Matrix: (Units=GPa)
#
#
# Indices 1 2 3 4 5 6 
#
# 1 103.1769 22.4357 25.8420 0.0000 -13.8532 0.0000
# 2 22.4357 89.1054 24.1814 0.0000 -9.0014 0.0000
# 3 25.8420 24.1814 78.9929 0.0000 -10.2339 0.0000
# 4 0.0000 0.0000 0.0000 30.4973 0.0000 5.2411
# 5 -13.8532 -9.0014 -10.2339 0.0000 22.1933 0.0000
# 6 0.0000 0.0000 0.0000 5.2411 0.0000 6.9148
#
#
#
# Elastic Compliance Matrix: (Units=1/GPa)
#
#
# Indices 1 2 3 4 5 6 
#
# 1 0.011394 -0.001647 -0.002540 0.000000 0.005273 0.000000
# 2 -0.001647 0.012730 -0.003002 0.000000 0.002751 0.000000
# 3 -0.002540 -0.003002 0.014939 0.000000 0.004085 0.000000
# 4 0.000000 0.000000 0.000000 0.037701 0.000000 -0.028575
# 5 0.005273 0.002751 0.004085 0.000000 0.051350 0.000000
# 6 0.000000 0.000000 0.000000 -0.028575 0.000000 0.166277
#
#
# Mechanical properties :
#
#
# Convention : Reuss Voigt Hill
#
# Bulk Modulus (GPa) = 40.51040 46.24372 43.37706
# Shear Modulus (GPa) = 15.77307 25.17549 20.47428
#
# Velocity S-wave (km/s) = 2.75199 3.47679 3.13540
# Velocity P-wave (km/s) = 5.43590 6.19043 5.82539
#
# Compressibility (1/GPa) = 0.02468502
#
# Stress axis : x y z
#
# Youngs Moduli (GPa) = 87.76192 78.55560 66.94082
#
# Poissons Ratio (x) = 0.12937 0.17005
# Poissons Ratio (y) = 0.14454 0.20094
# Poissons Ratio (z) = 0.22294 0.23580
#
# Static dielectric constant tensor:
#      x y z
#    x 1.734420 0.000000 -0.050740 
#    y 0.000000 1.750390 0.000000 
#    z -0.050740 0.000000 1.805890 
# 
# From -- ./inp_files/54580.got.cif
#   From: 2010.05.17/outbox.cif.g08.bks.cpg/sg12_28_cif.got.tgz:54580.got - 2010.06.03 13:09:07.
