data_PCOD9211276
_publ_section_title
;
Structure prediction by ZEFSAII (Michael W. Deem and Ramdas Pophale) SiO2 
 PCOD9211276
Probable space group: C 2/M
;
_chemical_formula_sum "Si O2"
_cell_formula_units_Z 48
_cell_length_a 16.045302
_cell_length_b 24.953590
_cell_length_c 12.289477
_cell_angle_alpha 90.000000
_cell_angle_beta 149.571654
_cell_angle_gamma 90.000000
_cell_volume 2492.067710
_symmetry_space_group_name_H-M "C 2/M"
_symmetry_group_IT_number 12
_symmetry_cell_setting 'monoclinic'
loop_
_space_group_symop_operation_xyz
x,y,z
-x,y,-z
-x,-y,-z
x,-y,z
1/2+x,1/2+y,z
1/2-x,1/2+y,-z
1/2-x,1/2-y,-z
1/2+x,1/2-y,z
loop_
_atom_site_type_symbol
_atom_site_label
_atom_site_fract_x
_atom_site_fract_y
_atom_site_fract_z
Si Si1 0.917313 0.500000 0.289393
Si Si2 0.685554 0.407266 0.949243
Si Si3 0.792215 0.701081 0.964993
Si Si4 0.003444 0.000000 0.375857
Si Si5 0.241596 0.000000 0.438905
Si Si6 0.364815 0.206655 0.571905
Si Si7 0.607006 0.385185 0.227100
Si Si8 0.000000 0.241904 0.500000
O O1 0.000000 0.500000 0.500000
O O2 0.061675 0.500000 0.359994
O O3 0.805640 0.446522 0.152417
O O4 0.772790 0.357234 0.995061
O O5 0.600757 0.447951 0.772047
O O6 0.533173 0.381689 0.840622
O O7 0.660438 0.708579 0.720076
O O8 0.750000 0.750000 0.000000
O O9 0.988062 0.702848 0.174257
O O10 0.000000 0.000000 0.500000
O O11 0.164429 0.000000 0.475738
O O12 0.171363 0.946513 0.302202
O O13 0.250000 0.250000 0.500000
O O14 0.257181 0.154074 0.423696
O O15 0.440102 0.225000 0.539246
O O16 0.500000 0.372563 0.000000
#
# Coordination Sequence:
#
# PCOD9211276 Si02
#       8
#     4   8   8   4   4   8   8   4
#     4  11  21  39  66  96 136 168 209 266 333 390
#     4  10  22  39  62  94 127 167 214 267 319 382
#     4  10  22  41  62  92 129 162 218 260 318 386
#     4   9  21  41  66  88 122 169 217 264 321 370
#     4  10  21  40  59  96 130 165 220 266 316 388
#     4  11  25  41  64  95 130 169 219 267 321 387
#     4  11  22  36  64  92 132 169 211 266 330 390
#     4  10  24  42  68  88 128 178 208 272 330 382
#
# _framework density 19.261115
#
# number of rings (size 3 to 8) (size 9 to 14) (size 15 to 20)
#    0.000    1.667    0.000    4.750    8.167    0.000 
#    3.000    1.667    3.667    0.000    0.000    0.000 
#    0.000    0.000    0.000    0.000    0.000    0.000 
#
# Total GULP energy -133677.970970 kJ/mol
# GULP energy per Si atom -5569.915457 kJ/mol
# Density = 1.921728 g / cm^3
# Si number density = 19.261115 Si / 1000 Ang^3
#
#
#
# Elastic Constant Matrix: (Units=GPa)
#
#
# Indices 1 2 3 4 5 6 
#
# 1 59.7322 43.4520 47.5385 0.0000 1.8265 0.0000
# 2 43.4520 93.8180 49.8792 0.0000 12.1309 0.0000
# 3 47.5385 49.8792 165.5088 0.0000 5.3632 0.0000
# 4 0.0000 0.0000 0.0000 11.6774 0.0000 30.5295
# 5 1.8265 12.1309 5.3632 0.0000 41.0576 0.0000
# 6 0.0000 0.0000 0.0000 30.5295 0.0000 13.6202
#
#
#
# Elastic Compliance Matrix: (Units=1/GPa)
#
#
# Indices 1 2 3 4 5 6 
#
# 1 0.028586 -0.010915 -0.005005 0.000000 0.002607 0.000000
# 2 -0.010915 0.017312 -0.001940 0.000000 -0.004376 0.000000
# 3 -0.005005 -0.001940 0.008073 0.000000 -0.000259 0.000000
# 4 0.000000 0.000000 0.000000 -0.017620 0.000000 0.039495
# 5 0.002607 -0.004376 -0.000259 0.000000 0.025567 0.000000
# 6 0.000000 0.000000 0.000000 0.039495 0.000000 -0.015106
#
#
# Mechanical properties :
#
#
# Convention : Reuss Voigt Hill
#
# Bulk Modulus (GPa) = 54.80056 66.75538 60.77797
# Shear Modulus (GPa) = 56.42323 25.15030 40.78677
#
# Velocity S-wave (km/s) = 5.41825 3.61744 4.60670
# Velocity P-wave (km/s) = 8.22535 7.22366 7.74072
#
# Compressibility (1/GPa) = 0.01824799
#
# Stress axis : x y z
#
# Youngs Moduli (GPa) = 34.98240 57.76400 123.87288
#
# Poissons Ratio (x) = 0.63052 0.62005
# Poissons Ratio (y) = 0.38185 0.24034
# Poissons Ratio (z) = 0.17510 0.11208
#
# Static dielectric constant tensor:
#      x y z
#    x 1.705980 0.000000 0.080320 
#    y 0.000000 1.619670 0.000000 
#    z 0.080320 0.000000 1.749750 
# 
# From -- ./inp_files/149929.got.cif
#   From: 2010.05.17/outbox.cif.g08.bks.cpg/sg12_75_cif.got.tgz:149929.got - 2010.06.03 13:09:07.
