data_PCOD9211434
_publ_section_title
;
Structure prediction by ZEFSAII (Michael W. Deem and Ramdas Pophale) SiO2 
 PCOD9211434
Probable space group: C 2/M
;
_chemical_formula_sum "Si O2"
_cell_formula_units_Z 58
_cell_length_a 8.841230
_cell_length_b 22.182259
_cell_length_c 13.327099
_cell_angle_alpha 90.000000
_cell_angle_beta 113.757216
_cell_angle_gamma 90.000000
_cell_volume 2392.207911
_symmetry_space_group_name_H-M "C 2/M"
_symmetry_group_IT_number 12
_symmetry_cell_setting 'monoclinic'
loop_
_space_group_symop_operation_xyz
x,y,z
-x,y,-z
-x,-y,-z
x,-y,z
1/2+x,1/2+y,z
1/2-x,1/2+y,-z
1/2-x,1/2-y,-z
1/2+x,1/2-y,z
loop_
_atom_site_type_symbol
_atom_site_label
_atom_site_fract_x
_atom_site_fract_y
_atom_site_fract_z
Si Si1 0.719875 0.169133 0.138273
Si Si2 0.278424 0.409439 0.538870
Si Si3 0.533112 0.222571 0.796207
Si Si4 0.769494 0.824935 0.701706
Si Si5 0.673616 0.065593 0.990081
Si Si6 0.834303 0.931456 0.326542
Si Si7 0.873359 0.932248 0.869609
Si Si8 0.500000 0.000000 0.500000
O O1 0.534618 0.185605 0.126284
O O2 0.819558 0.230155 0.144233
O O3 0.749783 0.126093 0.052575
O O4 0.783937 0.124263 0.243316
O O5 0.255346 0.344904 0.583183
O O6 0.255492 0.419102 0.414483
O O7 0.467484 0.429419 0.608595
O O8 0.141794 0.448825 0.556512
O O9 0.602466 0.185442 0.720318
O O10 0.376133 0.264208 0.729671
O O11 0.868519 0.877983 0.789303
O O12 0.748932 0.000000 0.036877
O O13 0.500000 0.064502 0.000000
O O14 0.693560 0.068256 0.876462
O O15 0.786296 0.000000 0.282111
O O16 0.895856 0.000000 0.833318
O O17 0.000000 0.926028 0.000000
#
# Coordination Sequence:
#
# PCOD9211434 Si02
#       8
#     8   8   8   8   8   8   8   2
#     4  11  22  43  66  89 129 177 212 272 322 368
#     4  11  24  41  65  98 134 164 205 265 322 390
#     4  10  24  42  63  92 126 169 237 260 300 394
#     4  11  23  45  65  91 130 176 210 274 323 366
#     4  10  21  40  62  97 131 163 209 267 328 395
#     4  11  22  43  67 100 128 167 212 258 329 398
#     4  10  22  38  64  98 130 160 211 264 325 398
#     4  12  24  42  64 108 138 152 210 270 318 406
#
# _framework density 24.245384999999999
#
# number of rings (size 3 to 8) (size 9 to 14) (size 15 to 20)
#    0.000    1.379    2.759    2.483    2.897    0.000 
#    0.000   18.621    0.000    0.000    0.000    0.000 
#    0.000    0.000    0.000    0.000    0.000    0.000 
#
# Total GULP energy -161653.399264 kJ/mol
# GULP energy per Si atom -5574.255147 kJ/mol
# Density = 2.419020 g / cm^3
# Si number density = 24.245385 Si / 1000 Ang^3
#
#
#
# Elastic Constant Matrix: (Units=GPa)
#
#
# Indices 1 2 3 4 5 6 
#
# 1 115.9167 28.1890 5.5392 0.0000 -21.2680 0.0000
# 2 28.1890 108.4198 34.4141 0.0000 -9.8763 0.0000
# 3 5.5392 34.4141 51.0619 0.0000 -13.6926 0.0000
# 4 0.0000 0.0000 0.0000 90.9980 0.0000 -11.0694
# 5 -21.2680 -9.8763 -13.6926 0.0000 28.8666 0.0000
# 6 0.0000 0.0000 0.0000 -11.0694 0.0000 52.9058
#
#
#
# Elastic Compliance Matrix: (Units=1/GPa)
#
#
# Indices 1 2 3 4 5 6 
#
# 1 0.010747 -0.003020 0.003112 0.000000 0.008360 0.000000
# 2 -0.003020 0.012585 -0.008703 0.000000 -0.002048 0.000000
# 3 0.003112 -0.008703 0.028561 0.000000 0.012863 0.000000
# 4 0.000000 0.000000 0.000000 0.011276 0.000000 0.002359
# 5 0.008360 -0.002048 0.012863 0.000000 0.046203 0.000000
# 6 0.000000 0.000000 0.000000 0.002359 0.000000 0.019395
#
#
# Mechanical properties :
#
#
# Convention : Reuss Voigt Hill
#
# Bulk Modulus (GPa) = 28.84402 45.74256 37.29329
# Shear Modulus (GPa) = 31.73664 48.37114 40.05389
#
# Velocity S-wave (km/s) = 3.62190 4.47146 4.06892
# Velocity P-wave (km/s) = 5.42342 6.75027 6.12289
#
# Compressibility (1/GPa) = 0.03466924
#
# Stress axis : x y z
#
# Youngs Moduli (GPa) = 93.05275 79.46197 35.01220
#
# Poissons Ratio (x) = 0.23999 -0.10895
# Poissons Ratio (y) = 0.28104 0.30472
# Poissons Ratio (z) = -0.28955 0.69157
#
# Static dielectric constant tensor:
#      x y z
#    x 2.020050 0.000000 0.038900 
#    y 0.000000 1.931540 0.000000 
#    z 0.038900 0.000000 1.977830 
# 
# From -- ./inp_files/198479.got.cif
#   From: 2010.05.17/outbox.cif.g08.bks.cpg/sg12_100_cif.got.tgz:198479.got - 2010.06.03 13:09:07.
