data_PCOD9211238
_publ_section_title
;
Structure prediction by ZEFSAII (Michael W. Deem and Ramdas Pophale) SiO2 
 PCOD9211238
Probable space group: C 2/M
;
_chemical_formula_sum "Si O2"
_cell_formula_units_Z 56
_cell_length_a 21.923789
_cell_length_b 24.909127
_cell_length_c 18.664000
_cell_angle_alpha 90.000000
_cell_angle_beta 163.224916
_cell_angle_gamma 90.000000
_cell_volume 2941.700422
_symmetry_space_group_name_H-M "C 2/M"
_symmetry_group_IT_number 12
_symmetry_cell_setting 'monoclinic'
loop_
_space_group_symop_operation_xyz
x,y,z
-x,y,-z
-x,-y,-z
x,-y,z
1/2+x,1/2+y,z
1/2-x,1/2+y,-z
1/2-x,1/2-y,-z
1/2+x,1/2-y,z
loop_
_atom_site_type_symbol
_atom_site_label
_atom_site_fract_x
_atom_site_fract_y
_atom_site_fract_z
Si Si1 0.922862 0.401732 0.032106
Si Si2 0.157040 0.166837 0.946496
Si Si3 0.953635 0.258039 0.628904
Si Si4 0.195727 0.060308 0.898971
Si Si5 0.718004 0.438214 0.654319
Si Si6 0.316074 0.296839 0.244775
Si Si7 0.514181 0.701295 0.936119
O O1 0.907008 0.433202 0.088779
O O2 0.783715 0.425030 0.809074
O O3 0.839786 0.342769 0.955488
O O4 0.151351 0.401132 0.252960
O O5 0.151662 0.108341 0.904415
O O6 0.990041 0.211766 0.729323
O O7 0.114126 0.166477 0.983653
O O8 0.384334 0.192238 0.179426
O O9 0.716465 0.277486 0.348078
O O10 0.054757 0.230250 0.673084
O O11 0.021352 0.066015 0.639600
O O12 0.180744 0.000000 0.912021
O O13 0.782301 0.500000 0.713103
O O14 0.500000 0.321408 0.500000
O O15 0.174324 0.251856 0.123342
O O16 0.500000 0.676641 0.000000
#
# Coordination Sequence:
#
# PCOD9211238 Si02
#       7
#     8   8   8   8   8   8   8
#     4  11  21  32  53  78 114 158 192 239 273 316
#     4  10  23  38  57  86 116 149 193 234 281 350
#     4  10  21  40  56  84 118 151 185 233 284 342
#     4  11  22  38  58  78 111 153 194 240 288 334
#     4  10  22  35  50  77 111 154 205 237 267 325
#     4  11  21  32  53  86 116 145 191 227 272 343
#     4  11  23  37  62  83 114 152 184 235 296 343
#
# _framework density 19.036608000000001
#
# number of rings (size 3 to 8) (size 9 to 14) (size 15 to 20)
#    0.000    1.429    2.857    3.429    4.000    2.286 
#    0.000    0.000    0.000    0.429    0.000    1.000 
#    0.000    0.000    0.000    0.000    0.000    0.000 
#
# Total GULP energy -156183.324564 kJ/mol
# GULP energy per Si atom -5577.975877 kJ/mol
# Density = 1.899328 g / cm^3
# Si number density = 19.036608 Si / 1000 Ang^3
#
#
#
# Elastic Constant Matrix: (Units=GPa)
#
#
# Indices 1 2 3 4 5 6 
#
# 1 112.1599 43.7356 24.9500 0.0004 5.6083 0.0003
# 2 43.7356 81.6889 4.9161 0.0007 4.7066 0.0002
# 3 24.9500 4.9161 48.6804 0.0031 7.8059 0.0010
# 4 0.0004 0.0007 0.0031 17.2794 0.0009 -6.4947
# 5 5.6083 4.7066 7.8059 0.0009 21.5752 0.0003
# 6 0.0003 0.0002 0.0010 -6.4947 0.0003 22.0473
#
#
#
# Elastic Compliance Matrix: (Units=1/GPa)
#
#
# Indices 1 2 3 4 5 6 
#
# 1 0.012748 -0.006483 -0.005918 0.000001 0.000242 0.000001
# 2 -0.006483 0.015729 0.002138 -0.000001 -0.002520 0.000000
# 3 -0.005918 0.002138 0.024615 -0.000005 -0.007834 -0.000002
# 4 0.000001 -0.000001 -0.000005 0.065078 -0.000001 0.019171
# 5 0.000242 -0.002520 -0.007834 -0.000001 0.049671 -0.000001
# 6 0.000001 0.000000 -0.000002 0.019171 -0.000001 0.051004
#
#
# Mechanical properties :
#
#
# Convention : Reuss Voigt Hill
#
# Bulk Modulus (GPa) = 30.70538 43.30364 37.00451
# Shear Modulus (GPa) = 19.98190 23.44222 21.71206
#
# Velocity S-wave (km/s) = 3.24336 3.51298 3.38086
# Velocity P-wave (km/s) = 5.49459 6.26511 5.89246
#
# Compressibility (1/GPa) = 0.03256758
#
# Stress axis : x y z
#
# Youngs Moduli (GPa) = 78.44254 63.57672 40.62490
#
# Poissons Ratio (x) = 0.41217 0.24041
# Poissons Ratio (y) = 0.50855 -0.08687
# Poissons Ratio (z) = 0.46421 -0.13595
#
# Static dielectric constant tensor:
#      x y z
#    x 1.717190 0.000000 0.005890 
#    y 0.000000 1.681590 0.000000 
#    z 0.005890 0.000000 1.718370 
# 
# From -- ./inp_files/286317.got.cif
#   From: 2010.05.17/outbox.cif.g08.bks.cpg/sg12_144_cif.got.tgz:286317.got - 2010.06.03 13:09:07.
