data_PCOD9211132
_publ_section_title
;
Structure prediction by ZEFSAII (Michael W. Deem and Ramdas Pophale) SiO2 
 PCOD9211132
Probable space group: C 2/M
;
_chemical_formula_sum "Si O2"
_cell_formula_units_Z 32
_cell_length_a 8.216144
_cell_length_b 17.990698
_cell_length_c 14.737076
_cell_angle_alpha 90.000000
_cell_angle_beta 40.215524
_cell_angle_gamma 90.000000
_cell_volume 1406.482594
_symmetry_space_group_name_H-M "C 2/M"
_symmetry_group_IT_number 12
_symmetry_cell_setting 'monoclinic'
loop_
_space_group_symop_operation_xyz
x,y,z
-x,y,-z
-x,-y,-z
x,-y,z
1/2+x,1/2+y,z
1/2-x,1/2+y,-z
1/2-x,1/2-y,-z
1/2+x,1/2-y,z
loop_
_atom_site_type_symbol
_atom_site_label
_atom_site_fract_x
_atom_site_fract_y
_atom_site_fract_z
Si Si1 0.073214 0.673821 0.681266
Si Si2 0.292563 0.657721 0.407958
Si Si3 0.592370 0.584767 0.819939
Si Si4 0.609458 0.829730 0.053240
O O1 0.269152 0.640589 0.524739
O O2 0.082339 0.762040 0.659716
O O3 0.802404 0.639958 0.770416
O O4 0.094207 0.663001 0.779824
O O5 0.409301 0.599794 0.288032
O O6 0.000000 0.666264 0.500000
O O7 0.657607 0.500000 0.810989
O O8 0.322858 0.607807 0.973041
O O9 0.500000 0.835279 0.000000
O O10 0.750000 0.750000 0.000000
#
# Coordination Sequence:
#
# PCOD9211132 Si02
#       4
#     8   8   8   8
#     4  10  21  39  66  96 130 172 223 267 320 390
#     4   9  20  37  66  97 132 173 223 273 318 391
#     4  11  24  43  68 101 136 174 217 274 338 392
#     4  12  25  40  67  96 131 174 223 274 328 393
#
# _framework density 22.751792999999999
#
# number of rings (size 3 to 8) (size 9 to 14) (size 15 to 20)
#    0.000    1.500    2.500    2.250    3.500    7.000 
#    0.000    0.000    0.000    2.250    0.000    0.000 
#    0.000    0.000    0.000    0.000    0.000    0.000 
#
# Total GULP energy -89499.006489 kJ/mol
# GULP energy per Si atom -5593.687906 kJ/mol
# Density = 2.270001 g / cm^3
# Si number density = 22.751793 Si / 1000 Ang^3
#
#
#
# Elastic Constant Matrix: (Units=GPa)
#
#
# Indices 1 2 3 4 5 6 
#
# 1 76.7955 5.2159 42.1919 0.0000 27.0481 0.0001
# 2 5.2159 58.9722 16.9027 0.0006 -13.2654 -0.0003
# 3 42.1919 16.9027 165.8320 0.0016 46.6884 0.0000
# 4 0.0000 0.0006 0.0016 9.8266 0.0001 15.1747
# 5 27.0481 -13.2654 46.6884 0.0001 49.6947 -0.0005
# 6 0.0001 -0.0003 0.0000 15.1747 -0.0005 2.6661
#
#
#
# Elastic Compliance Matrix: (Units=1/GPa)
#
#
# Indices 1 2 3 4 5 6 
#
# 1 0.017150 -0.002978 -0.001643 -0.000001 -0.008586 0.000001
# 2 -0.002978 0.021195 -0.004693 0.000001 0.011688 -0.000001
# 3 -0.001643 -0.004693 0.009555 0.000000 -0.009336 -0.000001
# 4 -0.000001 0.000001 0.000000 -0.013064 0.000002 0.074359
# 5 -0.008586 0.011688 -0.009336 0.000002 0.036687 -0.000001
# 6 0.000001 -0.000001 -0.000001 0.074359 -0.000001 -0.048152
#
#
# Mechanical properties :
#
#
# Convention : Reuss Voigt Hill
#
# Bulk Modulus (GPa) = 34.16100 47.80229 40.98165
# Shear Modulus (GPa) = 96.60777 28.25674 62.43226
#
# Velocity S-wave (km/s) = 6.52333 3.52796 5.24406
# Velocity P-wave (km/s) = 8.47264 6.13607 7.39719
#
# Compressibility (1/GPa) = 0.02927315
#
# Stress axis : x y z
#
# Youngs Moduli (GPa) = 58.30739 47.18138 104.65872
#
# Poissons Ratio (x) = 0.14048 0.17192
# Poissons Ratio (y) = 0.17361 0.49120
# Poissons Ratio (z) = 0.09578 0.22144
#
# Static dielectric constant tensor:
#      x y z
#    x 1.921810 0.000000 0.049460 
#    y 0.000000 1.759670 0.000000 
#    z 0.049460 0.000000 1.899270 
# 
# From -- ./inp_files/196729.got.cif
#   From: 2010.05.17/outbox.cif.g08.bks.cpg/sg12_99_cif.got.tgz:196729.got - 2010.06.03 13:09:07.
