data_PCOD9211154
_publ_section_title
;
Structure prediction by ZEFSAII (Michael W. Deem and Ramdas Pophale) SiO2 
 PCOD9211154
Probable space group: C 2/M
;
_chemical_formula_sum "Si O2"
_cell_formula_units_Z 64
_cell_length_a 5.372205
_cell_length_b 23.995453
_cell_length_c 22.603253
_cell_angle_alpha 90.000000
_cell_angle_beta 109.614549
_cell_angle_gamma 90.000000
_cell_volume 2744.672818
_symmetry_space_group_name_H-M "C 2/M"
_symmetry_group_IT_number 12
_symmetry_cell_setting 'monoclinic'
loop_
_space_group_symop_operation_xyz
x,y,z
-x,y,-z
-x,-y,-z
x,-y,z
1/2+x,1/2+y,z
1/2-x,1/2+y,-z
1/2-x,1/2-y,-z
1/2+x,1/2-y,z
loop_
_atom_site_type_symbol
_atom_site_label
_atom_site_fract_x
_atom_site_fract_y
_atom_site_fract_z
Si Si1 0.820039 0.345858 0.648095
Si Si2 0.849104 0.063897 0.167961
Si Si3 0.285797 0.214180 0.245048
Si Si4 0.075297 0.594536 0.570114
Si Si5 0.819441 0.272239 0.070665
Si Si6 0.712008 0.125656 0.861786
Si Si7 0.624615 0.697646 0.454772
Si Si8 0.542677 0.438445 0.692140
O O1 0.090875 0.318452 0.689191
O O2 0.620482 0.297555 0.609715
O O3 0.708380 0.382889 0.692170
O O4 0.850283 0.392731 0.599749
O O5 0.574854 0.096877 0.156451
O O6 0.017786 0.065350 0.242926
O O7 0.041150 0.086062 0.132085
O O8 0.778075 0.000000 0.151247
O O9 0.010269 0.241580 0.242282
O O10 0.273476 0.169638 0.191226
O O11 0.175913 0.657251 0.562137
O O12 0.301916 0.564928 0.626377
O O13 0.000000 0.569919 0.500000
O O14 0.632805 0.237377 0.100190
O O15 0.754252 0.336020 0.077533
O O16 0.750000 0.250000 0.000000
O O17 0.500000 0.664668 0.500000
O O18 0.750000 0.750000 0.500000
O O19 0.672181 0.500000 0.694647
#
# Coordination Sequence:
#
# PCOD9211154 Si02
#       8
#     8   8   8   8   8   8   8   8
#     4  11  25  42  60  84 123 158 211 266 344 418
#     4  11  24  43  71 103 135 185 238 295 368 419
#     4  12  27  40  62  94 134 179 217 271 347 411
#     4  11  23  42  61  84 114 152 212 277 345 425
#     4  10  21  39  67 108 150 198 250 277 330 396
#     4  12  22  43  68 101 149 184 232 297 336 408
#     4  11  24  37  56  79 107 152 202 254 315 406
#     4  10  24  44  67  90 118 160 220 287 355 427
#
# _framework density 23.317898
#
# number of rings (size 3 to 8) (size 9 to 14) (size 15 to 20)
#    0.000    1.000    2.500    3.750    5.250    0.750 
#    0.000    0.625    0.000    0.000    0.000   35.000 
#    0.000    0.000    0.000    0.000    0.000    0.000 
#
# Total GULP energy -178664.974428 kJ/mol
# GULP energy per Si atom -5583.280451 kJ/mol
# Density = 2.326483 g / cm^3
# Si number density = 23.317898 Si / 1000 Ang^3
#
#
#
# Elastic Constant Matrix: (Units=GPa)
#
#
# Indices 1 2 3 4 5 6 
#
# 1 97.5884 22.1268 16.2827 0.0000 -21.1655 0.0000
# 2 22.1268 106.8991 37.2010 0.0000 -11.6701 0.0000
# 3 16.2827 37.2010 81.0820 0.0000 -6.0666 0.0000
# 4 0.0000 0.0000 0.0000 33.9982 0.0000 -2.2199
# 5 -21.1655 -11.6701 -6.0666 0.0000 17.4106 0.0000
# 6 0.0000 0.0000 0.0000 -2.2199 0.0000 27.0577
#
#
#
# Elastic Compliance Matrix: (Units=1/GPa)
#
#
# Indices 1 2 3 4 5 6 
#
# 1 0.014155 -0.000698 -0.001304 0.000000 0.016286 0.000000
# 2 -0.000698 0.011775 -0.004862 0.000000 0.005350 0.000000
# 3 -0.001304 -0.004862 0.014850 0.000000 0.000331 0.000000
# 4 0.000000 0.000000 0.000000 0.029572 0.000000 0.002426
# 5 0.016286 0.005350 0.000331 0.000000 0.080935 0.000000
# 6 0.000000 0.000000 0.000000 0.002426 0.000000 0.037157
#
#
# Mechanical properties :
#
#
# Convention : Reuss Voigt Hill
#
# Bulk Modulus (GPa) = 36.96501 48.53226 42.74863
# Shear Modulus (GPa) = 23.67529 29.69056 26.68292
#
# Velocity S-wave (km/s) = 3.18988 3.57220 3.38644
# Velocity P-wave (km/s) = 5.42717 6.15407 5.80201
#
# Compressibility (1/GPa) = 0.02705261
#
# Stress axis : x y z
#
# Youngs Moduli (GPa) = 70.64595 84.92445 67.33794
#
# Poissons Ratio (x) = 0.05931 0.08779
# Poissons Ratio (y) = 0.04934 0.32740
# Poissons Ratio (z) = 0.09210 0.41290
#
# Static dielectric constant tensor:
#      x y z
#    x 2.331650 0.000000 0.644890 
#    y 0.000000 1.897170 0.000000 
#    z 0.644890 0.000000 3.115700 
# 
# From -- ./inp_files/331455.got.cif
#   From: 2010.05.17/outbox.cif.g08.bks.cpg/sg12_166_cif.got.tgz:331455.got - 2010.06.03 13:09:07.
