data_PCOD9211491
_publ_section_title
;
Structure prediction by ZEFSAII (Michael W. Deem and Ramdas Pophale) SiO2 
 PCOD9211491
Probable space group: C 2/M
;
_chemical_formula_sum "Si O2"
_cell_formula_units_Z 48
_cell_length_a 18.207990
_cell_length_b 13.478545
_cell_length_c 18.598927
_cell_angle_alpha 90.000000
_cell_angle_beta 150.648788
_cell_angle_gamma 90.000000
_cell_volume 2237.341647
_symmetry_space_group_name_H-M "C 2/M"
_symmetry_group_IT_number 12
_symmetry_cell_setting 'monoclinic'
loop_
_space_group_symop_operation_xyz
x,y,z
-x,y,-z
-x,-y,-z
x,-y,z
1/2+x,1/2+y,z
1/2-x,1/2+y,-z
1/2-x,1/2-y,-z
1/2+x,1/2-y,z
loop_
_atom_site_type_symbol
_atom_site_label
_atom_site_fract_x
_atom_site_fract_y
_atom_site_fract_z
Si Si1 0.230537 0.261155 0.652468
Si Si2 0.027679 0.111354 0.918190
Si Si3 0.954220 0.385512 0.599863
Si Si4 0.145147 0.834634 0.872860
Si Si5 0.766654 0.250096 0.182200
Si Si6 0.324582 0.382197 0.528699
O O1 0.390624 0.314921 0.784535
O O2 0.116885 0.349256 0.535399
O O3 0.207969 0.222350 0.713795
O O4 0.204702 0.177560 0.569885
O O5 0.121381 0.101217 0.924124
O O6 0.982379 0.000000 0.901419
O O7 0.129687 0.173414 0.060089
O O8 0.996903 0.500000 0.636143
O O9 0.821772 0.371055 0.545392
O O10 0.096922 0.316477 0.732080
O O11 0.237604 0.842699 0.876407
O O12 0.972757 0.841028 0.695147
O O13 0.250000 0.750000 0.000000
O O14 0.346048 0.500000 0.535067
#
# Coordination Sequence:
#
# PCOD9211491 Si02
#       6
#     8   8   8   8   8   8
#     4  12  23  39  64  94 132 171 213 266 330 386
#     4  11  23  41  66  94 130 178 219 261 322 392
#     4  11  22  37  62  93 126 167 214 265 319 383
#     4  10  21  40  63  89 123 166 213 260 308 377
#     4  11  24  39  60  94 136 168 213 266 328 381
#     4  11  23  43  69  94 126 173 224 268 318 384
#
# _framework density 21.454032000000002
#
# number of rings (size 3 to 8) (size 9 to 14) (size 15 to 20)
#    0.000    1.000    3.333    4.000    0.000    4.000 
#    0.000    2.500    0.000    6.000    0.000    0.000 
#    0.000    1.333    0.000    0.000    0.000    0.000 
#
# Total GULP energy -133625.186776 kJ/mol
# GULP energy per Si atom -5567.716116 kJ/mol
# Density = 2.140520 g / cm^3
# Si number density = 21.454032 Si / 1000 Ang^3
#
#
#
# Elastic Constant Matrix: (Units=GPa)
#
#
# Indices 1 2 3 4 5 6 
#
# 1 124.7091 36.1078 24.4192 -0.0002 -31.2385 -0.0001
# 2 36.1078 85.8701 41.2150 -0.0003 7.0062 -0.0002
# 3 24.4192 41.2150 125.5064 -0.0003 -3.6108 -0.0002
# 4 -0.0002 -0.0003 -0.0003 1.4882 -0.0002 5.1125
# 5 -31.2385 7.0062 -3.6108 -0.0002 49.8455 -0.0001
# 6 -0.0001 -0.0002 -0.0002 5.1125 -0.0001 15.9160
#
#
#
# Elastic Compliance Matrix: (Units=1/GPa)
#
#
# Indices 1 2 3 4 5 6 
#
# 1 0.011660 -0.005440 -0.000251 -0.000009 0.008054 0.000003
# 2 -0.005440 0.016625 -0.004576 -0.000009 -0.006078 0.000003
# 3 -0.000251 -0.004576 0.009553 -0.000009 0.001178 0.000003
# 4 -0.000009 -0.000009 -0.000009 -6.493449 -0.000024 2.085801
# 5 0.008054 -0.006078 0.001178 -0.000024 0.026049 0.000008
# 6 0.000003 0.000003 0.000003 2.085801 0.000008 -0.607164
#
#
# Mechanical properties :
#
#
# Convention : Reuss Voigt Hill
#
# Bulk Modulus (GPa) = 57.78484 59.95218 58.86851
# Shear Modulus (GPa) = -0.71322 29.07285 14.17981
#
# Velocity S-wave (km/s) = -0.57720 3.68519 2.57366
# Velocity P-wave (km/s) = 5.15252 6.79063 6.02749
#
# Compressibility (1/GPa) = 0.01730558
#
# Stress axis : x y z
#
# Youngs Moduli (GPa) = 85.76160 60.14984 104.67851
#
# Poissons Ratio (x) = 0.32721 0.02623
# Poissons Ratio (y) = 0.46654 0.47900
# Poissons Ratio (z) = 0.02149 0.27524
#
# Static dielectric constant tensor:
#      x y z
#    x 1.849390 0.000000 0.010650 
#    y 0.000000 1.825940 0.000000 
#    z 0.010650 0.000000 1.820880 
# 
# From -- ./inp_files/278221.got.cif
#   From: 2010.05.17/outbox.cif.g08.bks.cpg/sg12_140_cif.got.tgz:278221.got - 2010.06.03 13:09:07.
