data_PCOD9211953
_publ_section_title
;
Structure prediction by ZEFSAII (Michael W. Deem and Ramdas Pophale) SiO2 
 PCOD9211953
Probable space group: C 2/M
;
_chemical_formula_sum "Si O2"
_cell_formula_units_Z 32
_cell_length_a 10.773931
_cell_length_b 15.346231
_cell_length_c 9.384592
_cell_angle_alpha 90.000000
_cell_angle_beta 64.566506
_cell_angle_gamma 90.000000
_cell_volume 1401.262996
_symmetry_space_group_name_H-M "C 2/M"
_symmetry_group_IT_number 12
_symmetry_cell_setting 'monoclinic'
loop_
_space_group_symop_operation_xyz
x,y,z
-x,y,-z
-x,-y,-z
x,-y,z
1/2+x,1/2+y,z
1/2-x,1/2+y,-z
1/2-x,1/2-y,-z
1/2+x,1/2-y,z
loop_
_atom_site_type_symbol
_atom_site_label
_atom_site_fract_x
_atom_site_fract_y
_atom_site_fract_z
Si Si1 0.871295 0.106659 0.871531
Si Si2 0.825356 0.896369 0.215523
Si Si3 0.111058 0.394739 0.826085
Si Si4 0.624355 0.189917 0.521211
O O1 0.761767 0.134729 0.807237
O O2 0.030489 0.135222 0.784976
O O3 0.869850 0.000000 0.867805
O O4 0.820528 0.134649 0.054193
O O5 0.693809 0.875355 0.373576
O O6 0.838885 0.000000 0.199417
O O7 0.110349 0.500000 0.817550
O O8 0.078381 0.356606 0.688538
O O9 0.000000 0.369283 0.000000
O O10 0.500000 0.234499 0.500000
O O11 0.750000 0.250000 0.500000
#
# Coordination Sequence:
#
# PCOD9211953 Si02
#       4
#     8   8   8   8
#     4   8  16  33  63  99 122 151 196 255 314 363
#     4   9  18  37  66  94 123 158 206 257 308 360
#     4  10  21  40  68  95 122 158 211 264 309 359
#     4  12  28  44  59  89 128 169 207 252 311 372
#
# _framework density 22.836541
#
# number of rings (size 3 to 8) (size 9 to 14) (size 15 to 20)
#    0.000    2.250    0.000    3.750    3.500    4.000 
#    4.500    6.250    0.000    0.000    0.000    0.000 
#    0.000    0.000    0.000    0.000    0.000    0.000 
#
# Total GULP energy -89435.374693 kJ/mol
# GULP energy per Si atom -5589.710918 kJ/mol
# Density = 2.278456 g / cm^3
# Si number density = 22.836541 Si / 1000 Ang^3
#
#
#
# Elastic Constant Matrix: (Units=GPa)
#
#
# Indices 1 2 3 4 5 6 
#
# 1 163.6581 17.8770 45.0409 0.0000 27.6130 0.0000
# 2 17.8770 15.1702 15.2769 0.0000 3.2517 0.0000
# 3 45.0409 15.2769 123.6449 0.0000 1.6845 0.0000
# 4 0.0000 0.0000 0.0000 -132.7902 0.0000 40.7927
# 5 27.6130 3.2517 1.6845 0.0000 30.2060 0.0000
# 6 0.0000 0.0000 0.0000 40.7927 0.0000 13.7833
#
#
#
# Elastic Compliance Matrix: (Units=1/GPa)
#
#
# Indices 1 2 3 4 5 6 
#
# 1 0.008620 -0.006370 -0.002257 0.000000 -0.007068 0.000000
# 2 -0.006370 0.081775 -0.007748 0.000000 -0.002548 0.000000
# 3 -0.002257 -0.007748 0.009835 0.000000 0.002349 0.000000
# 4 0.000000 0.000000 0.000000 -0.003944 0.000000 0.011674
# 5 -0.007068 -0.002548 0.002349 0.000000 0.039711 0.000000
# 6 0.000000 0.000000 0.000000 0.011674 0.000000 0.038002
#
#
# Mechanical properties :
#
#
# Convention : Reuss Voigt Hill
#
# Bulk Modulus (GPa) = 14.81942 50.98476 32.90209
# Shear Modulus (GPa) = 21.81112 -2.80829 9.50142
#
# Velocity S-wave (km/s) = 3.09382 -1.11014 2.04197
# Velocity P-wave (km/s) = 4.38927 4.55315 4.47196
#
# Compressibility (1/GPa) = 0.06747902
#
# Stress axis : x y z
#
# Youngs Moduli (GPa) = 116.01236 12.22872 101.67711
#
# Poissons Ratio (x) = 0.07790 0.22945
# Poissons Ratio (y) = 0.73903 0.78783
# Poissons Ratio (z) = 0.26179 0.09475
#
# Static dielectric constant tensor:
#      x y z
#    x 1.864600 0.000000 -0.020310 
#    y 0.000000 1.854950 0.000000 
#    z -0.020310 0.000000 1.859550 
# 
# From -- ./inp_files/46438.got.cif
#   From: 2010.05.17/outbox.cif.g08.bks.cpg/sg12_24_cif.got.tgz:46438.got - 2010.06.03 13:09:07.
