data_PCOD9211082
_publ_section_title
;
Structure prediction by ZEFSAII (Michael W. Deem and Ramdas Pophale) SiO2 
 PCOD9211082
Probable space group: C 2/M
;
_chemical_formula_sum "Si O2"
_cell_formula_units_Z 50
_cell_length_a 18.583389
_cell_length_b 17.083409
_cell_length_c 9.546803
_cell_angle_alpha 90.000000
_cell_angle_beta 127.701262
_cell_angle_gamma 90.000000
_cell_volume 2398.000227
_symmetry_space_group_name_H-M "C 2/M"
_symmetry_group_IT_number 12
_symmetry_cell_setting 'monoclinic'
loop_
_space_group_symop_operation_xyz
x,y,z
-x,y,-z
-x,-y,-z
x,-y,z
1/2+x,1/2+y,z
1/2-x,1/2+y,-z
1/2-x,1/2-y,-z
1/2+x,1/2-y,z
loop_
_atom_site_type_symbol
_atom_site_label
_atom_site_fract_x
_atom_site_fract_y
_atom_site_fract_z
Si Si1 0.928259 0.822934 0.037392
Si Si2 0.188051 0.755011 0.706293
Si Si3 0.500000 0.500000 0.500000
Si Si4 0.282529 0.630253 0.663809
Si Si5 0.132588 0.500000 0.531881
Si Si6 0.662629 0.164657 0.956539
Si Si7 0.077501 0.865705 0.422738
Si Si8 0.422720 0.000000 0.205551
O O1 0.891864 0.739205 0.045820
O O2 0.983379 0.863524 0.226377
O O3 0.851936 0.878882 0.878286
O O4 0.000000 0.807340 0.000000
O O5 0.247904 0.717837 0.653876
O O6 0.175417 0.688983 0.809320
O O7 0.097387 0.785576 0.527403
O O8 0.241514 0.825400 0.848003
O O9 0.569245 0.432861 0.524040
O O10 0.196197 0.573647 0.567265
O O11 0.341897 0.622216 0.594598
O O12 0.112124 0.500000 0.674173
O O13 0.033020 0.500000 0.341452
O O14 0.615941 0.080194 0.908950
#
# Coordination Sequence:
#
# PCOD9211082 Si02
#       8
#     8   8   2   8   4   8   8   4
#     4   9  21  40  66  93 123 166 215 262 319 381
#     4  10  21  39  66  92 120 170 216 261 317 376
#     4  12  26  40  52 100 126 158 212 254 336 372
#     4  10  21  42  64  94 126 165 215 259 325 381
#     4  11  23  39  62  94 124 164 209 256 312 391
#     4  10  21  40  60  93 127 162 215 264 315 381
#     4  11  23  40  65  91 129 167 207 272 315 392
#     4  11  24  39  61  90 126 165 204 260 321 366
#
# _framework density 20.850707
#
# number of rings (size 3 to 8) (size 9 to 14) (size 15 to 20)
#    0.000    1.760    1.600    1.920    2.240    1.280 
#    2.880    2.800    0.000    0.000    0.000    0.000 
#    0.000    0.000    0.000    0.000    0.000    0.000 
#
# Total GULP energy -139217.198509 kJ/mol
# GULP energy per Si atom -5568.687940 kJ/mol
# Density = 2.080325 g / cm^3
# Si number density = 20.850707 Si / 1000 Ang^3
#
#
#
# Elastic Constant Matrix: (Units=GPa)
#
#
# Indices 1 2 3 4 5 6 
#
# 1 106.4257 43.9242 39.5557 0.0000 1.6461 0.0000
# 2 43.9242 83.6662 26.5023 0.0000 7.0975 0.0000
# 3 39.5557 26.5023 62.1518 0.0000 9.7597 0.0000
# 4 0.0000 0.0000 0.0000 -25.5399 0.0000 15.6120
# 5 1.6461 7.0975 9.7597 0.0000 31.3663 0.0000
# 6 0.0000 0.0000 0.0000 15.6120 0.0000 44.4053
#
#
#
# Elastic Compliance Matrix: (Units=1/GPa)
#
#
# Indices 1 2 3 4 5 6 
#
# 1 0.014274 -0.005448 -0.007189 0.000000 0.002720 0.000000
# 2 -0.005448 0.015953 -0.002958 0.000000 -0.002403 0.000000
# 3 -0.007189 -0.002958 0.022880 0.000000 -0.006073 0.000000
# 4 0.000000 0.000000 0.000000 -0.032228 0.000000 0.011331
# 5 0.002720 -0.002403 -0.006073 0.000000 0.034172 0.000000
# 6 0.000000 0.000000 0.000000 0.011331 0.000000 0.018536
#
#
# Mechanical properties :
#
#
# Convention : Reuss Voigt Hill
#
# Bulk Modulus (GPa) = 45.62460 52.46755 49.04608
# Shear Modulus (GPa) = 44.60980 19.53046 32.07013
#
# Velocity S-wave (km/s) = 4.63048 3.06384 3.92610
# Velocity P-wave (km/s) = 7.10756 6.14282 6.64273
#
# Compressibility (1/GPa) = 0.02191800
#
# Stress axis : x y z
#
# Youngs Moduli (GPa) = 70.05519 62.68380 43.70625
#
# Poissons Ratio (x) = 0.34147 0.31421
# Poissons Ratio (y) = 0.38163 0.12929
# Poissons Ratio (z) = 0.50363 0.18543
#
# Static dielectric constant tensor:
#      x y z
#    x 1.776780 0.000000 0.007430 
#    y 0.000000 1.656680 0.000000 
#    z 0.007430 0.000000 1.799220 
# 
# From -- ./inp_files/76090.got.cif
#   From: 2010.05.17/outbox.cif.g08.bks.cpg/sg12_39_cif.got.tgz:76090.got - 2010.06.03 13:09:07.
