data_PCOD9211371
_publ_section_title
;
Structure prediction by ZEFSAII (Michael W. Deem and Ramdas Pophale) SiO2 
 PCOD9211371
Probable space group: C 2/M
;
_chemical_formula_sum "Si O2"
_cell_formula_units_Z 64
_cell_length_a 19.315760
_cell_length_b 9.031896
_cell_length_c 32.342403
_cell_angle_alpha 90.000000
_cell_angle_beta 37.272641
_cell_angle_gamma 90.000000
_cell_volume 3417.078589
_symmetry_space_group_name_H-M "C 2/M"
_symmetry_group_IT_number 12
_symmetry_cell_setting 'monoclinic'
loop_
_space_group_symop_operation_xyz
x,y,z
-x,y,-z
-x,-y,-z
x,-y,z
1/2+x,1/2+y,z
1/2-x,1/2+y,-z
1/2-x,1/2-y,-z
1/2+x,1/2-y,z
loop_
_atom_site_type_symbol
_atom_site_label
_atom_site_fract_x
_atom_site_fract_y
_atom_site_fract_z
Si Si1 0.359465 0.321934 0.291589
Si Si2 0.721459 0.176644 0.206487
Si Si3 0.705045 0.824257 0.980041
Si Si4 0.321048 0.677897 0.684587
Si Si5 0.619324 0.321914 0.175353
Si Si6 0.702889 0.677910 0.585153
Si Si7 0.581408 0.322208 0.558737
Si Si8 0.482904 0.670914 0.057272
O O1 0.345213 0.500000 0.294579
O O2 0.271624 0.242552 0.302931
O O3 0.492218 0.287410 0.219572
O O4 0.335660 0.279556 0.350651
O O5 0.698829 0.254635 0.260684
O O6 0.643719 0.243268 0.207125
O O7 0.853133 0.204809 0.130921
O O8 0.705441 0.000000 0.217353
O O9 0.784161 0.777556 0.903593
O O10 0.713974 0.000000 0.979064
O O11 0.750000 0.750000 0.000000
O O12 0.575518 0.775233 0.034081
O O13 0.313271 0.500000 0.689911
O O14 0.451375 0.718009 0.610373
O O15 0.625151 0.500000 0.178705
O O16 0.712089 0.500000 0.580056
O O17 0.614656 0.719443 0.590334
O O18 0.824050 0.747631 0.515086
O O19 0.592083 0.500000 0.550505
O O20 0.506367 0.500000 0.058050
O O21 0.500000 0.682908 0.000000
#
# Coordination Sequence:
#
# PCOD9211371 Si02
#       8
#     8   8   8   8   8   8   8   8
#     4  10  22  40  59  83 119 158 195 238 291 345
#     4  11  23  39  63  88 114 151 194 243 293 346
#     4  11  24  39  60  88 119 156 196 241 292 348
#     4  11  24  40  58  85 120 156 194 239 290 345
#     4  10  22  41  62  84 115 155 194 237 293 349
#     4   9  18  35  61  87 112 149 193 237 283 339
#     4   9  19  37  60  85 116 151 189 235 287 340
#     4  10  21  40  62  86 117 151 191 241 295 349
#
# _framework density 18.72945
#
# number of rings (size 3 to 8) (size 9 to 14) (size 15 to 20)
#    0.000    1.875    1.250    1.875    1.750    6.250 
#    0.000    5.000    0.000    0.000    0.000    0.000 
#    0.000    0.000    0.000    0.000    0.000    0.000 
#
# Total GULP energy -178763.682281 kJ/mol
# GULP energy per Si atom -5586.365071 kJ/mol
# Density = 1.868682 g / cm^3
# Si number density = 18.729450 Si / 1000 Ang^3
#
#
#
# Elastic Constant Matrix: (Units=GPa)
#
#
# Indices 1 2 3 4 5 6 
#
# 1 100.7770 38.8979 24.5288 -0.0006 -19.0599 -0.0032
# 2 38.8979 28.2565 19.3983 -0.0005 -9.2763 -0.0038
# 3 24.5288 19.3983 45.6664 -0.0011 -15.8490 0.0005
# 4 -0.0006 -0.0005 -0.0011 29.9286 0.0012 -0.6771
# 5 -19.0599 -9.2763 -15.8490 0.0012 29.8676 -0.0001
# 6 -0.0032 -0.0038 0.0005 -0.6771 -0.0001 39.4363
#
#
#
# Elastic Compliance Matrix: (Units=1/GPa)
#
#
# Indices 1 2 3 4 5 6 
#
# 1 0.022179 -0.030743 0.003364 0.000000 0.006390 -0.000001
# 2 -0.030743 0.093244 -0.024335 0.000000 -0.003572 0.000007
# 3 0.003364 -0.024335 0.034995 0.000000 0.013158 -0.000003
# 4 0.000000 0.000000 0.000000 0.033426 -0.000001 0.000574
# 5 0.006390 -0.003572 0.013158 -0.000001 0.043432 0.000000
# 6 -0.000001 0.000007 -0.000003 0.000574 0.000000 0.025367
#
#
# Mechanical properties :
#
#
# Convention : Reuss Voigt Hill
#
# Bulk Modulus (GPa) = 21.28126 37.81667 29.54896
# Shear Modulus (GPa) = 13.45044 25.97149 19.71097
#
# Velocity S-wave (km/s) = 2.68273 3.72784 3.24760
# Velocity P-wave (km/s) = 4.58074 6.22606 5.46567
#
# Compressibility (1/GPa) = 0.04698969
#
# Stress axis : x y z
#
# Youngs Moduli (GPa) = 45.08807 10.72452 28.57539
#
# Poissons Ratio (x) = 0.32970 -0.09612
# Poissons Ratio (y) = 1.38613 0.69539
# Poissons Ratio (z) = -0.15167 0.26099
#
# Static dielectric constant tensor:
#      x y z
#    x 1.629020 0.000000 -0.006400 
#    y 0.000000 1.628370 0.000000 
#    z -0.006400 0.000000 1.637020 
# 
# From -- ./inp_files/377981.got.cif
#   From: 2010.05.17/outbox.cif.g08.bks.cpg/sg12_189_cif.got.tgz:377981.got - 2010.06.03 13:09:07.
