data_PCOD9211567
_publ_section_title
;
Structure prediction by ZEFSAII (Michael W. Deem and Ramdas Pophale) SiO2 
 PCOD9211567
Probable space group: C 2/M
;
_chemical_formula_sum "Si O2"
_cell_formula_units_Z 40
_cell_length_a 31.603450
_cell_length_b 8.446751
_cell_length_c 7.693313
_cell_angle_alpha 90.000000
_cell_angle_beta 76.151810
_cell_angle_gamma 90.000000
_cell_volume 1994.008433
_symmetry_space_group_name_H-M "C 2/M"
_symmetry_group_IT_number 12
_symmetry_cell_setting 'monoclinic'
loop_
_space_group_symop_operation_xyz
x,y,z
-x,y,-z
-x,-y,-z
x,-y,z
1/2+x,1/2+y,z
1/2-x,1/2+y,-z
1/2-x,1/2-y,-z
1/2+x,1/2-y,z
loop_
_atom_site_type_symbol
_atom_site_label
_atom_site_fract_x
_atom_site_fract_y
_atom_site_fract_z
Si Si1 0.794474 0.687920 0.375086
Si Si2 0.797474 0.181863 0.994569
Si Si3 0.050025 0.191200 0.436311
Si Si4 0.888993 0.686928 0.926181
Si Si5 0.115963 0.810728 0.675731
O O1 0.791657 0.500000 0.340492
O O2 0.750000 0.750000 0.500000
O O3 0.800021 0.792690 0.197910
O O4 0.839471 0.724441 0.429052
O O5 0.799085 0.000000 0.939797
O O6 0.750000 0.250000 0.000000
O O7 0.841748 0.266306 0.891143
O O8 0.074158 0.258311 0.243338
O O9 0.077305 0.233440 0.582339
O O10 0.000000 0.243411 0.500000
O O11 0.050556 0.000000 0.421905
O O12 0.889575 0.500000 0.950467
O O13 0.893515 0.763711 0.114122
O O14 0.122230 0.000000 0.661110
#
# Coordination Sequence:
#
# PCOD9211567 Si02
#       5
#     8   8   8   8   8
#     4  11  22  37  57  85 121 160 203 248 303 366
#     4  11  22  38  59  86 120 159 204 249 301 365
#     4  10  23  43  67  93 121 161 212 261 313 372
#     4  11  23  40  62  90 127 164 203 254 313 373
#     4  10  21  40  64  89 122 161 207 258 310 369
#
# _framework density 20.060096000000001
#
# number of rings (size 3 to 8) (size 9 to 14) (size 15 to 20)
#    0.000    1.400    0.000    8.400    2.800    2.800 
#    0.000    4.000    0.000    0.000    0.000    0.000 
#    0.000    0.000    0.000    0.000    0.000    0.000 
#
# Total GULP energy -111672.614093 kJ/mol
# GULP energy per Si atom -5583.630705 kJ/mol
# Density = 2.001444 g / cm^3
# Si number density = 20.060096 Si / 1000 Ang^3
#
#
#
# Elastic Constant Matrix: (Units=GPa)
#
#
# Indices 1 2 3 4 5 6 
#
# 1 175.8344 29.0234 63.8439 0.0000 -16.0427 0.0000
# 2 29.0234 58.4753 13.5447 0.0000 -1.8740 0.0000
# 3 63.8439 13.5447 89.8650 0.0000 -17.7160 0.0000
# 4 0.0000 0.0000 0.0000 22.2490 0.0000 -5.3873
# 5 -16.0427 -1.8740 -17.7160 0.0000 39.9152 0.0000
# 6 0.0000 0.0000 0.0000 -5.3873 0.0000 29.3644
#
#
#
# Elastic Compliance Matrix: (Units=1/GPa)
#
#
# Indices 1 2 3 4 5 6 
#
# 1 0.008102 -0.002797 -0.005171 0.000000 0.000830 0.000000
# 2 -0.002797 0.018691 -0.000963 0.000000 -0.000674 0.000000
# 3 -0.005171 -0.000963 0.015921 0.000000 0.004943 0.000000
# 4 0.000000 0.000000 0.000000 0.047035 0.000000 0.008629
# 5 0.000830 -0.000674 0.004943 0.000000 0.027549 0.000000
# 6 0.000000 0.000000 0.000000 0.008629 0.000000 0.035638
#
#
# Mechanical properties :
#
#
# Convention : Reuss Voigt Hill
#
# Bulk Modulus (GPa) = 40.23750 59.66650 49.95200
# Shear Modulus (GPa) = 27.92017 32.82322 30.37169
#
# Velocity S-wave (km/s) = 3.73477 4.04944 3.89528
# Velocity P-wave (km/s) = 6.22093 7.18835 6.72207
#
# Compressibility (1/GPa) = 0.02485244
#
# Stress axis : x y z
#
# Youngs Moduli (GPa) = 123.42529 53.50184 62.81024
#
# Poissons Ratio (x) = 0.14965 0.32478
# Poissons Ratio (y) = 0.34522 0.06048
# Poissons Ratio (z) = 0.63821 0.05152
#
# Static dielectric constant tensor:
#      x y z
#    x 1.845490 0.000000 0.122040 
#    y 0.000000 1.713520 0.000000 
#    z 0.122040 0.000000 1.893090 
# 
# From -- ./inp_files/107448.got.cif
#   From: 2010.05.17/outbox.cif.g08.bks.cpg/sg12_54_cif.got.tgz:107448.got - 2010.06.03 13:09:07.
