data_PCOD9211628
_publ_section_title
;
Structure prediction by ZEFSAII (Michael W. Deem and Ramdas Pophale) SiO2 
 PCOD9211628
Probable space group: C 2/M
;
_chemical_formula_sum "Si O2"
_cell_formula_units_Z 40
_cell_length_a 8.746309
_cell_length_b 26.010047
_cell_length_c 15.605354
_cell_angle_alpha 90.000000
_cell_angle_beta 148.111056
_cell_angle_gamma 90.000000
_cell_volume 1875.422964
_symmetry_space_group_name_H-M "C 2/M"
_symmetry_group_IT_number 12
_symmetry_cell_setting 'monoclinic'
loop_
_space_group_symop_operation_xyz
x,y,z
-x,y,-z
-x,-y,-z
x,-y,z
1/2+x,1/2+y,z
1/2-x,1/2+y,-z
1/2-x,1/2-y,-z
1/2+x,1/2-y,z
loop_
_atom_site_type_symbol
_atom_site_label
_atom_site_fract_x
_atom_site_fract_y
_atom_site_fract_z
Si Si1 0.744481 0.718620 0.186765
Si Si2 0.110646 0.442070 0.145605
Si Si3 0.153163 0.624111 0.332023
Si Si4 0.236250 0.581835 0.547635
Si Si5 0.328740 0.698098 0.657935
O O1 0.600856 0.702001 0.207929
O O2 0.965867 0.674330 0.261840
O O3 0.940209 0.769688 0.285445
O O4 0.500000 0.726242 0.000000
O O5 0.994535 0.500000 0.105484
O O6 0.058295 0.403022 0.198827
O O7 0.457610 0.445197 0.306266
O O8 0.000000 0.424003 0.000000
O O9 0.500000 0.634804 0.500000
O O10 0.111557 0.585879 0.392724
O O11 0.304686 0.640470 0.611216
O O12 0.000000 0.560811 0.500000
O O13 0.000000 0.719359 0.500000
#
# Coordination Sequence:
#
# PCOD9211628 Si02
#       5
#     8   8   8   8   8
#     4  12  25  38  59  93 128 166 211 256 309 358
#     4  10  24  43  67  94 123 158 202 259 323 373
#     4  10  22  40  64  89 122 166 210 248 308 366
#     4  10  21  40  64  92 125 162 208 253 302 364
#     4  11  23  40  60  88 129 169 211 249 300 369
#
# _framework density 21.328522
#
# number of rings (size 3 to 8) (size 9 to 14) (size 15 to 20)
#    0.000    1.400    4.000    1.800    8.400    4.800 
#    0.000    0.000    0.000    3.000    0.000    0.000 
#    0.000    0.000    0.000    0.000    0.000    0.000 
#
# Total GULP energy -111780.822119 kJ/mol
# GULP energy per Si atom -5589.041106 kJ/mol
# Density = 2.127998 g / cm^3
# Si number density = 21.328522 Si / 1000 Ang^3
#
#
#
# Elastic Constant Matrix: (Units=GPa)
#
#
# Indices 1 2 3 4 5 6 
#
# 1 74.0740 27.6879 -9.3266 0.0000 -20.7871 0.0000
# 2 27.6879 74.4776 17.8319 0.0000 -16.4120 0.0000
# 3 -9.3266 17.8319 65.9294 0.0000 -26.7598 0.0000
# 4 0.0000 0.0000 0.0000 24.8059 0.0000 -12.2792
# 5 -20.7871 -16.4120 -26.7598 0.0000 41.3598 0.0000
# 6 0.0000 0.0000 0.0000 -12.2792 0.0000 13.2400
#
#
#
# Elastic Compliance Matrix: (Units=1/GPa)
#
#
# Indices 1 2 3 4 5 6 
#
# 1 0.022137 -0.007551 0.011491 0.000000 0.015565 0.000000
# 2 -0.007551 0.017525 -0.006138 0.000000 -0.000812 0.000000
# 3 0.011491 -0.006138 0.026864 0.000000 0.020721 0.000000
# 4 0.000000 0.000000 0.000000 0.074528 0.000000 0.069119
# 5 0.015565 -0.000812 0.020721 0.000000 0.045085 0.000000
# 6 0.000000 0.000000 0.000000 0.069119 0.000000 0.139632
#
#
# Mechanical properties :
#
#
# Convention : Reuss Voigt Hill
#
# Bulk Modulus (GPa) = 16.09520 31.87416 23.98468
# Shear Modulus (GPa) = 14.25004 27.76698 21.00851
#
# Velocity S-wave (km/s) = 2.58761 3.61206 3.14187
# Velocity P-wave (km/s) = 4.06083 5.68971 4.94283
#
# Compressibility (1/GPa) = 0.06213034
#
# Stress axis : x y z
#
# Youngs Moduli (GPa) = 45.17255 57.06236 37.22480
#
# Poissons Ratio (x) = 0.43090 -0.42777
# Poissons Ratio (y) = 0.34111 0.22848
# Poissons Ratio (z) = -0.51910 0.35024
#
# Static dielectric constant tensor:
#      x y z
#    x 1.796730 0.000000 -0.026320 
#    y 0.000000 1.776480 0.000000 
#    z -0.026320 0.000000 1.760410 
# 
# From -- ./inp_files/41416.got.cif
#   From: 2010.05.17/outbox.cif.g08.bks.cpg/sg12_21_cif.got.tgz:41416.got - 2010.06.03 13:09:07.
