data_PCOD9211052
_publ_section_title
;
Structure prediction by ZEFSAII (Michael W. Deem and Ramdas Pophale) SiO2 
 PCOD9211052
Probable space group: C 2/M
;
_chemical_formula_sum "Si O2"
_cell_formula_units_Z 56
_cell_length_a 15.162268
_cell_length_b 23.020701
_cell_length_c 15.632308
_cell_angle_alpha 90.000000
_cell_angle_beta 29.404832
_cell_angle_gamma 90.000000
_cell_volume 2678.965761
_symmetry_space_group_name_H-M "C 2/M"
_symmetry_group_IT_number 12
_symmetry_cell_setting 'monoclinic'
loop_
_space_group_symop_operation_xyz
x,y,z
-x,y,-z
-x,-y,-z
x,-y,z
1/2+x,1/2+y,z
1/2-x,1/2+y,-z
1/2-x,1/2-y,-z
1/2+x,1/2-y,z
loop_
_atom_site_type_symbol
_atom_site_label
_atom_site_fract_x
_atom_site_fract_y
_atom_site_fract_z
Si Si1 0.854919 0.934320 0.549482
Si Si2 0.103894 0.064726 0.679194
Si Si3 0.588876 0.748601 0.066989
Si Si4 0.162606 0.670138 0.250672
Si Si5 0.000938 0.380005 0.099086
Si Si6 0.771139 0.321617 0.605980
Si Si7 0.708696 0.066379 0.081126
O O1 0.940744 0.930526 0.383558
O O2 0.698000 0.888906 0.696031
O O3 0.000000 0.926926 0.500000
O O4 0.778131 0.000000 0.622285
O O5 0.230045 0.118106 0.593802
O O6 0.181295 0.000000 0.627499
O O7 0.923194 0.069739 0.886826
O O8 0.556448 0.813137 0.060495
O O9 0.400632 0.720637 0.257497
O O10 0.750000 0.750000 0.000000
O O11 0.675189 0.708465 0.921619
O O12 0.201997 0.662058 0.317155
O O13 0.155895 0.612051 0.198920
O O14 0.965956 0.700458 0.409668
O O15 0.124345 0.415771 0.060897
O O16 0.000000 0.398142 0.000000
O O17 0.658340 0.000000 0.143893
#
# Coordination Sequence:
#
# PCOD9211052 Si02
#       7
#     8   8   8   8   8   8   8
#     4  10  22  41  63  94 136 175 219 279 337 401
#     4  10  21  39  65  96 131 170 220 275 331 399
#     4  12  25  47  68  95 135 173 226 281 331 399
#     4  11  24  45  68  97 135 177 219 277 334 398
#     4  12  24  41  65  95 128 176 224 277 338 404
#     4  11  24  43  70  98 132 177 223 271 339 398
#     4  11  23  42  67  97 132 174 220 274 341 403
#
# _framework density 20.903589
#
# number of rings (size 3 to 8) (size 9 to 14) (size 15 to 20)
#    0.000    1.000    2.857    3.429    0.000    5.143 
#    7.714    2.857    0.000    0.000    0.000    0.000 
#    0.000    0.000    0.000    0.000    0.000    0.000 
#
# Total GULP energy -156470.653997 kJ/mol
# GULP energy per Si atom -5588.237643 kJ/mol
# Density = 2.085601 g / cm^3
# Si number density = 20.903589 Si / 1000 Ang^3
#
#
#
# Elastic Constant Matrix: (Units=GPa)
#
#
# Indices 1 2 3 4 5 6 
#
# 1 80.0691 23.0198 6.3971 0.0277 -5.1391 0.0045
# 2 23.0198 63.1408 25.4866 0.1645 -5.7223 -0.0072
# 3 6.3971 25.4866 87.0095 -0.0900 -11.5009 0.0100
# 4 0.0277 0.1645 -0.0900 -9.5202 -0.0096 -3.5250
# 5 -5.1391 -5.7223 -11.5009 -0.0096 29.9208 0.0040
# 6 0.0045 -0.0072 0.0100 -3.5250 0.0040 18.6652
#
#
#
# Elastic Compliance Matrix: (Units=1/GPa)
#
#
# Indices 1 2 3 4 5 6 
#
# 1 0.014053 -0.005266 0.000732 -0.000053 0.001688 -0.000016
# 2 -0.005266 0.019997 -0.005356 0.000351 0.000861 0.000078
# 3 0.000732 -0.005356 0.013579 -0.000205 0.004321 -0.000049
# 4 -0.000053 0.000351 -0.000205 -0.098167 -0.000050 -0.018539
# 5 0.001688 0.000861 0.004321 -0.000050 0.035537 -0.000019
# 6 -0.000016 0.000078 -0.000049 -0.018539 -0.000019 0.050075
#
#
# Mechanical properties :
#
#
# Convention : Reuss Voigt Hill
#
# Bulk Modulus (GPa) = 35.90744 37.78072 36.84408
# Shear Modulus (GPa) = 77.96067 19.50088 48.73077
#
# Velocity S-wave (km/s) = 6.11362 3.05765 4.83350
# Velocity P-wave (km/s) = 8.18841 5.52980 6.98673
#
# Compressibility (1/GPa) = 0.02784938
#
# Stress axis : x y z
#
# Youngs Moduli (GPa) = 71.15914 50.00863 73.64347
#
# Poissons Ratio (x) = 0.26334 -0.05393
# Poissons Ratio (y) = 0.37472 0.39443
# Poissons Ratio (z) = -0.05211 0.26785
#
# Static dielectric constant tensor:
#      x y z
#    x 1.772460 0.000030 -0.002450 
#    y 0.000030 1.736800 0.000000 
#    z -0.002450 0.000000 1.762340 
# 
# From -- ./inp_files/218691.got.cif
#   From: 2010.05.17/outbox.cif.g08.bks.cpg/sg12_110_cif.got.tgz:218691.got - 2010.06.03 13:09:07.
