data_PCOD9211489
_publ_section_title
;
Structure prediction by ZEFSAII (Michael W. Deem and Ramdas Pophale) SiO2 
 PCOD9211489
Probable space group: C 2/M
;
_chemical_formula_sum "Si O2"
_cell_formula_units_Z 48
_cell_length_a 20.519174
_cell_length_b 8.184431
_cell_length_c 13.958886
_cell_angle_alpha 90.000000
_cell_angle_beta 90.113186
_cell_angle_gamma 90.000000
_cell_volume 2344.219526
_symmetry_space_group_name_H-M "C 2/M"
_symmetry_group_IT_number 12
_symmetry_cell_setting 'monoclinic'
loop_
_space_group_symop_operation_xyz
x,y,z
-x,y,-z
-x,-y,-z
x,-y,z
1/2+x,1/2+y,z
1/2-x,1/2+y,-z
1/2-x,1/2-y,-z
1/2+x,1/2-y,z
loop_
_atom_site_type_symbol
_atom_site_label
_atom_site_fract_x
_atom_site_fract_y
_atom_site_fract_z
Si Si1 0.863074 0.190094 0.858281
Si Si2 0.388142 0.188359 0.066288
Si Si3 0.448417 0.699635 0.420589
Si Si4 0.224157 0.808258 0.796463
Si Si5 0.002437 0.197932 0.789014
Si Si6 0.698887 0.696773 0.579333
O O1 0.797577 0.284988 0.832516
O O2 0.927578 0.248272 0.802953
O O3 0.851956 0.000000 0.834600
O O4 0.878816 0.207321 0.970626
O O5 0.326363 0.216578 0.135240
O O6 0.451928 0.236196 0.126529
O O7 0.391848 0.000000 0.037257
O O8 0.500000 0.754850 0.500000
O O9 0.448767 0.500000 0.421342
O O10 0.469422 0.749138 0.313771
O O11 0.374797 0.753291 0.441511
O O12 0.217846 0.750082 0.686806
O O13 0.206052 0.000000 0.799339
O O14 0.004366 0.000000 0.793591
O O15 0.698209 0.500000 0.580193
O O16 0.750000 0.750000 0.500000
#
# Coordination Sequence:
#
# PCOD9211489 Si02
#       6
#     8   8   8   8   8   8
#     4  11  24  39  62  93 123 160 206 254 300 364
#     4  12  24  40  63  89 122 162 205 254 306 365
#     4   9  18  36  63  90 117 154 198 245 296 354
#     4  11  23  42  63  87 125 165 203 252 305 360
#     4  10  21  40  63  89 123 161 203 249 302 362
#     4  10  22  39  63  90 122 157 197 248 301 360
#
# _framework density 20.475898999999998
#
# number of rings (size 3 to 8) (size 9 to 14) (size 15 to 20)
#    0.000    1.500    1.667    3.500    2.333    4.667 
#    0.000    0.000    0.000    1.000    0.000    0.000 
#    0.000    0.000    0.000    0.000    0.000    0.000 
#
# Total GULP energy -134212.673135 kJ/mol
# GULP energy per Si atom -5592.194714 kJ/mol
# Density = 2.042930 g / cm^3
# Si number density = 20.475899 Si / 1000 Ang^3
#
#
#
# Elastic Constant Matrix: (Units=GPa)
#
#
# Indices 1 2 3 4 5 6 
#
# 1 42.0911 0.6838 -2.2680 0.0000 -1.4417 0.0000
# 2 0.6838 20.5801 -9.5072 0.0000 -0.6250 0.0000
# 3 -2.2680 -9.5072 66.0654 0.0000 -0.5909 0.0000
# 4 0.0000 0.0000 0.0000 21.0590 0.0000 -0.8964
# 5 -1.4417 -0.6250 -0.5909 0.0000 42.7393 0.0000
# 6 0.0000 0.0000 0.0000 -0.8964 0.0000 26.7304
#
#
#
# Elastic Compliance Matrix: (Units=1/GPa)
#
#
# Indices 1 2 3 4 5 6 
#
# 1 0.023834 -0.000414 0.000766 0.000000 0.000808 0.000000
# 2 -0.000414 0.052090 0.007489 0.000000 0.000851 0.000000
# 3 0.000766 0.007489 0.016244 0.000000 0.000360 0.000000
# 4 0.000000 0.000000 0.000000 0.047553 0.000000 0.001595
# 5 0.000808 0.000851 0.000360 0.000000 0.023442 0.000000
# 6 0.000000 0.000000 0.000000 0.001595 0.000000 0.037464
#
#
# Mechanical properties :
#
#
# Convention : Reuss Voigt Hill
#
# Bulk Modulus (GPa) = 9.27202 11.83931 10.55566
# Shear Modulus (GPa) = 22.63527 27.42761 25.03144
#
# Velocity S-wave (km/s) = 3.32845 3.66390 3.50020
# Velocity P-wave (km/s) = 4.39426 4.86760 4.63697
#
# Compressibility (1/GPa) = 0.10785142
#
# Stress axis : x y z
#
# Youngs Moduli (GPa) = 41.95741 19.19749 61.56197
#
# Poissons Ratio (x) = 0.00794 -0.04715
# Poissons Ratio (y) = 0.01735 -0.46107
# Poissons Ratio (z) = -0.03214 -0.14378
#
# Static dielectric constant tensor:
#      x y z
#    x 1.701870 0.000000 -0.003430 
#    y 0.000000 1.722480 0.000000 
#    z -0.003430 0.000000 1.690730 
# 
# From -- ./inp_files/221551.got.cif
#   From: 2010.05.17/outbox.cif.g08.bks.cpg/sg12_111_cif.got.tgz:221551.got - 2010.06.03 13:09:07.
