data_PCOD9211126
_publ_section_title
;
Structure prediction by ZEFSAII (Michael W. Deem and Ramdas Pophale) SiO2 
 PCOD9211126
Probable space group: C 2/M
;
_chemical_formula_sum "Si O2"
_cell_formula_units_Z 48
_cell_length_a 30.644906
_cell_length_b 15.939359
_cell_length_c 14.288486
_cell_angle_alpha 90.000000
_cell_angle_beta 161.434711
_cell_angle_gamma 90.000000
_cell_volume 2222.122809
_symmetry_space_group_name_H-M "C 2/M"
_symmetry_group_IT_number 12
_symmetry_cell_setting 'monoclinic'
loop_
_space_group_symop_operation_xyz
x,y,z
-x,y,-z
-x,-y,-z
x,-y,z
1/2+x,1/2+y,z
1/2-x,1/2+y,-z
1/2-x,1/2-y,-z
1/2+x,1/2-y,z
loop_
_atom_site_type_symbol
_atom_site_label
_atom_site_fract_x
_atom_site_fract_y
_atom_site_fract_z
Si Si1 0.942705 0.399949 0.108251
Si Si2 0.257883 0.401113 0.759514
Si Si3 0.384569 0.157866 0.195416
Si Si4 0.606874 0.594822 0.143082
Si Si5 0.655463 0.829530 0.278740
Si Si6 0.869992 0.147372 0.186348
O O1 0.938442 0.500000 0.079421
O O2 0.888658 0.383935 0.102866
O O3 0.102128 0.369776 0.431517
O O4 0.857883 0.349645 0.858031
O O5 0.250458 0.500000 0.723709
O O6 0.364648 0.364475 0.900341
O O7 0.309501 0.391599 0.969647
O O8 0.500000 0.122608 0.500000
O O9 0.410230 0.257685 0.237837
O O10 0.243826 0.150121 0.964783
O O11 0.555700 0.500000 0.023308
O O12 0.756517 0.596592 0.494455
O O13 0.500000 0.633378 0.000000
O O14 0.750000 0.750000 0.500000
O O15 0.500000 0.825864 0.000000
O O16 0.000000 0.106145 0.500000
#
# Coordination Sequence:
#
# PCOD9211126 Si02
#       6
#     8   8   8   8   8   8
#     4  11  24  41  69 100 130 175 230 282 336 407
#     4  10  21  39  66  95 129 176 220 273 337 402
#     4  10  21  40  63  93 130 175 221 270 328 398
#     4  10  22  42  66  94 133 174 220 280 340 401
#     4  12  26  44  66  98 132 176 223 281 345 412
#     4  10  22  39  62  94 135 175 213 273 335 396
#
# _framework density 21.600967000000001
#
# number of rings (size 3 to 8) (size 9 to 14) (size 15 to 20)
#    0.000    1.500    3.333    1.000    2.333    3.333 
#    0.000    1.667    0.000    0.000    0.000    0.000 
#    0.000    0.000    0.000    0.000    0.000    0.000 
#
# Total GULP energy -133948.367310 kJ/mol
# GULP energy per Si atom -5581.181971 kJ/mol
# Density = 2.155180 g / cm^3
# Si number density = 21.600967 Si / 1000 Ang^3
#
#
#
# Elastic Constant Matrix: (Units=GPa)
#
#
# Indices 1 2 3 4 5 6 
#
# 1 148.1255 22.8734 40.0327 0.0000 -23.0235 0.0000
# 2 22.8734 55.1135 17.8282 -0.0001 -3.0310 0.0000
# 3 40.0327 17.8282 102.0178 -0.0002 -15.4268 0.0000
# 4 0.0000 -0.0001 -0.0002 24.9201 0.0000 -9.9280
# 5 -23.0235 -3.0310 -15.4268 0.0000 41.5510 0.0000
# 6 0.0000 0.0000 0.0000 -9.9280 0.0000 -0.8145
#
#
#
# Elastic Compliance Matrix: (Units=1/GPa)
#
#
# Indices 1 2 3 4 5 6 
#
# 1 0.008312 -0.002515 -0.002281 0.000000 0.003575 0.000000
# 2 -0.002515 0.019994 -0.002646 0.000000 -0.000917 0.000000
# 3 -0.002281 -0.002646 0.011590 0.000000 0.002846 0.000000
# 4 0.000000 0.000000 0.000000 0.006853 0.000000 -0.083524
# 5 0.003575 -0.000917 0.002846 0.000000 0.027037 0.000000
# 6 0.000000 0.000000 0.000000 -0.083524 0.000000 -0.209652
#
#
# Mechanical properties :
#
#
# Convention : Reuss Voigt Hill
#
# Bulk Modulus (GPa) = 39.98243 51.85838 45.92040
# Shear Modulus (GPa) = -44.38698 28.09949 -8.14375
#
# Velocity S-wave (km/s) = -4.53797 3.61063 -1.94378
# Velocity P-wave (km/s) = 2.98461 6.43753 4.03323
#
# Compressibility (1/GPa) = 0.02501099
#
# Stress axis : x y z
#
# Youngs Moduli (GPa) = 120.31313 50.01614 86.27971
#
# Poissons Ratio (x) = 0.12579 0.19684
# Poissons Ratio (y) = 0.30258 0.22828
# Poissons Ratio (z) = 0.27449 0.13233
#
# Static dielectric constant tensor:
#      x y z
#    x 1.807250 0.000000 0.049180 
#    y 0.000000 1.849460 0.000000 
#    z 0.049180 0.000000 1.962100 
# 
# From -- ./inp_files/184814.got.cif
#   From: 2010.05.17/outbox.cif.g08.bks.cpg/sg12_93_cif.got.tgz:184814.got - 2010.06.03 13:09:07.
