data_PCOD9211211
_publ_section_title
;
Structure prediction by ZEFSAII (Michael W. Deem and Ramdas Pophale) SiO2 
 PCOD9211211
Probable space group: C 2/M
;
_chemical_formula_sum "Si O2"
_cell_formula_units_Z 56
_cell_length_a 14.689231
_cell_length_b 19.090189
_cell_length_c 11.014592
_cell_angle_alpha 90.000000
_cell_angle_beta 55.488793
_cell_angle_gamma 90.000000
_cell_volume 2545.147893
_symmetry_space_group_name_H-M "C 2/M"
_symmetry_group_IT_number 12
_symmetry_cell_setting 'monoclinic'
loop_
_space_group_symop_operation_xyz
x,y,z
-x,y,-z
-x,-y,-z
x,-y,z
1/2+x,1/2+y,z
1/2-x,1/2+y,-z
1/2-x,1/2-y,-z
1/2+x,1/2-y,z
loop_
_atom_site_type_symbol
_atom_site_label
_atom_site_fract_x
_atom_site_fract_y
_atom_site_fract_z
Si Si1 0.237757 0.574677 0.428235
Si Si2 0.148195 0.174097 0.841297
Si Si3 0.005473 0.631640 0.636565
Si Si4 0.003426 0.223321 0.245671
Si Si5 0.261524 0.314743 0.839859
Si Si6 0.777433 0.417860 0.919522
Si Si7 0.892348 0.881046 0.519374
O O1 0.253533 0.500000 0.349997
O O2 0.270667 0.642406 0.324773
O O3 0.319100 0.575772 0.481310
O O4 0.111078 0.581817 0.562113
O O5 0.036625 0.188253 0.849168
O O6 0.186486 0.249805 0.858433
O O7 0.173838 0.116406 0.925284
O O8 0.889683 0.595827 0.758527
O O9 0.000000 0.657026 0.500000
O O10 0.026458 0.695944 0.712052
O O11 0.944793 0.181306 0.399025
O O12 0.133557 0.217770 0.168777
O O13 0.312456 0.351039 0.682730
O O14 0.210518 0.373146 0.966053
O O15 0.761544 0.500000 0.953395
O O16 0.000000 0.915669 0.500000
#
# Coordination Sequence:
#
# PCOD9211211 Si02
#       7
#     8   8   8   8   8   8   8
#     4  11  22  37  63 101 135 171 218 273 335 388
#     4  11  22  41  68  96 130 171 223 274 321 384
#     4  12  22  40  68  97 131 172 215 275 324 392
#     4  10  21  39  69 104 124 160 230 276 325 374
#     4  11  22  44  65  94 133 176 219 270 327 388
#     4  12  27  44  64  96 136 179 218 265 335 402
#     4   9  20  39  66  95 128 167 220 278 320 383
#
# _framework density 22.002649999999999
#
# number of rings (size 3 to 8) (size 9 to 14) (size 15 to 20)
#    0.000    1.143    2.857    4.286    0.000    4.286 
#    0.000    9.286    0.000    4.286    0.000    0.000 
#    0.000    0.000    0.000    0.000    0.000    0.000 
#
# Total GULP energy -156488.120180 kJ/mol
# GULP energy per Si atom -5588.861435 kJ/mol
# Density = 2.195257 g / cm^3
# Si number density = 22.002650 Si / 1000 Ang^3
#
#
#
# Elastic Constant Matrix: (Units=GPa)
#
#
# Indices 1 2 3 4 5 6 
#
# 1 118.5113 36.7632 12.3775 0.0000 2.4554 0.0000
# 2 36.7632 134.5978 26.1026 0.0000 10.2712 0.0000
# 3 12.3775 26.1026 82.1840 0.0000 16.9578 0.0000
# 4 0.0000 0.0000 0.0000 17.2308 0.0000 10.7299
# 5 2.4554 10.2712 16.9578 0.0000 30.4240 0.0000
# 6 0.0000 0.0000 0.0000 10.7299 0.0000 7.2999
#
#
#
# Elastic Compliance Matrix: (Units=1/GPa)
#
#
# Indices 1 2 3 4 5 6 
#
# 1 0.009256 -0.002424 -0.000722 0.000000 0.000474 0.000000
# 2 -0.002424 0.008608 -0.002045 0.000000 -0.001571 0.000000
# 3 -0.000722 -0.002045 0.014431 0.000000 -0.007295 0.000000
# 4 0.000000 0.000000 0.000000 0.685279 0.000000 -1.007270
# 5 0.000474 -0.001571 -0.007295 0.000000 0.037427 0.000000
# 6 0.000000 0.000000 0.000000 -1.007270 0.000000 1.617542
#
#
# Mechanical properties :
#
#
# Convention : Reuss Voigt Hill
#
# Bulk Modulus (GPa) = 45.63422 53.97551 49.80486
# Shear Modulus (GPa) = 2.09185 28.32761 15.20973
#
# Velocity S-wave (km/s) = 0.97611 3.59202 2.63205
# Velocity P-wave (km/s) = 4.69635 6.46437 5.64995
#
# Compressibility (1/GPa) = 0.02191338
#
# Stress axis : x y z
#
# Youngs Moduli (GPa) = 108.04287 116.16986 69.29408
#
# Poissons Ratio (x) = 0.28162 0.05001
# Poissons Ratio (y) = 0.26192 0.14170
# Poissons Ratio (z) = 0.07798 0.23755
#
# Static dielectric constant tensor:
#      x y z
#    x 1.813130 0.000000 0.014540 
#    y 0.000000 1.755980 0.000000 
#    z 0.014540 0.000000 1.840220 
# 
# From -- ./inp_files/146032.got.cif
#   From: 2010.05.17/outbox.cif.g08.bks.cpg/sg12_74_cif.got.tgz:146032.got - 2010.06.03 13:09:07.
