data_PCOD9211151
_publ_section_title
;
Structure prediction by ZEFSAII (Michael W. Deem and Ramdas Pophale) SiO2 
 PCOD9211151
Probable space group: C 2/M
;
_chemical_formula_sum "Si O2"
_cell_formula_units_Z 64
_cell_length_a 11.672111
_cell_length_b 27.870366
_cell_length_c 18.262499
_cell_angle_alpha 90.000000
_cell_angle_beta 153.133901
_cell_angle_gamma 90.000000
_cell_volume 2684.734376
_symmetry_space_group_name_H-M "C 2/M"
_symmetry_group_IT_number 12
_symmetry_cell_setting 'monoclinic'
loop_
_space_group_symop_operation_xyz
x,y,z
-x,y,-z
-x,-y,-z
x,-y,z
1/2+x,1/2+y,z
1/2-x,1/2+y,-z
1/2-x,1/2-y,-z
1/2+x,1/2-y,z
loop_
_atom_site_type_symbol
_atom_site_label
_atom_site_fract_x
_atom_site_fract_y
_atom_site_fract_z
Si Si1 0.628977 0.053567 0.252539
Si Si2 0.462697 0.286140 0.562696
Si Si3 0.483064 0.273423 0.260344
Si Si4 0.730653 0.173129 0.884756
Si Si5 0.700905 0.115958 0.432606
Si Si6 0.402310 0.628607 0.129507
Si Si7 0.520186 0.446523 0.925128
Si Si8 0.575538 0.443042 0.729978
O O1 0.728200 0.089275 0.370586
O O2 0.747314 0.062986 0.240635
O O3 0.708641 0.000000 0.319903
O O4 0.321649 0.052137 0.078711
O O5 0.500000 0.298406 0.500000
O O6 0.653786 0.273195 0.737220
O O7 0.370773 0.337273 0.541017
O O8 0.273077 0.240842 0.444813
O O9 0.382438 0.225647 0.164936
O O10 0.475574 0.321944 0.210844
O O11 0.567276 0.142138 0.733829
O O12 0.000000 0.178087 0.000000
O O13 0.732085 0.147244 0.964442
O O14 0.797782 0.077646 0.547715
O O15 0.593858 0.594072 0.192507
O O16 0.322171 0.591646 0.147703
O O17 0.415165 0.500000 0.853546
O O18 0.500000 0.435958 0.000000
O O19 0.572102 0.500000 0.746996
#
# Coordination Sequence:
#
# PCOD9211151 Si02
#       8
#     8   8   8   8   8   8   8   8
#     4  10  21  39  67 101 137 182 232 279 336 414
#     4  10  21  41  67  97 133 175 218 283 347 412
#     4  10  24  43  64  98 136 173 230 284 349 410
#     4  11  26  47  71  97 133 183 244 290 352 428
#     4  11  21  42  70  98 135 178 232 280 348 423
#     4  12  23  44  67 102 140 182 231 293 349 413
#     4  10  22  43  69  98 140 189 234 282 341 412
#     4  11  24  42  68 105 145 179 227 293 355 417
#
# _framework density 23.838484999999999
#
# number of rings (size 3 to 8) (size 9 to 14) (size 15 to 20)
#    0.000    1.375    2.500    2.625    1.750    1.500 
#    2.250    2.500    0.000    1.875    0.000    0.000 
#    0.000    0.000    0.000    0.000    0.000    0.000 
#
# Total GULP energy -178283.186107 kJ/mol
# GULP energy per Si atom -5571.349566 kJ/mol
# Density = 2.378423 g / cm^3
# Si number density = 23.838485 Si / 1000 Ang^3
#
#
#
# Elastic Constant Matrix: (Units=GPa)
#
#
# Indices 1 2 3 4 5 6 
#
# 1 73.1234 55.3826 22.3713 -0.0013 -20.5692 0.0010
# 2 55.3826 213.0537 38.2530 0.0014 -25.5492 -0.0001
# 3 22.3713 38.2530 69.6600 0.0057 -18.1516 0.0015
# 4 -0.0013 0.0014 0.0057 6.0232 0.0022 -25.5946
# 5 -20.5692 -25.5492 -18.1516 0.0022 28.7090 0.0018
# 6 0.0010 -0.0001 0.0015 -25.5946 0.0018 37.5295
#
#
#
# Elastic Compliance Matrix: (Units=1/GPa)
#
#
# Indices 1 2 3 4 5 6 
#
# 1 0.019723 -0.003634 -0.001795 0.000000 0.009762 -0.000001
# 2 -0.003634 0.006166 -0.001757 0.000000 0.001773 0.000000
# 3 -0.001795 -0.001757 0.018143 0.000013 0.008622 0.000008
# 4 0.000000 0.000000 0.000013 -0.087474 0.000019 -0.059656
# 5 0.009762 0.001773 0.008622 0.000019 0.048856 0.000010
# 6 -0.000001 0.000000 0.000008 -0.059656 0.000010 -0.014039
#
#
# Mechanical properties :
#
#
# Convention : Reuss Voigt Hill
#
# Bulk Modulus (GPa) = 33.71427 65.31677 49.51552
# Shear Modulus (GPa) = 319.81624 30.44102 175.12863
#
# Velocity S-wave (km/s) = 11.59530 3.57735 8.58045
# Velocity P-wave (km/s) = 13.90832 6.67251 10.90788
#
# Compressibility (1/GPa) = 0.02966103
#
# Stress axis : x y z
#
# Youngs Moduli (GPa) = 50.70227 162.16877 55.11669
#
# Poissons Ratio (x) = 0.58932 0.09892
# Poissons Ratio (y) = 0.18425 0.09685
# Poissons Ratio (z) = 0.09099 0.28495
#
# Static dielectric constant tensor:
#      x y z
#    x 2.106660 -0.000010 0.013640 
#    y -0.000010 1.953840 0.000000 
#    z 0.013640 0.000000 2.007210 
# 
# From -- ./inp_files/266305.got.cif
#   From: 2010.05.17/outbox.cif.g08.bks.cpg/sg12_134_cif.got.tgz:266305.got - 2010.06.03 13:09:07.
