data_PCOD9211163
_publ_section_title
;
Structure prediction by ZEFSAII (Michael W. Deem and Ramdas Pophale) SiO2 
 PCOD9211163
Probable space group: C 2/M
;
_chemical_formula_sum "Si O2"
_cell_formula_units_Z 44
_cell_length_a 23.002433
_cell_length_b 16.269291
_cell_length_c 15.600375
_cell_angle_alpha 90.000000
_cell_angle_beta 19.847388
_cell_angle_gamma 90.000000
_cell_volume 1982.155244
_symmetry_space_group_name_H-M "C 2/M"
_symmetry_group_IT_number 12
_symmetry_cell_setting 'monoclinic'
loop_
_space_group_symop_operation_xyz
x,y,z
-x,y,-z
-x,-y,-z
x,-y,z
1/2+x,1/2+y,z
1/2-x,1/2+y,-z
1/2-x,1/2-y,-z
1/2+x,1/2-y,z
loop_
_atom_site_type_symbol
_atom_site_label
_atom_site_fract_x
_atom_site_fract_y
_atom_site_fract_z
Si Si1 0.114662 0.901142 0.636940
Si Si2 0.987711 0.598008 0.188437
Si Si3 0.500000 0.776647 0.500000
Si Si4 0.641123 0.369477 0.866074
Si Si5 0.967709 0.407611 0.679691
Si Si6 0.245961 0.192417 0.292253
O O1 0.287678 0.883250 0.451668
O O2 0.145808 0.858224 0.502842
O O3 0.952758 0.866258 0.912442
O O4 0.098579 0.000000 0.651233
O O5 0.004673 0.500000 0.157053
O O6 0.054476 0.619222 0.190895
O O7 0.098718 0.640750 0.961882
O O8 0.410034 0.838968 0.692442
O O9 0.624719 0.720619 0.382517
O O10 0.500000 0.409257 0.000000
O O11 0.825097 0.411323 0.617552
O O12 0.683262 0.278978 0.771756
O O13 0.898936 0.500000 0.760900
#
# Coordination Sequence:
#
# PCOD9211163 Si02
#       6
#     8   8   4   8   8   8
#     4  11  23  41  66  97 132 164 200 253 322 387
#     4  10  21  39  67  94 125 161 202 256 319 382
#     4  10  25  44  59  84 122 174 212 264 293 362
#     4  11  22  36  65  99 131 158 199 259 319 375
#     4  10  21  40  64  92 124 164 208 254 310 372
#     4  11  25  41  62  89 130 167 214 255 308 366
#
# _framework density 22.198058
#
# number of rings (size 3 to 8) (size 9 to 14) (size 15 to 20)
#    0.000    1.455    1.818    3.000    5.091    4.364 
#    3.273    1.818    0.000    0.000    0.000    0.000 
#    0.000    0.000    0.000    0.000    0.000    0.000 
#
# Total GULP energy -123038.573181 kJ/mol
# GULP energy per Si atom -5592.662417 kJ/mol
# Density = 2.214753 g / cm^3
# Si number density = 22.198058 Si / 1000 Ang^3
#
#
#
# Elastic Constant Matrix: (Units=GPa)
#
#
# Indices 1 2 3 4 5 6 
#
# 1 82.8342 33.7980 1.5321 0.0025 2.5963 0.0043
# 2 33.7980 44.7339 20.6935 0.0000 22.0499 -0.0007
# 3 1.5321 20.6935 79.6065 0.0031 29.5733 0.0013
# 4 0.0025 0.0000 0.0031 45.3580 -0.0016 151.4552
# 5 2.5963 22.0499 29.5733 -0.0016 38.8858 -0.0026
# 6 0.0043 -0.0007 0.0013 151.4552 -0.0026 276.1453
#
#
#
# Elastic Compliance Matrix: (Units=1/GPa)
#
#
# Indices 1 2 3 4 5 6 
#
# 1 0.020040 -0.020287 0.001549 0.000000 0.008988 0.000000
# 2 -0.020287 0.051826 -0.003718 0.000000 -0.025206 0.000000
# 3 0.001549 -0.003718 0.017776 0.000001 -0.011514 -0.000001
# 4 0.000000 0.000000 0.000001 -0.026519 -0.000001 0.014544
# 5 0.008988 -0.025206 -0.011514 -0.000001 0.048165 0.000001
# 6 0.000000 0.000000 -0.000001 0.014544 0.000001 -0.004356
#
#
# Mechanical properties :
#
#
# Convention : Reuss Voigt Hill
#
# Bulk Modulus (GPa) = 22.35673 35.46910 28.91291
# Shear Modulus (GPa) = 29.98415 82.15457 56.06936
#
# Velocity S-wave (km/s) = 3.67925 6.09017 5.03125
# Velocity P-wave (km/s) = 5.30495 8.09115 6.84139
#
# Compressibility (1/GPa) = 0.04472927
#
# Stress axis : x y z
#
# Youngs Moduli (GPa) = 49.90124 19.29524 56.25622
#
# Poissons Ratio (x) = 0.39145 -0.08715
# Poissons Ratio (y) = 1.01236 0.20916
# Poissons Ratio (z) = -0.07730 0.07174
#
# Static dielectric constant tensor:
#      x y z
#    x 1.871510 0.000000 -0.013510 
#    y 0.000000 1.793680 0.000000 
#    z -0.013510 0.000000 1.786440 
# 
# From -- ./inp_files/241377.got.cif
#   From: 2010.05.17/outbox.cif.g08.bks.cpg/sg12_121_cif.got.tgz:241377.got - 2010.06.03 13:09:07.
