data_PCOD9211859
_publ_section_title
;
Structure prediction by ZEFSAII (Michael W. Deem and Ramdas Pophale) SiO2 
 PCOD9211859
Probable space group: C 2/M
;
_chemical_formula_sum "Si O2"
_cell_formula_units_Z 44
_cell_length_a 9.309274
_cell_length_b 22.020913
_cell_length_c 9.082028
_cell_angle_alpha 90.000000
_cell_angle_beta 90.128211
_cell_angle_gamma 90.000000
_cell_volume 1861.799389
_symmetry_space_group_name_H-M "C 2/M"
_symmetry_group_IT_number 12
_symmetry_cell_setting 'monoclinic'
loop_
_space_group_symop_operation_xyz
x,y,z
-x,y,-z
-x,-y,-z
x,-y,z
1/2+x,1/2+y,z
1/2-x,1/2+y,-z
1/2-x,1/2-y,-z
1/2+x,1/2-y,z
loop_
_atom_site_type_symbol
_atom_site_label
_atom_site_fract_x
_atom_site_fract_y
_atom_site_fract_z
Si Si1 0.163621 0.639304 0.269257
Si Si2 0.267784 0.429362 0.986732
Si Si3 0.223133 0.824895 0.425758
Si Si4 0.976322 0.751427 0.266057
Si Si5 0.500000 0.334006 0.000000
Si Si6 0.387032 0.930763 0.303925
O O1 0.231958 0.596225 0.147615
O O2 0.263845 0.665499 0.398817
O O3 0.079494 0.697479 0.204850
O O4 0.038324 0.599067 0.342573
O O5 0.315134 0.500000 0.990919
O O6 0.384294 0.380285 0.931806
O O7 0.134978 0.427312 0.873380
O O8 0.081089 0.793683 0.363748
O O9 0.355589 0.784251 0.360155
O O10 0.256715 0.891757 0.366756
O O11 0.930638 0.791455 0.125494
O O12 0.379747 0.000000 0.349258
#
# Coordination Sequence:
#
# PCOD9211859 Si02
#       6
#     8   8   8   8   4   8
#     4  11  24  39  67  97 133 173 215 277 336 392
#     4  11  24  43  66  96 134 175 226 275 326 393
#     4  11  24  44  68  98 141 176 221 271 342 398
#     4  11  24  41  68 100 135 177 222 275 331 402
#     4  12  25  42  70  96 131 178 228 270 330 398
#     4  10  21  40  66  97 131 172 225 278 328 388
#
# _framework density 23.633051999999999
#
# number of rings (size 3 to 8) (size 9 to 14) (size 15 to 20)
#    0.000    1.091    1.818    5.182    5.091    6.545 
#    0.000    0.000    0.000    1.091    0.000    0.000 
#    0.000    0.000    0.000    0.000    0.000    0.000 
#
# Total GULP energy -123055.468052 kJ/mol
# GULP energy per Si atom -5593.430366 kJ/mol
# Density = 2.357926 g / cm^3
# Si number density = 23.633052 Si / 1000 Ang^3
#
#
#
# Elastic Constant Matrix: (Units=GPa)
#
#
# Indices 1 2 3 4 5 6 
#
# 1 69.7186 18.0184 7.5586 0.0000 8.6079 0.0000
# 2 18.0184 170.9268 26.3229 0.0000 6.5088 0.0000
# 3 7.5586 26.3229 93.3213 0.0000 -3.4806 0.0000
# 4 0.0000 0.0000 0.0000 33.0505 0.0000 6.8262
# 5 8.6079 6.5088 -3.4806 0.0000 36.4665 0.0000
# 6 0.0000 0.0000 0.0000 6.8262 0.0000 20.9249
#
#
#
# Elastic Compliance Matrix: (Units=1/GPa)
#
#
# Indices 1 2 3 4 5 6 
#
# 1 0.015218 -0.001321 -0.000989 0.000000 -0.003451 0.000000
# 2 -0.001321 0.006289 -0.001703 0.000000 -0.000973 0.000000
# 3 -0.000989 -0.001703 0.011337 0.000000 0.001619 0.000000
# 4 0.000000 0.000000 0.000000 0.032443 0.000000 -0.010584
# 5 -0.003451 -0.000973 0.001619 0.000000 0.028565 0.000000
# 6 0.000000 0.000000 0.000000 -0.010584 0.000000 0.051242
#
#
# Mechanical properties :
#
#
# Convention : Reuss Voigt Hill
#
# Bulk Modulus (GPa) = 40.29281 48.64072 44.46676
# Shear Modulus (GPa) = 30.98047 36.89284 33.93666
#
# Velocity S-wave (km/s) = 3.62456 3.95532 3.79355
# Velocity P-wave (km/s) = 5.88242 6.44095 6.16801
#
# Compressibility (1/GPa) = 0.02481833
#
# Stress axis : x y z
#
# Youngs Moduli (GPa) = 65.71200 159.00694 88.20984
#
# Poissons Ratio (x) = 0.20997 0.08722
# Poissons Ratio (y) = 0.08677 0.15025
# Poissons Ratio (z) = 0.06498 0.27083
#
# Static dielectric constant tensor:
#      x y z
#    x 1.966790 0.000000 -0.028530 
#    y 0.000000 1.865080 0.000000 
#    z -0.028530 0.000000 1.940280 
# 
# From -- ./inp_files/49400.got.cif
#   From: 2010.05.17/outbox.cif.g08.bks.cpg/sg12_25_cif.got.tgz:49400.got - 2010.06.03 13:09:07.
