data_PCOD9211476
_publ_section_title
;
Structure prediction by ZEFSAII (Michael W. Deem and Ramdas Pophale) SiO2 
 PCOD9211476
Probable space group: C 2/M
;
_chemical_formula_sum "Si O2"
_cell_formula_units_Z 48
_cell_length_a 24.838194
_cell_length_b 8.641639
_cell_length_c 11.895759
_cell_angle_alpha 90.000000
_cell_angle_beta 111.643585
_cell_angle_gamma 90.000000
_cell_volume 2373.317835
_symmetry_space_group_name_H-M "C 2/M"
_symmetry_group_IT_number 12
_symmetry_cell_setting 'monoclinic'
loop_
_space_group_symop_operation_xyz
x,y,z
-x,y,-z
-x,-y,-z
x,-y,z
1/2+x,1/2+y,z
1/2-x,1/2+y,-z
1/2-x,1/2-y,-z
1/2+x,1/2-y,z
loop_
_atom_site_type_symbol
_atom_site_label
_atom_site_fract_x
_atom_site_fract_y
_atom_site_fract_z
Si Si1 0.871215 0.184840 0.652399
Si Si2 0.917937 0.186148 0.205325
Si Si3 0.770376 0.684998 0.708283
Si Si4 0.803791 0.814835 0.970502
Si Si5 0.020867 0.315329 0.138998
Si Si6 0.864035 0.188399 0.396796
O O1 0.807429 0.241628 0.636900
O O2 0.885945 0.235665 0.536569
O O3 0.917632 0.248863 0.775793
O O4 0.872168 0.000000 0.656525
O O5 0.973743 0.263561 0.194335
O O6 0.900820 0.239616 0.317587
O O7 0.926629 0.000000 0.214473
O O8 0.862760 0.217932 0.083011
O O9 0.771283 0.500000 0.698589
O O10 0.801007 0.736597 0.847107
O O11 0.703374 0.735686 0.663951
O O12 0.798601 0.000000 0.955141
O O13 0.750000 0.750000 0.000000
O O14 0.024777 0.500000 0.138100
O O15 0.000000 0.259307 0.000000
O O16 0.864226 0.000000 0.393178
#
# Coordination Sequence:
#
# PCOD9211476 Si02
#       6
#     8   8   8   8   8   8
#     4  11  23  40  63  89 118 159 207 247 296 362
#     4  10  21  40  63  88 120 159 200 244 295 356
#     4  11  21  38  61  88 127 163 199 250 301 353
#     4  11  21  35  59  90 123 158 199 244 296 354
#     4  11  25  44  63  86 118 156 197 249 308 359
#     4   9  20  39  61  88 123 161 198 243 302 359
#
# _framework density 20.224851000000001
#
# number of rings (size 3 to 8) (size 9 to 14) (size 15 to 20)
#    0.000    1.500    1.667    3.500    0.000    6.000 
#    0.000    7.500    0.000    0.000    0.000    0.000 
#    0.000    0.000    0.000    0.000    0.000    0.000 
#
# Total GULP energy -134184.403151 kJ/mol
# GULP energy per Si atom -5591.016798 kJ/mol
# Density = 2.017882 g / cm^3
# Si number density = 20.224851 Si / 1000 Ang^3
#
#
#
# Elastic Constant Matrix: (Units=GPa)
#
#
# Indices 1 2 3 4 5 6 
#
# 1 107.7381 19.1477 33.5541 0.0000 -15.5233 0.0000
# 2 19.1477 29.7917 19.2520 0.0000 5.0846 0.0000
# 3 33.5541 19.2520 114.7971 0.0000 -18.8693 0.0000
# 4 0.0000 0.0000 0.0000 19.7664 0.0000 -5.2329
# 5 -15.5233 5.0846 -18.8693 0.0000 29.4433 0.0000
# 6 0.0000 0.0000 0.0000 -5.2329 0.0000 35.1820
#
#
#
# Elastic Compliance Matrix: (Units=1/GPa)
#
#
# Indices 1 2 3 4 5 6 
#
# 1 0.012112 -0.008412 -0.000940 0.000000 0.007236 0.000000
# 2 -0.008412 0.047544 -0.008487 0.000000 -0.018085 0.000000
# 3 -0.000940 -0.008487 0.011813 0.000000 0.008541 0.000000
# 4 0.000000 0.000000 0.000000 0.052665 0.000000 0.007833
# 5 0.007236 -0.018085 0.008541 0.000000 0.046375 0.000000
# 6 0.000000 0.000000 0.000000 0.007833 0.000000 0.029589
#
#
# Mechanical properties :
#
#
# Convention : Reuss Voigt Hill
#
# Bulk Modulus (GPa) = 27.94048 44.02605 35.98327
# Shear Modulus (GPa) = 20.18515 28.90321 24.54418
#
# Velocity S-wave (km/s) = 3.16260 3.78444 3.48741
# Velocity P-wave (km/s) = 5.21354 6.39621 5.83492
#
# Compressibility (1/GPa) = 0.03579036
#
# Stress axis : x y z
#
# Youngs Moduli (GPa) = 82.56122 21.03310 84.65289
#
# Poissons Ratio (x) = 0.17693 0.07958
# Poissons Ratio (y) = 0.69452 0.71846
# Poissons Ratio (z) = 0.07762 0.17851
#
# Static dielectric constant tensor:
#      x y z
#    x 1.694120 0.000000 -0.002400 
#    y 0.000000 1.684690 0.000000 
#    z -0.002400 0.000000 1.718100 
# 
# From -- ./inp_files/173039.got.cif
#   From: 2010.05.17/outbox.cif.g08.bks.cpg/sg12_87_cif.got.tgz:173039.got - 2010.06.03 13:09:07.
