data_PCOD9211383
_publ_section_title
;
Structure prediction by ZEFSAII (Michael W. Deem and Ramdas Pophale) SiO2 
 PCOD9211383
Probable space group: C 2/M
;
_chemical_formula_sum "Si O2"
_cell_formula_units_Z 48
_cell_length_a 16.314616
_cell_length_b 24.171571
_cell_length_c 11.383566
_cell_angle_alpha 90.000000
_cell_angle_beta 32.333235
_cell_angle_gamma 90.000000
_cell_volume 2400.966079
_symmetry_space_group_name_H-M "C 2/M"
_symmetry_group_IT_number 12
_symmetry_cell_setting 'monoclinic'
loop_
_space_group_symop_operation_xyz
x,y,z
-x,y,-z
-x,-y,-z
x,-y,z
1/2+x,1/2+y,z
1/2-x,1/2+y,-z
1/2-x,1/2-y,-z
1/2+x,1/2-y,z
loop_
_atom_site_type_symbol
_atom_site_label
_atom_site_fract_x
_atom_site_fract_y
_atom_site_fract_z
Si Si1 0.670373 0.841951 0.607321
Si Si2 0.174090 0.145814 0.335868
Si Si3 0.917115 0.729360 0.979928
Si Si4 0.840480 0.559922 0.762923
Si Si5 0.659051 0.648118 0.846995
Si Si6 0.916155 0.436161 0.945034
O O1 0.794537 0.838942 0.563979
O O2 0.554345 0.789469 0.729776
O O3 0.747285 0.847601 0.387458
O O4 0.560290 0.894029 0.774307
O O5 0.000000 0.141547 0.500000
O O6 0.263905 0.193649 0.153719
O O7 0.273980 0.090802 0.187319
O O8 0.877836 0.792759 0.048893
O O9 0.000000 0.709800 0.000000
O O10 0.769010 0.500000 0.822307
O O11 0.741527 0.610242 0.839734
O O12 0.870456 0.563299 0.863955
O O13 0.000000 0.562339 0.500000
O O14 0.500000 0.622009 0.000000
O O15 0.948549 0.500000 0.938308
#
# Coordination Sequence:
#
# PCOD9211383 Si02
#       6
#     8   8   8   8   8   8
#     4  10  21  41  62  86 123 158 201 242 292 362
#     4  10  22  38  60  90 123 152 195 255 299 338
#     4   8  19  39  58  82 119 160 192 233 291 359
#     4  10  21  40  62  87 123 157 197 244 293 360
#     4  11  23  37  64  94 118 157 199 245 302 352
#     4  10  21  41  64  85 117 164 204 240 294 362
#
# _framework density 19.991952999999999
#
# number of rings (size 3 to 8) (size 9 to 14) (size 15 to 20)
#    0.000    2.167    1.667    1.500    2.333    8.667 
#    0.000    1.667    0.000    0.000    0.000    0.000 
#    0.000    0.000    0.000    0.000    0.000    0.000 
#
# Total GULP energy -133783.376318 kJ/mol
# GULP energy per Si atom -5574.307347 kJ/mol
# Density = 1.994645 g / cm^3
# Si number density = 19.991953 Si / 1000 Ang^3
#
#
#
# Elastic Constant Matrix: (Units=GPa)
#
#
# Indices 1 2 3 4 5 6 
#
# 1 100.2890 57.9586 49.4445 0.0000 -4.2695 0.0000
# 2 57.9586 112.8675 40.3534 -0.0001 -13.5913 0.0000
# 3 49.4445 40.3534 92.9322 -0.0002 -15.1963 -0.0005
# 4 0.0000 -0.0001 -0.0002 15.0334 0.0000 -7.4888
# 5 -4.2695 -13.5913 -15.1963 0.0000 25.3502 0.0001
# 6 0.0000 0.0000 -0.0005 -7.4888 0.0001 27.4192
#
#
#
# Elastic Compliance Matrix: (Units=1/GPa)
#
#
# Indices 1 2 3 4 5 6 
#
# 1 0.017202 -0.006950 -0.006952 0.000000 -0.004996 0.000000
# 2 -0.006950 0.013537 -0.001314 0.000000 0.005299 0.000000
# 3 -0.006952 -0.001314 0.016323 0.000000 0.007910 0.000000
# 4 0.000000 0.000000 0.000000 0.076994 0.000000 0.021029
# 5 -0.004996 0.005299 0.007910 0.000000 0.046189 0.000000
# 6 0.000000 0.000000 0.000000 0.021029 0.000000 0.042214
#
#
# Mechanical properties :
#
#
# Convention : Reuss Voigt Hill
#
# Bulk Modulus (GPa) = 60.12653 66.84464 63.48558
# Shear Modulus (GPa) = 20.12620 24.11604 22.12112
#
# Velocity S-wave (km/s) = 3.17632 3.47693 3.33002
# Velocity P-wave (km/s) = 6.60247 7.04465 6.82714
#
# Compressibility (1/GPa) = 0.01663159
#
# Stress axis : x y z
#
# Youngs Moduli (GPa) = 58.13249 73.87416 61.26336
#
# Poissons Ratio (x) = 0.51340 0.42588
# Poissons Ratio (y) = 0.40400 0.08048
# Poissons Ratio (z) = 0.40411 0.09705
#
# Static dielectric constant tensor:
#      x y z
#    x 2.717950 0.000010 0.148260 
#    y 0.000010 1.730240 0.000000 
#    z 0.148260 0.000000 1.760590 
# 
# From -- ./inp_files/149623.got.cif
#   From: 2010.05.17/outbox.cif.g08.bks.cpg/sg12_75_cif.got.tgz:149623.got - 2010.06.03 13:09:07.
