data_PCOD9211636
_publ_section_title
;
Structure prediction by ZEFSAII (Michael W. Deem and Ramdas Pophale) SiO2 
 PCOD9211636
Probable space group: C 2/M
;
_chemical_formula_sum "Si O2"
_cell_formula_units_Z 36
_cell_length_a 8.843376
_cell_length_b 18.181894
_cell_length_c 13.718533
_cell_angle_alpha 90.000000
_cell_angle_beta 129.853800
_cell_angle_gamma 90.000000
_cell_volume 1693.348377
_symmetry_space_group_name_H-M "C 2/M"
_symmetry_group_IT_number 12
_symmetry_cell_setting 'monoclinic'
loop_
_space_group_symop_operation_xyz
x,y,z
-x,y,-z
-x,-y,-z
x,-y,z
1/2+x,1/2+y,z
1/2-x,1/2+y,-z
1/2-x,1/2-y,-z
1/2+x,1/2-y,z
loop_
_atom_site_type_symbol
_atom_site_label
_atom_site_fract_x
_atom_site_fract_y
_atom_site_fract_z
Si Si1 0.810336 0.688439 0.723054
Si Si2 0.000000 0.701333 0.500000
Si Si3 0.914609 0.917424 0.855253
Si Si4 0.940903 0.584258 0.633190
Si Si5 0.159168 0.786682 0.866159
O O1 0.645677 0.743437 0.615068
O O2 0.815450 0.608734 0.675876
O O3 0.800808 0.691128 0.836210
O O4 0.012670 0.723821 0.769544
O O5 0.104939 0.644637 0.468861
O O6 0.677420 0.911660 0.751944
O O7 0.023415 0.855572 0.838373
O O8 0.965904 0.000000 0.843618
O O9 0.000000 0.908898 0.000000
O O10 0.899438 0.500000 0.586953
O O11 0.250000 0.750000 0.000000
#
# Coordination Sequence:
#
# PCOD9211636 Si02
#       5
#     8   4   8   8   8
#     4  12  24  40  66  96 129 168 217 269 320 382
#     4  12  23  44  67  90 130 176 218 264 317 394
#     4  10  21  40  64  92 129 169 211 263 325 385
#     4  11  24  43  67  96 130 172 216 266 326 389
#     4  12  23  40  66  96 128 167 219 267 322 388
#
# _framework density 21.259654999999999
#
# number of rings (size 3 to 8) (size 9 to 14) (size 15 to 20)
#    0.000    0.667    4.444    4.333    0.000    0.889 
#    0.000    0.556    0.000    6.667    0.000    0.000 
#    0.000    0.000    0.000    0.000    0.000    0.000 
#
# Total GULP energy -100537.726473 kJ/mol
# GULP energy per Si atom -5585.429248 kJ/mol
# Density = 2.121127 g / cm^3
# Si number density = 21.259655 Si / 1000 Ang^3
#
#
#
# Elastic Constant Matrix: (Units=GPa)
#
#
# Indices 1 2 3 4 5 6 
#
# 1 88.3536 36.5461 10.3542 0.0000 -25.1873 0.0000
# 2 36.5461 134.2165 17.2199 0.0000 -4.8698 0.0000
# 3 10.3542 17.2199 67.0984 0.0000 -12.5659 0.0000
# 4 0.0000 0.0000 0.0000 18.3901 0.0000 0.1694
# 5 -25.1873 -4.8698 -12.5659 0.0000 23.4232 0.0000
# 6 0.0000 0.0000 0.0000 0.1694 0.0000 36.5263
#
#
#
# Elastic Compliance Matrix: (Units=1/GPa)
#
#
# Indices 1 2 3 4 5 6 
#
# 1 0.018807 -0.004652 0.002110 0.000000 0.020389 0.000000
# 2 -0.004652 0.008863 -0.002388 0.000000 -0.004441 0.000000
# 3 0.002110 -0.002388 0.017256 0.000000 0.011030 0.000000
# 4 0.000000 0.000000 0.000000 0.054379 0.000000 -0.000252
# 5 0.020389 -0.004441 0.011030 0.000000 0.069611 0.000000
# 6 0.000000 0.000000 0.000000 -0.000252 0.000000 0.027379
#
#
# Mechanical properties :
#
#
# Convention : Reuss Voigt Hill
#
# Bulk Modulus (GPa) = 28.51789 46.43432 37.47611
# Shear Modulus (GPa) = 22.95210 30.70447 26.82829
#
# Velocity S-wave (km/s) = 3.28930 3.80447 3.55623
# Velocity P-wave (km/s) = 5.27913 6.41775 5.87609
#
# Compressibility (1/GPa) = 0.03506571
#
# Stress axis : x y z
#
# Youngs Moduli (GPa) = 53.17055 112.83314 57.94931
#
# Poissons Ratio (x) = 0.52491 -0.12227
# Poissons Ratio (y) = 0.24735 0.13840
# Poissons Ratio (z) = -0.11219 0.26948
#
# Static dielectric constant tensor:
#      x y z
#    x 1.769300 0.000000 -0.024570 
#    y 0.000000 1.768230 0.000000 
#    z -0.024570 0.000000 1.926080 
# 
# From -- ./inp_files/118617.got.cif
#   From: 2010.05.17/outbox.cif.g08.bks.cpg/sg12_60_cif.got.tgz:118617.got - 2010.06.03 13:09:07.
