data_PCOD9211812
_publ_section_title
;
Structure prediction by ZEFSAII (Michael W. Deem and Ramdas Pophale) SiO2 
 PCOD9211812
Probable space group: C 2/M
;
_chemical_formula_sum "Si O2"
_cell_formula_units_Z 64
_cell_length_a 32.280226
_cell_length_b 8.587396
_cell_length_c 16.342075
_cell_angle_alpha 90.000000
_cell_angle_beta 48.260232
_cell_angle_gamma 90.000000
_cell_volume 3380.233444
_symmetry_space_group_name_H-M "C 2/M"
_symmetry_group_IT_number 12
_symmetry_cell_setting 'monoclinic'
loop_
_space_group_symop_operation_xyz
x,y,z
-x,y,-z
-x,-y,-z
x,-y,z
1/2+x,1/2+y,z
1/2-x,1/2+y,-z
1/2-x,1/2-y,-z
1/2+x,1/2-y,z
loop_
_atom_site_type_symbol
_atom_site_label
_atom_site_fract_x
_atom_site_fract_y
_atom_site_fract_z
Si Si1 0.246263 0.818585 0.595374
Si Si2 0.926756 0.687197 0.359975
Si Si3 0.868212 0.680603 0.265139
Si Si4 0.836463 0.815308 0.597915
Si Si5 0.667245 0.313948 0.057689
Si Si6 0.223236 0.187629 0.158257
Si Si7 0.550940 0.187034 0.152975
Si Si8 0.940043 0.174103 0.039261
O O1 0.250000 0.750000 0.500000
O O2 0.182485 0.786243 0.697567
O O3 0.287289 0.726534 0.599996
O O4 0.260579 0.000000 0.579066
O O5 0.925528 0.500000 0.362842
O O6 0.895324 0.732880 0.316127
O O7 0.891919 0.746617 0.483499
O O8 0.991472 0.735544 0.270372
O O9 0.851134 0.500000 0.296778
O O10 0.910848 0.701290 0.135786
O O11 0.813653 0.758621 0.716007
O O12 0.843849 0.000000 0.593841
O O13 0.662085 0.500000 0.058027
O O14 0.691517 0.274565 0.115564
O O15 0.607124 0.237811 0.124764
O O16 0.714684 0.256931 0.931508
O O17 0.228795 0.000000 0.156241
O O18 0.549857 0.000000 0.146719
O O19 0.555121 0.265220 0.058754
O O20 0.914188 0.000000 0.074505
O O21 0.000000 0.158801 0.000000
#
# Coordination Sequence:
#
# PCOD9211812 Si02
#       8
#     8   8   8   8   8   8   8   8
#     4  12  24  38  56  82 117 156 200 245 290 346
#     4  10  22  39  59  83 117 159 201 243 292 347
#     4  11  22  38  57  79 114 158 200 245 294 344
#     4  11  23  39  62  88 117 156 198 244 297 354
#     4  10  21  40  66  93 120 150 191 243 296 354
#     4   9  21  42  65  91 121 153 189 236 301 363
#     4  11  23  40  61  86 119 159 200 243 297 355
#     4  11  23  37  56  84 117 154 200 246 290 345
#
# _framework density 18.933605
#
# number of rings (size 3 to 8) (size 9 to 14) (size 15 to 20)
#    0.000    1.375    2.500    3.000    1.750    3.500 
#    0.000    0.625    0.000    3.750    0.000    0.000 
#    0.000    0.000    0.000    0.000    0.000    0.000 
#
# Total GULP energy -178599.346100 kJ/mol
# GULP energy per Si atom -5581.229566 kJ/mol
# Density = 1.889051 g / cm^3
# Si number density = 18.933605 Si / 1000 Ang^3
#
#
#
# Elastic Constant Matrix: (Units=GPa)
#
#
# Indices 1 2 3 4 5 6 
#
# 1 78.2002 15.9577 45.1662 0.0000 -13.3553 0.0001
# 2 15.9577 33.3063 21.8120 0.0000 -3.4535 0.0002
# 3 45.1662 21.8120 143.4168 0.0000 -4.3888 0.0000
# 4 0.0000 0.0000 0.0000 34.1477 0.0000 -3.5194
# 5 -13.3553 -3.4535 -4.3888 0.0000 29.4522 0.0000
# 6 0.0001 0.0002 0.0000 -3.5194 0.0000 26.3655
#
#
#
# Elastic Compliance Matrix: (Units=1/GPa)
#
#
# Indices 1 2 3 4 5 6 
#
# 1 0.017556 -0.004696 -0.004609 0.000000 0.006724 0.000000
# 2 -0.004696 0.034899 -0.003786 0.000000 0.001399 0.000000
# 3 -0.004609 -0.003786 0.008963 0.000000 -0.001198 0.000000
# 4 0.000000 0.000000 0.000000 0.029693 0.000000 0.003964
# 5 0.006724 0.001399 -0.001198 0.000000 0.036988 0.000000
# 6 0.000000 0.000000 0.000000 0.003964 0.000000 0.038457
#
#
# Mechanical properties :
#
#
# Convention : Reuss Voigt Hill
#
# Bulk Modulus (GPa) = 28.37981 46.75504 37.56742
# Shear Modulus (GPa) = 24.45179 29.45889 26.95534
#
# Velocity S-wave (km/s) = 3.59757 3.94878 3.77726
# Velocity P-wave (km/s) = 5.68141 6.74820 6.23765
#
# Compressibility (1/GPa) = 0.03523632
#
# Stress axis : x y z
#
# Youngs Moduli (GPa) = 56.95970 28.65432 111.56554
#
# Poissons Ratio (x) = 0.13456 0.51421
# Poissons Ratio (y) = 0.26748 0.42239
# Poissons Ratio (z) = 0.26253 0.10848
#
# Static dielectric constant tensor:
#      x y z
#    x 1.637160 0.000000 -0.004520 
#    y 0.000000 1.658000 0.000000 
#    z -0.004520 0.000000 1.589730 
# 
# From -- ./inp_files/249806.got.cif
#   From: 2010.05.17/outbox.cif.g08.bks.cpg/sg12_125_cif.got.tgz:249806.got - 2010.06.03 13:09:07.
