data_PCOD9211676
_publ_section_title
;
Structure prediction by ZEFSAII (Michael W. Deem and Ramdas Pophale) SiO2 
 PCOD9211676
Probable space group: C 2/M
;
_chemical_formula_sum "Si O2"
_cell_formula_units_Z 48
_cell_length_a 17.954803
_cell_length_b 22.601870
_cell_length_c 5.641176
_cell_angle_alpha 90.000000
_cell_angle_beta 113.274033
_cell_angle_gamma 90.000000
_cell_volume 2102.970536
_symmetry_space_group_name_H-M "C 2/M"
_symmetry_group_IT_number 12
_symmetry_cell_setting 'monoclinic'
loop_
_space_group_symop_operation_xyz
x,y,z
-x,y,-z
-x,-y,-z
x,-y,z
1/2+x,1/2+y,z
1/2-x,1/2+y,-z
1/2-x,1/2-y,-z
1/2+x,1/2-y,z
loop_
_atom_site_type_symbol
_atom_site_label
_atom_site_fract_x
_atom_site_fract_y
_atom_site_fract_z
Si Si1 0.172034 0.154256 0.662528
Si Si2 0.665124 0.780302 0.230082
Si Si3 0.903307 0.332887 0.357891
Si Si4 0.220206 0.432591 0.872102
Si Si5 0.622752 0.433617 0.219852
Si Si6 0.923734 0.822176 0.051406
O O1 0.241929 0.200381 0.678491
O O2 0.121406 0.109787 0.437463
O O3 0.228266 0.108470 0.884710
O O4 0.100508 0.189106 0.710099
O O5 0.630258 0.803900 0.437025
O O6 0.650308 0.710147 0.176124
O O7 0.621019 0.805801 0.933444
O O8 0.860726 0.397599 0.294908
O O9 0.000000 0.334135 0.500000
O O10 0.207772 0.500000 0.941736
O O11 0.282180 0.436020 0.729480
O O12 0.593199 0.500000 0.210949
O O13 0.578306 0.393504 0.968266
O O14 0.000000 0.799816 0.000000
#
# Coordination Sequence:
#
# PCOD9211676 Si02
#       6
#     8   8   8   8   8   8
#     4  10  21  40  65  93 120 168 215 264 315 387
#     4  11  24  43  67  94 131 173 214 260 317 391
#     4  11  22  39  63  96 134 172 211 265 324 379
#     4   9  19  37  60  89 125 167 215 265 314 378
#     4  10  21  40  65  88 121 165 217 266 318 381
#     4  11  25  41  61  93 128 166 210 269 328 381
#
# _framework density 22.824853999999998
#
# number of rings (size 3 to 8) (size 9 to 14) (size 15 to 20)
#    0.000    1.667    1.667    2.500    2.333    2.667 
#    0.000    0.833    0.000    3.000    0.000    0.000 
#    0.000    0.000    0.000    0.000    0.000    0.000 
#
# Total GULP energy -133763.258627 kJ/mol
# GULP energy per Si atom -5573.469109 kJ/mol
# Density = 2.277290 g / cm^3
# Si number density = 22.824854 Si / 1000 Ang^3
#
#
#
# Elastic Constant Matrix: (Units=GPa)
#
#
# Indices 1 2 3 4 5 6 
#
# 1 130.3806 23.1797 30.6060 0.0000 -14.6612 0.0000
# 2 23.1797 127.4178 8.3642 0.0000 -12.5811 0.0000
# 3 30.6060 8.3642 80.8727 0.0000 -1.7664 0.0000
# 4 0.0000 0.0000 0.0000 26.8256 0.0000 -4.8502
# 5 -14.6612 -12.5811 -1.7664 0.0000 31.9180 0.0000
# 6 0.0000 0.0000 0.0000 -4.8502 0.0000 21.7254
#
#
#
# Elastic Compliance Matrix: (Units=1/GPa)
#
#
# Indices 1 2 3 4 5 6 
#
# 1 0.009016 -0.001079 -0.003223 0.000000 0.003538 0.000000
# 2 -0.001079 0.008344 -0.000394 0.000000 0.002771 0.000000
# 3 -0.003223 -0.000394 0.013606 0.000000 -0.000883 0.000000
# 4 0.000000 0.000000 0.000000 0.038846 0.000000 0.008672
# 5 0.003538 0.002771 -0.000883 0.000000 0.033999 0.000000
# 6 0.000000 0.000000 0.000000 0.008672 0.000000 0.047965
#
#
# Mechanical properties :
#
#
# Convention : Reuss Voigt Hill
#
# Bulk Modulus (GPa) = 46.35309 51.44122 48.89715
# Shear Modulus (GPa) = 29.69815 34.52855 32.11335
#
# Velocity S-wave (km/s) = 3.61103 3.89364 3.75500
# Velocity P-wave (km/s) = 6.14315 6.54219 6.34581
#
# Compressibility (1/GPa) = 0.02157353
#
# Stress axis : x y z
#
# Youngs Moduli (GPa) = 110.91160 119.84587 73.49480
#
# Poissons Ratio (x) = 0.12935 0.23689
# Poissons Ratio (y) = 0.11971 0.02896
# Poissons Ratio (z) = 0.35750 0.04722
#
# Static dielectric constant tensor:
#      x y z
#    x 1.904510 0.000000 -0.123950 
#    y 0.000000 1.871020 0.000000 
#    z -0.123950 0.000000 2.044190 
# 
# From -- ./inp_files/16581.got.cif
#   From: 2010.05.17/outbox.cif.g08.bks.cpg/sg12_9_cif.got.tgz:16581.got - 2010.06.03 13:09:07.
