data_PCOD9211946
_publ_section_title
;
Structure prediction by ZEFSAII (Michael W. Deem and Ramdas Pophale) SiO2 
 PCOD9211946
Probable space group: C 2/M
;
_chemical_formula_sum "Si O2"
_cell_formula_units_Z 48
_cell_length_a 10.946061
_cell_length_b 14.088149
_cell_length_c 15.519514
_cell_angle_alpha 90.000000
_cell_angle_beta 73.084199
_cell_angle_gamma 90.000000
_cell_volume 2289.711909
_symmetry_space_group_name_H-M "C 2/M"
_symmetry_group_IT_number 12
_symmetry_cell_setting 'monoclinic'
loop_
_space_group_symop_operation_xyz
x,y,z
-x,y,-z
-x,-y,-z
x,-y,z
1/2+x,1/2+y,z
1/2-x,1/2+y,-z
1/2-x,1/2-y,-z
1/2+x,1/2-y,z
loop_
_atom_site_type_symbol
_atom_site_label
_atom_site_fract_x
_atom_site_fract_y
_atom_site_fract_z
Si Si1 0.029894 0.384439 0.130733
Si Si2 0.012845 0.115496 0.096408
Si Si3 0.348109 0.614100 0.293648
Si Si4 0.056064 0.613264 0.321680
Si Si5 0.399403 0.736805 0.445959
Si Si6 0.797418 0.384510 0.061137
O O1 0.030003 0.500000 0.131577
O O2 0.898670 0.353630 0.112094
O O3 0.042286 0.353696 0.225802
O O4 0.145347 0.357357 0.043639
O O5 0.152250 0.144859 0.101270
O O6 0.909266 0.142478 0.189146
O O7 0.008506 0.000000 0.093231
O O8 0.000000 0.148428 0.000000
O O9 0.361707 0.500000 0.297999
O O10 0.198191 0.637629 0.323250
O O11 0.408781 0.665204 0.363228
O O12 0.042984 0.500000 0.326352
O O13 0.951820 0.662710 0.401567
O O14 0.500000 0.707370 0.500000
O O15 0.250000 0.750000 0.500000
O O16 0.797927 0.500000 0.062914
#
# Coordination Sequence:
#
# PCOD9211946 Si02
#       6
#     8   8   8   8   8   8
#     4   8  14  26  49  82 117 159 205 251 299 364
#     4   9  16  28  53  88 125 164 206 253 309 373
#     4  10  22  41  67  97 129 168 215 264 317 388
#     4  10  21  40  68  93 121 166 217 259 318 392
#     4  12  26  46  68  94 127 166 209 275 338 382
#     4   8  13  23  43  79 124 159 199 249 301 359
#
# _framework density 20.963336000000002
#
# number of rings (size 3 to 8) (size 9 to 14) (size 15 to 20)
#    0.000    2.500    1.667    2.000    0.000    6.667 
#    0.000    1.667    3.667    2.000    0.000    0.000 
#    0.000    0.000    0.000    0.000    0.000    0.000 
#
# Total GULP energy -134076.613466 kJ/mol
# GULP energy per Si atom -5586.525561 kJ/mol
# Density = 2.091562 g / cm^3
# Si number density = 20.963336 Si / 1000 Ang^3
#
#
#
# Elastic Constant Matrix: (Units=GPa)
#
#
# Indices 1 2 3 4 5 6 
#
# 1 117.3238 25.9514 72.2661 0.0000 -13.7364 0.0000
# 2 25.9514 57.7005 31.4221 0.0000 1.2731 0.0000
# 3 72.2661 31.4221 123.8233 0.0000 8.8677 0.0000
# 4 0.0000 0.0000 0.0000 25.7164 0.0000 8.3414
# 5 -13.7364 1.2731 8.8677 0.0000 41.5775 0.0000
# 6 0.0000 0.0000 0.0000 8.3414 0.0000 7.4805
#
#
#
# Elastic Compliance Matrix: (Units=1/GPa)
#
#
# Indices 1 2 3 4 5 6 
#
# 1 0.015295 -0.002204 -0.008870 0.000000 0.007012 0.000000
# 2 -0.002204 0.020437 -0.003862 0.000000 -0.000530 0.000000
# 3 -0.008870 -0.003862 0.014658 0.000000 -0.005938 0.000000
# 4 0.000000 0.000000 0.000000 0.060920 0.000000 -0.067931
# 5 0.007012 -0.000530 -0.005938 0.000000 0.027651 0.000000
# 6 0.000000 0.000000 0.000000 -0.067931 0.000000 0.209430
#
#
# Mechanical properties :
#
#
# Convention : Reuss Voigt Hill
#
# Bulk Modulus (GPa) = 48.73500 62.01411 55.37455
# Shear Modulus (GPa) = 12.98359 26.23540 19.60949
#
# Velocity S-wave (km/s) = 2.49137 3.54148 3.06178
# Velocity P-wave (km/s) = 5.61908 6.80949 6.24273
#
# Compressibility (1/GPa) = 0.02051913
#
# Stress axis : x y z
#
# Youngs Moduli (GPa) = 65.38018 48.93112 68.22287
#
# Poissons Ratio (x) = 0.10783 0.60511
# Poissons Ratio (y) = 0.14408 0.26348
# Poissons Ratio (z) = 0.57989 0.18897
#
# Static dielectric constant tensor:
#      x y z
#    x 1.735000 0.000000 0.007970 
#    y 0.000000 1.796180 0.000000 
#    z 0.007970 0.000000 1.733130 
# 
# From -- ./inp_files/204277.got.cif
#   From: 2010.05.17/outbox.cif.g08.bks.cpg/sg12_103_cif.got.tgz:204277.got - 2010.06.03 13:09:07.
