data_PCOD9211301
_publ_section_title
;
Structure prediction by ZEFSAII (Michael W. Deem and Ramdas Pophale) SiO2 
 PCOD9211301
Probable space group: C 2/M
;
_chemical_formula_sum "Si O2"
_cell_formula_units_Z 44
_cell_length_a 8.987712
_cell_length_b 23.490764
_cell_length_c 10.743695
_cell_angle_alpha 90.000000
_cell_angle_beta 78.868834
_cell_angle_gamma 90.000000
_cell_volume 2225.625549
_symmetry_space_group_name_H-M "C 2/M"
_symmetry_group_IT_number 12
_symmetry_cell_setting 'monoclinic'
loop_
_space_group_symop_operation_xyz
x,y,z
-x,y,-z
-x,-y,-z
x,-y,z
1/2+x,1/2+y,z
1/2-x,1/2+y,-z
1/2-x,1/2-y,-z
1/2+x,1/2-y,z
loop_
_atom_site_type_symbol
_atom_site_label
_atom_site_fract_x
_atom_site_fract_y
_atom_site_fract_z
Si Si1 0.721066 0.934389 0.625030
Si Si2 0.228885 0.335270 0.269514
Si Si3 0.000000 0.361062 0.500000
Si Si4 0.763678 0.279068 0.137079
Si Si5 0.027807 0.843975 0.355562
Si Si6 0.989523 0.385586 0.135307
O O1 0.629372 0.901599 0.533015
O O2 0.870614 0.899061 0.631926
O O3 0.606672 0.924989 0.758585
O O4 0.747718 0.000000 0.593775
O O5 0.083060 0.325149 0.381288
O O6 0.295508 0.275935 0.213954
O O7 0.367952 0.361783 0.321743
O O8 0.152122 0.370409 0.169673
O O9 0.621369 0.308268 0.234549
O O10 0.895189 0.326524 0.127284
O O11 0.750000 0.250000 0.000000
O O12 0.000000 0.817248 0.500000
O O13 0.000000 0.413385 0.000000
#
# Coordination Sequence:
#
# PCOD9211301 Si02
#       6
#     8   8   4   8   8   8
#     4  10  22  42  64  87 119 157 207 264 314 363
#     4  11  22  37  62  89 130 162 200 251 304 367
#     4  10  21  40  62  94 118 160 203 258 308 376
#     4  11  23  40  62  91 129 171 204 245 305 367
#     4  11  24  41  59  95 124 164 209 252 307 367
#     4  10  21  40  60  93 120 160 210 248 305 373
#
# _framework density 19.769722999999999
#
# number of rings (size 3 to 8) (size 9 to 14) (size 15 to 20)
#    0.000    1.455    3.636    1.364    1.273    1.455 
#    0.000    0.909    0.000    1.091    0.000    0.000 
#    0.000    0.000    0.000    0.000    0.000    0.000 
#
# Total GULP energy -122564.123016 kJ/mol
# GULP energy per Si atom -5571.096501 kJ/mol
# Density = 1.972473 g / cm^3
# Si number density = 19.769723 Si / 1000 Ang^3
#
#
#
# Elastic Constant Matrix: (Units=GPa)
#
#
# Indices 1 2 3 4 5 6 
#
# 1 142.7377 13.5286 25.7715 0.0000 11.6295 0.0000
# 2 13.5286 37.7980 13.7129 0.0000 -6.6390 0.0000
# 3 25.7715 13.7129 100.4196 0.0000 2.8101 0.0000
# 4 0.0000 0.0000 0.0000 -0.2303 0.0000 -3.6643
# 5 11.6295 -6.6390 2.8101 0.0000 26.7201 0.0000
# 6 0.0000 0.0000 0.0000 -3.6643 0.0000 5.8907
#
#
#
# Elastic Compliance Matrix: (Units=1/GPa)
#
#
# Indices 1 2 3 4 5 6 
#
# 1 0.007887 -0.002983 -0.001505 0.000000 -0.004016 0.000000
# 2 -0.002983 0.030475 -0.003655 0.000000 0.009255 0.000000
# 3 -0.001505 -0.003655 0.010883 0.000000 -0.001398 0.000000
# 4 0.000000 0.000000 0.000000 -0.398468 0.000000 -0.247865
# 5 -0.004016 0.009255 -0.001398 0.000000 0.041619 0.000000
# 6 0.000000 0.000000 0.000000 -0.247865 0.000000 0.015577
#
#
# Mechanical properties :
#
#
# Convention : Reuss Voigt Hill
#
# Bulk Modulus (GPa) = 30.33888 42.99791 36.66839
# Shear Modulus (GPa) = -18.88537 21.67226 1.39345
#
# Velocity S-wave (km/s) = -3.09409 3.31454 0.84046
# Velocity P-wave (km/s) = 1.61707 6.03695 4.41926
#
# Compressibility (1/GPa) = 0.03296101
#
# Stress axis : x y z
#
# Youngs Moduli (GPa) = 126.78508 32.81327 91.88994
#
# Poissons Ratio (x) = 0.09787 0.13825
# Poissons Ratio (y) = 0.37814 0.33587
# Poissons Ratio (z) = 0.19075 0.11994
#
# Static dielectric constant tensor:
#      x y z
#    x 1.728000 0.000000 -0.002860 
#    y 0.000000 1.658040 0.000000 
#    z -0.002860 0.000000 1.792870 
# 
# From -- ./inp_files/121773.got.cif
#   From: 2010.05.17/outbox.cif.g08.bks.cpg/sg12_61_cif.got.tgz:121773.got - 2010.06.03 13:09:07.
