data_PCOD9211070
_publ_section_title
;
Structure prediction by ZEFSAII (Michael W. Deem and Ramdas Pophale) SiO2 
 PCOD9211070
Probable space group: C 2/M
;
_chemical_formula_sum "Si O2"
_cell_formula_units_Z 64
_cell_length_a 21.482744
_cell_length_b 22.961128
_cell_length_c 18.753703
_cell_angle_alpha 90.000000
_cell_angle_beta 160.790351
_cell_angle_gamma 90.000000
_cell_volume 3043.685701
_symmetry_space_group_name_H-M "C 2/M"
_symmetry_group_IT_number 12
_symmetry_cell_setting 'monoclinic'
loop_
_space_group_symop_operation_xyz
x,y,z
-x,y,-z
-x,-y,-z
x,-y,z
1/2+x,1/2+y,z
1/2-x,1/2+y,-z
1/2-x,1/2-y,-z
1/2+x,1/2-y,z
loop_
_atom_site_type_symbol
_atom_site_label
_atom_site_fract_x
_atom_site_fract_y
_atom_site_fract_z
Si Si1 0.293300 0.174488 0.867639
Si Si2 0.231350 0.566514 0.060386
Si Si3 0.942939 0.611036 0.516107
Si Si4 0.989203 0.866881 0.724334
Si Si5 0.617323 0.306147 0.189668
Si Si6 0.759201 0.687541 0.666305
Si Si7 0.224698 0.800435 0.082057
Si Si8 0.337517 0.934332 0.553156
O O1 0.232159 0.115614 0.840817
O O2 0.215490 0.179860 0.702799
O O3 0.522309 0.170414 0.110591
O O4 0.248308 0.233415 0.864390
O O5 0.250788 0.500000 0.106398
O O6 0.376409 0.579967 0.153216
O O7 0.020115 0.574657 0.800725
O O8 0.000000 0.586784 0.500000
O O9 0.742768 0.643906 0.292461
O O10 0.910161 0.571900 0.550285
O O11 0.096478 0.659980 0.705155
O O12 0.875488 0.846378 0.532050
O O13 0.826048 0.888911 0.602311
O O14 0.134552 0.816133 0.907835
O O15 0.748902 0.255971 0.363461
O O16 0.451164 0.323900 0.061333
O O17 0.500000 0.275052 0.000000
O O18 0.266960 0.000000 0.487762
#
# Coordination Sequence:
#
# PCOD9211070 Si02
#       8
#     8   8   8   8   8   8   8   8
#     4  10  21  43  64  96 139 168 218 267 333 384
#     4  11  25  45  66  91 130 175 225 276 320 384
#     4  12  23  39  70  98 129 173 215 261 334 389
#     4  12  24  42  69  96 128 174 225 264 329 392
#     4  11  20  39  62  94 140 165 202 260 323 393
#     4  10  21  39  65  99 134 171 208 273 327 385
#     4  11  23  39  65 101 133 169 209 265 329 399
#     4  11  25  45  65  92 132 173 221 277 323 378
#
# _framework density 21.027138999999998
#
# number of rings (size 3 to 8) (size 9 to 14) (size 15 to 20)
#    0.000    1.000    7.500    0.375    1.750    4.250 
#    0.000    3.125    0.000    1.125    0.000    0.000 
#    0.000    0.000    0.000    0.000    0.000    0.000 
#
# Total GULP energy -178522.420275 kJ/mol
# GULP energy per Si atom -5578.825634 kJ/mol
# Density = 2.097928 g / cm^3
# Si number density = 21.027139 Si / 1000 Ang^3
#
#
#
# Elastic Constant Matrix: (Units=GPa)
#
#
# Indices 1 2 3 4 5 6 
#
# 1 77.1494 17.4642 16.1973 -0.0004 -2.0510 -0.0003
# 2 17.4642 68.7400 29.9935 -0.0002 -8.3563 -0.0001
# 3 16.1973 29.9935 59.7107 -0.0003 -11.7193 0.0001
# 4 -0.0004 -0.0002 -0.0003 21.3865 0.0000 7.7940
# 5 -2.0510 -8.3563 -11.7193 0.0000 38.9527 0.0001
# 6 -0.0003 -0.0001 0.0001 7.7940 0.0001 22.4331
#
#
#
# Elastic Compliance Matrix: (Units=1/GPa)
#
#
# Indices 1 2 3 4 5 6 
#
# 1 0.014071 -0.002473 -0.002692 0.000000 -0.000600 0.000000
# 2 -0.002473 0.019124 -0.008667 0.000000 0.001365 0.000000
# 3 -0.002692 -0.008667 0.022784 0.000000 0.004854 0.000000
# 4 0.000000 0.000000 0.000000 0.053537 0.000000 -0.018601
# 5 -0.000600 0.001365 0.004854 0.000000 0.027394 0.000000
# 6 0.000000 0.000000 0.000000 -0.018601 0.000000 0.051039
#
#
# Mechanical properties :
#
#
# Convention : Reuss Voigt Hill
#
# Bulk Modulus (GPa) = 35.31931 36.99003 36.15467
# Shear Modulus (GPa) = 22.21706 26.01747 24.11727
#
# Velocity S-wave (km/s) = 3.25405 3.52138 3.39035
# Velocity P-wave (km/s) = 5.56345 5.84494 5.70593
#
# Compressibility (1/GPa) = 0.02831312
#
# Stress axis : x y z
#
# Youngs Moduli (GPa) = 71.06816 52.29135 43.89013
#
# Poissons Ratio (x) = 0.12932 0.11817
# Poissons Ratio (y) = 0.17575 0.38041
# Poissons Ratio (z) = 0.19135 0.45323
#
# Static dielectric constant tensor:
#      x y z
#    x 1.851760 0.000000 -0.024260 
#    y 0.000000 1.735890 0.000000 
#    z -0.024260 0.000000 1.762180 
# 
# From -- ./inp_files/286464.got.cif
#   From: 2010.05.17/outbox.cif.g08.bks.cpg/sg12_144_cif.got.tgz:286464.got - 2010.06.03 13:09:07.
