data_PCOD9211378
_publ_section_title
;
Structure prediction by ZEFSAII (Michael W. Deem and Ramdas Pophale) SiO2 
 PCOD9211378
Probable space group: C 2/M
;
_chemical_formula_sum "Si O2"
_cell_formula_units_Z 36
_cell_length_a 13.554776
_cell_length_b 23.669990
_cell_length_c 8.143452
_cell_angle_alpha 90.000000
_cell_angle_beta 146.664214
_cell_angle_gamma 90.000000
_cell_volume 1435.826675
_symmetry_space_group_name_H-M "C 2/M"
_symmetry_group_IT_number 12
_symmetry_cell_setting 'monoclinic'
loop_
_space_group_symop_operation_xyz
x,y,z
-x,y,-z
-x,-y,-z
x,-y,z
1/2+x,1/2+y,z
1/2-x,1/2+y,-z
1/2-x,1/2-y,-z
1/2+x,1/2-y,z
loop_
_atom_site_type_symbol
_atom_site_label
_atom_site_fract_x
_atom_site_fract_y
_atom_site_fract_z
Si Si1 0.701662 0.435873 0.839472
Si Si2 0.705435 0.561199 0.239849
Si Si3 0.903624 0.225499 0.535045
Si Si4 0.493006 0.856429 0.686807
Si Si5 0.000000 0.232548 0.000000
O O1 0.500000 0.424889 0.500000
O O2 0.749847 0.500000 0.850937
O O3 0.707320 0.436201 0.045064
O O4 0.841238 0.386085 0.991514
O O5 0.786740 0.500000 0.398183
O O6 0.814947 0.609599 0.483408
O O7 0.500000 0.561980 0.000000
O O8 0.976581 0.196001 0.801022
O O9 0.688203 0.232975 0.239900
O O10 0.000000 0.208156 0.500000
O O11 0.973694 0.289621 0.668276
O O12 0.500000 0.866542 0.500000
#
# Coordination Sequence:
#
# PCOD9211378 Si02
#       5
#     8   8   8   8   4
#     4   9  17  32  51  74 107 144 181 221 269 326
#     4   9  17  30  49  74 104 140 178 215 263 322
#     4  10  21  40  62  87 117 149 191 238 291 350
#     4   9  18  33  53  77 104 141 182 221 273 330
#     4  10  22  40  62  88 114 152 190 236 298 358
#
# _framework density 25.072664
#
# number of rings (size 3 to 8) (size 9 to 14) (size 15 to 20)
#    0.000    2.667    0.000    1.333    1.556    2.667 
#    4.000    5.556    0.000    5.333    0.000    0.000 
#    0.000    0.000    0.000    0.000    0.000    0.000 
#
# Total GULP energy -100553.948275 kJ/mol
# GULP energy per Si atom -5586.330460 kJ/mol
# Density = 2.501560 g / cm^3
# Si number density = 25.072664 Si / 1000 Ang^3
#
#
#
# Elastic Constant Matrix: (Units=GPa)
#
#
# Indices 1 2 3 4 5 6 
#
# 1 109.0919 0.5822 34.6028 0.0000 -2.7041 0.0000
# 2 0.5822 120.7760 30.8560 0.0000 7.1956 0.0000
# 3 34.6028 30.8560 143.8949 0.0000 5.3736 0.0000
# 4 0.0000 0.0000 0.0000 20.3566 0.0000 17.0800
# 5 -2.7041 7.1956 5.3736 0.0000 33.3034 0.0000
# 6 0.0000 0.0000 0.0000 17.0800 0.0000 1.8218
#
#
#
# Elastic Compliance Matrix: (Units=1/GPa)
#
#
# Indices 1 2 3 4 5 6 
#
# 1 0.010004 0.000541 -0.002563 0.000000 0.001109 0.000000
# 2 0.000541 0.008874 -0.001975 0.000000 -0.001555 0.000000
# 3 -0.002563 -0.001975 0.008030 0.000000 -0.001077 0.000000
# 4 0.000000 0.000000 0.000000 -0.007155 0.000000 0.067075
# 5 0.001109 -0.001555 -0.001077 0.000000 0.030627 0.000000
# 6 0.000000 0.000000 0.000000 0.067075 0.000000 -0.079943
#
#
# Mechanical properties :
#
#
# Convention : Reuss Voigt Hill
#
# Bulk Modulus (GPa) = 52.87298 56.20497 54.53898
# Shear Modulus (GPa) = -327.57827 31.61116 -147.98356
#
# Velocity S-wave (km/s) = -11.44269 3.55460 -7.69090
# Velocity P-wave (km/s) = 12.38736 6.26996 7.55428
#
# Compressibility (1/GPa) = 0.01891325
#
# Stress axis : x y z
#
# Youngs Moduli (GPa) = 99.95842 112.68411 124.53986
#
# Poissons Ratio (x) = -0.06091 0.31920
# Poissons Ratio (y) = -0.05403 0.24595
# Poissons Ratio (z) = 0.25620 0.22254
#
# Static dielectric constant tensor:
#      x y z
#    x 2.053610 0.000000 -0.018230 
#    y 0.000000 2.024550 0.000000 
#    z -0.018230 0.000000 1.972240 
# 
# From -- ./inp_files/40639.got.cif
#   From: 2010.05.17/outbox.cif.g08.bks.cpg/sg12_21_cif.got.tgz:40639.got - 2010.06.03 13:09:07.
