data_PCOD9211107
_publ_section_title
;
Structure prediction by ZEFSAII (Michael W. Deem and Ramdas Pophale) SiO2 
 PCOD9211107
Probable space group: C 2/M
;
_chemical_formula_sum "Si O2"
_cell_formula_units_Z 40
_cell_length_a 16.561683
_cell_length_b 25.301951
_cell_length_c 9.352396
_cell_angle_alpha 90.000000
_cell_angle_beta 150.632069
_cell_angle_gamma 90.000000
_cell_volume 1921.967504
_symmetry_space_group_name_H-M "C 2/M"
_symmetry_group_IT_number 12
_symmetry_cell_setting 'monoclinic'
loop_
_space_group_symop_operation_xyz
x,y,z
-x,y,-z
-x,-y,-z
x,-y,z
1/2+x,1/2+y,z
1/2-x,1/2+y,-z
1/2-x,1/2-y,-z
1/2+x,1/2-y,z
loop_
_atom_site_type_symbol
_atom_site_label
_atom_site_fract_x
_atom_site_fract_y
_atom_site_fract_z
Si Si1 0.371123 0.278582 0.577841
Si Si2 0.166636 0.601093 0.837149
Si Si3 0.330087 0.500000 0.150967
Si Si4 0.318845 0.000000 0.785870
Si Si5 0.242410 0.784552 0.130897
Si Si6 0.322913 0.116224 0.803874
O O1 0.250000 0.250000 0.500000
O O2 0.559527 0.281904 0.915168
O O3 0.295776 0.335464 0.418898
O O4 0.368010 0.241119 0.434585
O O5 0.000000 0.583792 0.500000
O O6 0.300662 0.554601 0.025324
O O7 0.219537 0.655382 0.846248
O O8 0.151148 0.613326 0.983868
O O9 0.500000 0.500000 0.500000
O O10 0.185927 0.500000 0.049161
O O11 0.250935 0.941512 0.645482
O O12 0.500000 0.000000 0.000000
O O13 0.250000 0.750000 0.000000
O O14 0.500000 0.123497 0.000000
#
# Coordination Sequence:
#
# PCOD9211107 Si02
#       6
#     8   8   4   4   8   8
#     4  12  26  43  63  91 128 172 218 268 322 387
#     4  11  24  41  66  98 133 171 214 266 325 386
#     4  10  23  39  70  99 131 166 215 268 320 377
#     4   8  18  37  62  91 118 166 207 252 305 377
#     4  12  25  41  65  92 128 168 214 265 325 382
#     4  10  21  39  66  94 127 168 219 260 318 388
#
# _framework density 20.812006
#
# number of rings (size 3 to 8) (size 9 to 14) (size 15 to 20)
#    0.000    1.200    2.000    3.900    8.400    0.000 
#    0.000    0.000    0.000    0.000    0.000   11.200 
#    0.000    0.000    0.000    0.000    0.000    0.000 
#
# Total GULP energy -111676.373614 kJ/mol
# GULP energy per Si atom -5583.818681 kJ/mol
# Density = 2.076464 g / cm^3
# Si number density = 20.812006 Si / 1000 Ang^3
#
#
#
# Elastic Constant Matrix: (Units=GPa)
#
#
# Indices 1 2 3 4 5 6 
#
# 1 63.6244 7.3650 3.6302 0.0000 3.6335 0.0000
# 2 7.3650 190.0696 41.4212 0.0000 5.0333 0.0000
# 3 3.6302 41.4212 97.7151 0.0000 13.4317 0.0000
# 4 0.0000 0.0000 0.0000 20.0534 0.0000 4.8079
# 5 3.6335 5.0333 13.4317 0.0000 27.8861 0.0000
# 6 0.0000 0.0000 0.0000 4.8079 0.0000 33.6070
#
#
#
# Elastic Compliance Matrix: (Units=1/GPa)
#
#
# Indices 1 2 3 4 5 6 
#
# 1 0.015896 -0.000544 -0.000095 0.000000 -0.001927 0.000000
# 2 -0.000544 0.005816 -0.002474 0.000000 0.000213 0.000000
# 3 -0.000095 -0.002474 0.012019 0.000000 -0.005330 0.000000
# 4 0.000000 0.000000 0.000000 0.051638 0.000000 -0.007387
# 5 -0.001927 0.000213 -0.005330 0.000000 0.038640 0.000000
# 6 0.000000 0.000000 0.000000 -0.007387 0.000000 0.030813
#
#
# Mechanical properties :
#
#
# Convention : Reuss Voigt Hill
#
# Bulk Modulus (GPa) = 36.35912 50.69354 43.52633
# Shear Modulus (GPa) = 29.37440 36.24214 32.80827
#
# Velocity S-wave (km/s) = 3.76096 4.17754 3.97471
# Velocity P-wave (km/s) = 6.03058 6.90506 6.48258
#
# Compressibility (1/GPa) = 0.02750342
#
# Stress axis : x y z
#
# Youngs Moduli (GPa) = 62.91005 171.94194 83.20219
#
# Poissons Ratio (x) = 0.09357 0.00790
# Poissons Ratio (y) = 0.03424 0.20588
# Poissons Ratio (z) = 0.00597 0.42545
#
# Static dielectric constant tensor:
#      x y z
#    x 1.755230 0.000000 0.004530 
#    y 0.000000 1.775570 0.000000 
#    z 0.004530 0.000000 1.706500 
# 
# From -- ./inp_files/79344.got.cif
#   From: 2010.05.17/outbox.cif.g08.bks.cpg/sg12_40_cif.got.tgz:79344.got - 2010.06.03 13:09:07.
