data_PCOD9211821
_publ_section_title
;
Structure prediction by ZEFSAII (Michael W. Deem and Ramdas Pophale) SiO2 
 PCOD9211821
Probable space group: C 2/M
;
_chemical_formula_sum "Si O2"
_cell_formula_units_Z 56
_cell_length_a 18.812719
_cell_length_b 14.005357
_cell_length_c 12.218426
_cell_angle_alpha 90.000000
_cell_angle_beta 55.903017
_cell_angle_gamma 90.000000
_cell_volume 2665.867002
_symmetry_space_group_name_H-M "C 2/M"
_symmetry_group_IT_number 12
_symmetry_cell_setting 'monoclinic'
loop_
_space_group_symop_operation_xyz
x,y,z
-x,y,-z
-x,-y,-z
x,-y,z
1/2+x,1/2+y,z
1/2-x,1/2+y,-z
1/2-x,1/2-y,-z
1/2+x,1/2-y,z
loop_
_atom_site_type_symbol
_atom_site_label
_atom_site_fract_x
_atom_site_fract_y
_atom_site_fract_z
Si Si1 0.735596 0.698702 0.181582
Si Si2 0.591122 0.389324 0.902221
Si Si3 0.125000 0.613147 0.586309
Si Si4 0.912735 0.789202 0.514237
Si Si5 0.824197 0.885724 0.392583
Si Si6 0.732253 0.394183 0.955894
Si Si7 0.093482 0.612768 0.865790
O O1 0.667118 0.690407 0.336839
O O2 0.721991 0.804100 0.140455
O O3 0.831541 0.674802 0.142060
O O4 0.721972 0.626862 0.092229
O O5 0.575092 0.500000 0.884070
O O6 0.648453 0.353496 0.752371
O O7 0.641904 0.391563 0.971180
O O8 0.500000 0.341171 0.000000
O O9 0.118037 0.500000 0.569316
O O10 0.083660 0.679345 0.529508
O O11 0.225861 0.641376 0.500933
O O12 0.089667 0.631330 0.738778
O O13 0.890856 0.845586 0.422305
O O14 0.000000 0.815790 0.500000
O O15 0.824733 0.000000 0.398432
O O16 0.770147 0.500000 0.904556
O O17 0.117872 0.500000 0.856675
O O18 0.000000 0.624424 0.000000
#
# Coordination Sequence:
#
# PCOD9211821 Si02
#       7
#     8   8   8   8   8   8   8
#     4  11  24  42  65  95 132 175 218 274 332 392
#     4   9  19  35  58  89 122 163 214 262 313 385
#     4  10  22  43  69  94 127 175 229 282 331 388
#     4  12  27  41  63  98 136 177 221 268 334 402
#     4  10  21  40  66  93 127 175 221 269 331 394
#     4  10  23  41  63  91 128 172 214 266 337 396
#     4  10  22  42  70 100 129 170 223 278 332 385
#
# _framework density 21.0063
#
# number of rings (size 3 to 8) (size 9 to 14) (size 15 to 20)
#    0.000    1.714    1.429    1.714    4.000    5.714 
#    0.000    1.429    0.000    0.000    0.000    0.000 
#    0.000    0.000    0.000    0.000    0.000    0.000 
#
# Total GULP energy -156377.646479 kJ/mol
# GULP energy per Si atom -5584.915946 kJ/mol
# Density = 2.095849 g / cm^3
# Si number density = 21.006300 Si / 1000 Ang^3
#
#
#
# Elastic Constant Matrix: (Units=GPa)
#
#
# Indices 1 2 3 4 5 6 
#
# 1 80.6026 7.4654 60.0472 0.0000 7.6178 0.0000
# 2 7.4654 86.3772 1.4060 0.0000 4.1291 0.0000
# 3 60.0472 1.4060 115.5941 0.0000 -5.9791 0.0000
# 4 0.0000 0.0000 0.0000 7.0984 0.0000 12.7817
# 5 7.6178 4.1291 -5.9791 0.0000 30.7589 0.0000
# 6 0.0000 0.0000 0.0000 12.7817 0.0000 22.5726
#
#
#
# Elastic Compliance Matrix: (Units=1/GPa)
#
#
# Indices 1 2 3 4 5 6 
#
# 1 0.022069 -0.001352 -0.011840 0.000000 -0.007586 0.000000
# 2 -0.001352 0.011741 0.000500 0.000000 -0.001144 0.000000
# 3 -0.011840 0.000500 0.015095 0.000000 0.005800 0.000000
# 4 0.000000 0.000000 0.000000 -7.182382 0.000000 4.067010
# 5 -0.007586 -0.001144 0.005800 0.000000 0.035671 0.000000
# 6 0.000000 0.000000 0.000000 4.067010 0.000000 -2.258635
#
#
# Mechanical properties :
#
#
# Convention : Reuss Voigt Hill
#
# Bulk Modulus (GPa) = 42.51420 46.71234 44.61327
# Shear Modulus (GPa) = -0.53630 26.32967 12.89669
#
# Velocity S-wave (km/s) = -0.50582 3.54421 2.48048
# Velocity P-wave (km/s) = 4.46560 6.24773 5.43027
#
# Compressibility (1/GPa) = 0.02352156
#
# Stress axis : x y z
#
# Youngs Moduli (GPa) = 45.31155 85.17511 66.24513
#
# Poissons Ratio (x) = 0.11516 0.78436
# Poissons Ratio (y) = 0.06126 -0.03315
# Poissons Ratio (z) = 0.53650 -0.04262
#
# Static dielectric constant tensor:
#      x y z
#    x 1.717040 0.000000 -0.015760 
#    y 0.000000 1.838250 0.000000 
#    z -0.015760 0.000000 1.740220 
# 
# From -- ./inp_files/156533.got.cif
#   From: 2010.05.17/outbox.cif.g08.bks.cpg/sg12_79_cif.got.tgz:156533.got - 2010.06.03 13:09:07.
