data_PCOD9211032
_publ_section_title
;
Structure prediction by ZEFSAII (Michael W. Deem and Ramdas Pophale) SiO2 
 PCOD9211032
Probable space group: C 2/M
;
_chemical_formula_sum "Si O2"
_cell_formula_units_Z 40
_cell_length_a 9.414595
_cell_length_b 10.882353
_cell_length_c 25.414082
_cell_angle_alpha 90.000000
_cell_angle_beta 135.078021
_cell_angle_gamma 90.000000
_cell_volume 1838.618754
_symmetry_space_group_name_H-M "C 2/M"
_symmetry_group_IT_number 12
_symmetry_cell_setting 'monoclinic'
loop_
_space_group_symop_operation_xyz
x,y,z
-x,y,-z
-x,-y,-z
x,-y,z
1/2+x,1/2+y,z
1/2-x,1/2+y,-z
1/2-x,1/2-y,-z
1/2+x,1/2-y,z
loop_
_atom_site_type_symbol
_atom_site_label
_atom_site_fract_x
_atom_site_fract_y
_atom_site_fract_z
Si Si1 0.800432 0.366753 0.733056
Si Si2 0.169160 0.821854 0.585956
Si Si3 0.598248 0.362039 0.968164
Si Si4 0.230519 0.638195 0.789983
Si Si5 0.902227 0.362021 0.554433
O O1 0.780385 0.500000 0.754531
O O2 0.669400 0.370426 0.644949
O O3 0.746210 0.251791 0.754457
O O4 0.027793 0.352625 0.771387
O O5 0.375280 0.854312 0.610562
O O6 0.000000 0.868071 0.500000
O O7 0.110169 0.679930 0.582096
O O8 0.690301 0.500000 0.987975
O O9 0.421038 0.353965 0.878859
O O10 0.500000 0.353201 0.000000
O O11 0.750000 0.250000 0.000000
O O12 0.234082 0.500000 0.766883
O O13 0.851132 0.500000 0.524984
O O14 0.750000 0.250000 0.500000
#
# Coordination Sequence:
#
# PCOD9211032 Si02
#       5
#     8   8   8   8   8
#     4  11  23  40  62  86 119 165 209 252 305 364
#     4  10  22  39  61  86 117 155 204 260 311 358
#     4  10  21  39  65  95 126 160 199 245 296 354
#     4  10  23  42  62  90 127 162 200 248 301 360
#     4  10  22  39  59  84 114 147 190 249 311 368
#
# _framework density 21.755462000000001
#
# number of rings (size 3 to 8) (size 9 to 14) (size 15 to 20)
#    0.000    1.800    0.000    3.000    0.000   16.800 
#    0.000    2.000    0.000    0.000    0.000    0.000 
#    0.000    0.000    0.000    0.000    0.000    0.000 
#
# Total GULP energy -111507.279202 kJ/mol
# GULP energy per Si atom -5575.363960 kJ/mol
# Density = 2.170595 g / cm^3
# Si number density = 21.755462 Si / 1000 Ang^3
#
#
#
# Elastic Constant Matrix: (Units=GPa)
#
#
# Indices 1 2 3 4 5 6 
#
# 1 62.2053 77.0345 24.7408 0.0000 -3.4392 0.0000
# 2 77.0345 245.7750 65.9685 0.0000 -3.7518 0.0000
# 3 24.7408 65.9685 92.5185 0.0000 -0.1791 0.0000
# 4 0.0000 0.0000 0.0000 14.6838 0.0000 7.9245
# 5 -3.4392 -3.7518 -0.1791 0.0000 33.2421 0.0000
# 6 0.0000 0.0000 0.0000 7.9245 0.0000 30.1180
#
#
#
# Elastic Compliance Matrix: (Units=1/GPa)
#
#
# Indices 1 2 3 4 5 6 
#
# 1 0.026540 -0.007898 -0.001462 0.000000 0.001847 0.000000
# 2 -0.007898 0.007392 -0.003159 0.000000 0.000000 0.000000
# 3 -0.001462 -0.003159 0.013451 0.000000 -0.000435 0.000000
# 4 0.000000 0.000000 0.000000 0.079373 0.000000 -0.020884
# 5 0.001847 0.000000 -0.000435 0.000000 0.030271 0.000000
# 6 0.000000 0.000000 0.000000 -0.020884 0.000000 0.038698
#
#
# Mechanical properties :
#
#
# Convention : Reuss Voigt Hill
#
# Bulk Modulus (GPa) = 44.75151 81.77627 63.26389
# Shear Modulus (GPa) = 21.90950 31.12578 26.51764
#
# Velocity S-wave (km/s) = 3.17690 3.78658 3.49506
# Velocity P-wave (km/s) = 5.83710 7.53578 6.74017
#
# Compressibility (1/GPa) = 0.02234562
#
# Stress axis : x y z
#
# Youngs Moduli (GPa) = 37.67866 135.27928 74.34330
#
# Poissons Ratio (x) = 1.06843 0.10870
# Poissons Ratio (y) = 0.29759 0.23483
# Poissons Ratio (z) = 0.05509 0.42732
#
# Static dielectric constant tensor:
#      x y z
#    x 1.874290 0.000000 0.022620 
#    y 0.000000 1.830390 0.000000 
#    z 0.022620 0.000000 1.865180 
# 
# From -- ./inp_files/373499.got.cif
#   From: 2010.05.17/outbox.cif.g08.bks.cpg/sg12_187_cif.got.tgz:373499.got - 2010.06.03 13:09:07.
