data_PCOD9211706
_publ_section_title
;
Structure prediction by ZEFSAII (Michael W. Deem and Ramdas Pophale) SiO2 
 PCOD9211706
Probable space group: C 2/M
;
_chemical_formula_sum "Si O2"
_cell_formula_units_Z 48
_cell_length_a 14.185546
_cell_length_b 29.999472
_cell_length_c 5.349059
_cell_angle_alpha 90.000000
_cell_angle_beta 79.941217
_cell_angle_gamma 90.000000
_cell_volume 2241.350175
_symmetry_space_group_name_H-M "C 2/M"
_symmetry_group_IT_number 12
_symmetry_cell_setting 'monoclinic'
loop_
_space_group_symop_operation_xyz
x,y,z
-x,y,-z
-x,-y,-z
x,-y,z
1/2+x,1/2+y,z
1/2-x,1/2+y,-z
1/2-x,1/2-y,-z
1/2+x,1/2-y,z
loop_
_atom_site_type_symbol
_atom_site_label
_atom_site_fract_x
_atom_site_fract_y
_atom_site_fract_z
Si Si1 0.401109 0.000000 0.253148
Si Si2 0.405294 0.340711 0.135053
Si Si3 0.721202 0.000000 0.190254
Si Si4 0.400400 0.097850 0.319554
Si Si5 0.000000 0.786457 0.500000
Si Si6 0.772823 0.597075 0.875472
Si Si7 0.637550 0.752890 0.099140
Si Si8 0.000000 0.671321 0.000000
O O1 0.447519 0.048474 0.274150
O O2 0.319853 0.000000 0.508455
O O3 0.360504 0.000000 0.989542
O O4 0.430346 0.322314 0.394457
O O5 0.308969 0.366755 0.131051
O O6 0.500000 0.366375 0.000000
O O7 0.402112 0.294146 0.985007
O O8 0.771105 0.952782 0.122960
O O9 0.345643 0.100723 0.607616
O O10 0.473454 0.137631 0.234624
O O11 0.325721 0.101139 0.118786
O O12 0.084724 0.750721 0.389147
O O13 0.750000 0.750000 0.000000
O O14 0.590055 0.796042 0.998137
#
# Coordination Sequence:
#
# PCOD9211706 Si02
#       8
#     4   8   4   8   4   8   8   4
#     4   8  16  37  58  86 124 160 199 239 324 364
#     4  10  22  39  58  85 117 163 209 258 315 380
#     4   8  16  34  61  90 120 156 203 259 293 392
#     4  10  23  38  63  93 124 164 203 262 300 384
#     4  10  22  42  62  83 118 169 212 260 320 388
#     4  10  21  40  65  91 123 165 210 248 328 365
#     4  11  24  42  61  86 124 165 211 268 324 366
#     4  12  24  41  58  98 128 155 228 260 304 382
#
# _framework density 21.415659999999999
#
# number of rings (size 3 to 8) (size 9 to 14) (size 15 to 20)
#    0.000    2.000    2.500    1.000    7.000    4.333 
#    0.000    0.417    0.000    6.500    0.000    0.000 
#    0.000    0.000    0.000    0.000    0.000    0.000 
#
# Total GULP energy -133623.012517 kJ/mol
# GULP energy per Si atom -5567.625522 kJ/mol
# Density = 2.136692 g / cm^3
# Si number density = 21.415660 Si / 1000 Ang^3
#
#
#
# Elastic Constant Matrix: (Units=GPa)
#
#
# Indices 1 2 3 4 5 6 
#
# 1 126.6805 47.9253 26.7052 0.0000 -12.1039 0.0000
# 2 47.9253 141.6350 0.2050 0.0000 -9.7600 0.0000
# 3 26.7052 0.2050 59.3346 0.0000 8.3608 0.0000
# 4 0.0000 0.0000 0.0000 143.2692 0.0000 8.8799
# 5 -12.1039 -9.7600 8.3608 0.0000 29.7239 0.0000
# 6 0.0000 0.0000 0.0000 8.8799 0.0000 0.3628
#
#
#
# Elastic Compliance Matrix: (Units=1/GPa)
#
#
# Indices 1 2 3 4 5 6 
#
# 1 0.010771 -0.003302 -0.005520 0.000000 0.004854 0.000000
# 2 -0.003302 0.008244 0.001318 0.000000 0.000992 0.000000
# 3 -0.005520 0.001318 0.020398 0.000000 -0.007553 0.000000
# 4 0.000000 0.000000 0.000000 -0.013504 0.000000 0.330481
# 5 0.004854 0.000992 -0.007553 0.000000 0.038070 0.000000
# 6 0.000000 0.000000 0.000000 0.330481 0.000000 -5.331994
#
#
# Mechanical properties :
#
#
# Convention : Reuss Voigt Hill
#
# Bulk Modulus (GPa) = 40.97695 53.03568 47.00632
# Shear Modulus (GPa) = -0.95331 51.52549 25.28609
#
# Velocity S-wave (km/s) = -0.66792 4.91039 3.43990
# Velocity P-wave (km/s) = 4.31055 7.54771 6.14609
#
# Compressibility (1/GPa) = 0.02440396
#
# Stress axis : x y z
#
# Youngs Moduli (GPa) = 92.84541 121.29849 49.02486
#
# Poissons Ratio (x) = 0.40052 0.27063
# Poissons Ratio (y) = 0.30657 -0.06461
# Poissons Ratio (z) = 0.51253 -0.15986
#
# Static dielectric constant tensor:
#      x y z
#    x 1.684580 0.000000 0.233280 
#    y 0.000000 1.776860 0.000000 
#    z 0.233280 0.000000 0.921010 
# 
# From -- ./inp_files/12879.got.cif
#   From: 2010.05.17/outbox.cif.g08.bks.cpg/sg12_7_cif.got.tgz:12879.got - 2010.06.03 13:09:07.
