data_PCOD9211731
_publ_section_title
;
Structure prediction by ZEFSAII (Michael W. Deem and Ramdas Pophale) SiO2 
 PCOD9211731
Probable space group: C 2/M
;
_chemical_formula_sum "Si O2"
_cell_formula_units_Z 42
_cell_length_a 14.932580
_cell_length_b 7.389860
_cell_length_c 16.814635
_cell_angle_alpha 90.000000
_cell_angle_beta 59.321357
_cell_angle_gamma 90.000000
_cell_volume 1595.799875
_symmetry_space_group_name_H-M "C 2/M"
_symmetry_group_IT_number 12
_symmetry_cell_setting 'monoclinic'
loop_
_space_group_symop_operation_xyz
x,y,z
-x,y,-z
-x,-y,-z
x,-y,z
1/2+x,1/2+y,z
1/2-x,1/2+y,-z
1/2-x,1/2-y,-z
1/2+x,1/2-y,z
loop_
_atom_site_type_symbol
_atom_site_label
_atom_site_fract_x
_atom_site_fract_y
_atom_site_fract_z
Si Si1 0.443493 0.218883 0.705932
Si Si2 0.906910 0.788338 0.138033
Si Si3 0.113925 0.208791 0.437718
Si Si4 0.000000 0.500000 0.000000
Si Si5 0.724501 0.785074 0.102400
Si Si6 0.836460 0.282156 0.350268
O O1 0.376456 0.285306 0.662280
O O2 0.385676 0.280095 0.812396
O O3 0.563199 0.280174 0.645674
O O4 0.445121 0.000000 0.703221
O O5 0.815700 0.718229 0.119687
O O6 0.867841 0.763252 0.245433
O O7 0.928065 0.000000 0.115306
O O8 0.999819 0.658701 0.070035
O O9 0.221219 0.289553 0.421931
O O10 0.000000 0.295281 0.500000
O O11 0.107304 0.000000 0.466095
O O12 0.724514 0.000000 0.113101
O O13 0.750000 0.750000 0.000000
O O14 0.830579 0.500000 0.358468
#
# Coordination Sequence:
#
# PCOD9211731 Si02
#       6
#     8   8   8   2   8   8
#     4  10  22  40  63  92 126 169 220 272 333 398
#     4  11  24  41  63  95 130 173 229 276 328 400
#     4  10  22  41  65  94 130 172 220 275 338 405
#     4  12  26  40  64  86 130 180 214 280 330 386
#     4  10  23  38  59  90 128 168 221 275 327 399
#     4  10  21  40  65  92 129 175 216 271 339 399
#
# _framework density 26.319089000000002
#
# number of rings (size 3 to 8) (size 9 to 14) (size 15 to 20)
#    0.000    1.714    2.857    0.286    4.000    2.667 
#    0.000    0.000    0.000    0.000    0.000    0.000 
#    0.000    0.000    0.000    0.000    0.000    0.000 
#
# Total GULP energy -117308.488443 kJ/mol
# GULP energy per Si atom -5586.118497 kJ/mol
# Density = 2.625919 g / cm^3
# Si number density = 26.319089 Si / 1000 Ang^3
#
#
#
# Elastic Constant Matrix: (Units=GPa)
#
#
# Indices 1 2 3 4 5 6 
#
# 1 137.1375 12.8226 27.1899 0.0000 -15.8552 0.0000
# 2 12.8226 140.3260 10.8447 0.0001 -12.8638 0.0001
# 3 27.1899 10.8447 102.0610 0.0000 -16.0652 0.0000
# 4 0.0000 0.0001 0.0000 18.2515 0.0000 10.4280
# 5 -15.8552 -12.8638 -16.0652 0.0000 51.6016 0.0000
# 6 0.0000 0.0001 0.0000 10.4280 0.0000 -7.1100
#
#
#
# Elastic Compliance Matrix: (Units=1/GPa)
#
#
# Indices 1 2 3 4 5 6 
#
# 1 0.007888 -0.000422 -0.001779 0.000000 0.001765 0.000000
# 2 -0.000422 0.007341 -0.000421 0.000000 0.001570 0.000000
# 3 -0.001779 -0.000421 0.010740 0.000000 0.002692 0.000000
# 4 0.000000 0.000000 0.000000 0.029810 0.000000 0.043721
# 5 0.001765 0.001570 0.002692 0.000000 0.021151 0.000000
# 6 0.000000 0.000000 0.000000 0.043721 0.000000 -0.076522
#
#
# Mechanical properties :
#
#
# Convention : Reuss Voigt Hill
#
# Bulk Modulus (GPa) = 48.24491 53.47099 50.85795
# Shear Modulus (GPa) = 398.09961 34.45977 216.27969
#
# Velocity S-wave (km/s) = 12.31208 3.62236 9.07493
# Velocity P-wave (km/s) = 14.84880 6.15271 11.36536
#
# Compressibility (1/GPa) = 0.02072757
#
# Stress axis : x y z
#
# Youngs Moduli (GPa) = 126.77329 136.21795 93.10573
#
# Poissons Ratio (x) = 0.05742 0.16562
# Poissons Ratio (y) = 0.05344 0.03917
# Poissons Ratio (z) = 0.22551 0.05730
#
# Static dielectric constant tensor:
#      x y z
#    x 2.231280 0.000000 -0.076890 
#    y 0.000000 1.971150 0.000000 
#    z -0.076890 0.000000 2.133410 
# 
# From -- ./inp_files/220677.got.cif
#   From: 2010.05.17/outbox.cif.g08.bks.cpg/sg12_111_cif.got.tgz:220677.got - 2010.06.03 13:09:07.
