data_PCOD9211630
_publ_section_title
;
Structure prediction by ZEFSAII (Michael W. Deem and Ramdas Pophale) SiO2 
 PCOD9211630
Probable space group: C 2/M
;
_chemical_formula_sum "Si O2"
_cell_formula_units_Z 42
_cell_length_a 24.556900
_cell_length_b 12.968496
_cell_length_c 18.984629
_cell_angle_alpha 90.000000
_cell_angle_beta 160.841087
_cell_angle_gamma 90.000000
_cell_volume 1984.219658
_symmetry_space_group_name_H-M "C 2/M"
_symmetry_group_IT_number 12
_symmetry_cell_setting 'monoclinic'
loop_
_space_group_symop_operation_xyz
x,y,z
-x,y,-z
-x,-y,-z
x,-y,z
1/2+x,1/2+y,z
1/2-x,1/2+y,-z
1/2-x,1/2-y,-z
1/2+x,1/2-y,z
loop_
_atom_site_type_symbol
_atom_site_label
_atom_site_fract_x
_atom_site_fract_y
_atom_site_fract_z
Si Si1 0.110356 0.196272 0.043306
Si Si2 0.000000 0.000000 0.000000
Si Si3 0.738998 0.784891 0.066882
Si Si4 0.112116 0.219981 0.515763
Si Si5 0.357663 0.114979 0.725927
Si Si6 0.086731 0.386342 0.359740
O O1 0.162515 0.198341 0.025019
O O2 0.274653 0.229743 0.286232
O O3 0.979979 0.290457 0.892327
O O4 0.039848 0.091950 0.989740
O O5 0.928683 0.806835 0.318106
O O6 0.750000 0.750000 0.000000
O O7 0.602425 0.875159 0.899771
O O8 0.205973 0.125454 0.594022
O O9 0.107629 0.303605 0.446282
O O10 0.307121 0.128150 0.581736
O O11 0.431230 0.000000 0.821717
O O12 0.119651 0.500000 0.429122
#
# Coordination Sequence:
#
# PCOD9211630 Si02
#       6
#     8   2   8   8   8   8
#     4  11  23  41  64  96 134 170 218 272 333 400
#     4  12  24  44  64 104 136 180 216 266 346 400
#     4   9  21  42  61  85 130 170 217 265 319 391
#     4  11  20  36  61  94 127 161 213 272 329 394
#     4  10  21  40  64  92 125 174 223 275 327 383
#     4   9  20  37  61  86 126 172 215 269 324 387
#
# _framework density 21.167010999999999
#
# number of rings (size 3 to 8) (size 9 to 14) (size 15 to 20)
#    0.000    1.905    1.905    1.143    1.333    2.286 
#    6.857    0.952    0.000    5.714    0.000    0.000 
#    0.000    0.000    0.000    0.000    0.000    0.000 
#
# Total GULP energy -116901.127709 kJ/mol
# GULP energy per Si atom -5566.720367 kJ/mol
# Density = 2.111883 g / cm^3
# Si number density = 21.167011 Si / 1000 Ang^3
#
#
#
# Elastic Constant Matrix: (Units=GPa)
#
#
# Indices 1 2 3 4 5 6 
#
# 1 139.9513 43.6567 10.9858 0.0001 6.7129 0.0000
# 2 43.6567 131.4235 24.7008 -0.0004 1.5963 -0.0003
# 3 10.9858 24.7008 56.2593 0.0000 6.0572 0.0000
# 4 0.0001 -0.0004 0.0000 10.4711 -0.0002 -3.8961
# 5 6.7129 1.5963 6.0572 -0.0002 31.6545 -0.0002
# 6 0.0000 -0.0003 0.0000 -3.8961 -0.0002 26.3210
#
#
#
# Elastic Compliance Matrix: (Units=1/GPa)
#
#
# Indices 1 2 3 4 5 6 
#
# 1 0.008052 -0.002607 -0.000264 0.000000 -0.001526 0.000000
# 2 -0.002607 0.009140 -0.003588 0.000000 0.000778 0.000000
# 3 -0.000264 -0.003588 0.019784 0.000000 -0.003549 0.000000
# 4 0.000000 0.000000 0.000000 0.101067 0.000001 0.014960
# 5 -0.001526 0.000778 -0.003549 0.000001 0.032554 0.000000
# 6 0.000000 0.000000 0.000000 0.014960 0.000000 0.040207
#
#
# Mechanical properties :
#
#
# Convention : Reuss Voigt Hill
#
# Bulk Modulus (GPa) = 41.56335 54.03566 47.79951
# Shear Modulus (GPa) = 21.57587 30.24203 25.90895
#
# Velocity S-wave (km/s) = 3.19614 3.78396 3.50240
# Velocity P-wave (km/s) = 5.77052 6.68392 6.24395
#
# Compressibility (1/GPa) = 0.02405966
#
# Stress axis : x y z
#
# Youngs Moduli (GPa) = 124.18673 109.41210 50.54703
#
# Poissons Ratio (x) = 0.28522 0.01332
# Poissons Ratio (y) = 0.32373 0.18134
# Poissons Ratio (z) = 0.03274 0.39253
#
# Static dielectric constant tensor:
#      x y z
#    x 1.808720 0.000000 -0.004930 
#    y 0.000000 1.711390 0.000000 
#    z -0.004930 0.000000 1.861710 
# 
# From -- ./inp_files/327884.got.cif
#   From: 2010.05.17/outbox.cif.g08.bks.cpg/sg12_164_cif.got.tgz:327884.got - 2010.06.03 13:09:07.
