data_PCOD9211385
_publ_section_title
;
Structure prediction by ZEFSAII (Michael W. Deem and Ramdas Pophale) SiO2 
 PCOD9211385
Probable space group: C 2/M
;
_chemical_formula_sum "Si O2"
_cell_formula_units_Z 56
_cell_length_a 28.492223
_cell_length_b 8.925322
_cell_length_c 11.870064
_cell_angle_alpha 90.000000
_cell_angle_beta 73.349248
_cell_angle_gamma 90.000000
_cell_volume 2892.012325
_symmetry_space_group_name_H-M "C 2/M"
_symmetry_group_IT_number 12
_symmetry_cell_setting 'monoclinic'
loop_
_space_group_symop_operation_xyz
x,y,z
-x,y,-z
-x,-y,-z
x,-y,z
1/2+x,1/2+y,z
1/2-x,1/2+y,-z
1/2-x,1/2-y,-z
1/2+x,1/2-y,z
loop_
_atom_site_type_symbol
_atom_site_label
_atom_site_fract_x
_atom_site_fract_y
_atom_site_fract_z
Si Si1 0.713451 0.822119 0.615427
Si Si2 0.557785 0.821291 0.473279
Si Si3 0.486868 0.320091 0.137451
Si Si4 0.673879 0.324833 0.080511
Si Si5 0.753393 0.174784 0.178881
Si Si6 0.424041 0.178475 0.794450
Si Si7 0.106945 0.821147 0.657779
O O1 0.750000 0.750000 0.500000
O O2 0.733058 0.773011 0.723734
O O3 0.658797 0.758271 0.637874
O O4 0.713057 0.000000 0.603469
O O5 0.500000 0.788143 0.500000
O O6 0.580782 0.788046 0.335358
O O7 0.582252 0.732094 0.558060
O O8 0.562419 0.000000 0.492011
O O9 0.493083 0.500000 0.143887
O O10 0.524647 0.238795 0.194315
O O11 0.431847 0.284629 0.215968
O O12 0.500000 0.278913 0.000000
O O13 0.672443 0.500000 0.111725
O O14 0.704384 0.232828 0.152194
O O15 0.619810 0.258909 0.110305
O O16 0.703747 0.311465 0.943735
O O17 0.748643 0.000000 0.213283
O O18 0.421812 0.000000 0.809786
O O19 0.114008 0.000000 0.651764
#
# Coordination Sequence:
#
# PCOD9211385 Si02
#       7
#     8   8   8   8   8   8   8
#     4  12  27  46  68  93 127 167 213 264 319 380
#     4  10  21  40  62  87 124 163 204 254 308 363
#     4  10  23  42  63  91 129 170 211 258 316 380
#     4  10  22  40  65  94 127 165 206 259 317 375
#     4  10  22  43  67  92 125 163 209 261 318 377
#     4  11  23  38  62  93 125 163 210 261 312 372
#     4  11  24  42  66  94 126 166 213 262 316 378
#
# _framework density 19.363679999999999
#
# number of rings (size 3 to 8) (size 9 to 14) (size 15 to 20)
#    0.000    1.429    1.429    3.000    4.000    4.000 
#    0.000    0.000    0.000    0.000    0.000    0.000 
#    0.000    0.000    0.000    0.000    0.000    0.000 
#
# Total GULP energy -156569.624905 kJ/mol
# GULP energy per Si atom -5591.772318 kJ/mol
# Density = 1.931961 g / cm^3
# Si number density = 19.363680 Si / 1000 Ang^3
#
#
#
# Elastic Constant Matrix: (Units=GPa)
#
#
# Indices 1 2 3 4 5 6 
#
# 1 93.2383 54.2289 48.5980 0.0000 -19.2215 0.0000
# 2 54.2289 99.4087 57.7434 0.0000 -10.5226 0.0000
# 3 48.5980 57.7434 80.7232 0.0000 -1.7431 0.0000
# 4 0.0000 0.0000 0.0000 29.5461 0.0000 2.9554
# 5 -19.2215 -10.5226 -1.7431 0.0000 30.8127 0.0000
# 6 0.0000 0.0000 0.0000 2.9554 0.0000 37.6519
#
#
#
# Elastic Compliance Matrix: (Units=1/GPa)
#
#
# Indices 1 2 3 4 5 6 
#
# 1 0.020116 -0.005088 -0.008248 0.000000 0.010344 0.000000
# 2 -0.005088 0.019367 -0.010730 0.000000 0.002833 0.000000
# 3 -0.008248 -0.010730 0.024869 0.000000 -0.007402 0.000000
# 4 0.000000 0.000000 0.000000 0.034113 0.000000 -0.002678
# 5 0.010344 0.002833 -0.007402 0.000000 0.039456 0.000000
# 6 0.000000 0.000000 0.000000 -0.002678 0.000000 0.026769
#
#
# Mechanical properties :
#
#
# Convention : Reuss Voigt Hill
#
# Bulk Modulus (GPa) = 61.64597 66.05677 63.85137
# Shear Modulus (GPa) = 22.91180 27.12213 25.01697
#
# Velocity S-wave (km/s) = 3.44355 3.74661 3.59827
# Velocity P-wave (km/s) = 6.90766 7.27351 7.09294
#
# Compressibility (1/GPa) = 0.01622166
#
# Stress axis : x y z
#
# Youngs Moduli (GPa) = 49.71249 51.63298 40.21084
#
# Poissons Ratio (x) = 0.26269 0.33164
# Poissons Ratio (y) = 0.25292 0.43146
# Poissons Ratio (z) = 0.41001 0.55402
#
# Static dielectric constant tensor:
#      x y z
#    x 1.641690 0.000000 -0.017070 
#    y 0.000000 1.642480 0.000000 
#    z -0.017070 0.000000 1.676420 
# 
# From -- ./inp_files/180859.got.cif
#   From: 2010.05.17/outbox.cif.g08.bks.cpg/sg12_91_cif.got.tgz:180859.got - 2010.06.03 13:09:07.
