data_PCOD9211391
_publ_section_title
;
Structure prediction by ZEFSAII (Michael W. Deem and Ramdas Pophale) SiO2 
 PCOD9211391
Probable space group: C 2/M
;
_chemical_formula_sum "Si O2"
_cell_formula_units_Z 56
_cell_length_a 27.107487
_cell_length_b 17.847434
_cell_length_c 9.663806
_cell_angle_alpha 90.000000
_cell_angle_beta 39.232580
_cell_angle_gamma 90.000000
_cell_volume 2957.011933
_symmetry_space_group_name_H-M "C 2/M"
_symmetry_group_IT_number 12
_symmetry_cell_setting 'monoclinic'
loop_
_space_group_symop_operation_xyz
x,y,z
-x,y,-z
-x,-y,-z
x,-y,z
1/2+x,1/2+y,z
1/2-x,1/2+y,-z
1/2-x,1/2-y,-z
1/2+x,1/2-y,z
loop_
_atom_site_type_symbol
_atom_site_label
_atom_site_fract_x
_atom_site_fract_y
_atom_site_fract_z
Si Si1 0.837535 0.409599 0.532757
Si Si2 0.547253 0.693097 0.254463
Si Si3 0.496708 0.830031 0.845165
Si Si4 0.833415 0.410505 0.220024
Si Si5 0.305173 0.590357 0.676629
Si Si6 0.281909 0.676319 0.007030
Si Si7 0.526678 0.410229 0.791758
O O1 0.834861 0.500000 0.562165
O O2 0.925833 0.378216 0.355463
O O3 0.814665 0.394985 0.421823
O O4 0.780532 0.363635 0.757186
O O5 0.500000 0.691085 0.500000
O O6 0.513712 0.760383 0.234041
O O7 0.638829 0.697944 0.086065
O O8 0.529978 0.619063 0.203649
O O9 0.500000 0.807111 0.000000
O O10 0.418128 0.878408 0.002180
O O11 0.836958 0.500000 0.199497
O O12 0.767336 0.382437 0.258543
O O13 0.304204 0.500000 0.677816
O O14 0.301315 0.619261 0.840612
O O15 0.386160 0.616111 0.432860
O O16 0.250000 0.750000 0.000000
O O17 0.527065 0.500000 0.792203
O O18 0.500000 0.383640 0.000000
#
# Coordination Sequence:
#
# PCOD9211391 Si02
#       7
#     8   8   8   8   8   8   8
#     4  10  22  40  66  95 122 158 206 257 305 364
#     4  12  24  41  61  88 124 164 205 247 300 367
#     4  10  21  41  63  92 124 159 202 250 309 367
#     4   9  19  38  65  93 121 155 198 254 310 361
#     4  10  21  40  62  88 122 157 198 249 304 360
#     4  12  25  41  59  88 128 164 202 249 301 362
#     4  10  23  41  63  89 118 156 202 253 303 358
#
# _framework density 18.938036
#
# number of rings (size 3 to 8) (size 9 to 14) (size 15 to 20)
#    0.000    1.571    1.429    3.000    2.000    3.143 
#    0.000    2.143    0.000    4.286    0.000    0.000 
#    0.000    0.000    0.000    0.000    0.000    0.000 
#
# Total GULP energy -156396.116454 kJ/mol
# GULP energy per Si atom -5585.575588 kJ/mol
# Density = 1.889493 g / cm^3
# Si number density = 18.938036 Si / 1000 Ang^3
#
#
#
# Elastic Constant Matrix: (Units=GPa)
#
#
# Indices 1 2 3 4 5 6 
#
# 1 107.8046 22.8372 25.1017 0.0000 -10.8071 0.0000
# 2 22.8372 43.6299 33.0633 0.0000 0.5799 0.0000
# 3 25.1017 33.0633 114.1839 0.0000 6.5480 0.0000
# 4 0.0000 0.0000 0.0000 9.9994 0.0000 -1.2070
# 5 -10.8071 0.5799 6.5480 0.0000 29.0941 0.0000
# 6 0.0000 0.0000 0.0000 -1.2070 0.0000 35.9379
#
#
#
# Elastic Compliance Matrix: (Units=1/GPa)
#
#
# Indices 1 2 3 4 5 6 
#
# 1 0.011057 -0.004881 -0.001275 0.000000 0.004491 0.000000
# 2 -0.004881 0.031570 -0.008032 0.000000 -0.000635 0.000000
# 3 -0.001275 -0.008032 0.011531 0.000000 -0.002909 0.000000
# 4 0.000000 0.000000 0.000000 0.100413 0.000000 0.003372
# 5 0.004491 -0.000635 -0.002909 0.000000 0.036707 0.000000
# 6 0.000000 0.000000 0.000000 0.003372 0.000000 0.027939
#
#
# Mechanical properties :
#
#
# Convention : Reuss Voigt Hill
#
# Bulk Modulus (GPa) = 38.78719 47.51364 43.15042
# Shear Modulus (GPa) = 19.51699 27.31404 23.41551
#
# Velocity S-wave (km/s) = 3.21373 3.80186 3.52010
# Velocity P-wave (km/s) = 5.85631 6.66451 6.27344
#
# Compressibility (1/GPa) = 0.02578171
#
# Stress axis : x y z
#
# Youngs Moduli (GPa) = 90.43890 31.67531 86.72534
#
# Poissons Ratio (x) = 0.15461 0.11057
# Poissons Ratio (y) = 0.44145 0.69659
# Poissons Ratio (z) = 0.11530 0.25442
#
# Static dielectric constant tensor:
#      x y z
#    x 1.640490 0.000000 -0.002890 
#    y 0.000000 1.665030 0.000000 
#    z -0.002890 0.000000 1.633810 
# 
# From -- ./inp_files/64059.got.cif
#   From: 2010.05.17/outbox.cif.g08.bks.cpg/sg12_33_cif.got.tgz:64059.got - 2010.06.03 13:09:07.
