data_PCOD9211996
_publ_section_title
;
Structure prediction by ZEFSAII (Michael W. Deem and Ramdas Pophale) SiO2 
 PCOD9211996
Probable space group: C 2/M
;
_chemical_formula_sum "Si O2"
_cell_formula_units_Z 34
_cell_length_a 9.163803
_cell_length_b 14.437336
_cell_length_c 20.559544
_cell_angle_alpha 90.000000
_cell_angle_beta 148.674976
_cell_angle_gamma 90.000000
_cell_volume 1414.130953
_symmetry_space_group_name_H-M "C 2/M"
_symmetry_group_IT_number 12
_symmetry_cell_setting 'monoclinic'
loop_
_space_group_symop_operation_xyz
x,y,z
-x,y,-z
-x,-y,-z
x,-y,z
1/2+x,1/2+y,z
1/2-x,1/2+y,-z
1/2-x,1/2-y,-z
1/2+x,1/2-y,z
loop_
_atom_site_type_symbol
_atom_site_label
_atom_site_fract_x
_atom_site_fract_y
_atom_site_fract_z
Si Si1 0.831704 0.393422 0.634063
Si Si2 0.000000 0.000000 0.000000
Si Si3 0.253713 0.646397 0.131411
Si Si4 0.931089 0.332972 0.140172
Si Si5 0.101336 0.606881 0.607027
O O1 0.500000 0.396351 0.500000
O O2 0.941738 0.500000 0.682666
O O3 0.912334 0.345551 0.731296
O O4 0.969867 0.350829 0.622234
O O5 0.789653 0.917197 0.948759
O O6 0.290705 0.733587 0.096697
O O7 0.564562 0.605872 0.257735
O O8 0.146740 0.667459 0.163125
O O9 0.000000 0.593334 0.000000
O O10 0.994747 0.500000 0.565657
O O11 0.000000 0.649404 0.500000
#
# Coordination Sequence:
#
# PCOD9211996 Si02
#       5
#     8   2   8   8   8
#     4  10  21  40  69  98 135 183 234 285 343 413
#     4  12  28  44  76  96 142 188 236 276 348 428
#     4  12  27  44  71 102 144 180 232 293 351 411
#     4  12  26  46  70 102 141 184 234 285 354 415
#     4  10  23  43  69 105 145 185 235 290 350 417
#
# _framework density 24.043035
#
# number of rings (size 3 to 8) (size 9 to 14) (size 15 to 20)
#    0.000    0.941    2.353    3.529    4.941    3.294 
#    0.000    4.706    0.000    0.000    0.000    0.000 
#    0.000    0.000    0.000    0.000    0.000    0.000 
#
# Total GULP energy -94840.820933 kJ/mol
# GULP energy per Si atom -5578.871820 kJ/mol
# Density = 2.398831 g / cm^3
# Si number density = 24.043035 Si / 1000 Ang^3
#
#
#
# Elastic Constant Matrix: (Units=GPa)
#
#
# Indices 1 2 3 4 5 6 
#
# 1 223.5760 2.7136 49.6178 0.0000 -2.0038 -0.0004
# 2 2.7136 89.9412 -10.8286 0.0000 5.7459 -0.0007
# 3 49.6178 -10.8286 108.4112 0.0002 -10.0275 -0.0011
# 4 0.0000 0.0000 0.0002 27.2488 -0.0002 -6.3591
# 5 -2.0038 5.7459 -10.0275 -0.0002 45.4213 -0.0006
# 6 -0.0004 -0.0007 -0.0011 -6.3591 -0.0006 -47.7626
#
#
#
# Elastic Compliance Matrix: (Units=1/GPa)
#
#
# Indices 1 2 3 4 5 6 
#
# 1 0.004998 -0.000418 -0.002352 0.000000 -0.000246 0.000000
# 2 -0.000418 0.011353 0.001216 0.000000 -0.001186 0.000000
# 3 -0.002352 0.001216 0.010615 0.000000 0.002086 0.000000
# 4 0.000000 0.000000 0.000000 0.035593 0.000000 -0.004739
# 5 -0.000246 -0.001186 0.002086 0.000000 0.022616 0.000000
# 6 0.000000 0.000000 0.000000 -0.004739 0.000000 -0.020306
#
#
# Mechanical properties :
#
#
# Convention : Reuss Voigt Hill
#
# Bulk Modulus (GPa) = 41.91657 56.10378 49.01018
# Shear Modulus (GPa) = 65.85067 30.34321 48.09694
#
# Velocity S-wave (km/s) = 5.23910 3.55637 4.47749
# Velocity P-wave (km/s) = 7.35318 6.34422 6.86726
#
# Compressibility (1/GPa) = 0.02385692
#
# Stress axis : x y z
#
# Youngs Moduli (GPa) = 200.09782 88.08130 94.20738
#
# Poissons Ratio (x) = 0.03684 0.22156
# Poissons Ratio (y) = 0.08369 -0.11453
# Poissons Ratio (z) = 0.47059 -0.10708
#
# Static dielectric constant tensor:
#      x y z
#    x 1.884810 0.000000 -0.033240 
#    y 0.000000 1.975910 0.000000 
#    z -0.033240 0.000000 1.929660 
# 
# From -- ./inp_files/195749.got.cif
#   From: 2010.05.17/outbox.cif.g08.bks.cpg/sg12_98_cif.got.tgz:195749.got - 2010.06.03 13:09:07.
