data_PCOD9211194
_publ_section_title
;
Structure prediction by ZEFSAII (Michael W. Deem and Ramdas Pophale) SiO2 
 PCOD9211194
Probable space group: C 2/M
;
_chemical_formula_sum "Si O2"
_cell_formula_units_Z 64
_cell_length_a 23.841233
_cell_length_b 18.199540
_cell_length_c 9.211546
_cell_angle_alpha 90.000000
_cell_angle_beta 124.695840
_cell_angle_gamma 90.000000
_cell_volume 3286.180347
_symmetry_space_group_name_H-M "C 2/M"
_symmetry_group_IT_number 12
_symmetry_cell_setting 'monoclinic'
loop_
_space_group_symop_operation_xyz
x,y,z
-x,y,-z
-x,-y,-z
x,-y,z
1/2+x,1/2+y,z
1/2-x,1/2+y,-z
1/2-x,1/2-y,-z
1/2+x,1/2-y,z
loop_
_atom_site_type_symbol
_atom_site_label
_atom_site_fract_x
_atom_site_fract_y
_atom_site_fract_z
Si Si1 0.300620 0.583917 0.090550
Si Si2 0.920071 0.337691 0.213224
Si Si3 0.324846 0.083876 0.876928
Si Si4 0.429201 0.373793 0.473999
Si Si5 0.367418 0.306956 0.991084
Si Si6 0.323130 0.781769 0.653965
Si Si7 0.423243 0.798191 0.530917
Si Si8 0.510044 0.418686 0.843512
O O1 0.299911 0.500000 0.036062
O O2 0.234706 0.596060 0.092592
O O3 0.365387 0.595493 0.292904
O O4 0.308536 0.642506 0.972898
O O5 0.906623 0.347262 0.364809
O O6 0.000037 0.320024 0.310269
O O7 0.894098 0.401024 0.068831
O O8 0.877925 0.266139 0.100238
O O9 0.316945 0.143769 0.739009
O O10 0.321064 0.000000 0.819521
O O11 0.500000 0.394670 0.500000
O O12 0.425126 0.285835 0.476717
O O13 0.440730 0.403220 0.653603
O O14 0.355969 0.278919 0.811014
O O15 0.435321 0.355744 0.108235
O O16 0.250000 0.750000 0.500000
O O17 0.370674 0.798314 0.585734
O O18 0.535406 0.500000 0.839182
O O19 0.500000 0.417955 0.000000
#
# Coordination Sequence:
#
# PCOD9211194 Si02
#       8
#     8   8   8   8   8   8   8   8
#     4  11  22  37  61  89 122 170 215 254 304 371
#     4  10  21  39  68  91 118 157 208 260 303 363
#     4  10  25  46  64  88 123 164 208 257 319 377
#     4  12  19  35  59  89 128 160 206 258 295 362
#     4  11  21  36  58  87 121 162 207 255 293 371
#     4  11  26  40  65  95 127 161 202 257 320 379
#     4  11  19  39  63  99 121 153 206 259 316 361
#     4  11  22  33  49  83 128 167 201 244 301 365
#
# _framework density 19.475498999999999
#
# number of rings (size 3 to 8) (size 9 to 14) (size 15 to 20)
#    0.000    1.125    5.000    2.250    1.750    3.000 
#    0.000    5.625    0.000    0.000    0.000    0.000 
#    0.000    0.000    0.000    0.000    0.000    0.000 
#
# Total GULP energy -178723.280082 kJ/mol
# GULP energy per Si atom -5585.102503 kJ/mol
# Density = 1.943117 g / cm^3
# Si number density = 19.475499 Si / 1000 Ang^3
#
#
#
# Elastic Constant Matrix: (Units=GPa)
#
#
# Indices 1 2 3 4 5 6 
#
# 1 97.9383 22.1859 29.7907 0.0000 -10.5609 0.0000
# 2 22.1859 78.2552 15.2674 0.0000 -4.4829 0.0000
# 3 29.7907 15.2674 92.3105 0.0000 -8.0179 0.0000
# 4 0.0000 0.0000 0.0000 18.8316 0.0000 1.7575
# 5 -10.5609 -4.4829 -8.0179 0.0000 26.5143 0.0000
# 6 0.0000 0.0000 0.0000 1.7575 0.0000 16.9242
#
#
#
# Elastic Compliance Matrix: (Units=1/GPa)
#
#
# Indices 1 2 3 4 5 6 
#
# 1 0.012144 -0.002625 -0.003187 0.000000 0.003430 0.000000
# 2 -0.002625 0.013840 -0.001365 0.000000 0.000882 0.000000
# 3 -0.003187 -0.001365 0.012280 0.000000 0.002213 0.000000
# 4 0.000000 0.000000 0.000000 0.053622 0.000000 -0.005568
# 5 0.003430 0.000882 0.002213 0.000000 0.039900 0.000000
# 6 0.000000 0.000000 0.000000 -0.005568 0.000000 0.059665
#
#
# Mechanical properties :
#
#
# Convention : Reuss Voigt Hill
#
# Bulk Modulus (GPa) = 41.82514 44.77690 43.30102
# Shear Modulus (GPa) = 23.38907 25.87135 24.63021
#
# Velocity S-wave (km/s) = 3.46923 3.64868 3.56009
# Velocity P-wave (km/s) = 6.12942 6.38685 6.25946
#
# Compressibility (1/GPa) = 0.02390907
#
# Stress axis : x y z
#
# Youngs Moduli (GPa) = 82.34236 72.25582 81.43561
#
# Poissons Ratio (x) = 0.18965 0.25956
# Poissons Ratio (y) = 0.21613 0.11119
# Poissons Ratio (z) = 0.26245 0.09865
#
# Static dielectric constant tensor:
#      x y z
#    x 1.687600 0.000000 -0.018070 
#    y 0.000000 1.699910 0.000000 
#    z -0.018070 0.000000 1.708010 
# 
# From -- ./inp_files/99112.got.cif
#   From: 2010.05.17/outbox.cif.g08.bks.cpg/sg12_50_cif.got.tgz:99112.got - 2010.06.03 13:09:07.
