data_PCOD9211888
_publ_section_title
;
Structure prediction by ZEFSAII (Michael W. Deem and Ramdas Pophale) SiO2 
 PCOD9211888
Probable space group: C 2/M
;
_chemical_formula_sum "Si O2"
_cell_formula_units_Z 56
_cell_length_a 18.791997
_cell_length_b 8.786178
_cell_length_c 18.220943
_cell_angle_alpha 90.000000
_cell_angle_beta 111.114397
_cell_angle_gamma 90.000000
_cell_volume 2806.478189
_symmetry_space_group_name_H-M "C 2/M"
_symmetry_group_IT_number 12
_symmetry_cell_setting 'monoclinic'
loop_
_space_group_symop_operation_xyz
x,y,z
-x,y,-z
-x,-y,-z
x,-y,z
1/2+x,1/2+y,z
1/2-x,1/2+y,-z
1/2-x,1/2-y,-z
1/2+x,1/2-y,z
loop_
_atom_site_type_symbol
_atom_site_label
_atom_site_fract_x
_atom_site_fract_y
_atom_site_fract_z
Si Si1 0.772690 0.320754 0.430186
Si Si2 0.428005 0.316992 0.023955
Si Si3 0.923736 0.824324 0.518780
Si Si4 0.664820 0.181197 0.266738
Si Si5 0.784429 0.816840 0.869019
Si Si6 0.975093 0.817853 0.702043
Si Si7 0.890140 0.682046 0.165871
O O1 0.757297 0.500000 0.422528
O O2 0.750000 0.250000 0.500000
O O3 0.861813 0.283114 0.458625
O O4 0.725538 0.239511 0.349094
O O5 0.432814 0.500000 0.035175
O O6 0.424667 0.240767 0.102065
O O7 0.500000 0.270980 0.000000
O O8 0.348915 0.280567 0.953048
O O9 0.943291 0.778270 0.609442
O O10 0.000000 0.823029 0.500000
O O11 0.894925 0.000000 0.509823
O O12 0.691148 0.238930 0.197416
O O13 0.584317 0.253076 0.260878
O O14 0.659398 0.000000 0.266365
O O15 0.698714 0.771967 0.860130
O O16 0.785124 0.000000 0.859037
O O17 0.057936 0.750702 0.750292
O O18 0.977956 0.000000 0.707752
O O19 0.893929 0.500000 0.169787
#
# Coordination Sequence:
#
# PCOD9211888 Si02
#       7
#     8   8   8   8   8   8   8
#     4  12  24  41  65  93 126 166 211 261 315 372
#     4  10  21  40  67  94 124 167 213 255 310 374
#     4  10  23  42  64  92 125 163 212 264 318 377
#     4  12  25  41  65  94 126 164 211 261 312 376
#     4  10  23  42  63  94 132 167 206 257 313 371
#     4  11  23  41  64  89 125 167 208 262 319 374
#     4  11  24  40  62  93 131 167 209 261 309 368
#
# _framework density 19.953835000000002
#
# number of rings (size 3 to 8) (size 9 to 14) (size 15 to 20)
#    0.000    1.143    1.429    4.714    2.000    4.000 
#    0.000    0.000    0.000    0.000    0.000    0.000 
#    0.000    0.000    0.000    0.000    0.000    0.000 
#
# Total GULP energy -156641.803070 kJ/mol
# GULP energy per Si atom -5594.350110 kJ/mol
# Density = 1.990842 g / cm^3
# Si number density = 19.953835 Si / 1000 Ang^3
#
#
#
# Elastic Constant Matrix: (Units=GPa)
#
#
# Indices 1 2 3 4 5 6 
#
# 1 102.3130 18.9332 12.4107 0.0000 13.2814 0.0000
# 2 18.9332 32.6523 22.4691 0.0000 7.1951 0.0000
# 3 12.4107 22.4691 69.8863 0.0000 12.6157 0.0000
# 4 0.0000 0.0000 0.0000 30.5839 0.0000 6.6592
# 5 13.2814 7.1951 12.6157 0.0000 38.8069 0.0000
# 6 0.0000 0.0000 0.0000 6.6592 0.0000 22.9178
#
#
#
# Elastic Compliance Matrix: (Units=1/GPa)
#
#
# Indices 1 2 3 4 5 6 
#
# 1 0.011238 -0.006251 0.000530 0.000000 -0.002859 0.000000
# 2 -0.006251 0.043225 -0.012458 0.000000 -0.001825 0.000000
# 3 0.000530 -0.012458 0.018948 0.000000 -0.004031 0.000000
# 4 0.000000 0.000000 0.000000 0.034905 0.000000 -0.010142
# 5 -0.002859 -0.001825 -0.004031 0.000000 0.028396 0.000000
# 6 0.000000 0.000000 0.000000 -0.010142 0.000000 0.046581
#
#
# Mechanical properties :
#
#
# Convention : Reuss Voigt Hill
#
# Bulk Modulus (GPa) = 26.98785 34.71974 30.85380
# Shear Modulus (GPa) = 21.55166 28.53096 25.04131
#
# Velocity S-wave (km/s) = 3.29002 3.78544 3.54639
# Velocity P-wave (km/s) = 5.29025 6.04515 5.68026
#
# Compressibility (1/GPa) = 0.03705371
#
# Stress axis : x y z
#
# Youngs Moduli (GPa) = 88.98764 23.13481 52.77655
#
# Poissons Ratio (x) = 0.14461 -0.02799
# Poissons Ratio (y) = 0.55625 0.65748
# Poissons Ratio (z) = -0.04719 0.28821
#
# Static dielectric constant tensor:
#      x y z
#    x 1.728280 0.000000 0.019900 
#    y 0.000000 1.677930 0.000000 
#    z 0.019900 0.000000 1.681660 
# 
# From -- ./inp_files/275670.got.cif
#   From: 2010.05.17/outbox.cif.g08.bks.cpg/sg12_138_cif.got.tgz:275670.got - 2010.06.03 13:09:07.
