data_PCOD9211305
_publ_section_title
;
Structure prediction by ZEFSAII (Michael W. Deem and Ramdas Pophale) SiO2 
 PCOD9211305
Probable space group: C 2/M
;
_chemical_formula_sum "Si O2"
_cell_formula_units_Z 36
_cell_length_a 17.008492
_cell_length_b 17.974971
_cell_length_c 5.395647
_cell_angle_alpha 90.000000
_cell_angle_beta 59.572465
_cell_angle_gamma 90.000000
_cell_volume 1422.397585
_symmetry_space_group_name_H-M "C 2/M"
_symmetry_group_IT_number 12
_symmetry_cell_setting 'monoclinic'
loop_
_space_group_symop_operation_xyz
x,y,z
-x,y,-z
-x,-y,-z
x,-y,z
1/2+x,1/2+y,z
1/2-x,1/2+y,-z
1/2-x,1/2-y,-z
1/2+x,1/2-y,z
loop_
_atom_site_type_symbol
_atom_site_label
_atom_site_fract_x
_atom_site_fract_y
_atom_site_fract_z
Si Si1 0.900591 0.218801 0.030195
Si Si2 0.721142 0.858522 0.760912
Si Si3 0.000000 0.694527 0.500000
Si Si4 0.367711 0.915290 0.576150
Si Si5 0.607338 0.587119 0.262983
O O1 0.820613 0.276116 0.228957
O O2 0.923652 0.251972 0.722798
O O3 0.878191 0.133343 0.013552
O O4 0.000000 0.224369 0.000000
O O5 0.694046 0.906371 0.566344
O O6 0.827760 0.870901 0.644230
O O7 0.676006 0.887766 0.092864
O O8 0.046007 0.637814 0.616410
O O9 0.394684 0.000000 0.564514
O O10 0.500000 0.590254 0.500000
O O11 0.633232 0.500000 0.203915
#
# Coordination Sequence:
#
# PCOD9211305 Si02
#       5
#     8   8   4   8   8
#     4  11  22  44  70 104 141 183 238 290 362 431
#     4  11  25  45  72 105 144 189 237 292 359 427
#     4  10  21  40  61 102 142 184 232 276 357 430
#     4  11  22  40  69 104 146 183 229 290 357 428
#     4  11  25  46  72 103 142 190 245 300 352 416
#
# _framework density 25.309379
#
# number of rings (size 3 to 8) (size 9 to 14) (size 15 to 20)
#    0.000    1.111    3.333    3.000    0.000    2.222 
#    0.000   10.000    0.000    0.000    0.000    0.000 
#    0.000    0.000    0.000    0.000    0.000    0.000 
#
# Total GULP energy -100558.659203 kJ/mol
# GULP energy per Si atom -5586.592178 kJ/mol
# Density = 2.525177 g / cm^3
# Si number density = 25.309379 Si / 1000 Ang^3
#
#
#
# Elastic Constant Matrix: (Units=GPa)
#
#
# Indices 1 2 3 4 5 6 
#
# 1 193.9064 99.8655 17.0196 0.0000 9.0432 0.0000
# 2 99.8655 150.0443 42.2273 0.0000 2.1902 0.0000
# 3 17.0196 42.2273 89.2480 0.0000 9.9454 0.0000
# 4 0.0000 0.0000 0.0000 -23.4143 0.0000 -8.3385
# 5 9.0432 2.1902 9.9454 0.0000 34.3326 0.0000
# 6 0.0000 0.0000 0.0000 -8.3385 0.0000 27.6839
#
#
#
# Elastic Compliance Matrix: (Units=1/GPa)
#
#
# Indices 1 2 3 4 5 6 
#
# 1 0.008100 -0.005760 0.001423 0.000000 -0.002179 0.000000
# 2 -0.005760 0.011796 -0.004720 0.000000 0.002132 0.000000
# 3 0.001423 -0.004720 0.013614 0.000000 -0.004018 0.000000
# 4 0.000000 0.000000 0.000000 -0.038571 0.000000 -0.011618
# 5 -0.002179 0.002132 -0.004018 0.000000 0.030728 0.000000
# 6 0.000000 0.000000 0.000000 -0.011618 0.000000 0.032623
#
#
# Mechanical properties :
#
#
# Convention : Reuss Voigt Hill
#
# Bulk Modulus (GPa) = 64.94978 83.49153 74.22065
# Shear Modulus (GPa) = 61.32212 25.99285 43.65748
#
# Velocity S-wave (km/s) = 4.92764 3.20817 4.15776
# Velocity P-wave (km/s) = 7.62191 6.83982 7.24143
#
# Compressibility (1/GPa) = 0.01539651
#
# Stress axis : x y z
#
# Youngs Moduli (GPa) = 123.45045 84.77546 73.45185
#
# Poissons Ratio (x) = 0.48833 -0.10455
# Poissons Ratio (y) = 0.71110 0.34671
# Poissons Ratio (z) = -0.17572 0.40016
#
# Static dielectric constant tensor:
#      x y z
#    x 2.084480 0.000000 -0.040330 
#    y 0.000000 1.969720 0.000000 
#    z -0.040330 0.000000 2.143060 
# 
# From -- ./inp_files/15717.got.cif
#   From: 2010.05.17/outbox.cif.g08.bks.cpg/sg12_8_cif.got.tgz:15717.got - 2010.06.03 13:09:07.
