data_PCOD9211108
_publ_section_title
;
Structure prediction by ZEFSAII (Michael W. Deem and Ramdas Pophale) SiO2 
 PCOD9211108
Probable space group: C 2/M
;
_chemical_formula_sum "Si O2"
_cell_formula_units_Z 56
_cell_length_a 9.423582
_cell_length_b 15.845782
_cell_length_c 26.882400
_cell_angle_alpha 90.000000
_cell_angle_beta 37.681229
_cell_angle_gamma 90.000000
_cell_volume 2453.743948
_symmetry_space_group_name_H-M "C 2/M"
_symmetry_group_IT_number 12
_symmetry_cell_setting 'monoclinic'
loop_
_space_group_symop_operation_xyz
x,y,z
-x,y,-z
-x,-y,-z
x,-y,z
1/2+x,1/2+y,z
1/2-x,1/2+y,-z
1/2-x,1/2-y,-z
1/2+x,1/2-y,z
loop_
_atom_site_type_symbol
_atom_site_label
_atom_site_fract_x
_atom_site_fract_y
_atom_site_fract_z
Si Si1 0.880543 0.334279 0.979767
Si Si2 0.581666 0.709023 0.422182
Si Si3 0.973230 0.594755 0.857230
Si Si4 0.596947 0.640128 0.318328
Si Si5 0.623503 0.828439 0.283098
Si Si6 0.643429 0.096722 0.382455
Si Si7 0.387587 0.597312 0.117642
O O1 0.045025 0.357008 0.887446
O O2 0.750000 0.250000 0.000000
O O3 0.663200 0.397909 0.041148
O O4 0.000000 0.331075 0.000000
O O5 0.500000 0.687072 0.500000
O O6 0.488508 0.649923 0.403501
O O7 0.532884 0.810120 0.428036
O O8 0.854544 0.686465 0.344039
O O9 0.923808 0.500000 0.887102
O O10 0.740855 0.631299 0.896255
O O11 0.170632 0.591645 0.760289
O O12 0.686138 0.735573 0.284568
O O13 0.395831 0.607444 0.337816
O O14 0.649361 0.893659 0.321211
O O15 0.780875 0.854112 0.193735
O O16 0.558899 0.000000 0.418197
O O17 0.315310 0.500000 0.141481
#
# Coordination Sequence:
#
# PCOD9211108 Si02
#       7
#     8   8   8   8   8   8   8
#     4  12  27  44  67  99 135 173 221 272 322 387
#     4  10  22  43  67  91 124 172 227 278 335 406
#     4  11  23  41  66  94 134 175 217 269 330 391
#     4  10  21  39  66  94 127 174 224 270 324 397
#     4  10  21  39  66  94 127 174 224 270 324 397
#     4  10  22  37  60  96 133 168 217 274 338 397
#     4  11  23  41  66  94 134 175 217 269 330 391
#
# _framework density 22.822267
#
# number of rings (size 3 to 8) (size 9 to 14) (size 15 to 20)
#    0.000    1.429    1.429    3.429    2.000    7.714 
#    0.000    0.000    0.000    6.000    0.000    0.000 
#    0.000    0.000    0.000    0.000    0.000    0.000 
#
# Total GULP energy -156197.513159 kJ/mol
# GULP energy per Si atom -5578.482613 kJ/mol
# Density = 2.277032 g / cm^3
# Si number density = 22.822267 Si / 1000 Ang^3
#
#
#
# Elastic Constant Matrix: (Units=GPa)
#
#
# Indices 1 2 3 4 5 6 
#
# 1 122.4987 22.2505 24.9811 -0.0020 20.4028 0.0019
# 2 22.2505 62.7148 15.9037 -0.0023 20.8484 0.0038
# 3 24.9811 15.9037 104.9067 -0.0032 20.4070 0.0056
# 4 -0.0020 -0.0023 -0.0032 16.6240 0.0018 -0.0122
# 5 20.4028 20.8484 20.4070 0.0018 41.1492 -0.0024
# 6 0.0019 0.0038 0.0056 -0.0122 -0.0024 -3.8905
#
#
#
# Elastic Compliance Matrix: (Units=1/GPa)
#
#
# Indices 1 2 3 4 5 6 
#
# 1 0.009285 -0.001978 -0.001340 0.000001 -0.002937 0.000002
# 2 -0.001978 0.019717 -0.000847 0.000003 -0.008589 0.000022
# 3 -0.001340 -0.000847 0.010810 0.000002 -0.004267 0.000017
# 4 0.000001 0.000003 0.000002 0.060154 -0.000006 -0.000188
# 5 -0.002937 -0.008589 -0.004267 -0.000006 0.032226 -0.000036
# 6 0.000002 0.000022 0.000017 -0.000188 -0.000036 -0.257033
#
#
# Mechanical properties :
#
#
# Convention : Reuss Voigt Hill
#
# Bulk Modulus (GPa) = 31.76464 46.26567 39.01515
# Shear Modulus (GPa) = -47.16221 25.90885 -10.62668
#
# Velocity S-wave (km/s) = -4.55081 3.37299 -2.16018
# Velocity P-wave (km/s) = 3.69657 5.95698 3.30310
#
# Compressibility (1/GPa) = 0.03148155
#
# Stress axis : x y z
#
# Youngs Moduli (GPa) = 107.69981 50.71753 92.50801
#
# Poissons Ratio (x) = 0.10032 0.12394
# Poissons Ratio (y) = 0.21304 0.07838
# Poissons Ratio (z) = 0.14430 0.04297
#
# Static dielectric constant tensor:
#      x y z
#    x 1.894290 0.000000 0.010520 
#    y 0.000000 1.956020 -0.000010 
#    z 0.010520 -0.000010 1.888600 
# 
# From -- ./inp_files/333324.got.cif
#   From: 2010.05.17/outbox.cif.g08.bks.cpg/sg12_167_cif.got.tgz:333324.got - 2010.06.03 13:09:07.
