data_PCOD9211509
_publ_section_title
;
Structure prediction by ZEFSAII (Michael W. Deem and Ramdas Pophale) SiO2 
 PCOD9211509
Probable space group: C 2/M
;
_chemical_formula_sum "Si O2"
_cell_formula_units_Z 56
_cell_length_a 12.262752
_cell_length_b 24.637377
_cell_length_c 11.331752
_cell_angle_alpha 90.000000
_cell_angle_beta 50.142848
_cell_angle_gamma 90.000000
_cell_volume 2628.086748
_symmetry_space_group_name_H-M "C 2/M"
_symmetry_group_IT_number 12
_symmetry_cell_setting 'monoclinic'
loop_
_space_group_symop_operation_xyz
x,y,z
-x,y,-z
-x,-y,-z
x,-y,z
1/2+x,1/2+y,z
1/2-x,1/2+y,-z
1/2-x,1/2-y,-z
1/2+x,1/2-y,z
loop_
_atom_site_type_symbol
_atom_site_label
_atom_site_fract_x
_atom_site_fract_y
_atom_site_fract_z
Si Si1 0.320634 0.662610 0.397798
Si Si2 0.852757 0.365353 0.821544
Si Si3 0.345531 0.325627 0.838665
Si Si4 0.641260 0.767305 0.347816
Si Si5 0.827468 0.563069 0.631980
Si Si6 0.663484 0.603634 0.376773
Si Si7 0.043375 0.441842 0.832650
O O1 0.486052 0.672969 0.254739
O O2 0.238783 0.710853 0.386541
O O3 0.255785 0.605925 0.392469
O O4 0.312697 0.652000 0.543861
O O5 0.905380 0.321371 0.690837
O O6 0.790987 0.415114 0.788164
O O7 0.975836 0.390935 0.814216
O O8 0.740709 0.336022 0.983372
O O9 0.301401 0.272987 0.792465
O O10 0.316213 0.374319 0.768793
O O11 0.500000 0.741620 0.500000
O O12 0.791420 0.500000 0.637034
O O13 0.000000 0.567935 0.500000
O O14 0.500000 0.585249 0.500000
O O15 0.788745 0.561114 0.305131
O O16 0.990263 0.500000 0.822454
O O17 0.000000 0.439239 0.000000
#
# Coordination Sequence:
#
# PCOD9211509 Si02
#       7
#     8   8   8   8   8   8   8
#     4  10  22  40  63  91 127 164 212 262 312 381
#     4  11  22  41  62  93 128 159 209 267 314 376
#     4  11  24  41  59  91 129 168 208 260 320 378
#     4  11  23  40  65  91 120 166 214 261 318 377
#     4  10  21  40  68  94 120 160 209 264 317 372
#     4  10  21  40  63  90 131 172 212 265 314 374
#     4  11  22  38  62  91 125 168 210 254 315 379
#
# _framework density 21.308275999999999
#
# number of rings (size 3 to 8) (size 9 to 14) (size 15 to 20)
#    0.000    1.429    1.429    5.571    0.000    7.714 
#    0.000    4.286    0.000    0.000    0.000    0.000 
#    0.000    0.000    0.000    0.000    0.000    0.000 
#
# Total GULP energy -156328.182086 kJ/mol
# GULP energy per Si atom -5583.149360 kJ/mol
# Density = 2.125978 g / cm^3
# Si number density = 21.308276 Si / 1000 Ang^3
#
#
#
# Elastic Constant Matrix: (Units=GPa)
#
#
# Indices 1 2 3 4 5 6 
#
# 1 93.5437 22.4859 35.9262 0.0000 -1.2165 0.0000
# 2 22.4859 66.9108 24.3897 0.0000 -6.5963 0.0000
# 3 35.9262 24.3897 107.9341 0.0000 7.5748 0.0000
# 4 0.0000 0.0000 0.0000 9.8118 0.0000 -12.9696
# 5 -1.2165 -6.5963 7.5748 0.0000 25.6113 0.0000
# 6 0.0000 0.0000 0.0000 -12.9696 0.0000 20.8363
#
#
#
# Elastic Compliance Matrix: (Units=1/GPa)
#
#
# Indices 1 2 3 4 5 6 
#
# 1 0.012806 -0.002867 -0.003682 0.000000 0.000959 0.000000
# 2 -0.002867 0.017693 -0.003425 0.000000 0.005434 0.000000
# 3 -0.003682 -0.003425 0.011579 0.000000 -0.004482 0.000000
# 4 0.000000 0.000000 0.000000 0.575074 0.000000 0.357955
# 5 0.000959 0.005434 -0.004482 0.000000 0.041816 0.000000
# 6 0.000000 0.000000 0.000000 0.357955 0.000000 0.270802
#
#
# Mechanical properties :
#
#
# Convention : Reuss Voigt Hill
#
# Bulk Modulus (GPa) = 45.18790 48.22135 46.70462
# Shear Modulus (GPa) = 5.22415 23.62434 14.42425
#
# Velocity S-wave (km/s) = 1.56749 3.33332 2.60461
# Velocity P-wave (km/s) = 4.95266 6.12325 5.56879
#
# Compressibility (1/GPa) = 0.02212982
#
# Stress axis : x y z
#
# Youngs Moduli (GPa) = 78.08911 56.51994 86.36366
#
# Poissons Ratio (x) = 0.16204 0.31799
# Poissons Ratio (y) = 0.22387 0.29581
# Poissons Ratio (z) = 0.28752 0.19359
#
# Static dielectric constant tensor:
#      x y z
#    x 1.812530 0.000000 0.016010 
#    y 0.000000 1.786280 0.000000 
#    z 0.016010 0.000000 1.757960 
# 
# From -- ./inp_files/136926.got.cif
#   From: 2010.05.17/outbox.cif.g08.bks.cpg/sg12_69_cif.got.tgz:136926.got - 2010.06.03 13:09:07.
