data_PCOD9211788
_publ_section_title
;
Structure prediction by ZEFSAII (Michael W. Deem and Ramdas Pophale) SiO2 
 PCOD9211788
Probable space group: C 2/M
;
_chemical_formula_sum "Si O2"
_cell_formula_units_Z 64
_cell_length_a 11.514125
_cell_length_b 20.125244
_cell_length_c 20.954974
_cell_angle_alpha 90.000000
_cell_angle_beta 142.512922
_cell_angle_gamma 90.000000
_cell_volume 2955.144159
_symmetry_space_group_name_H-M "C 2/M"
_symmetry_group_IT_number 12
_symmetry_cell_setting 'monoclinic'
loop_
_space_group_symop_operation_xyz
x,y,z
-x,y,-z
-x,-y,-z
x,-y,z
1/2+x,1/2+y,z
1/2-x,1/2+y,-z
1/2-x,1/2-y,-z
1/2+x,1/2-y,z
loop_
_atom_site_type_symbol
_atom_site_label
_atom_site_fract_x
_atom_site_fract_y
_atom_site_fract_z
Si Si1 0.729036 0.639540 0.329051
Si Si2 0.830875 0.176568 0.551133
Si Si3 0.264483 0.734337 0.262146
Si Si4 0.370981 0.928677 0.164692
Si Si5 0.305450 0.367030 0.117606
Si Si6 0.052061 0.575074 0.383786
Si Si7 0.774680 0.782984 0.893061
Si Si8 0.460521 0.117117 0.877535
O O1 0.723385 0.648142 0.402538
O O2 0.747815 0.714758 0.311794
O O3 0.524838 0.612030 0.215356
O O4 0.900139 0.599457 0.370940
O O5 0.750000 0.250000 0.500000
O O6 0.729225 0.125367 0.459840
O O7 0.058035 0.185596 0.649061
O O8 0.294130 0.776307 0.210416
O O9 0.078772 0.690876 0.166750
O O10 0.451121 0.924782 0.270971
O O11 0.264472 0.859052 0.104867
O O12 0.537562 0.927626 0.183992
O O13 0.267638 0.000000 0.113171
O O14 0.305222 0.286208 0.112677
O O15 0.199697 0.388222 0.137334
O O16 0.163874 0.391629 0.000978
O O17 0.112631 0.500000 0.424945
O O18 0.000000 0.773513 0.000000
#
# Coordination Sequence:
#
# PCOD9211788 Si02
#       8
#     8   8   8   8   8   8   8   8
#     4  12  23  40  67 100 138 168 220 281 342 397
#     4  12  24  42  65 102 131 172 227 284 343 394
#     4  11  22  37  64 104 133 166 212 282 340 389
#     4  11  25  43  63  91 134 184 224 269 332 407
#     4  10  21  40  66 106 133 166 223 277 337 398
#     4  11  27  49  68  95 136 182 232 283 341 410
#     4  11  19  38  63 100 136 168 211 272 337 398
#     4  10  21  41  66  96 137 176 217 271 332 399
#
# _framework density 21.657150000000001
#
# number of rings (size 3 to 8) (size 9 to 14) (size 15 to 20)
#    0.000    1.000    7.500    1.125    3.500    2.250 
#    0.000    4.375    0.000    1.500    0.000    0.000 
#    0.000    0.000    0.000    0.000    0.000    0.000 
#
# Total GULP energy -178563.392905 kJ/mol
# GULP energy per Si atom -5580.106028 kJ/mol
# Density = 2.160786 g / cm^3
# Si number density = 21.657150 Si / 1000 Ang^3
#
#
#
# Elastic Constant Matrix: (Units=GPa)
#
#
# Indices 1 2 3 4 5 6 
#
# 1 49.6164 11.9931 15.3891 -0.0004 6.9204 0.0003
# 2 11.9931 72.6276 3.0598 -0.0002 11.7202 0.0001
# 3 15.3891 3.0598 60.3819 -0.0016 26.2646 0.0007
# 4 -0.0004 -0.0002 -0.0016 -0.0450 -0.0003 36.9089
# 5 6.9204 11.7202 26.2646 -0.0003 27.2607 0.0003
# 6 0.0003 0.0001 0.0007 36.9089 0.0003 -44.4075
#
#
#
# Elastic Compliance Matrix: (Units=1/GPa)
#
#
# Indices 1 2 3 4 5 6 
#
# 1 0.022817 -0.003845 -0.006576 0.000000 0.002196 0.000000
# 2 -0.003845 0.015879 0.004683 0.000000 -0.010362 0.000000
# 3 -0.006576 0.004683 0.031243 0.000001 -0.030445 0.000001
# 4 0.000000 0.000000 0.000001 0.032646 -0.000001 0.027134
# 5 0.002196 -0.010362 -0.030445 -0.000001 0.069913 -0.000001
# 6 0.000000 0.000000 0.000001 0.027134 -0.000001 0.000033
#
#
# Mechanical properties :
#
#
# Convention : Reuss Voigt Hill
#
# Bulk Modulus (GPa) = 17.10510 27.05667 22.08088
# Shear Modulus (GPa) = 24.57064 6.70723 15.63893
#
# Velocity S-wave (km/s) = 3.37193 1.76174 2.69013
# Velocity P-wave (km/s) = 4.80366 4.08150 4.45723
#
# Compressibility (1/GPa) = 0.05846209
#
# Stress axis : x y z
#
# Youngs Moduli (GPa) = 43.82641 62.97728 32.00749
#
# Poissons Ratio (x) = 0.24216 0.21047
# Poissons Ratio (y) = 0.16852 -0.14988
# Poissons Ratio (z) = 0.28819 -0.29490
#
# Static dielectric constant tensor:
#      x y z
#    x 1.868820 0.000000 0.008340 
#    y 0.000000 1.802270 0.000000 
#    z 0.008340 0.000000 1.792870 
# 
# From -- ./inp_files/306821.got.cif
#   From: 2010.05.17/outbox.cif.g08.bks.cpg/sg12_154_cif.got.tgz:306821.got - 2010.06.03 13:09:07.
