data_PCOD9211439
_publ_section_title
;
Structure prediction by ZEFSAII (Michael W. Deem and Ramdas Pophale) SiO2 
 PCOD9211439
Probable space group: C 2/M
;
_chemical_formula_sum "Si O2"
_cell_formula_units_Z 64
_cell_length_a 10.146446
_cell_length_b 15.069549
_cell_length_c 31.032921
_cell_angle_alpha 90.000000
_cell_angle_beta 43.541796
_cell_angle_gamma 90.000000
_cell_volume 3268.757218
_symmetry_space_group_name_H-M "C 2/M"
_symmetry_group_IT_number 12
_symmetry_cell_setting 'monoclinic'
loop_
_space_group_symop_operation_xyz
x,y,z
-x,y,-z
-x,-y,-z
x,-y,z
1/2+x,1/2+y,z
1/2-x,1/2+y,-z
1/2-x,1/2-y,-z
1/2+x,1/2-y,z
loop_
_atom_site_type_symbol
_atom_site_label
_atom_site_fract_x
_atom_site_fract_y
_atom_site_fract_z
Si Si1 0.525660 0.398880 0.942998
Si Si2 0.510092 0.333528 0.269236
Si Si3 0.156407 0.401394 0.756648
Si Si4 0.656380 0.755881 0.151493
Si Si5 0.026653 0.739964 0.543578
Si Si6 0.172575 0.656301 0.653843
Si Si7 0.773591 0.397068 0.058253
Si Si8 0.896199 0.598600 0.644835
O O1 0.596439 0.500000 0.918303
O O2 0.667185 0.323426 0.892982
O O3 0.327619 0.390912 0.964155
O O4 0.500000 0.388175 0.000000
O O5 0.637426 0.393859 0.269770
O O6 0.639934 0.293753 0.200793
O O7 0.430525 0.251660 0.316069
O O8 0.323869 0.378293 0.291960
O O9 0.076837 0.500000 0.783448
O O10 0.173436 0.385823 0.701209
O O11 0.027324 0.321524 0.806234
O O12 0.681023 0.678633 0.110225
O O13 0.250000 0.750000 0.500000
O O14 0.000000 0.715951 0.500000
O O15 0.887254 0.824072 0.586255
O O16 0.957427 0.666224 0.593467
O O17 0.040175 0.606765 0.650848
O O18 0.745278 0.500000 0.080431
O O19 0.000000 0.382043 0.000000
O O20 0.903037 0.500000 0.625836
#
# Coordination Sequence:
#
# PCOD9211439 Si02
#       8
#     8   8   8   8   8   8   8   8
#     4  10  22  40  62  89 122 160 201 249 302 361
#     4  10  22  39  60  87 119 158 202 247 299 354
#     4  11  23  39  61  91 123 157 201 252 301 355
#     4  11  22  38  63  90 121 159 203 248 302 366
#     4  11  22  40  65  90 121 160 202 245 297 361
#     4  10  21  40  63  84 120 164 200 239 300 362
#     4  10  23  42  62  87 120 159 202 249 304 363
#     4  11  23  40  61  89 121 155 199 250 301 353
#
# _framework density 19.579307
#
# number of rings (size 3 to 8) (size 9 to 14) (size 15 to 20)
#    0.000    1.500    1.250    4.500    1.750    5.250 
#    0.000    5.625    0.000    0.000    0.000    0.000 
#    0.000    0.000    0.000    0.000    0.000    0.000 
#
# Total GULP energy -178613.746315 kJ/mol
# GULP energy per Si atom -5581.679572 kJ/mol
# Density = 1.953474 g / cm^3
# Si number density = 19.579307 Si / 1000 Ang^3
#
#
#
# Elastic Constant Matrix: (Units=GPa)
#
#
# Indices 1 2 3 4 5 6 
#
# 1 149.8774 53.7080 66.7429 -0.0002 -5.9296 -0.0005
# 2 53.7080 97.2795 43.7037 -0.0006 3.0664 -0.0008
# 3 66.7429 43.7037 94.1366 -0.0016 1.0052 -0.0034
# 4 -0.0002 -0.0006 -0.0016 19.9345 0.0003 26.8417
# 5 -5.9296 3.0664 1.0052 0.0003 17.6260 0.0004
# 6 -0.0005 -0.0008 -0.0034 26.8417 0.0004 65.1868
#
#
#
# Elastic Compliance Matrix: (Units=1/GPa)
#
#
# Indices 1 2 3 4 5 6 
#
# 1 0.010785 -0.003337 -0.006146 0.000000 0.004559 0.000000
# 2 -0.003337 0.014086 -0.004138 0.000000 -0.003337 0.000000
# 3 -0.006146 -0.004138 0.016926 0.000000 -0.002313 0.000001
# 4 0.000000 0.000000 0.000000 0.112587 -0.000001 -0.046360
# 5 0.004559 -0.003337 -0.002313 -0.000001 0.058981 0.000000
# 6 0.000000 0.000000 0.000001 -0.046360 0.000000 0.034430
#
#
# Mechanical properties :
#
#
# Convention : Reuss Voigt Hill
#
# Bulk Modulus (GPa) = 68.70355 74.40029 71.55192
# Shear Modulus (GPa) = 17.86414 32.35872 25.11143
#
# Velocity S-wave (km/s) = 3.02387 4.06975 3.58516
# Velocity P-wave (km/s) = 6.88170 7.75666 7.33224
#
# Compressibility (1/GPa) = 0.01455529
#
# Stress axis : x y z
#
# Youngs Moduli (GPa) = 92.71838 70.99092 59.07931
#
# Poissons Ratio (x) = 0.23690 0.36312
# Poissons Ratio (y) = 0.30941 0.24448
# Poissons Ratio (z) = 0.56987 0.29377
#
# Static dielectric constant tensor:
#      x y z
#    x 1.671090 0.000000 0.000220 
#    y 0.000000 1.692270 0.000000 
#    z 0.000220 0.000000 1.626580 
# 
# From -- ./inp_files/372565.got.cif
#   From: 2010.05.17/outbox.cif.g08.bks.cpg/sg12_187_cif.got.tgz:372565.got - 2010.06.03 13:09:07.
