data_PCOD9211428
_publ_section_title
;
Structure prediction by ZEFSAII (Michael W. Deem and Ramdas Pophale) SiO2 
 PCOD9211428
Probable space group: C 2/M
;
_chemical_formula_sum "Si O2"
_cell_formula_units_Z 50
_cell_length_a 17.198598
_cell_length_b 14.970506
_cell_length_c 11.912712
_cell_angle_alpha 90.000000
_cell_angle_beta 121.094942
_cell_angle_gamma 90.000000
_cell_volume 2626.470593
_symmetry_space_group_name_H-M "C 2/M"
_symmetry_group_IT_number 12
_symmetry_cell_setting 'monoclinic'
loop_
_space_group_symop_operation_xyz
x,y,z
-x,y,-z
-x,-y,-z
x,-y,z
1/2+x,1/2+y,z
1/2-x,1/2+y,-z
1/2-x,1/2-y,-z
1/2+x,1/2-y,z
loop_
_atom_site_type_symbol
_atom_site_label
_atom_site_fract_x
_atom_site_fract_y
_atom_site_fract_z
Si Si1 0.350938 0.000000 0.388193
Si Si2 0.537888 0.859595 0.147683
Si Si3 0.496079 0.000000 0.303953
Si Si4 0.000000 0.000000 0.000000
Si Si5 0.424375 0.607351 0.351214
Si Si6 0.712712 0.363745 0.370421
Si Si7 0.995969 0.848707 0.827130
Si Si8 0.255460 0.844681 0.653613
O O1 0.409079 0.000000 0.319175
O O2 0.419239 0.000000 0.545897
O O3 0.283748 0.916923 0.349015
O O4 0.500266 0.914654 0.225399
O O5 0.513425 0.754386 0.142623
O O6 0.646280 0.874804 0.231226
O O7 0.500000 0.889994 0.000000
O O8 0.961710 0.080476 0.055424
O O9 0.500000 0.633942 0.500000
O O10 0.425911 0.500000 0.343378
O O11 0.453309 0.647331 0.253777
O O12 0.326246 0.637158 0.322569
O O13 0.608011 0.383487 0.265787
O O14 0.731886 0.260105 0.362511
O O15 0.730585 0.386293 0.514143
#
# Coordination Sequence:
#
# PCOD9211428 Si02
#       8
#     4   8   4   2   8   8   8   8
#     4  11  23  38  64  98 129 158 212 279 316 380
#     4  11  24  46  67  89 128 178 221 257 314 389
#     4  11  25  40  63  93 127 173 219 263 322 357
#     4  12  22  44  64  96 128 172 210 246 322 410
#     4  11  23  36  63  99 130 159 206 272 329 370
#     4  10  21  40  62  94 126 165 212 262 323 376
#     4  11  23  42  69  94 127 170 210 264 325 387
#     4  10  22  39  64  96 126 166 211 267 321 374
#
# _framework density 19.036954000000001
#
# number of rings (size 3 to 8) (size 9 to 14) (size 15 to 20)
#    0.000    1.280    4.800    0.720    4.480    0.000 
#    0.000    4.000    0.000    0.000    0.000    0.000 
#    0.000    0.000    0.000    0.000    0.000    0.000 
#
# Total GULP energy -139381.694701 kJ/mol
# GULP energy per Si atom -5575.267788 kJ/mol
# Density = 1.899362 g / cm^3
# Si number density = 19.036954 Si / 1000 Ang^3
#
#
#
# Elastic Constant Matrix: (Units=GPa)
#
#
# Indices 1 2 3 4 5 6 
#
# 1 155.7302 22.4997 48.7362 0.0000 -23.3896 0.0000
# 2 22.4997 65.0059 16.1634 0.0000 -6.1248 0.0000
# 3 48.7362 16.1634 87.2646 0.0000 -19.8309 0.0000
# 4 0.0000 0.0000 0.0000 13.6579 0.0000 -19.5020
# 5 -23.3896 -6.1248 -19.8309 0.0000 29.8380 0.0000
# 6 0.0000 0.0000 0.0000 -19.5020 0.0000 49.9537
#
#
#
# Elastic Compliance Matrix: (Units=1/GPa)
#
#
# Indices 1 2 3 4 5 6 
#
# 1 0.008328 -0.001656 -0.003461 0.000000 0.003888 0.000000
# 2 -0.001656 0.016517 -0.001954 0.000000 0.000794 0.000000
# 3 -0.003461 -0.001954 0.015367 0.000000 0.007100 0.000000
# 4 0.000000 0.000000 0.000000 0.165446 0.000000 0.064590
# 5 0.003888 0.000794 0.007100 0.000000 0.041444 0.000000
# 6 0.000000 0.000000 0.000000 0.064590 0.000000 0.045235
#
#
# Mechanical properties :
#
#
# Convention : Reuss Voigt Hill
#
# Bulk Modulus (GPa) = 38.35681 53.64437 46.00059
# Shear Modulus (GPa) = 15.86460 33.39667 24.63063
#
# Velocity S-wave (km/s) = 2.88993 4.19299 3.60089
# Velocity P-wave (km/s) = 5.59713 7.18900 6.44243
#
# Compressibility (1/GPa) = 0.02607099
#
# Stress axis : x y z
#
# Youngs Moduli (GPa) = 120.08395 60.54383 65.07244
#
# Poissons Ratio (x) = 0.10023 0.22519
# Poissons Ratio (y) = 0.19880 0.12717
# Poissons Ratio (z) = 0.41556 0.11832
#
# Static dielectric constant tensor:
#      x y z
#    x 1.615450 0.000000 0.015720 
#    y 0.000000 1.721600 0.000000 
#    z 0.015720 0.000000 1.686810 
# 
# From -- ./inp_files/143841.got.cif
#   From: 2010.05.17/outbox.cif.g08.bks.cpg/sg12_72_cif.got.tgz:143841.got - 2010.06.03 13:09:07.
