data_PCOD9211216
_publ_section_title
;
Structure prediction by ZEFSAII (Michael W. Deem and Ramdas Pophale) SiO2 
 PCOD9211216
Probable space group: C 2/M
;
_chemical_formula_sum "Si O2"
_cell_formula_units_Z 64
_cell_length_a 19.432582
_cell_length_b 19.385933
_cell_length_c 15.895143
_cell_angle_alpha 90.000000
_cell_angle_beta 149.818091
_cell_angle_gamma 90.000000
_cell_volume 3010.448267
_symmetry_space_group_name_H-M "C 2/M"
_symmetry_group_IT_number 12
_symmetry_cell_setting 'monoclinic'
loop_
_space_group_symop_operation_xyz
x,y,z
-x,y,-z
-x,-y,-z
x,-y,z
1/2+x,1/2+y,z
1/2-x,1/2+y,-z
1/2-x,1/2-y,-z
1/2+x,1/2-y,z
loop_
_atom_site_type_symbol
_atom_site_label
_atom_site_fract_x
_atom_site_fract_y
_atom_site_fract_z
Si Si1 0.337736 0.925084 0.312141
Si Si2 0.214930 0.215026 0.140177
Si Si3 0.253053 0.920333 0.412631
Si Si4 0.840706 0.079882 0.331262
Si Si5 0.140325 0.683851 0.199381
Si Si6 0.763410 0.151172 0.085604
Si Si7 0.504938 0.331332 0.217831
Si Si8 0.956146 0.317145 0.711924
O O1 0.500000 0.924259 0.500000
O O2 0.297553 0.855397 0.223444
O O3 0.256683 0.922051 0.315132
O O4 0.305652 0.000000 0.237988
O O5 0.195190 0.246220 0.212633
O O6 0.281030 0.275840 0.154069
O O7 0.068037 0.198980 0.943149
O O8 0.376543 0.870616 0.570417
O O9 0.118922 0.885285 0.311013
O O10 0.269283 0.000000 0.457819
O O11 0.753676 0.126556 0.301244
O O12 0.776291 0.094187 0.171406
O O13 0.000000 0.100702 0.500000
O O14 0.832860 0.000000 0.345255
O O15 0.108361 0.681912 0.263095
O O16 0.000000 0.667636 0.000000
O O17 0.881391 0.139476 0.142888
O O18 0.614080 0.159827 0.887344
O O19 0.557174 0.263965 0.324324
#
# Coordination Sequence:
#
# PCOD9211216 Si02
#       8
#     8   8   8   8   8   8   8   8
#     4  10  24  43  64  93 126 165 212 256 310 374
#     4  10  21  39  69  91 124 162 207 268 314 362
#     4  11  27  44  61  93 131 167 210 252 307 378
#     4  10  23  41  60  88 129 168 210 261 309 365
#     4  11  20  40  64  94 122 159 214 258 309 371
#     4  10  23  40  64  96 125 161 216 251 310 382
#     4  11  23  41  66  96 127 163 206 259 318 368
#     4  11  22  42  65  91 126 166 204 259 313 372
#
# _framework density 21.259291999999999
#
# number of rings (size 3 to 8) (size 9 to 14) (size 15 to 20)
#    0.000    1.500    3.750    2.625    5.250    4.250 
#    0.000    1.250    0.000    0.000    0.000    0.000 
#    0.000    0.000    0.000    0.000    0.000    0.000 
#
# Total GULP energy -178835.111522 kJ/mol
# GULP energy per Si atom -5588.597235 kJ/mol
# Density = 2.121091 g / cm^3
# Si number density = 21.259292 Si / 1000 Ang^3
#
#
#
# Elastic Constant Matrix: (Units=GPa)
#
#
# Indices 1 2 3 4 5 6 
#
# 1 78.6070 -4.3699 1.5319 0.0000 27.5046 0.0000
# 2 -4.3699 91.9908 32.3277 0.0000 20.8308 0.0000
# 3 1.5319 32.3277 34.3192 0.0000 19.2772 0.0000
# 4 0.0000 0.0000 0.0000 -119.4039 0.0000 -50.4180
# 5 27.5046 20.8308 19.2772 0.0000 36.0758 0.0000
# 6 0.0000 0.0000 0.0000 -50.4180 0.0000 -14.1054
#
#
#
# Elastic Compliance Matrix: (Units=1/GPa)
#
#
# Indices 1 2 3 4 5 6 
#
# 1 0.020323 0.002864 0.008612 0.000000 -0.021751 0.000000
# 2 0.002864 0.016729 -0.013193 0.000000 -0.004793 0.000000
# 3 0.008612 -0.013193 0.057999 0.000000 -0.029940 0.000000
# 4 0.000000 0.000000 0.000000 0.016445 0.000000 -0.058781
# 5 -0.021751 -0.004793 -0.029940 0.000000 0.063068 0.000000
# 6 0.000000 0.000000 0.000000 -0.058781 0.000000 0.139209
#
#
# Mechanical properties :
#
#
# Convention : Reuss Voigt Hill
#
# Bulk Modulus (GPa) = 10.91503 29.32181 20.11842
# Shear Modulus (GPa) = 14.37831 -7.79154 3.29338
#
# Velocity S-wave (km/s) = 2.60346 -1.91650 1.24600
# Velocity P-wave (km/s) = 3.76599 2.98750 3.39911
#
# Compressibility (1/GPa) = 0.09161676
#
# Stress axis : x y z
#
# Youngs Moduli (GPa) = 49.20431 59.77806 17.24178
#
# Poissons Ratio (x) = -0.17122 -0.14849
# Poissons Ratio (y) = -0.14093 0.22748
# Poissons Ratio (z) = -0.42376 0.78867
#
# Static dielectric constant tensor:
#      x y z
#    x 1.780360 0.000000 -0.017050 
#    y 0.000000 1.778820 0.000000 
#    z -0.017050 0.000000 1.781210 
# 
# From -- ./inp_files/285246.got.cif
#   From: 2010.05.17/outbox.cif.g08.bks.cpg/sg12_143_cif.got.tgz:285246.got - 2010.06.03 13:09:07.
