data_PCOD9211170
_publ_section_title
;
Structure prediction by ZEFSAII (Michael W. Deem and Ramdas Pophale) SiO2 
 PCOD9211170
Probable space group: C 2/M
;
_chemical_formula_sum "Si O2"
_cell_formula_units_Z 48
_cell_length_a 10.131637
_cell_length_b 17.777672
_cell_length_c 11.491888
_cell_angle_alpha 90.000000
_cell_angle_beta 81.186423
_cell_angle_gamma 90.000000
_cell_volume 2045.442491
_symmetry_space_group_name_H-M "C 2/M"
_symmetry_group_IT_number 12
_symmetry_cell_setting 'monoclinic'
loop_
_space_group_symop_operation_xyz
x,y,z
-x,y,-z
-x,-y,-z
x,-y,z
1/2+x,1/2+y,z
1/2-x,1/2+y,-z
1/2-x,1/2-y,-z
1/2+x,1/2-y,z
loop_
_atom_site_type_symbol
_atom_site_label
_atom_site_fract_x
_atom_site_fract_y
_atom_site_fract_z
Si Si1 0.725417 0.090692 0.615885
Si Si2 0.284462 0.915365 0.641836
Si Si3 0.410092 0.215349 0.216306
Si Si4 0.308184 0.818773 0.867212
Si Si5 0.132201 0.085804 0.061746
Si Si6 0.508432 0.640113 0.318957
O O1 0.671253 0.106511 0.493549
O O2 0.641470 0.138189 0.720417
O O3 0.877197 0.122990 0.603095
O O4 0.726913 0.000000 0.633113
O O5 0.324711 0.864585 0.744084
O O6 0.122477 0.911608 0.658528
O O7 0.329295 0.000000 0.658480
O O8 0.544139 0.207272 0.124282
O O9 0.294667 0.253715 0.155584
O O10 0.451591 0.275392 0.312258
O O11 0.242252 0.869171 0.975019
O O12 0.084690 0.120930 0.188602
O O13 0.175949 0.000000 0.075750
O O14 0.000000 0.084907 0.000000
#
# Coordination Sequence:
#
# PCOD9211170 Si02
#       6
#     8   8   8   8   8   8
#     4  11  24  43  65  97 137 176 220 276 334 393
#     4  10  21  39  67  96 129 174 221 271 330 397
#     4  11  24  44  64  98 132 177 222 270 336 390
#     4  11  24  43  65  98 132 174 224 274 330 403
#     4  11  21  38  68 100 129 169 219 281 331 389
#     4  11  22  41  67  97 134 173 223 271 328 403
#
# _framework density 23.466805000000001
#
# number of rings (size 3 to 8) (size 9 to 14) (size 15 to 20)
#    0.000    1.167    5.000    2.500    0.000    6.667 
#    9.000    1.667    0.000    2.000    0.000    0.000 
#    0.000    0.000    0.000    0.000    0.000    0.000 
#
# Total GULP energy -134383.598508 kJ/mol
# GULP energy per Si atom -5599.316604 kJ/mol
# Density = 2.341339 g / cm^3
# Si number density = 23.466805 Si / 1000 Ang^3
#
#
#
# Elastic Constant Matrix: (Units=GPa)
#
#
# Indices 1 2 3 4 5 6 
#
# 1 110.6624 24.8338 19.4625 0.0000 -12.5259 0.0000
# 2 24.8338 99.3725 26.6454 0.0000 -3.4196 0.0000
# 3 19.4625 26.6454 70.8703 0.0000 7.3249 0.0000
# 4 0.0000 0.0000 0.0000 35.3871 0.0000 -9.9164
# 5 -12.5259 -3.4196 7.3249 0.0000 35.1085 0.0000
# 6 0.0000 0.0000 0.0000 -9.9164 0.0000 18.9628
#
#
#
# Elastic Compliance Matrix: (Units=1/GPa)
#
#
# Indices 1 2 3 4 5 6 
#
# 1 0.010347 -0.001747 -0.002605 0.000000 0.004065 0.000000
# 2 -0.001747 0.011627 -0.004031 0.000000 0.001350 0.000000
# 3 -0.002605 -0.004031 0.016841 0.000000 -0.004835 0.000000
# 4 0.000000 0.000000 0.000000 0.033111 0.000000 0.017315
# 5 0.004065 0.001350 -0.004835 0.000000 0.031074 0.000000
# 6 0.000000 0.000000 0.000000 0.017315 0.000000 0.061789
#
#
# Mechanical properties :
#
#
# Convention : Reuss Voigt Hill
#
# Bulk Modulus (GPa) = 45.35447 46.97651 46.16549
# Shear Modulus (GPa) = 26.46832 31.88926 29.17879
#
# Velocity S-wave (km/s) = 3.36207 3.69034 3.53002
# Velocity P-wave (km/s) = 5.86860 6.18222 6.02745
#
# Compressibility (1/GPa) = 0.02204854
#
# Stress axis : x y z
#
# Youngs Moduli (GPa) = 96.64824 86.00515 59.37910
#
# Poissons Ratio (x) = 0.15029 0.15466
# Poissons Ratio (y) = 0.16889 0.23937
# Poissons Ratio (z) = 0.25173 0.34670
#
# Static dielectric constant tensor:
#      x y z
#    x 1.885500 0.000000 0.023980 
#    y 0.000000 1.880210 0.000000 
#    z 0.023980 0.000000 1.884380 
# 
# From -- ./inp_files/131028.got.cif
#   From: 2010.05.17/outbox.cif.g08.bks.cpg/sg12_66_cif.got.tgz:131028.got - 2010.06.03 13:09:07.
