data_PCOD9211940
_publ_section_title
;
Structure prediction by ZEFSAII (Michael W. Deem and Ramdas Pophale) SiO2 
 PCOD9211940
Probable space group: C 2/M
;
_chemical_formula_sum "Si O2"
_cell_formula_units_Z 48
_cell_length_a 17.937428
_cell_length_b 15.232840
_cell_length_c 17.383219
_cell_angle_alpha 90.000000
_cell_angle_beta 156.113009
_cell_angle_gamma 90.000000
_cell_volume 1923.337464
_symmetry_space_group_name_H-M "C 2/M"
_symmetry_group_IT_number 12
_symmetry_cell_setting 'monoclinic'
loop_
_space_group_symop_operation_xyz
x,y,z
-x,y,-z
-x,-y,-z
x,-y,z
1/2+x,1/2+y,z
1/2-x,1/2+y,-z
1/2-x,1/2-y,-z
1/2+x,1/2-y,z
loop_
_atom_site_type_symbol
_atom_site_label
_atom_site_fract_x
_atom_site_fract_y
_atom_site_fract_z
Si Si1 0.321662 0.896956 0.725562
Si Si2 0.783918 0.899253 0.778942
Si Si3 0.252984 0.211132 0.406937
Si Si4 0.582596 0.096892 0.751507
Si Si5 0.742905 0.398795 0.824894
Si Si6 0.124126 0.166294 0.866245
O O1 0.266772 0.815776 0.620482
O O2 0.231244 0.878458 0.723835
O O3 0.285485 0.000000 0.669924
O O4 0.542239 0.889904 0.948132
O O5 0.734411 0.831246 0.666148
O O6 0.676849 0.886980 0.757641
O O7 0.749610 0.000000 0.721012
O O8 0.000000 0.889984 0.000000
O O9 0.429177 0.171362 0.616683
O O10 0.430948 0.326345 0.726687
O O11 0.494887 0.000000 0.669303
O O12 0.744907 0.096080 0.967332
O O13 0.691933 0.500000 0.784057
O O14 0.623899 0.348451 0.774874
O O15 0.250000 0.250000 0.000000
#
# Coordination Sequence:
#
# PCOD9211940 Si02
#       6
#     8   8   8   8   8   8
#     4   9  20  40  69 101 136 185 242 296 350 408
#     4  10  21  40  68 103 140 185 230 276 348 425
#     4  12  24  41  75 105 142 185 236 289 358 429
#     4  11  26  45  69 108 150 185 228 292 357 428
#     4   9  19  38  66  96 133 182 235 290 348 413
#     4  12  25  42  69 103 139 184 237 291 362 421
#
# _framework density 24.956619
#
# number of rings (size 3 to 8) (size 9 to 14) (size 15 to 20)
#    0.000    1.500    3.333    2.500    4.667    4.000 
#    0.000    0.000    0.000    5.000    0.000    0.000 
#    0.000    0.000    0.000    0.000    0.000    0.000 
#
# Total GULP energy -134465.689887 kJ/mol
# GULP energy per Si atom -5602.737079 kJ/mol
# Density = 2.489982 g / cm^3
# Si number density = 24.956619 Si / 1000 Ang^3
#
#
#
# Elastic Constant Matrix: (Units=GPa)
#
#
# Indices 1 2 3 4 5 6 
#
# 1 136.0871 58.3017 22.9523 -0.0005 0.8296 0.0035
# 2 58.3017 135.4747 47.1114 -0.0093 3.4119 -0.0010
# 3 22.9523 47.1114 103.5469 -0.0052 25.9789 -0.0004
# 4 -0.0005 -0.0093 -0.0052 5.5264 -0.0059 15.9561
# 5 0.8296 3.4119 25.9789 -0.0059 36.8161 -0.0012
# 6 0.0035 -0.0010 -0.0004 15.9561 -0.0012 17.2164
#
#
#
# Elastic Compliance Matrix: (Units=1/GPa)
#
#
# Indices 1 2 3 4 5 6 
#
# 1 0.009021 -0.003755 -0.000398 0.000000 0.000426 -0.000002
# 2 -0.003755 0.010515 -0.004530 -0.000007 0.002307 0.000008
# 3 -0.000398 -0.004530 0.014216 0.000002 -0.009603 -0.000002
# 4 0.000000 -0.000007 0.000002 -0.107972 -0.000015 0.100068
# 5 0.000426 0.002307 -0.009603 -0.000015 0.033715 0.000016
# 6 -0.000002 0.000008 -0.000002 0.100068 0.000016 -0.034659
#
#
# Mechanical properties :
#
#
# Convention : Reuss Voigt Hill
#
# Bulk Modulus (GPa) = 61.02921 70.20439 65.61680
# Shear Modulus (GPa) = -95.53770 28.36133 -33.58819
#
# Velocity S-wave (km/s) = -6.19392 3.37475 -3.67258
# Velocity P-wave (km/s) = 5.16194 6.58611 2.89234
#
# Compressibility (1/GPa) = 0.01638560
#
# Stress axis : x y z
#
# Youngs Moduli (GPa) = 110.84855 95.10579 70.34221
#
# Poissons Ratio (x) = 0.35708 0.02801
# Poissons Ratio (y) = 0.41619 0.31868
# Poissons Ratio (z) = 0.04414 0.43087
#
# Static dielectric constant tensor:
#      x y z
#    x 1.947310 -0.000010 -0.046980 
#    y -0.000010 1.989180 0.000000 
#    z -0.046980 0.000000 2.021690 
# 
# From -- ./inp_files/325709.got.cif
#   From: 2010.05.17/outbox.cif.g08.bks.cpg/sg12_163_cif.got.tgz:325709.got - 2010.06.03 13:09:07.
