data_PCOD9211902
_publ_section_title
;
Structure prediction by ZEFSAII (Michael W. Deem and Ramdas Pophale) SiO2 
 PCOD9211902
Probable space group: C 2/M
;
_chemical_formula_sum "Si O2"
_cell_formula_units_Z 48
_cell_length_a 9.515958
_cell_length_b 22.435422
_cell_length_c 24.319938
_cell_angle_alpha 90.000000
_cell_angle_beta 151.986198
_cell_angle_gamma 90.000000
_cell_volume 2438.682227
_symmetry_space_group_name_H-M "C 2/M"
_symmetry_group_IT_number 12
_symmetry_cell_setting 'monoclinic'
loop_
_space_group_symop_operation_xyz
x,y,z
-x,y,-z
-x,-y,-z
x,-y,z
1/2+x,1/2+y,z
1/2-x,1/2+y,-z
1/2-x,1/2-y,-z
1/2+x,1/2-y,z
loop_
_atom_site_type_symbol
_atom_site_label
_atom_site_fract_x
_atom_site_fract_y
_atom_site_fract_z
Si Si1 0.817958 0.433445 0.992776
Si Si2 0.739495 0.430791 0.454315
Si Si3 0.644883 0.931439 0.385478
Si Si4 0.759448 0.359609 0.166750
Si Si5 0.651201 0.881081 0.198062
Si Si6 0.066195 0.728516 0.087271
O O1 0.689275 0.500000 0.941955
O O2 0.559741 0.387240 0.923207
O O3 0.000000 0.418839 0.000000
O O4 0.063500 0.432905 0.125716
O O5 0.640924 0.500000 0.427977
O O6 0.889061 0.412015 0.563283
O O7 0.454373 0.393581 0.335861
O O8 0.000000 0.429050 0.500000
O O9 0.486953 0.887357 0.289186
O O10 0.000000 0.931477 0.500000
O O11 0.539101 0.000000 0.341455
O O12 0.762256 0.288021 0.163213
O O13 0.879970 0.377896 0.148235
O O14 0.672245 0.824357 0.164064
O O15 0.000000 0.714468 0.000000
O O16 0.750000 0.750000 0.000000
#
# Coordination Sequence:
#
# PCOD9211902 Si02
#       6
#     8   8   8   8   8   8
#     4  11  25  39  60  97 132 161 207 273 333 386
#     4  10  23  42  66  97 132 170 211 261 327 391
#     4  10  21  40  67  96 128 166 210 265 323 383
#     4  12  24  42  67  94 125 171 223 263 322 392
#     4  12  24  42  67  93 127 172 221 265 322 390
#     4  12  24  43  65  95 130 174 219 271 332 383
#
# _framework density 19.682762
#
# number of rings (size 3 to 8) (size 9 to 14) (size 15 to 20)
#    0.000    0.833    5.000    2.000    2.333    2.667 
#    0.000    1.667    0.000    0.000    0.000    0.000 
#    0.000    0.000    0.000    0.000    0.000    0.000 
#
# Total GULP energy -133886.959228 kJ/mol
# GULP energy per Si atom -5578.623301 kJ/mol
# Density = 1.963796 g / cm^3
# Si number density = 19.682762 Si / 1000 Ang^3
#
#
#
# Elastic Constant Matrix: (Units=GPa)
#
#
# Indices 1 2 3 4 5 6 
#
# 1 157.7631 45.1275 34.2559 -0.0001 -28.9046 -0.0009
# 2 45.1275 125.2261 48.2623 0.0021 -20.3153 0.0023
# 3 34.2559 48.2623 85.0328 0.0236 -23.9330 0.0113
# 4 -0.0001 0.0021 0.0236 30.3678 0.0038 -9.0767
# 5 -28.9046 -20.3153 -23.9330 0.0038 37.9892 0.0012
# 6 -0.0009 0.0023 0.0113 -9.0767 0.0012 19.2651
#
#
#
# Elastic Compliance Matrix: (Units=1/GPa)
#
#
# Indices 1 2 3 4 5 6 
#
# 1 0.007857 -0.001756 -0.000912 0.000001 0.004464 0.000001
# 2 -0.001756 0.010767 -0.005056 0.000004 0.001237 0.000003
# 3 -0.000912 -0.005056 0.017067 -0.000020 0.007354 -0.000019
# 4 0.000001 0.000004 -0.000020 0.038327 -0.000014 0.018058
# 5 0.004464 0.001237 0.007354 -0.000014 0.035015 -0.000013
# 6 0.000001 0.000003 -0.000019 0.018058 -0.000013 0.060415
#
#
# Mechanical properties :
#
#
# Convention : Reuss Voigt Hill
#
# Bulk Modulus (GPa) = 49.39678 69.25703 59.32690
# Shear Modulus (GPa) = 26.09007 33.54951 29.81979
#
# Velocity S-wave (km/s) = 3.64473 4.13305 3.89655
# Velocity P-wave (km/s) = 6.54699 7.61835 7.10289
#
# Compressibility (1/GPa) = 0.02024424
#
# Stress axis : x y z
#
# Youngs Moduli (GPa) = 127.27818 92.87268 58.59190
#
# Poissons Ratio (x) = 0.16304 0.05345
# Poissons Ratio (y) = 0.22344 0.29623
# Poissons Ratio (z) = 0.11611 0.46955
#
# Static dielectric constant tensor:
#      x y z
#    x 1.770050 0.000000 0.000990 
#    y 0.000000 1.761720 -0.000010 
#    z 0.000990 -0.000010 1.671430 
# 
# From -- ./inp_files/334115.got.cif
#   From: 2010.05.17/outbox.cif.g08.bks.cpg/sg12_168_cif.got.tgz:334115.got - 2010.06.03 13:09:07.
