data_PCOD9211214
_publ_section_title
;
Structure prediction by ZEFSAII (Michael W. Deem and Ramdas Pophale) SiO2 
 PCOD9211214
Probable space group: C 2/M
;
_chemical_formula_sum "Si O2"
_cell_formula_units_Z 40
_cell_length_a 14.233763
_cell_length_b 23.464035
_cell_length_c 9.570560
_cell_angle_alpha 90.000000
_cell_angle_beta 151.801681
_cell_angle_gamma 90.000000
_cell_volume 1510.373944
_symmetry_space_group_name_H-M "C 2/M"
_symmetry_group_IT_number 12
_symmetry_cell_setting 'monoclinic'
loop_
_space_group_symop_operation_xyz
x,y,z
-x,y,-z
-x,-y,-z
x,-y,z
1/2+x,1/2+y,z
1/2-x,1/2+y,-z
1/2-x,1/2-y,-z
1/2+x,1/2-y,z
loop_
_atom_site_type_symbol
_atom_site_label
_atom_site_fract_x
_atom_site_fract_y
_atom_site_fract_z
Si Si1 0.299462 0.187375 0.815140
Si Si2 0.252223 0.566479 0.926291
Si Si3 0.019175 0.719646 0.362565
Si Si4 0.820575 0.605891 0.463313
Si Si5 0.687335 0.435665 0.586236
O O1 0.114594 0.218161 0.499641
O O2 0.281217 0.119453 0.781653
O O3 0.500000 0.205324 0.000000
O O4 0.332039 0.210178 0.015362
O O5 0.219682 0.500000 0.857689
O O6 0.294408 0.593710 0.830442
O O7 0.049102 0.589914 0.724623
O O8 0.449219 0.571190 0.276846
O O9 0.176136 0.673510 0.506317
O O10 0.000000 0.701735 0.500000
O O11 0.751146 0.571401 0.507062
O O12 0.741668 0.500000 0.704955
#
# Coordination Sequence:
#
# PCOD9211214 Si02
#       5
#     8   8   8   8   8
#     4  12  28  50  77 116 154 203 256 322 392 459
#     4  10  21  39  69 112 155 206 259 314 380 459
#     4  12  27  50  79 112 151 202 258 319 394 458
#     4  11  21  41  74 112 154 202 258 319 385 457
#     4  11  25  46  75 111 158 207 259 318 386 460
#
# _framework density 26.483509000000002
#
# number of rings (size 3 to 8) (size 9 to 14) (size 15 to 20)
#    0.000    0.800    4.000    4.200    2.800    3.600 
#    0.000    0.000    0.000    3.000    0.000    0.000 
#    0.000    0.000    0.000    0.000    0.000    0.000 
#
# Total GULP energy -112140.243175 kJ/mol
# GULP energy per Si atom -5607.012159 kJ/mol
# Density = 2.642323 g / cm^3
# Si number density = 26.483509 Si / 1000 Ang^3
#
#
#
# Elastic Constant Matrix: (Units=GPa)
#
#
# Indices 1 2 3 4 5 6 
#
# 1 110.4059 21.3417 25.6521 0.0000 -3.4643 0.0000
# 2 21.3417 151.7726 41.2500 0.0000 -10.3256 0.0000
# 3 25.6521 41.2500 137.9352 0.0000 -12.0724 0.0000
# 4 0.0000 0.0000 0.0000 47.7812 0.0000 -2.1498
# 5 -3.4643 -10.3256 -12.0724 0.0000 43.7455 0.0000
# 6 0.0000 0.0000 0.0000 -2.1498 0.0000 38.7305
#
#
#
# Elastic Compliance Matrix: (Units=1/GPa)
#
#
# Indices 1 2 3 4 5 6 
#
# 1 0.009589 -0.000934 -0.001493 0.000000 0.000127 0.000000
# 2 -0.000934 0.007317 -0.001916 0.000000 0.001124 0.000000
# 3 -0.001493 -0.001916 0.008250 0.000000 0.001706 0.000000
# 4 0.000000 0.000000 0.000000 0.020981 0.000000 0.001165
# 5 0.000127 0.001124 0.001706 0.000000 0.023606 0.000000
# 6 0.000000 0.000000 0.000000 0.001165 0.000000 0.025884
#
#
# Mechanical properties :
#
#
# Convention : Reuss Voigt Hill
#
# Bulk Modulus (GPa) = 60.71631 64.06680 62.39156
# Shear Modulus (GPa) = 45.53603 46.84277 46.18940
#
# Velocity S-wave (km/s) = 4.15108 4.21022 4.18075
# Velocity P-wave (km/s) = 6.77872 6.91941 6.84943
#
# Compressibility (1/GPa) = 0.01647004
#
# Stress axis : x y z
#
# Youngs Moduli (GPa) = 104.28772 136.65997 121.21531
#
# Poissons Ratio (x) = 0.12764 0.18096
# Poissons Ratio (y) = 0.09740 0.23227
# Poissons Ratio (z) = 0.15569 0.26187
#
# Static dielectric constant tensor:
#      x y z
#    x 2.103720 0.000000 -0.032140 
#    y 0.000000 2.027550 0.000000 
#    z -0.032140 0.000000 2.113900 
# 
# From -- ./inp_files/65615.got.cif
#   From: 2010.05.17/outbox.cif.g08.bks.cpg/sg12_33_cif.got.tgz:65615.got - 2010.06.03 13:09:07.
