data_PCOD9211008
_publ_section_title
;
Structure prediction by ZEFSAII (Michael W. Deem and Ramdas Pophale) SiO2 
 PCOD9211008
Probable space group: C 2/M
;
_chemical_formula_sum "Si O2"
_cell_formula_units_Z 64
_cell_length_a 17.539720
_cell_length_b 14.049786
_cell_length_c 16.634269
_cell_angle_alpha 90.000000
_cell_angle_beta 128.966649
_cell_angle_gamma 90.000000
_cell_volume 3187.155616
_symmetry_space_group_name_H-M "C 2/M"
_symmetry_group_IT_number 12
_symmetry_cell_setting 'monoclinic'
loop_
_space_group_symop_operation_xyz
x,y,z
-x,y,-z
-x,-y,-z
x,-y,z
1/2+x,1/2+y,z
1/2-x,1/2+y,-z
1/2-x,1/2-y,-z
1/2+x,1/2-y,z
loop_
_atom_site_type_symbol
_atom_site_label
_atom_site_fract_x
_atom_site_fract_y
_atom_site_fract_z
Si Si1 0.961712 0.112135 0.558250
Si Si2 0.254128 0.385438 0.011711
Si Si3 0.038654 0.885127 0.778950
Si Si4 0.541746 0.892459 0.937423
Si Si5 0.238768 0.113822 0.170962
Si Si6 0.396454 0.726262 0.795867
Si Si7 0.779140 0.224850 0.430310
Si Si8 0.116014 0.606569 0.590142
O O1 0.846817 0.132682 0.480402
O O2 0.000000 0.153752 0.500000
O O3 0.012754 0.151431 0.672246
O O4 0.981424 0.000000 0.571357
O O5 0.261278 0.500000 0.015401
O O6 0.248164 0.357236 0.913591
O O7 0.155852 0.366105 0.997950
O O8 0.355579 0.350961 0.118909
O O9 0.950904 0.853498 0.779053
O O10 0.041080 0.000000 0.778257
O O11 0.477633 0.806384 0.862386
O O12 0.529176 0.000000 0.893590
O O13 0.500000 0.899706 0.000000
O O14 0.155337 0.175960 0.161582
O O15 0.338182 0.124098 0.290424
O O16 0.213520 0.000000 0.155749
O O17 0.312154 0.778467 0.689306
O O18 0.750000 0.250000 0.500000
O O19 0.841296 0.312921 0.437997
O O20 0.151572 0.500000 0.591693
O O21 0.000000 0.606870 0.500000
#
# Coordination Sequence:
#
# PCOD9211008 Si02
#       8
#     8   8   8   8   8   8   8   8
#     4  10  22  41  64  88 120 164 211 256 303 363
#     4   9  20  40  65  91 121 157 201 254 306 362
#     4  10  21  39  65  94 123 157 202 258 317 369
#     4  10  24  45  62  83 123 166 206 249 292 356
#     4   9  19  37  62  95 128 156 197 255 312 370
#     4  11  23  38  61  92 123 163 202 248 313 366
#     4  11  22  38  56  87 123 155 200 252 305 359
#     4   9  19  36  59  86 120 162 201 246 306 363
#
# _framework density 20.080601000000001
#
# number of rings (size 3 to 8) (size 9 to 14) (size 15 to 20)
#    0.000    2.125    1.250    0.750    1.750    4.000 
#    4.500    5.625    0.000    0.000    0.000    0.000 
#    0.000    0.000    0.000    0.000    0.000    0.000 
#
# Total GULP energy -178428.691011 kJ/mol
# GULP energy per Si atom -5575.896594 kJ/mol
# Density = 2.003490 g / cm^3
# Si number density = 20.080601 Si / 1000 Ang^3
#
#
#
# Elastic Constant Matrix: (Units=GPa)
#
#
# Indices 1 2 3 4 5 6 
#
# 1 119.0496 3.9396 75.2284 0.0000 -4.9176 0.0000
# 2 3.9396 41.4043 28.7725 0.0000 0.2479 0.0000
# 3 75.2284 28.7725 115.3515 0.0000 2.9842 0.0000
# 4 0.0000 0.0000 0.0000 17.9348 0.0000 8.0692
# 5 -4.9176 0.2479 2.9842 0.0000 31.6680 0.0000
# 6 0.0000 0.0000 0.0000 8.0692 0.0000 -0.2912
#
#
#
# Elastic Compliance Matrix: (Units=1/GPa)
#
#
# Indices 1 2 3 4 5 6 
#
# 1 0.016134 0.007041 -0.012372 0.000000 0.003616 0.000000
# 2 0.007041 0.032295 -0.012700 0.000000 0.002037 0.000000
# 3 -0.012372 -0.012700 0.020001 0.000000 -0.003707 0.000000
# 4 0.000000 0.000000 0.000000 0.004140 0.000000 0.114725
# 5 0.003616 0.002037 -0.003707 0.000000 0.032472 0.000000
# 6 0.000000 0.000000 0.000000 0.114725 0.000000 -0.254991
#
#
# Mechanical properties :
#
#
# Convention : Reuss Voigt Hill
#
# Bulk Modulus (GPa) = 30.89421 54.63183 42.76302
# Shear Modulus (GPa) = -48.49874 21.05330 -13.72272
#
# Velocity S-wave (km/s) = -4.91980 3.24147 -2.61699
# Velocity P-wave (km/s) = 4.10538 6.42455 3.49434
#
# Compressibility (1/GPa) = 0.03236853
#
# Stress axis : x y z
#
# Youngs Moduli (GPa) = 61.98046 30.96419 49.99665
#
# Poissons Ratio (x) = -0.21801 0.61855
# Poissons Ratio (y) = -0.43638 0.63495
# Poissons Ratio (z) = 0.76681 0.39324
#
# Static dielectric constant tensor:
#      x y z
#    x 1.678160 0.000000 -0.015190 
#    y 0.000000 1.801240 0.000000 
#    z -0.015190 0.000000 1.746270 
# 
# From -- ./inp_files/225740.got.cif
#   From: 2010.05.17/outbox.cif.g08.bks.cpg/sg12_113_cif.got.tgz:225740.got - 2010.06.03 13:09:07.
