data_PCOD9211555
_publ_section_title
;
Structure prediction by ZEFSAII (Michael W. Deem and Ramdas Pophale) SiO2 
 PCOD9211555
Probable space group: C 2/M
;
_chemical_formula_sum "Si O2"
_cell_formula_units_Z 64
_cell_length_a 20.055036
_cell_length_b 8.786930
_cell_length_c 32.063408
_cell_angle_alpha 90.000000
_cell_angle_beta 143.737248
_cell_angle_gamma 90.000000
_cell_volume 3342.081636
_symmetry_space_group_name_H-M "C 2/M"
_symmetry_group_IT_number 12
_symmetry_cell_setting 'monoclinic'
loop_
_space_group_symop_operation_xyz
x,y,z
-x,y,-z
-x,-y,-z
x,-y,z
1/2+x,1/2+y,z
1/2-x,1/2+y,-z
1/2-x,1/2-y,-z
1/2+x,1/2-y,z
loop_
_atom_site_type_symbol
_atom_site_label
_atom_site_fract_x
_atom_site_fract_y
_atom_site_fract_z
Si Si1 0.023632 0.681001 0.732988
Si Si2 0.482614 0.317697 0.120622
Si Si3 0.083696 0.819038 0.677209
Si Si4 0.342678 0.318062 0.515349
Si Si5 0.777499 0.182192 0.621127
Si Si6 0.829423 0.184202 0.118202
Si Si7 0.931161 0.683581 0.006111
Si Si8 0.276296 0.317663 0.717614
O O1 0.015751 0.500000 0.731278
O O2 0.085163 0.733026 0.721868
O O3 0.090595 0.745989 0.806278
O O4 0.898801 0.752345 0.669067
O O5 0.477290 0.500000 0.112693
O O6 0.378146 0.270650 0.097475
O O7 0.481473 0.242330 0.074888
O O8 0.597118 0.282147 0.203441
O O9 0.187253 0.768988 0.701020
O O10 0.966721 0.780373 0.594800
O O11 0.085088 0.000000 0.685419
O O12 0.331086 0.500000 0.508679
O O13 0.250000 0.250000 0.500000
O O14 0.315876 0.250817 0.456487
O O15 0.760925 0.220645 0.661270
O O16 0.779979 0.000000 0.618039
O O17 0.836793 0.000000 0.124525
O O18 0.700313 0.230169 0.060631
O O19 0.934141 0.500000 0.007814
O O20 0.000000 0.735962 0.000000
O O21 0.260720 0.500000 0.714192
#
# Coordination Sequence:
#
# PCOD9211555 Si02
#       8
#     8   8   8   8   8   8   8   8
#     4  12  24  38  63  95 124 159 212 261 303 370
#     4  10  21  40  64  88 121 164 205 252 303 362
#     4  11  25  42  62  89 126 166 204 256 318 368
#     4  11  23  39  62  91 123 163 209 259 311 369
#     4  11  22  41  66  91 126 165 205 256 313 368
#     4  10  21  41  64  87 125 167 204 251 309 364
#     4  10  23  40  60  92 126 160 204 252 304 366
#     4  10  23  42  63  91 126 163 207 255 311 370
#
# _framework density 19.149742
#
# number of rings (size 3 to 8) (size 9 to 14) (size 15 to 20)
#    0.000    1.375    2.500    2.625    1.750    4.750 
#    0.000    2.500    0.000    0.000    0.000    0.000 
#    0.000    0.000    0.000    0.000    0.000    0.000 
#
# Total GULP energy -178913.809430 kJ/mol
# GULP energy per Si atom -5591.056545 kJ/mol
# Density = 1.910616 g / cm^3
# Si number density = 19.149742 Si / 1000 Ang^3
#
#
#
# Elastic Constant Matrix: (Units=GPa)
#
#
# Indices 1 2 3 4 5 6 
#
# 1 138.7935 33.4413 42.4293 0.0000 -9.7194 0.0000
# 2 33.4413 25.6386 20.8263 0.0000 -4.9367 0.0001
# 3 42.4293 20.8263 78.4079 0.0000 -19.6929 0.0000
# 4 0.0000 0.0000 0.0000 32.0539 0.0000 -4.7388
# 5 -9.7194 -4.9367 -19.6929 0.0000 36.4976 0.0000
# 6 0.0000 0.0001 0.0000 -4.7388 0.0000 30.7777
#
#
#
# Elastic Compliance Matrix: (Units=1/GPa)
#
#
# Indices 1 2 3 4 5 6 
#
# 1 0.010944 -0.012065 -0.002771 0.000000 -0.000213 0.000000
# 2 -0.012065 0.063041 -0.010274 0.000000 -0.000229 0.000000
# 3 -0.002771 -0.010274 0.019026 0.000000 0.008138 0.000000
# 4 0.000000 0.000000 0.000000 0.031924 0.000000 0.004915
# 5 -0.000213 -0.000229 0.008138 0.000000 0.031703 0.000000
# 6 0.000000 0.000000 0.000000 0.004915 0.000000 0.033248
#
#
# Mechanical properties :
#
#
# Convention : Reuss Voigt Hill
#
# Bulk Modulus (GPa) = 23.36845 48.47044 35.91944
# Shear Modulus (GPa) = 19.65648 29.60870 24.63259
#
# Velocity S-wave (km/s) = 3.20732 3.93640 3.59041
# Velocity P-wave (km/s) = 5.09366 6.78429 5.99883
#
# Compressibility (1/GPa) = 0.04279274
#
# Stress axis : x y z
#
# Youngs Moduli (GPa) = 91.37349 15.86264 52.55925
#
# Poissons Ratio (x) = 0.19138 0.14564
# Poissons Ratio (y) = 1.10240 0.53997
# Poissons Ratio (z) = 0.25320 0.16297
#
# Static dielectric constant tensor:
#      x y z
#    x 1.652130 0.000000 -0.000760 
#    y 0.000000 1.640880 0.000000 
#    z -0.000760 0.000000 1.646820 
# 
# From -- ./inp_files/378376.got.cif
#   From: 2010.05.17/outbox.cif.g08.bks.cpg/sg12_190_cif.got.tgz:378376.got - 2010.06.03 13:09:07.
