data_PCOD9211358
_publ_section_title
;
Structure prediction by ZEFSAII (Michael W. Deem and Ramdas Pophale) SiO2 
 PCOD9211358
Probable space group: C 2/M
;
_chemical_formula_sum "Si O2"
_cell_formula_units_Z 40
_cell_length_a 19.057989
_cell_length_b 9.642206
_cell_length_c 10.951298
_cell_angle_alpha 90.000000
_cell_angle_beta 72.195772
_cell_angle_gamma 90.000000
_cell_volume 1916.040815
_symmetry_space_group_name_H-M "C 2/M"
_symmetry_group_IT_number 12
_symmetry_cell_setting 'monoclinic'
loop_
_space_group_symop_operation_xyz
x,y,z
-x,y,-z
-x,-y,-z
x,-y,z
1/2+x,1/2+y,z
1/2-x,1/2+y,-z
1/2-x,1/2-y,-z
1/2+x,1/2-y,z
loop_
_atom_site_type_symbol
_atom_site_label
_atom_site_fract_x
_atom_site_fract_y
_atom_site_fract_z
Si Si1 0.546282 0.661735 0.257411
Si Si2 0.223721 0.278422 0.805479
Si Si3 0.396225 0.167986 0.320121
Si Si4 0.665406 0.855585 0.094677
Si Si5 0.145311 0.152245 0.439036
O O1 0.531814 0.500000 0.237884
O O2 0.475936 0.759808 0.281783
O O3 0.611658 0.725494 0.140005
O O4 0.579062 0.668723 0.377325
O O5 0.149038 0.268982 0.769492
O O6 0.272052 0.153291 0.834410
O O7 0.280867 0.347933 0.681233
O O8 0.203221 0.353156 0.942805
O O9 0.356122 0.224400 0.463539
O O10 0.398114 0.000000 0.312535
O O11 0.623099 0.000000 0.132067
O O12 0.137559 0.000000 0.503142
#
# Coordination Sequence:
#
# PCOD9211358 Si02
#       5
#     8   8   8   8   8
#     4  10  23  42  62  87 122 160 197 245 302 352
#     4  10  23  39  61  91 123 154 193 247 303 350
#     4  12  24  38  60  90 123 158 200 247 293 350
#     4  10  21  41  67  89 115 157 204 245 292 357
#     4  10  21  40  62  84 118 160 198 242 299 355
#
# _framework density 20.876382
#
# number of rings (size 3 to 8) (size 9 to 14) (size 15 to 20)
#    0.000    1.600    0.000    4.200    0.000   14.400 
#    0.000    3.000    0.000    0.000    0.000    0.000 
#    0.000    0.000    0.000    0.000    0.000    0.000 
#
# Total GULP energy -111528.649216 kJ/mol
# GULP energy per Si atom -5576.432461 kJ/mol
# Density = 2.082887 g / cm^3
# Si number density = 20.876382 Si / 1000 Ang^3
#
#
#
# Elastic Constant Matrix: (Units=GPa)
#
#
# Indices 1 2 3 4 5 6 
#
# 1 -932.5816 -217.5659 79.0744 0.0000 224.8600 0.0000
# 2 -217.5659 35.9562 65.5206 0.0000 44.5844 0.0000
# 3 79.0744 65.5206 76.9043 0.0000 -9.2374 0.0000
# 4 0.0000 0.0000 0.0000 -22.5303 0.0000 -9.0462
# 5 224.8600 44.5844 -9.2374 0.0000 -13.1585 0.0000
# 6 0.0000 0.0000 0.0000 -9.0462 0.0000 11.5154
#
#
#
# Elastic Compliance Matrix: (Units=1/GPa)
#
#
# Indices 1 2 3 4 5 6 
#
# 1 0.001095 -0.003651 0.002533 0.000000 0.004566 0.000000
# 2 -0.003651 0.017952 -0.010816 0.000000 0.006032 0.000000
# 3 0.002533 -0.010816 0.018824 0.000000 -0.006580 0.000000
# 4 0.000000 0.000000 0.000000 -0.033742 0.000000 -0.026507
# 5 0.004566 0.006032 -0.006580 0.000000 0.027087 0.000000
# 6 0.000000 0.000000 0.000000 -0.026507 0.000000 0.066017
#
#
# Mechanical properties :
#
#
# Convention : Reuss Voigt Hill
#
# Bulk Modulus (GPa) = 71.41720 -107.29586 -17.93933
# Shear Modulus (GPa) = 39.75565 -54.61804 -7.43119
#
# Velocity S-wave (km/s) = 4.36860 -5.12049 -1.88874
# Velocity P-wave (km/s) = 7.72853 9.29874 3.65626
#
# Compressibility (1/GPa) = 0.01400223
#
# Stress axis : x y z
#
# Youngs Moduli (GPa) = 913.15712 55.70528 53.12489
#
# Poissons Ratio (x) = 0.20337 -0.13455
# Poissons Ratio (y) = 3.33370 0.57460
# Poissons Ratio (z) = -2.31283 0.60251
#
# Static dielectric constant tensor:
#      x y z
#    x 1.766940 0.000000 -0.017280 
#    y 0.000000 1.768490 0.000000 
#    z -0.017280 0.000000 1.736190 
# 
# From -- ./inp_files/151838.got.cif
#   From: 2010.05.17/outbox.cif.g08.bks.cpg/sg12_76_cif.got.tgz:151838.got - 2010.06.03 13:09:07.
