data_PCOD9211176
_publ_section_title
;
Structure prediction by ZEFSAII (Michael W. Deem and Ramdas Pophale) SiO2 
 PCOD9211176
Probable space group: C 2/M
;
_chemical_formula_sum "Si O2"
_cell_formula_units_Z 52
_cell_length_a 9.065788
_cell_length_b 27.023664
_cell_length_c 19.997305
_cell_angle_alpha 90.000000
_cell_angle_beta 31.625809
_cell_angle_gamma 90.000000
_cell_volume 2568.968016
_symmetry_space_group_name_H-M "C 2/M"
_symmetry_group_IT_number 12
_symmetry_cell_setting 'monoclinic'
loop_
_space_group_symop_operation_xyz
x,y,z
-x,y,-z
-x,-y,-z
x,-y,z
1/2+x,1/2+y,z
1/2-x,1/2+y,-z
1/2-x,1/2-y,-z
1/2+x,1/2-y,z
loop_
_atom_site_type_symbol
_atom_site_label
_atom_site_fract_x
_atom_site_fract_y
_atom_site_fract_z
Si Si1 0.000000 0.733576 0.500000
Si Si2 0.972486 0.161755 0.335868
Si Si3 0.678336 0.556702 0.102338
Si Si4 0.179119 0.201114 0.119603
Si Si5 0.932172 0.698686 0.252993
Si Si6 0.837603 0.946355 0.372925
Si Si7 0.081061 0.141111 0.891201
O O1 0.211395 0.696724 0.458094
O O2 0.202023 0.769913 0.381896
O O3 0.922995 0.105029 0.373585
O O4 0.003284 0.171426 0.244349
O O5 0.265504 0.178062 0.254228
O O6 0.691596 0.500000 0.071457
O O7 0.484240 0.556056 0.243519
O O8 0.536527 0.593825 0.103997
O O9 0.000000 0.570065 0.000000
O O10 0.148017 0.258865 0.147283
O O11 0.058098 0.186684 0.094798
O O12 0.500000 0.186009 0.000000
O O13 0.089112 0.655888 0.233527
O O14 0.500000 0.945676 0.500000
O O15 0.921089 0.000000 0.370364
O O16 0.000000 0.137037 0.000000
#
# Coordination Sequence:
#
# PCOD9211176 Si02
#       7
#     4   8   8   8   8   8   8
#     4  10  22  40  61  90 123 170 222 260 316 382
#     4  11  21  38  64  88 118 168 212 262 316 381
#     4  10  23  45  71  96 128 170 218 271 326 394
#     4  11  22  40  59  83 123 168 216 260 310 383
#     4  11  25  38  58  91 129 167 211 266 326 385
#     4  10  21  39  67  98 121 155 212 269 318 376
#     4  12  25  39  62  93 130 168 215 268 332 385
#
# _framework density 20.241592000000001
#
# number of rings (size 3 to 8) (size 9 to 14) (size 15 to 20)
#    0.000    1.231    2.308    4.154    2.154    4.615 
#    0.000    0.769    0.000    0.000    0.000    4.308 
#    0.000    0.000    0.000    0.000    0.000    0.000 
#
# Total GULP energy -145116.378738 kJ/mol
# GULP energy per Si atom -5581.399182 kJ/mol
# Density = 2.019552 g / cm^3
# Si number density = 20.241592 Si / 1000 Ang^3
#
#
#
# Elastic Constant Matrix: (Units=GPa)
#
#
# Indices 1 2 3 4 5 6 
#
# 1 98.1401 39.4471 29.9367 -0.0002 -17.0651 -0.0002
# 2 39.4471 143.7698 29.5454 -0.0001 -7.1811 0.0001
# 3 29.9367 29.5454 109.2062 -0.0018 -9.5223 -0.0007
# 4 -0.0002 -0.0001 -0.0018 25.2735 0.0002 -8.6445
# 5 -17.0651 -7.1811 -9.5223 0.0002 22.6938 0.0005
# 6 -0.0002 0.0001 -0.0007 -8.6445 0.0005 22.9359
#
#
#
# Elastic Compliance Matrix: (Units=1/GPa)
#
#
# Indices 1 2 3 4 5 6 
#
# 1 0.013435 -0.002821 -0.002197 0.000000 0.008288 0.000000
# 2 -0.002821 0.008010 -0.001409 0.000000 -0.000178 0.000000
# 3 -0.002197 -0.001409 0.010336 0.000001 0.002239 0.000001
# 4 0.000000 0.000000 0.000001 0.045423 -0.000001 0.017120
# 5 0.008288 -0.000178 0.002239 -0.000001 0.051181 -0.000001
# 6 0.000000 0.000000 0.000001 0.017120 -0.000001 0.050052
#
#
# Mechanical properties :
#
#
# Convention : Reuss Voigt Hill
#
# Bulk Modulus (GPa) = 52.83617 60.99717 56.91667
# Shear Modulus (GPa) = 25.30375 30.99310 28.14843
#
# Velocity S-wave (km/s) = 3.53949 3.91725 3.73315
# Velocity P-wave (km/s) = 6.54702 7.11757 6.83825
#
# Compressibility (1/GPa) = 0.01892643
#
# Stress axis : x y z
#
# Youngs Moduli (GPa) = 74.43450 124.83993 96.75123
#
# Poissons Ratio (x) = 0.35213 0.21257
# Poissons Ratio (y) = 0.20996 0.13636
# Poissons Ratio (z) = 0.16353 0.17595
#
# Static dielectric constant tensor:
#      x y z
#    x 1.722820 0.000000 0.039560 
#    y 0.000000 1.762520 0.000000 
#    z 0.039560 0.000000 1.788870 
# 
# From -- ./inp_files/302935.got.cif
#   From: 2010.05.17/outbox.cif.g08.bks.cpg/sg12_152_cif.got.tgz:302935.got - 2010.06.03 13:09:07.
