data_PCOD9211536
_publ_section_title
;
Structure prediction by ZEFSAII (Michael W. Deem and Ramdas Pophale) SiO2 
 PCOD9211536
Probable space group: C 2/M
;
_chemical_formula_sum "Si O2"
_cell_formula_units_Z 56
_cell_length_a 23.937071
_cell_length_b 25.343194
_cell_length_c 5.813329
_cell_angle_alpha 90.000000
_cell_angle_beta 142.555436
_cell_angle_gamma 90.000000
_cell_volume 2144.155236
_symmetry_space_group_name_H-M "C 2/M"
_symmetry_group_IT_number 12
_symmetry_cell_setting 'monoclinic'
loop_
_space_group_symop_operation_xyz
x,y,z
-x,y,-z
-x,-y,-z
x,-y,z
1/2+x,1/2+y,z
1/2-x,1/2+y,-z
1/2-x,1/2-y,-z
1/2+x,1/2-y,z
loop_
_atom_site_type_symbol
_atom_site_label
_atom_site_fract_x
_atom_site_fract_y
_atom_site_fract_z
Si Si1 0.190175 0.000000 0.039050
Si Si2 0.599226 0.077331 0.834762
Si Si3 0.268635 0.500000 0.308582
Si Si4 0.585789 0.826712 0.449537
Si Si5 0.212497 0.610346 0.567215
Si Si6 0.824119 0.812257 0.644919
Si Si7 0.490879 0.378700 0.722279
Si Si8 0.649171 0.715320 0.769394
O O1 0.160941 0.000000 0.673981
O O2 0.233586 0.940525 0.171710
O O3 0.174551 0.000000 0.266332
O O4 0.500000 0.051481 0.500000
O O5 0.586338 0.131766 0.656942
O O6 0.690995 0.046815 0.051031
O O7 0.618729 0.085978 0.166272
O O8 0.680719 0.843022 0.629954
O O9 0.585252 0.766387 0.525707
O O10 0.500000 0.832920 0.000000
O O11 0.261299 0.638198 0.510487
O O12 0.802659 0.787515 0.326429
O O13 0.927501 0.835779 0.982149
O O14 0.820828 0.778074 0.866329
O O15 0.500000 0.406824 0.500000
O O16 0.399908 0.342746 0.394759
O O17 0.500000 0.407597 0.000000
#
# Coordination Sequence:
#
# PCOD9211536 Si02
#       8
#     4   8   4   8   8   8   8   8
#     4  10  22  42  63  86 120 161 194 257 315 369
#     4  11  23  40  58  86 116 165 210 264 306 355
#     4  10  21  40  64  82 112 155 216 261 305 352
#     4  12  24  39  60  85 123 166 208 251 297 357
#     4  11  25  41  61  88 122 156 208 254 309 359
#     4  10  22  39  61  89 118 159 200 249 296 361
#     4   8  15  33  55  80 108 146 191 227 280 346
#     4  10  23  39  62  86 121 161 201 240 300 361
#
# _framework density 26.117512999999999
#
# number of rings (size 3 to 8) (size 9 to 14) (size 15 to 20)
#    0.000    1.714    2.857    1.500    4.000    2.857 
#    0.000    2.143    0.000    0.000    0.000    9.000 
#    0.000    0.000    0.000    0.000    0.000    0.000 
#
# Total GULP energy -155923.323805 kJ/mol
# GULP energy per Si atom -5568.690136 kJ/mol
# Density = 2.605807 g / cm^3
# Si number density = 26.117513 Si / 1000 Ang^3
#
#
#
# Elastic Constant Matrix: (Units=GPa)
#
#
# Indices 1 2 3 4 5 6 
#
# 1 119.8196 7.2764 44.1599 0.0000 -44.1124 0.0000
# 2 7.2764 100.3099 24.8186 0.0000 -6.9480 0.0000
# 3 44.1599 24.8186 115.7528 0.0000 -50.9358 0.0000
# 4 0.0000 0.0000 0.0000 4.2479 0.0000 -30.4706
# 5 -44.1124 -6.9480 -50.9358 0.0000 55.4072 0.0000
# 6 0.0000 0.0000 0.0000 -30.4706 0.0000 -3.9825
#
#
#
# Elastic Compliance Matrix: (Units=1/GPa)
#
#
# Indices 1 2 3 4 5 6 
#
# 1 0.011834 -0.000098 -0.000593 0.000000 0.008864 0.000000
# 2 -0.000098 0.010582 -0.002824 0.000000 -0.001347 0.000000
# 3 -0.000593 -0.002824 0.015294 0.000000 0.013234 0.000000
# 4 0.000000 0.000000 0.000000 0.004213 0.000000 -0.032231
# 5 0.008864 -0.001347 0.013234 0.000000 0.037102 0.000000
# 6 0.000000 0.000000 0.000000 -0.032231 0.000000 -0.004493
#
#
# Mechanical properties :
#
#
# Convention : Reuss Voigt Hill
#
# Bulk Modulus (GPa) = 32.59553 54.26578 43.43065
# Shear Modulus (GPa) = 54.47350 28.44303 41.45826
#
# Velocity S-wave (km/s) = 4.57191 3.30364 3.98851
# Velocity P-wave (km/s) = 6.35431 5.94766 6.15435
#
# Compressibility (1/GPa) = 0.03067906
#
# Stress axis : x y z
#
# Youngs Moduli (GPa) = 84.50422 94.50285 65.38383
#
# Poissons Ratio (x) = 0.00923 0.03879
# Poissons Ratio (y) = 0.00825 0.18467
# Poissons Ratio (z) = 0.05013 0.26692
#
# Static dielectric constant tensor:
#      x y z
#    x 2.187130 0.000000 0.036460 
#    y 0.000000 2.032800 0.000000 
#    z 0.036460 0.000000 2.112280 
# 
# From -- ./inp_files/29818.got.cif
#   From: 2010.05.17/outbox.cif.g08.bks.cpg/sg12_15_cif.got.tgz:29818.got - 2010.06.03 13:09:07.
