data_PCOD9211580
_publ_section_title
;
Structure prediction by ZEFSAII (Michael W. Deem and Ramdas Pophale) SiO2 
 PCOD9211580
Probable space group: C 2/M
;
_chemical_formula_sum "Si O2"
_cell_formula_units_Z 48
_cell_length_a 15.373747
_cell_length_b 15.220240
_cell_length_c 11.399165
_cell_angle_alpha 90.000000
_cell_angle_beta 57.516381
_cell_angle_gamma 90.000000
_cell_volume 2250.000112
_symmetry_space_group_name_H-M "C 2/M"
_symmetry_group_IT_number 12
_symmetry_cell_setting 'monoclinic'
loop_
_space_group_symop_operation_xyz
x,y,z
-x,y,-z
-x,-y,-z
x,-y,z
1/2+x,1/2+y,z
1/2-x,1/2+y,-z
1/2-x,1/2-y,-z
1/2+x,1/2-y,z
loop_
_atom_site_type_symbol
_atom_site_label
_atom_site_fract_x
_atom_site_fract_y
_atom_site_fract_z
Si Si1 0.714608 0.345458 0.570976
Si Si2 0.452037 0.740355 0.156723
Si Si3 0.820407 0.602831 0.145586
Si Si4 0.386767 0.898204 0.618822
Si Si5 0.654662 0.190501 0.110490
Si Si6 0.386845 0.600665 0.592724
O O1 0.750000 0.250000 0.500000
O O2 0.626980 0.327088 0.730177
O O3 0.811227 0.389908 0.562990
O O4 0.666481 0.395114 0.495660
O O5 0.393006 0.831517 0.167016
O O6 0.546428 0.759179 0.174784
O O7 0.500000 0.707992 0.000000
O O8 0.830168 0.500000 0.171550
O O9 0.702587 0.634058 0.255939
O O10 0.847756 0.615951 0.989509
O O11 0.500000 0.865302 0.500000
O O12 0.339647 0.846647 0.763226
O O13 0.397636 0.000000 0.645161
O O14 0.750000 0.250000 0.000000
O O15 0.500000 0.643175 0.500000
O O16 0.403942 0.500000 0.618245
#
# Coordination Sequence:
#
# PCOD9211580 Si02
#       6
#     8   8   8   8   8   8
#     4  12  23  40  64  91 126 167 204 256 316 371
#     4  10  22  39  59  93 123 160 209 258 305 366
#     4  10  21  40  64  90 121 162 208 259 311 360
#     4  11  25  43  65  96 132 170 211 259 319 381
#     4  11  24  41  64  94 128 165 209 260 313 379
#     4  10  23  41  64  91 121 160 211 259 307 368
#
# _framework density 21.333333
#
# number of rings (size 3 to 8) (size 9 to 14) (size 15 to 20)
#    0.000    1.333    1.667    4.000    2.333    4.333 
#    0.000    0.000    0.000    2.000    0.000    0.000 
#    0.000    0.000    0.000    0.000    0.000    0.000 
#
# Total GULP energy -134150.224447 kJ/mol
# GULP energy per Si atom -5589.592685 kJ/mol
# Density = 2.128478 g / cm^3
# Si number density = 21.333333 Si / 1000 Ang^3
#
#
#
# Elastic Constant Matrix: (Units=GPa)
#
#
# Indices 1 2 3 4 5 6 
#
# 1 115.0457 -6.2288 24.8871 0.0000 -15.8345 0.0000
# 2 -6.2288 49.7125 12.1012 0.0000 -7.4651 0.0000
# 3 24.8871 12.1012 107.1604 0.0000 -18.1267 0.0000
# 4 0.0000 0.0000 0.0000 29.7334 0.0000 2.6974
# 5 -15.8345 -7.4651 -18.1267 0.0000 42.7415 0.0000
# 6 0.0000 0.0000 0.0000 2.6974 0.0000 19.3858
#
#
#
# Elastic Compliance Matrix: (Units=1/GPa)
#
#
# Indices 1 2 3 4 5 6 
#
# 1 0.009663 0.002157 -0.001959 0.000000 0.003126 0.000000
# 2 0.002157 0.021487 -0.002324 0.000000 0.003566 0.000000
# 3 -0.001959 -0.002324 0.010620 0.000000 0.003372 0.000000
# 4 0.000000 0.000000 0.000000 0.034062 0.000000 -0.004739
# 5 0.003126 0.003566 0.003372 0.000000 0.026607 0.000000
# 6 0.000000 0.000000 0.000000 -0.004739 0.000000 0.052244
#
#
# Mechanical properties :
#
#
# Convention : Reuss Voigt Hill
#
# Bulk Modulus (GPa) = 26.65423 37.04863 31.85143
# Shear Modulus (GPa) = 29.16454 34.44943 31.80698
#
# Velocity S-wave (km/s) = 3.70143 4.02284 3.86547
# Velocity P-wave (km/s) = 5.54876 6.24355 5.90638
#
# Compressibility (1/GPa) = 0.03751750
#
# Stress axis : x y z
#
# Youngs Moduli (GPa) = 103.48782 46.53936 94.16529
#
# Poissons Ratio (x) = -0.10038 0.18447
# Poissons Ratio (y) = -0.22322 0.21885
# Poissons Ratio (z) = 0.20273 0.10816
#
# Static dielectric constant tensor:
#      x y z
#    x 1.774520 0.000000 -0.017080 
#    y 0.000000 1.767730 0.000000 
#    z -0.017080 0.000000 1.793550 
# 
# From -- ./inp_files/143566.got.cif
#   From: 2010.05.17/outbox.cif.g08.bks.cpg/sg12_72_cif.got.tgz:143566.got - 2010.06.03 13:09:07.
