data_PCOD9211936
_publ_section_title
;
Structure prediction by ZEFSAII (Michael W. Deem and Ramdas Pophale) SiO2 
 PCOD9211936
Probable space group: C 2/M
;
_chemical_formula_sum "Si O2"
_cell_formula_units_Z 30
_cell_length_a 15.235606
_cell_length_b 16.141363
_cell_length_c 5.365958
_cell_angle_alpha 90.000000
_cell_angle_beta 61.600488
_cell_angle_gamma 90.000000
_cell_volume 1160.802698
_symmetry_space_group_name_H-M "C 2/M"
_symmetry_group_IT_number 12
_symmetry_cell_setting 'monoclinic'
loop_
_space_group_symop_operation_xyz
x,y,z
-x,y,-z
-x,-y,-z
x,-y,z
1/2+x,1/2+y,z
1/2-x,1/2+y,-z
1/2-x,1/2-y,-z
1/2+x,1/2-y,z
loop_
_atom_site_type_symbol
_atom_site_label
_atom_site_fract_x
_atom_site_fract_y
_atom_site_fract_z
Si Si1 0.651365 0.086169 0.433758
Si Si2 0.500000 0.660368 0.000000
Si Si3 0.500000 0.000000 0.000000
Si Si4 0.390259 0.253691 0.768853
Si Si5 0.838426 0.909541 0.551015
O O1 0.560106 0.071297 0.749818
O O2 0.643833 0.164266 0.268097
O O3 0.750685 0.090637 0.465431
O O4 0.650536 0.000000 0.278520
O O5 0.587696 0.720763 0.979056
O O6 0.445292 0.602570 0.272742
O O7 0.500000 0.259601 0.500000
O O8 0.327689 0.328969 0.736853
O O9 0.836572 0.000000 0.679190
#
# Coordination Sequence:
#
# PCOD9211936 Si02
#       5
#     8   4   2   8   8
#     4   9  20  41  69 100 135 173 225 285 334 404
#     4  10  23  39  62  98 140 186 213 275 332 400
#     4   8  20  42  72 100 132 170 212 290 348 380
#     4  10  22  40  66  97 136 181 227 270 333 402
#     4  10  21  40  68 102 137 169 227 280 335 408
#
# _framework density 25.844185
#
# number of rings (size 3 to 8) (size 9 to 14) (size 15 to 20)
#    0.800    1.600    0.000    1.200    0.000   11.733 
#    0.000    3.333    5.867    4.800    0.000    0.000 
#    0.000    0.000    0.000    0.000    0.000    0.000 
#
# Total GULP energy -83653.755811 kJ/mol
# GULP energy per Si atom -5576.917054 kJ/mol
# Density = 2.578536 g / cm^3
# Si number density = 25.844185 Si / 1000 Ang^3
#
#
#
# Elastic Constant Matrix: (Units=GPa)
#
#
# Indices 1 2 3 4 5 6 
#
# 1 86.3338 75.3345 18.1334 0.0000 -4.5247 0.0000
# 2 75.3345 291.8305 42.4802 0.0000 23.8139 0.0000
# 3 18.1334 42.4802 93.4510 0.0000 -37.4997 0.0000
# 4 0.0000 0.0000 0.0000 -95.4523 0.0000 15.7470
# 5 -4.5247 23.8139 -37.4997 0.0000 43.9214 0.0000
# 6 0.0000 0.0000 0.0000 15.7470 0.0000 35.5535
#
#
#
# Elastic Compliance Matrix: (Units=1/GPa)
#
#
# Indices 1 2 3 4 5 6 
#
# 1 0.015637 -0.004603 0.001074 0.000000 0.005023 0.000000
# 2 -0.004603 0.006013 -0.005078 0.000000 -0.008070 0.000000
# 3 0.001074 -0.005078 0.021220 0.000000 0.020982 0.000000
# 4 0.000000 0.000000 0.000000 -0.009763 0.000000 0.004324
# 5 0.005023 -0.008070 0.020982 0.000000 0.045575 0.000000
# 6 0.000000 0.000000 0.000000 0.004324 0.000000 0.026211
#
#
# Mechanical properties :
#
#
# Convention : Reuss Voigt Hill
#
# Bulk Modulus (GPa) = 38.97801 82.61237 60.79519
# Shear Modulus (GPa) = 38.26725 19.18234 28.72480
#
# Velocity S-wave (km/s) = 3.85215 2.72735 3.33747
# Velocity P-wave (km/s) = 5.90763 6.47710 6.19891
#
# Compressibility (1/GPa) = 0.02565549
#
# Stress axis : x y z
#
# Youngs Moduli (GPa) = 63.95044 166.31748 47.12440
#
# Poissons Ratio (x) = 0.76554 -0.05060
# Poissons Ratio (y) = 0.29436 0.23931
# Poissons Ratio (z) = -0.06867 0.84461
#
# Static dielectric constant tensor:
#      x y z
#    x 2.170390 0.000000 0.096660 
#    y 0.000000 2.027380 0.000000 
#    z 0.096660 0.000000 2.049440 
# 
# From -- ./inp_files/14528.got.cif
#   From: 2010.05.17/outbox.cif.g08.bks.cpg/sg12_8_cif.got.tgz:14528.got - 2010.06.03 13:09:07.
