data_PCOD9211219
_publ_section_title
;
Structure prediction by ZEFSAII (Michael W. Deem and Ramdas Pophale) SiO2 
 PCOD9211219
Probable space group: C 2/M
;
_chemical_formula_sum "Si O2"
_cell_formula_units_Z 40
_cell_length_a 9.479869
_cell_length_b 26.304715
_cell_length_c 8.289662
_cell_angle_alpha 90.000000
_cell_angle_beta 120.719773
_cell_angle_gamma 90.000000
_cell_volume 1777.082448
_symmetry_space_group_name_H-M "C 2/M"
_symmetry_group_IT_number 12
_symmetry_cell_setting 'monoclinic'
loop_
_space_group_symop_operation_xyz
x,y,z
-x,y,-z
-x,-y,-z
x,-y,z
1/2+x,1/2+y,z
1/2-x,1/2+y,-z
1/2-x,1/2-y,-z
1/2+x,1/2-y,z
loop_
_atom_site_type_symbol
_atom_site_label
_atom_site_fract_x
_atom_site_fract_y
_atom_site_fract_z
Si Si1 0.190113 0.000000 0.652067
Si Si2 0.369356 0.196619 0.272393
Si Si3 0.684720 0.391838 0.666685
Si Si4 0.145101 0.500000 0.941252
Si Si5 0.810717 0.902692 0.945148
Si Si6 0.817668 0.282244 0.692122
O O1 0.264650 0.054930 0.650237
O O2 0.000000 0.000000 0.500000
O O3 0.196135 0.000000 0.848895
O O4 0.500000 0.191930 0.500000
O O5 0.262254 0.146071 0.190352
O O6 0.256295 0.246155 0.216842
O O7 0.490199 0.208503 0.195943
O O8 0.500000 0.394709 0.500000
O O9 0.750466 0.338969 0.643113
O O10 0.690677 0.390289 0.864123
O O11 0.179810 0.449519 0.857617
O O12 0.000000 0.500000 0.000000
O O13 0.000000 0.913352 0.000000
O O14 0.750000 0.250000 0.500000
#
# Coordination Sequence:
#
# PCOD9211219 Si02
#       6
#     4   8   8   4   8   8
#     4   8  18  37  62  98 118 165 221 267 319 395
#     4  10  24  43  66  96 135 178 224 277 339 399
#     4  10  21  39  69  95 132 175 222 275 337 401
#     4  10  23  45  69  96 139 175 223 277 341 389
#     4  11  26  43  69 102 136 177 223 281 338 405
#     4  10  22  41  66  92 136 177 223 271 342 394
#
# _framework density 22.508804999999999
#
# number of rings (size 3 to 8) (size 9 to 14) (size 15 to 20)
#    0.000    2.000    0.000    2.100   14.000    0.800 
#    0.000    0.500    0.000    0.000    0.000    0.000 
#    0.000    0.000    0.000    0.000    0.000    0.000 
#
# Total GULP energy -111349.264180 kJ/mol
# GULP energy per Si atom -5567.463209 kJ/mol
# Density = 2.245757 g / cm^3
# Si number density = 22.508805 Si / 1000 Ang^3
#
#
#
# Elastic Constant Matrix: (Units=GPa)
#
#
# Indices 1 2 3 4 5 6 
#
# 1 125.5495 85.1161 -1.4088 0.0000 21.2872 0.0000
# 2 85.1161 253.0256 14.0118 0.0000 8.4754 0.0000
# 3 -1.4088 14.0118 63.2649 0.0000 8.2491 0.0000
# 4 0.0000 0.0000 0.0000 47.1624 0.0000 -3.6990
# 5 21.2872 8.4754 8.2491 0.0000 15.4795 0.0000
# 6 0.0000 0.0000 0.0000 -3.6990 0.0000 32.4261
#
#
#
# Elastic Compliance Matrix: (Units=1/GPa)
#
#
# Indices 1 2 3 4 5 6 
#
# 1 0.014202 -0.004345 0.003777 0.000000 -0.019165 0.000000
# 2 -0.004345 0.005380 -0.001809 0.000000 0.003993 0.000000
# 3 0.003777 -0.001809 0.018097 0.000000 -0.013848 0.000000
# 4 0.000000 0.000000 0.000000 0.021395 0.000000 0.002441
# 5 -0.019165 0.003993 -0.013848 0.000000 0.096151 0.000000
# 6 0.000000 0.000000 0.000000 0.002441 0.000000 0.031118
#
#
# Mechanical properties :
#
#
# Convention : Reuss Voigt Hill
#
# Bulk Modulus (GPa) = 30.37034 70.80870 50.58952
# Shear Modulus (GPa) = 24.74377 41.95499 33.34938
#
# Velocity S-wave (km/s) = 3.31916 4.32202 3.85335
# Velocity P-wave (km/s) = 5.31140 7.51219 6.50553
#
# Compressibility (1/GPa) = 0.03292686
#
# Stress axis : x y z
#
# Youngs Moduli (GPa) = 70.41036 185.86789 55.25784
#
# Poissons Ratio (x) = 0.80757 -0.20874
# Poissons Ratio (y) = 0.30592 0.09996
# Poissons Ratio (z) = -0.26597 0.33624
#
# Static dielectric constant tensor:
#      x y z
#    x 1.867250 0.000000 -0.052270 
#    y 0.000000 2.134780 0.000000 
#    z -0.052270 0.000000 1.912740 
# 
# From -- ./inp_files/41920.got.cif
#   From: 2010.05.17/outbox.cif.g08.bks.cpg/sg12_21_cif.got.tgz:41920.got - 2010.06.03 13:09:07.
