data_PCOD9211448
_publ_section_title
;
Structure prediction by ZEFSAII (Michael W. Deem and Ramdas Pophale) SiO2 
 PCOD9211448
Probable space group: C 2/M
;
_chemical_formula_sum "Si O2"
_cell_formula_units_Z 56
_cell_length_a 18.515920
_cell_length_b 8.855159
_cell_length_c 23.001819
_cell_angle_alpha 90.000000
_cell_angle_beta 52.824390
_cell_angle_gamma 90.000000
_cell_volume 3005.011913
_symmetry_space_group_name_H-M "C 2/M"
_symmetry_group_IT_number 12
_symmetry_cell_setting 'monoclinic'
loop_
_space_group_symop_operation_xyz
x,y,z
-x,y,-z
-x,-y,-z
x,-y,z
1/2+x,1/2+y,z
1/2-x,1/2+y,-z
1/2-x,1/2-y,-z
1/2+x,1/2-y,z
loop_
_atom_site_type_symbol
_atom_site_label
_atom_site_fract_x
_atom_site_fract_y
_atom_site_fract_z
Si Si1 0.022504 0.180127 0.361038
Si Si2 0.842534 0.821349 0.932146
Si Si3 0.633186 0.821496 0.768667
Si Si4 0.166842 0.680576 0.504709
Si Si5 0.819355 0.321166 0.639332
Si Si6 0.956166 0.680404 0.776043
Si Si7 0.496208 0.822114 0.933148
O O1 0.101182 0.233618 0.366304
O O2 0.043423 0.243551 0.286800
O O3 0.927091 0.248943 0.427985
O O4 0.017088 0.000000 0.362360
O O5 0.877813 0.746560 0.855321
O O6 0.919788 0.779917 0.941365
O O7 0.833571 0.000000 0.929328
O O8 0.750000 0.750000 0.000000
O O9 0.722108 0.727541 0.711601
O O10 0.551799 0.789529 0.762647
O O11 0.589590 0.792213 0.853271
O O12 0.654575 0.000000 0.754135
O O13 0.164734 0.500000 0.514032
O O14 0.250000 0.750000 0.500000
O O15 0.178618 0.711672 0.430449
O O16 0.833518 0.500000 0.640261
O O17 0.946773 0.500000 0.775649
O O18 0.474595 0.000000 0.931817
O O19 0.500000 0.800988 0.000000
#
# Coordination Sequence:
#
# PCOD9211448 Si02
#       7
#     8   8   8   8   8   8   8
#     4  12  25  40  61  89 120 154 193 240 295 348
#     4  11  22  37  58  85 119 156 198 244 292 348
#     4   9  19  36  59  85 113 149 192 240 293 348
#     4  11  24  42  64  89 118 155 198 240 287 345
#     4  11  24  40  59  85 119 156 194 240 290 342
#     4  10  21  40  63  86 116 153 195 242 293 350
#     4   9  19  37  59  83 115 154 196 243 295 349
#
# _framework density 18.635532999999999
#
# number of rings (size 3 to 8) (size 9 to 14) (size 15 to 20)
#    0.000    1.571    0.000    6.000    0.000   10.571 
#    0.000    4.286    0.000    0.000    0.000    0.000 
#    0.000    0.000    0.000    0.000    0.000    0.000 
#
# Total GULP energy -156544.485341 kJ/mol
# GULP energy per Si atom -5590.874476 kJ/mol
# Density = 1.859312 g / cm^3
# Si number density = 18.635533 Si / 1000 Ang^3
#
#
#
# Elastic Constant Matrix: (Units=GPa)
#
#
# Indices 1 2 3 4 5 6 
#
# 1 103.7325 78.3598 89.6738 0.0000 2.1297 0.0002
# 2 78.3598 116.0249 91.5998 0.0000 3.2355 0.0004
# 3 89.6738 91.5998 163.3614 0.0000 -3.7358 0.0000
# 4 0.0000 0.0000 0.0000 36.9168 0.0000 -3.4980
# 5 2.1297 3.2355 -3.7358 0.0000 34.9253 0.0000
# 6 0.0002 0.0004 0.0000 -3.4980 0.0000 34.7768
#
#
#
# Elastic Compliance Matrix: (Units=1/GPa)
#
#
# Indices 1 2 3 4 5 6 
#
# 1 0.023688 -0.010180 -0.007324 0.000000 -0.001285 0.000000
# 2 -0.010180 0.020037 -0.005689 0.000000 -0.001844 0.000000
# 3 -0.007324 -0.005689 0.013387 0.000000 0.002406 0.000000
# 4 0.000000 0.000000 0.000000 0.027349 0.000000 0.002751
# 5 -0.001285 -0.001844 0.002406 0.000000 0.029139 0.000000
# 6 0.000000 0.000000 0.000000 0.002751 0.000000 0.029031
#
#
# Mechanical properties :
#
#
# Convention : Reuss Voigt Hill
#
# Bulk Modulus (GPa) = 93.23942 100.26505 96.75223
# Shear Modulus (GPa) = 25.96130 29.55615 27.75873
#
# Velocity S-wave (km/s) = 3.73648 3.98679 3.86367
# Velocity P-wave (km/s) = 8.29197 8.66676 8.48144
#
# Compressibility (1/GPa) = 0.01072508
#
# Stress axis : x y z
#
# Youngs Moduli (GPa) = 42.21475 49.90735 74.69879
#
# Poissons Ratio (x) = 0.50806 0.54713
# Poissons Ratio (y) = 0.42975 0.42498
# Poissons Ratio (z) = 0.30920 0.28394
#
# Static dielectric constant tensor:
#      x y z
#    x 1.615190 0.000000 0.007860 
#    y 0.000000 1.631300 0.000000 
#    z 0.007860 0.000000 1.624430 
# 
# From -- ./inp_files/342323.got.cif
#   From: 2010.05.17/outbox.cif.g08.bks.cpg/sg12_172_cif.got.tgz:342323.got - 2010.06.03 13:09:07.
