data_PCOD9211029
_publ_section_title
;
Structure prediction by ZEFSAII (Michael W. Deem and Ramdas Pophale) SiO2 
 PCOD9211029
Probable space group: C 2/M
;
_chemical_formula_sum "Si O2"
_cell_formula_units_Z 56
_cell_length_a 10.777095
_cell_length_b 15.370095
_cell_length_c 16.574603
_cell_angle_alpha 90.000000
_cell_angle_beta 114.474903
_cell_angle_gamma 90.000000
_cell_volume 2498.796850
_symmetry_space_group_name_H-M "C 2/M"
_symmetry_group_IT_number 12
_symmetry_cell_setting 'monoclinic'
loop_
_space_group_symop_operation_xyz
x,y,z
-x,y,-z
-x,-y,-z
x,-y,z
1/2+x,1/2+y,z
1/2-x,1/2+y,-z
1/2-x,1/2-y,-z
1/2+x,1/2-y,z
loop_
_atom_site_type_symbol
_atom_site_label
_atom_site_fract_x
_atom_site_fract_y
_atom_site_fract_z
Si Si1 0.812157 0.866871 0.111016
Si Si2 0.376462 0.403126 0.790708
Si Si3 0.120902 0.750788 0.338761
Si Si4 0.732986 0.404535 0.716958
Si Si5 0.566962 0.099696 0.941589
Si Si6 0.632394 0.182139 0.807880
Si Si7 0.935488 0.098390 0.571113
O O1 0.752053 0.898965 0.181392
O O2 0.811755 0.764319 0.128025
O O3 0.967395 0.896397 0.138972
O O4 0.723923 0.894534 0.010906
O O5 0.355827 0.500000 0.751857
O O6 0.362913 0.324564 0.724781
O O7 0.254425 0.381897 0.819061
O O8 0.211105 0.670332 0.328702
O O9 0.964428 0.714596 0.290816
O O10 0.141933 0.812541 0.423375
O O11 0.781861 0.500000 0.702825
O O12 0.568478 0.403536 0.664044
O O13 0.534811 0.137899 0.846796
O O14 0.525705 0.000000 0.928550
O O15 0.500000 0.146923 0.000000
O O16 0.000000 0.106886 0.500000
O O17 0.870995 0.000000 0.557860
#
# Coordination Sequence:
#
# PCOD9211029 Si02
#       7
#     8   8   8   8   8   8   8
#     4  11  22  39  59  83 117 161 204 250 304 356
#     4  11  21  36  61  87 117 156 201 252 306 357
#     4  11  21  39  62  89 125 160 196 248 299 357
#     4  11  21  38  63  90 120 161 208 244 294 366
#     4  11  24  39  57  82 116 160 207 254 303 353
#     4  11  23  38  57  86 121 154 204 252 302 356
#     4  10  21  39  65  95 125 158 199 245 296 362
#
# _framework density 22.410785000000001
#
# number of rings (size 3 to 8) (size 9 to 14) (size 15 to 20)
#    0.000    1.143    4.286    3.429    2.000    3.429 
#    0.000    1.429    0.000    0.429    0.000    0.000 
#    0.000    0.000    0.000    0.000    0.000    0.000 
#
# Total GULP energy -156089.500617 kJ/mol
# GULP energy per Si atom -5574.625022 kJ/mol
# Density = 2.235978 g / cm^3
# Si number density = 22.410785 Si / 1000 Ang^3
#
#
#
# Elastic Constant Matrix: (Units=GPa)
#
#
# Indices 1 2 3 4 5 6 
#
# 1 77.7494 30.8481 -3.4324 0.0000 -17.0545 0.0000
# 2 30.8481 163.5747 12.6684 0.0000 -13.7416 0.0000
# 3 -3.4324 12.6684 41.5266 0.0000 -13.6325 0.0000
# 4 0.0000 0.0000 0.0000 12.8360 0.0000 0.4074
# 5 -17.0545 -13.7416 -13.6325 0.0000 21.5883 0.0000
# 6 0.0000 0.0000 0.0000 0.4074 0.0000 22.6117
#
#
#
# Elastic Compliance Matrix: (Units=1/GPa)
#
#
# Indices 1 2 3 4 5 6 
#
# 1 0.018151 -0.002554 0.008140 0.000000 0.017854 0.000000
# 2 -0.002554 0.006838 -0.001931 0.000000 0.001116 0.000000
# 3 0.008140 -0.001931 0.034125 0.000000 0.026751 0.000000
# 4 0.000000 0.000000 0.000000 0.077950 0.000000 -0.001404
# 5 0.017854 0.001116 0.026751 0.000000 0.078028 0.000000
# 6 0.000000 0.000000 0.000000 -0.001404 0.000000 0.044250
#
#
# Mechanical properties :
#
#
# Convention : Reuss Voigt Hill
#
# Bulk Modulus (GPa) = 15.05445 40.33543 27.69494
# Shear Modulus (GPa) = 18.23672 27.59165 22.91418
#
# Velocity S-wave (km/s) = 2.85572 3.51262 3.20107
# Velocity P-wave (km/s) = 4.19590 5.87270 5.10364
#
# Compressibility (1/GPa) = 0.06642556
#
# Stress axis : x y z
#
# Youngs Moduli (GPa) = 55.09452 146.23532 29.30440
#
# Poissons Ratio (x) = 0.37342 -0.23855
# Poissons Ratio (y) = 0.14069 0.05658
# Poissons Ratio (z) = -0.44849 0.28234
#
# Static dielectric constant tensor:
#      x y z
#    x 1.935000 0.000000 -0.025030 
#    y 0.000000 1.873680 0.000000 
#    z -0.025030 0.000000 1.905720 
# 
# From -- ./inp_files/205021.got.cif
#   From: 2010.05.17/outbox.cif.g08.bks.cpg/sg12_103_cif.got.tgz:205021.got - 2010.06.03 13:09:07.
