data_PCOD9211100
_publ_section_title
;
Structure prediction by ZEFSAII (Michael W. Deem and Ramdas Pophale) SiO2 
 PCOD9211100
Probable space group: C 2/M
;
_chemical_formula_sum "Si O2"
_cell_formula_units_Z 52
_cell_length_a 15.349793
_cell_length_b 18.266804
_cell_length_c 14.100421
_cell_angle_alpha 90.000000
_cell_angle_beta 142.271827
_cell_angle_gamma 90.000000
_cell_volume 2419.295931
_symmetry_space_group_name_H-M "C 2/M"
_symmetry_group_IT_number 12
_symmetry_cell_setting 'monoclinic'
loop_
_space_group_symop_operation_xyz
x,y,z
-x,y,-z
-x,-y,-z
x,-y,z
1/2+x,1/2+y,z
1/2-x,1/2+y,-z
1/2-x,1/2-y,-z
1/2+x,1/2-y,z
loop_
_atom_site_type_symbol
_atom_site_label
_atom_site_fract_x
_atom_site_fract_y
_atom_site_fract_z
Si Si1 0.641765 0.580548 0.684975
Si Si2 0.500000 0.344633 0.000000
Si Si3 0.902213 0.588282 0.763818
Si Si4 0.073375 0.647094 0.425317
Si Si5 0.206771 0.414258 0.727007
Si Si6 0.082332 0.274145 0.950264
Si Si7 0.106470 0.775528 0.755969
O O1 0.500000 0.577964 0.500000
O O2 0.671763 0.500000 0.750860
O O3 0.770626 0.598273 0.723151
O O4 0.606196 0.638906 0.735453
O O5 0.638288 0.393068 0.102821
O O6 0.525732 0.286953 0.106533
O O7 0.932294 0.500000 0.785320
O O8 0.873934 0.620624 0.632896
O O9 0.027723 0.642516 0.909164
O O10 0.173547 0.622864 0.597109
O O11 0.919255 0.609131 0.310443
O O12 0.028184 0.732114 0.401692
O O13 0.196274 0.500000 0.703075
O O14 0.102535 0.253561 0.859005
O O15 0.230042 0.259037 0.132872
#
# Coordination Sequence:
#
# PCOD9211100 Si02
#       7
#     8   4   8   8   8   8   8
#     4  10  23  40  61  90 126 164 206 259 317 372
#     4  12  23  40  59  90 132 166 200 260 319 376
#     4  10  21  39  66  94 122 162 213 268 314 364
#     4  10  21  40  67  92 121 160 215 263 306 373
#     4  11  23  39  63  92 124 164 208 260 317 372
#     4  10  22  38  61  91 124 163 205 256 313 378
#     4  10  21  40  61  90 122 161 207 254 317 368
#
# _framework density 21.493856000000001
#
# number of rings (size 3 to 8) (size 9 to 14) (size 15 to 20)
#    0.000    1.692    1.538    3.000    2.154    1.846 
#    0.000    8.077    0.000    0.000    0.000    0.000 
#    0.000    0.000    0.000    0.000    0.000    0.000 
#
# Total GULP energy -144906.783540 kJ/mol
# GULP energy per Si atom -5573.337828 kJ/mol
# Density = 2.144494 g / cm^3
# Si number density = 21.493856 Si / 1000 Ang^3
#
#
#
# Elastic Constant Matrix: (Units=GPa)
#
#
# Indices 1 2 3 4 5 6 
#
# 1 66.9947 51.3533 17.1042 0.0000 12.4025 0.0000
# 2 51.3533 141.4978 21.1821 0.0000 7.9935 0.0000
# 3 17.1042 21.1821 28.6927 0.0000 10.9726 0.0000
# 4 0.0000 0.0000 0.0000 15.6933 0.0000 2.5026
# 5 12.4025 7.9935 10.9726 0.0000 18.0278 0.0000
# 6 0.0000 0.0000 0.0000 2.5026 0.0000 31.6703
#
#
#
# Elastic Compliance Matrix: (Units=1/GPa)
#
#
# Indices 1 2 3 4 5 6 
#
# 1 0.023601 -0.007270 -0.004855 0.000000 -0.010058 0.000000
# 2 -0.007270 0.010185 -0.004393 0.000000 0.003160 0.000000
# 3 -0.004855 -0.004393 0.050789 0.000000 -0.025624 0.000000
# 4 0.000000 0.000000 0.000000 0.064535 0.000000 -0.005100
# 5 -0.010058 0.003160 -0.025624 0.000000 0.076584 0.000000
# 6 0.000000 0.000000 0.000000 -0.005100 0.000000 0.031978
#
#
# Mechanical properties :
#
#
# Convention : Reuss Voigt Hill
#
# Bulk Modulus (GPa) = 19.40363 46.27384 32.83873
# Shear Modulus (GPa) = 16.23956 22.91464 19.57710
#
# Velocity S-wave (km/s) = 2.75170 3.26866 3.02126
# Velocity P-wave (km/s) = 4.37526 5.98508 5.24233
#
# Compressibility (1/GPa) = 0.05153676
#
# Stress axis : x y z
#
# Youngs Moduli (GPa) = 42.37077 98.18302 19.68931
#
# Poissons Ratio (x) = 0.71383 0.09560
# Poissons Ratio (y) = 0.30805 0.08650
# Poissons Ratio (z) = 0.20573 0.43135
#
# Static dielectric constant tensor:
#      x y z
#    x 1.924360 0.000000 -0.047190 
#    y 0.000000 1.833860 0.000000 
#    z -0.047190 0.000000 1.877310 
# 
# From -- ./inp_files/216892.got.cif
#   From: 2010.05.17/outbox.cif.g08.bks.cpg/sg12_109_cif.got.tgz:216892.got - 2010.06.03 13:09:07.
