data_PCOD9211993
_publ_section_title
;
Structure prediction by ZEFSAII (Michael W. Deem and Ramdas Pophale) SiO2 
 PCOD9211993
Probable space group: C 2/M
;
_chemical_formula_sum "Si O2"
_cell_formula_units_Z 48
_cell_length_a 19.908344
_cell_length_b 15.684608
_cell_length_c 11.116723
_cell_angle_alpha 90.000000
_cell_angle_beta 136.444410
_cell_angle_gamma 90.000000
_cell_volume 2391.891019
_symmetry_space_group_name_H-M "C 2/M"
_symmetry_group_IT_number 12
_symmetry_cell_setting 'monoclinic'
loop_
_space_group_symop_operation_xyz
x,y,z
-x,y,-z
-x,-y,-z
x,-y,z
1/2+x,1/2+y,z
1/2-x,1/2+y,-z
1/2-x,1/2-y,-z
1/2+x,1/2-y,z
loop_
_atom_site_type_symbol
_atom_site_label
_atom_site_fract_x
_atom_site_fract_y
_atom_site_fract_z
Si Si1 0.105959 0.397198 0.087516
Si Si2 0.896229 0.733157 0.358558
Si Si3 0.205933 0.810836 0.542809
Si Si4 0.029826 0.900196 0.169436
Si Si5 0.668918 0.904144 0.905255
Si Si6 0.102504 0.906445 0.779869
O O1 0.109911 0.500000 0.102433
O O2 0.202050 0.361458 0.279853
O O3 0.114095 0.376630 0.956044
O O4 0.000000 0.368909 0.000000
O O5 0.845329 0.758099 0.416482
O O6 0.834379 0.669075 0.198110
O O7 0.920348 0.821457 0.321924
O O8 0.000000 0.686892 0.500000
O O9 0.250000 0.750000 0.500000
O O10 0.120827 0.862846 0.362860
O O11 0.936619 0.893997 0.136117
O O12 0.052600 0.000000 0.179737
O O13 0.000000 0.863129 0.000000
O O14 0.635339 0.000000 0.825469
O O15 0.782189 0.912162 0.083081
O O16 0.062753 0.000000 0.690504
#
# Coordination Sequence:
#
# PCOD9211993 Si02
#       6
#     8   8   8   8   8   8
#     4  10  23  44  68  93 127 174 222 267 318 385
#     4  12  25  42  64  98 132 166 217 273 327 390
#     4  12  27  41  62  97 132 173 213 267 330 391
#     4  10  23  43  67  95 130 170 214 269 331 391
#     4  10  23  43  68  94 126 173 222 269 321 380
#     4  10  21  40  69  98 124 164 213 270 331 387
#
# _framework density 20.067803000000001
#
# number of rings (size 3 to 8) (size 9 to 14) (size 15 to 20)
#    0.000    1.333    3.333    1.000    4.667    2.000 
#    0.000    0.833    0.000    0.000    0.000    0.000 
#    0.000    0.000    0.000    0.000    0.000    0.000 
#
# Total GULP energy -133827.410408 kJ/mol
# GULP energy per Si atom -5576.142100 kJ/mol
# Density = 2.002213 g / cm^3
# Si number density = 20.067803 Si / 1000 Ang^3
#
#
#
# Elastic Constant Matrix: (Units=GPa)
#
#
# Indices 1 2 3 4 5 6 
#
# 1 154.6656 28.5735 48.3804 0.0000 -12.8842 0.0000
# 2 28.5735 62.1889 27.7822 0.0000 -27.3950 0.0000
# 3 48.3804 27.7822 88.1507 0.0000 -13.2827 0.0000
# 4 0.0000 0.0000 0.0000 640.3170 0.0000 -44.6578
# 5 -12.8842 -27.3950 -13.2827 0.0000 35.7618 0.0000
# 6 0.0000 0.0000 0.0000 -44.6578 0.0000 26.1925
#
#
#
# Elastic Compliance Matrix: (Units=1/GPa)
#
#
# Indices 1 2 3 4 5 6 
#
# 1 0.008014 -0.002027 -0.003769 0.000000 -0.000066 0.000000
# 2 -0.002027 0.027195 -0.004692 0.000000 0.018359 0.000000
# 3 -0.003769 -0.004692 0.014984 0.000000 0.000613 0.000000
# 4 0.000000 0.000000 0.000000 0.001772 0.000000 0.003022
# 5 -0.000066 0.018359 0.000613 0.000000 0.042231 0.000000
# 6 0.000000 0.000000 0.000000 0.003022 0.000000 0.043331
#
#
# Mechanical properties :
#
#
# Convention : Reuss Voigt Hill
#
# Bulk Modulus (GPa) = 34.22760 57.16417 45.69588
# Shear Modulus (GPa) = 29.71892 153.80553 91.76222
#
# Velocity S-wave (km/s) = 3.85245 8.76409 6.76944
# Velocity P-wave (km/s) = 6.07302 11.44377 9.16082
#
# Compressibility (1/GPa) = 0.02921619
#
# Stress axis : x y z
#
# Youngs Moduli (GPa) = 124.78786 36.77134 66.73764
#
# Poissons Ratio (x) = 0.07454 0.25155
# Poissons Ratio (y) = 0.25295 0.31314
# Poissons Ratio (z) = 0.47035 0.17253
#
# Static dielectric constant tensor:
#      x y z
#    x 1.719170 0.000000 -0.065100 
#    y 0.000000 1.900790 0.000000 
#    z -0.065100 0.000000 1.849870 
# 
# From -- ./inp_files/167638.got.cif
#   From: 2010.05.17/outbox.cif.g08.bks.cpg/sg12_84_cif.got.tgz:167638.got - 2010.06.03 13:09:07.
