data_PCOD9211827
_publ_section_title
;
Structure prediction by ZEFSAII (Michael W. Deem and Ramdas Pophale) SiO2 
 PCOD9211827
Probable space group: C 2/M
;
_chemical_formula_sum "Si O2"
_cell_formula_units_Z 50
_cell_length_a 17.162326
_cell_length_b 18.357693
_cell_length_c 9.118745
_cell_angle_alpha 90.000000
_cell_angle_beta 63.405351
_cell_angle_gamma 90.000000
_cell_volume 2568.987957
_symmetry_space_group_name_H-M "C 2/M"
_symmetry_group_IT_number 12
_symmetry_cell_setting 'monoclinic'
loop_
_space_group_symop_operation_xyz
x,y,z
-x,y,-z
-x,-y,-z
x,-y,z
1/2+x,1/2+y,z
1/2-x,1/2+y,-z
1/2-x,1/2-y,-z
1/2+x,1/2-y,z
loop_
_atom_site_type_symbol
_atom_site_label
_atom_site_fract_x
_atom_site_fract_y
_atom_site_fract_z
Si Si1 0.101131 0.153844 0.436092
Si Si2 0.772937 0.416748 0.786633
Si Si3 0.000000 0.000000 0.000000
Si Si4 0.100814 0.881458 0.759440
Si Si5 0.414266 0.791012 0.163327
Si Si6 0.088267 0.326491 0.505330
Si Si7 0.254435 0.173836 0.087174
O O1 0.130327 0.117049 0.564360
O O2 0.100221 0.240970 0.461962
O O3 0.166420 0.147567 0.243841
O O4 0.000000 0.132095 0.500000
O O5 0.800159 0.500000 0.759534
O O6 0.674979 0.409712 0.807715
O O7 0.831751 0.368895 0.630386
O O8 0.778900 0.385081 0.944526
O O9 0.021219 0.935087 0.859759
O O10 0.084133 0.796382 0.808788
O O11 0.416617 0.831408 0.316451
O O12 0.328119 0.812265 0.146762
O O13 0.500000 0.809312 0.000000
O O14 0.000000 0.350662 0.500000
O O15 0.250000 0.250000 0.000000
#
# Coordination Sequence:
#
# PCOD9211827 Si02
#       7
#     8   8   2   8   8   8   8
#     4  10  23  39  65  93 127 161 215 269 309 357
#     4  12  25  41  63  89 128 170 206 261 326 385
#     4  12  24  40  62  96 134 172 212 240 324 408
#     4  11  23  39  63  89 128 171 210 248 308 388
#     4  11  22  38  69  97 124 160 216 272 309 360
#     4  10  21  40  66  94 121 160 213 264 315 371
#     4  12  23  40  65  96 125 164 218 268 312 378
#
# _framework density 19.462917999999998
#
# number of rings (size 3 to 8) (size 9 to 14) (size 15 to 20)
#    0.000    0.960    4.800    1.920    6.720    2.880 
#    1.440    1.200    0.000    1.920    0.000    0.000 
#    0.000    0.000    0.000    0.000    0.000    0.000 
#
# Total GULP energy -139376.243937 kJ/mol
# GULP energy per Si atom -5575.049757 kJ/mol
# Density = 1.941862 g / cm^3
# Si number density = 19.462918 Si / 1000 Ang^3
#
#
#
# Elastic Constant Matrix: (Units=GPa)
#
#
# Indices 1 2 3 4 5 6 
#
# 1 86.1582 16.3163 40.4826 0.0000 16.8028 0.0000
# 2 16.3163 40.9708 27.8488 0.0000 8.7279 0.0000
# 3 40.4826 27.8488 165.9733 0.0000 8.0999 0.0000
# 4 0.0000 0.0000 0.0000 14.3710 0.0000 20.3379
# 5 16.8028 8.7279 8.0999 0.0000 33.3321 0.0000
# 6 0.0000 0.0000 0.0000 20.3379 0.0000 -12.9504
#
#
#
# Elastic Compliance Matrix: (Units=1/GPa)
#
#
# Indices 1 2 3 4 5 6 
#
# 1 0.014599 -0.002615 -0.002830 0.000000 -0.005987 0.000000
# 2 -0.002615 0.029329 -0.004021 0.000000 -0.005384 0.000000
# 3 -0.002830 -0.004021 0.007356 0.000000 0.000692 0.000000
# 4 0.000000 0.000000 0.000000 0.021593 0.000000 0.033911
# 5 -0.005987 -0.005384 0.000692 0.000000 0.034261 0.000000
# 6 0.000000 0.000000 0.000000 0.033911 0.000000 -0.023962
#
#
# Mechanical properties :
#
#
# Convention : Reuss Voigt Hill
#
# Bulk Modulus (GPa) = 30.90880 51.37750 41.14315
# Shear Modulus (GPa) = 44.29031 20.84753 32.56892
#
# Velocity S-wave (km/s) = 4.77553 3.27638 4.09514
# Velocity P-wave (km/s) = 6.80609 6.38497 6.59889
#
# Compressibility (1/GPa) = 0.03235325
#
# Stress axis : x y z
#
# Youngs Moduli (GPa) = 68.49763 34.09607 135.94060
#
# Poissons Ratio (x) = 0.08916 0.38470
# Poissons Ratio (y) = 0.17912 0.54655
# Poissons Ratio (z) = 0.19384 0.13708
#
# Static dielectric constant tensor:
#      x y z
#    x 0.529180 0.000000 0.910800 
#    y 0.000000 1.660550 0.000000 
#    z 0.910800 0.000000 0.969480 
# 
# From -- ./inp_files/75778.got.cif
#   From: 2010.05.17/outbox.cif.g08.bks.cpg/sg12_38_cif.got.tgz:75778.got - 2010.06.03 13:09:07.
