data_PCOD9211300
_publ_section_title
;
Structure prediction by ZEFSAII (Michael W. Deem and Ramdas Pophale) SiO2 
 PCOD9211300
Probable space group: C 2/M
;
_chemical_formula_sum "Si O2"
_cell_formula_units_Z 32
_cell_length_a 14.595732
_cell_length_b 20.211598
_cell_length_c 13.400275
_cell_angle_alpha 90.000000
_cell_angle_beta 160.737371
_cell_angle_gamma 90.000000
_cell_volume 1304.130009
_symmetry_space_group_name_H-M "C 2/M"
_symmetry_group_IT_number 12
_symmetry_cell_setting 'monoclinic'
loop_
_space_group_symop_operation_xyz
x,y,z
-x,y,-z
-x,-y,-z
x,-y,z
1/2+x,1/2+y,z
1/2-x,1/2+y,-z
1/2-x,1/2-y,-z
1/2+x,1/2-y,z
loop_
_atom_site_type_symbol
_atom_site_label
_atom_site_fract_x
_atom_site_fract_y
_atom_site_fract_z
Si Si1 0.150501 0.136290 0.549457
Si Si2 0.739708 0.500000 0.572608
Si Si3 0.817124 0.285119 0.412173
Si Si4 0.818864 0.145139 0.002390
Si Si5 0.803004 0.500000 0.104528
O O1 0.320326 0.068839 0.706914
O O2 0.280542 0.209167 0.685411
O O3 0.000000 0.128392 0.500000
O O4 0.949228 0.140920 0.246582
O O5 0.885625 0.500000 0.615887
O O6 0.409940 0.500000 0.209929
O O7 0.548925 0.327306 0.163493
O O8 0.000000 0.295379 0.500000
O O9 0.049451 0.308173 0.730652
O O10 0.742952 0.070428 0.891470
#
# Coordination Sequence:
#
# PCOD9211300 Si02
#       5
#     8   4   8   8   4
#     4  10  22  40  65  96 128 164 203 248 309 378
#     4  10  21  40  60  92 128 162 198 248 306 374
#     4  11  24  41  64  93 124 163 212 257 304 362
#     4  11  22  43  64  90 126 165 203 259 310 360
#     4  10  22  40  64  90 121 162 209 252 306 370
#
# _framework density 24.537431000000002
#
# number of rings (size 3 to 8) (size 9 to 14) (size 15 to 20)
#    0.000    1.500    0.000    5.625    0.000    4.000 
#    0.000   27.500    0.000    0.000    0.000    0.000 
#    0.000    0.000    0.000    0.000    0.000    0.000 
#
# Total GULP energy -89455.040234 kJ/mol
# GULP energy per Si atom -5590.940015 kJ/mol
# Density = 2.448158 g / cm^3
# Si number density = 24.537431 Si / 1000 Ang^3
#
#
#
# Elastic Constant Matrix: (Units=GPa)
#
#
# Indices 1 2 3 4 5 6 
#
# 1 96.6218 63.4222 28.3704 -0.0201 16.9761 -0.0032
# 2 63.4222 250.3737 34.2234 -0.0145 35.9884 -0.0026
# 3 28.3704 34.2234 80.1033 0.1031 5.6608 0.0235
# 4 -0.0201 -0.0145 0.1031 369.2148 -0.0114 105.1318
# 5 16.9761 35.9884 5.6608 -0.0114 36.5320 -0.0009
# 6 -0.0032 -0.0026 0.0235 105.1318 -0.0009 55.4426
#
#
#
# Elastic Compliance Matrix: (Units=1/GPa)
#
#
# Indices 1 2 3 4 5 6 
#
# 1 0.013599 -0.002486 -0.003519 0.000002 -0.003325 -0.000002
# 2 -0.002486 0.005343 -0.001124 0.000000 -0.003934 0.000000
# 3 -0.003519 -0.001124 0.014172 -0.000005 0.000547 0.000004
# 4 0.000002 0.000000 -0.000005 0.005887 0.000001 -0.011163
# 5 -0.003325 -0.003934 0.000547 0.000001 0.032709 -0.000002
# 6 -0.000002 0.000000 0.000004 -0.011163 -0.000002 0.039205
#
#
# Mechanical properties :
#
#
# Convention : Reuss Voigt Hill
#
# Bulk Modulus (GPa) = 53.03638 75.45898 64.24768
# Shear Modulus (GPa) = 38.03472 112.31007 75.17239
#
# Velocity S-wave (km/s) = 3.94136 6.77276 5.54097
# Velocity P-wave (km/s) = 6.50952 9.59061 8.19615
#
# Compressibility (1/GPa) = 0.01885498
#
# Stress axis : x y z
#
# Youngs Moduli (GPa) = 73.53576 187.16640 70.56144
#
# Poissons Ratio (x) = 0.46524 0.24833
# Poissons Ratio (y) = 0.18279 0.07933
# Poissons Ratio (z) = 0.25880 0.21043
#
# Static dielectric constant tensor:
#      x y z
#    x 1.938010 0.000000 -0.088630 
#    y 0.000000 1.973320 0.000000 
#    z -0.088630 0.000000 1.970210 
# 
# From -- ./inp_files/10725.got.cif
#   From: 2010.05.17/outbox.cif.g08.bks.cpg/sg12_6_cif.got.tgz:10725.got - 2010.06.03 13:09:07.
