data_PCOD9211770
_publ_section_title
;
Structure prediction by ZEFSAII (Michael W. Deem and Ramdas Pophale) SiO2 
 PCOD9211770
Probable space group: C 2/M
;
_chemical_formula_sum "Si O2"
_cell_formula_units_Z 52
_cell_length_a 7.356440
_cell_length_b 14.914487
_cell_length_c 26.233536
_cell_angle_alpha 90.000000
_cell_angle_beta 133.813435
_cell_angle_gamma 90.000000
_cell_volume 2076.959926
_symmetry_space_group_name_H-M "C 2/M"
_symmetry_group_IT_number 12
_symmetry_cell_setting 'monoclinic'
loop_
_space_group_symop_operation_xyz
x,y,z
-x,y,-z
-x,-y,-z
x,-y,z
1/2+x,1/2+y,z
1/2-x,1/2+y,-z
1/2-x,1/2-y,-z
1/2+x,1/2-y,z
loop_
_atom_site_type_symbol
_atom_site_label
_atom_site_fract_x
_atom_site_fract_y
_atom_site_fract_z
Si Si1 0.250972 0.358977 0.202567
Si Si2 0.138730 0.500000 0.906721
Si Si3 0.108132 0.151064 0.175092
Si Si4 0.080939 0.599171 0.326943
Si Si5 0.764092 0.102892 0.638011
Si Si6 0.750555 0.144902 0.015200
Si Si7 0.463930 0.278199 0.442983
O O1 0.015472 0.423142 0.155559
O O2 0.155787 0.257396 0.186473
O O3 0.403226 0.373295 0.178779
O O4 0.456352 0.380014 0.285687
O O5 0.240328 0.578788 0.965987
O O6 0.373723 0.110020 0.242936
O O7 0.987862 0.125291 0.097869
O O8 0.185735 0.500000 0.346467
O O9 0.306251 0.669369 0.370621
O O10 0.922680 0.613067 0.348896
O O11 0.682945 0.182401 0.584704
O O12 0.742748 0.000000 0.615761
O O13 0.500000 0.128909 0.000000
O O14 0.750000 0.250000 0.000000
O O15 0.500000 0.341201 0.500000
O O16 0.750000 0.250000 0.500000
#
# Coordination Sequence:
#
# PCOD9211770 Si02
#       7
#     8   4   8   8   8   8   8
#     4  11  22  39  69  88 127 165 217 257 312 369
#     4  12  23  38  65 100 124 169 222 256 309 372
#     4  11  22  40  65  91 125 169 210 259 311 371
#     4  10  23  40  67  93 124 166 214 253 310 384
#     4  10  21  40  65  96 123 165 211 254 311 380
#     4  12  24  39  63  94 132 167 212 266 316 364
#     4  12  24  41  66  94 127 162 202 265 322 367
#
# _framework density 25.036591999999999
#
# number of rings (size 3 to 8) (size 9 to 14) (size 15 to 20)
#    0.000    0.923    6.923    0.231    2.154    1.231 
#    0.000    0.385    1.692    0.000    0.000    0.000 
#    0.000    0.000    0.000    0.000    0.000    0.000 
#
# Total GULP energy -144996.480704 kJ/mol
# GULP energy per Si atom -5576.787719 kJ/mol
# Density = 2.497961 g / cm^3
# Si number density = 25.036592 Si / 1000 Ang^3
#
#
#
# Elastic Constant Matrix: (Units=GPa)
#
#
# Indices 1 2 3 4 5 6 
#
# 1 80.5560 5.2356 49.1062 0.0001 14.5309 0.0000
# 2 5.2356 133.7038 54.1516 0.0000 9.5107 0.0000
# 3 49.1062 54.1516 194.8139 0.0002 12.4193 0.0000
# 4 0.0001 0.0000 0.0002 -54.9891 0.0001 -23.1569
# 5 14.5309 9.5107 12.4193 0.0001 38.0489 0.0000
# 6 0.0000 0.0000 0.0000 -23.1569 0.0000 -8.4192
#
#
#
# Elastic Compliance Matrix: (Units=1/GPa)
#
#
# Indices 1 2 3 4 5 6 
#
# 1 0.015676 0.001368 -0.004012 0.000000 -0.005019 0.000000
# 2 0.001368 0.008618 -0.002624 0.000000 -0.001820 0.000000
# 3 -0.004012 -0.002624 0.006877 0.000000 -0.000057 0.000000
# 4 0.000000 0.000000 0.000000 0.114888 0.000000 -0.316000
# 5 -0.005019 -0.001820 -0.000057 0.000000 0.028672 0.000000
# 6 0.000000 0.000000 0.000000 -0.316000 0.000000 0.750381
#
#
# Mechanical properties :
#
#
# Convention : Reuss Voigt Hill
#
# Bulk Modulus (GPa) = 48.46120 69.56227 59.01173
# Shear Modulus (GPa) = 5.30489 14.96680 10.13585
#
# Velocity S-wave (km/s) = 1.45721 2.44764 2.01425
# Velocity P-wave (km/s) = 4.71481 5.98602 5.38804
#
# Compressibility (1/GPa) = 0.02063507
#
# Stress axis : x y z
#
# Youngs Moduli (GPa) = 63.79347 116.03644 145.40424
#
# Poissons Ratio (x) = -0.15873 0.58330
# Poissons Ratio (y) = -0.08727 0.38158
# Poissons Ratio (z) = 0.25591 0.30451
#
# Static dielectric constant tensor:
#      x y z
#    x 3.074880 0.000030 -0.889470 
#    y 0.000030 2.359200 -0.000030 
#    z -0.889470 -0.000030 2.773620 
# 
# From -- ./inp_files/372656.got.cif
#   From: 2010.05.17/outbox.cif.g08.bks.cpg/sg12_187_cif.got.tgz:372656.got - 2010.06.03 13:09:07.
