data_PCOD9211402
_publ_section_title
;
Structure prediction by ZEFSAII (Michael W. Deem and Ramdas Pophale) SiO2 
 PCOD9211402
Probable space group: C 2/M
;
_chemical_formula_sum "Si O2"
_cell_formula_units_Z 56
_cell_length_a 12.024329
_cell_length_b 27.393850
_cell_length_c 9.283929
_cell_angle_alpha 90.000000
_cell_angle_beta 76.715113
_cell_angle_gamma 90.000000
_cell_volume 2976.223010
_symmetry_space_group_name_H-M "C 2/M"
_symmetry_group_IT_number 12
_symmetry_cell_setting 'monoclinic'
loop_
_space_group_symop_operation_xyz
x,y,z
-x,y,-z
-x,-y,-z
x,-y,z
1/2+x,1/2+y,z
1/2-x,1/2+y,-z
1/2-x,1/2-y,-z
1/2+x,1/2-y,z
loop_
_atom_site_type_symbol
_atom_site_label
_atom_site_fract_x
_atom_site_fract_y
_atom_site_fract_z
Si Si1 0.898082 0.360935 0.337096
Si Si2 0.448316 0.589171 0.872284
Si Si3 0.659188 0.120438 0.323286
Si Si4 0.881233 0.282053 0.110964
Si Si5 0.149692 0.944236 0.635709
Si Si6 0.310382 0.677668 0.046374
Si Si7 0.264310 0.554792 0.710200
O O1 0.849257 0.357244 0.513456
O O2 0.885556 0.309287 0.261825
O O3 0.827533 0.402108 0.272037
O O4 0.028874 0.379397 0.308350
O O5 0.553358 0.591007 0.729323
O O6 0.346489 0.561825 0.821501
O O7 0.500000 0.564627 0.000000
O O8 0.396574 0.640277 0.943642
O O9 0.728197 0.070228 0.330972
O O10 0.734545 0.150015 0.187469
O O11 0.869050 0.223705 0.106948
O O12 0.775239 0.302486 0.050580
O O13 0.000000 0.295658 0.000000
O O14 0.163079 0.940436 0.459660
O O15 0.118195 0.000000 0.678989
O O16 0.214895 0.500000 0.724312
#
# Coordination Sequence:
#
# PCOD9211402 Si02
#       7
#     8   8   8   8   8   8   8
#     4  10  21  40  66  87 118 159 200 251 298 355
#     4  12  22  37  60  87 123 157 201 246 302 353
#     4  10  21  40  62  90 120 155 201 249 299 354
#     4  11  22  39  65  83 117 158 200 247 308 363
#     4  10  22  39  60  87 125 165 201 245 298 361
#     4  11  23  39  60  89 118 156 200 249 303 365
#     4  10  22  40  61  87 120 164 207 245 301 357
#
# _framework density 18.815795000000001
#
# number of rings (size 3 to 8) (size 9 to 14) (size 15 to 20)
#    0.000    1.429    4.286    1.286    0.000    3.429 
#    0.000    2.857    0.000    1.286    0.000    0.000 
#    0.000    0.000    0.000    0.000    0.000    0.000 
#
# Total GULP energy -156183.973424 kJ/mol
# GULP energy per Si atom -5577.999051 kJ/mol
# Density = 1.877297 g / cm^3
# Si number density = 18.815795 Si / 1000 Ang^3
#
#
#
# Elastic Constant Matrix: (Units=GPa)
#
#
# Indices 1 2 3 4 5 6 
#
# 1 87.5182 35.3439 36.6821 0.0000 9.2368 0.0000
# 2 35.3439 92.2166 53.0146 0.0000 -7.9763 0.0000
# 3 36.6821 53.0146 62.2156 0.0000 1.2716 0.0000
# 4 0.0000 0.0000 0.0000 22.5755 0.0000 -0.6789
# 5 9.2368 -7.9763 1.2716 0.0000 33.2150 0.0000
# 6 0.0000 0.0000 0.0000 -0.6789 0.0000 17.4117
#
#
#
# Elastic Compliance Matrix: (Units=1/GPa)
#
#
# Indices 1 2 3 4 5 6 
#
# 1 0.015923 -0.002288 -0.007343 0.000000 -0.004696 0.000000
# 2 -0.002288 0.022766 -0.018189 0.000000 0.006800 0.000000
# 3 -0.007343 -0.018189 0.035977 0.000000 -0.003703 0.000000
# 4 0.000000 0.000000 0.000000 0.044348 0.000000 0.001729
# 5 -0.004696 0.006800 -0.003703 0.000000 0.033188 0.000000
# 6 0.000000 0.000000 0.000000 0.001729 0.000000 0.057500
#
#
# Mechanical properties :
#
#
# Convention : Reuss Voigt Hill
#
# Bulk Modulus (GPa) = 52.55716 54.67017 53.61367
# Shear Modulus (GPa) = 18.40373 22.43441 20.41907
#
# Velocity S-wave (km/s) = 3.13085 3.45674 3.29782
# Velocity P-wave (km/s) = 6.40802 6.71198 6.56176
#
# Compressibility (1/GPa) = 0.01902690
#
# Stress axis : x y z
#
# Youngs Moduli (GPa) = 62.80028 43.92563 27.79529
#
# Poissons Ratio (x) = 0.10049 0.20410
# Poissons Ratio (y) = 0.14367 0.50557
# Poissons Ratio (z) = 0.46114 0.79897
#
# Static dielectric constant tensor:
#      x y z
#    x 1.663910 0.000000 0.009110 
#    y 0.000000 1.637480 0.000000 
#    z 0.009110 0.000000 1.645590 
# 
# From -- ./inp_files/53171.got.cif
#   From: 2010.05.17/outbox.cif.g08.bks.cpg/sg12_27_cif.got.tgz:53171.got - 2010.06.03 13:09:07.
