data_PCOD9211966
_publ_section_title
;
Structure prediction by ZEFSAII (Michael W. Deem and Ramdas Pophale) SiO2 
 PCOD9211966
Probable space group: C 2/M
;
_chemical_formula_sum "Si O2"
_cell_formula_units_Z 56
_cell_length_a 22.086512
_cell_length_b 28.939331
_cell_length_c 9.851312
_cell_angle_alpha 90.000000
_cell_angle_beta 151.710960
_cell_angle_gamma 90.000000
_cell_volume 2984.107936
_symmetry_space_group_name_H-M "C 2/M"
_symmetry_group_IT_number 12
_symmetry_cell_setting 'monoclinic'
loop_
_space_group_symop_operation_xyz
x,y,z
-x,y,-z
-x,-y,-z
x,-y,z
1/2+x,1/2+y,z
1/2-x,1/2+y,-z
1/2-x,1/2-y,-z
1/2+x,1/2-y,z
loop_
_atom_site_type_symbol
_atom_site_label
_atom_site_fract_x
_atom_site_fract_y
_atom_site_fract_z
Si Si1 0.513706 0.393032 0.172567
Si Si2 0.346408 0.707362 0.216010
Si Si3 0.376780 0.198927 0.689217
Si Si4 0.254724 0.637400 0.800450
Si Si5 0.390485 0.446040 0.388527
Si Si6 0.152394 0.201962 0.462756
Si Si7 0.859793 0.552118 0.287088
O O1 0.599086 0.419421 0.450459
O O2 0.573856 0.342792 0.266305
O O3 0.500000 0.416952 0.000000
O O4 0.377218 0.385233 0.971610
O O5 0.500000 0.716472 0.500000
O O6 0.326674 0.696225 0.335497
O O7 0.250000 0.750000 0.000000
O O8 0.303485 0.667172 0.026522
O O9 0.312180 0.170974 0.439869
O O10 0.277911 0.204114 0.617913
O O11 0.414479 0.249018 0.701355
O O12 0.500000 0.176129 0.000000
O O13 0.162551 0.595525 0.659981
O O14 0.500000 0.428611 0.500000
O O15 0.418906 0.500000 0.468666
O O16 0.252884 0.442702 0.046713
O O17 0.843535 0.500000 0.313997
O O18 0.000000 0.554317 0.500000
#
# Coordination Sequence:
#
# PCOD9211966 Si02
#       7
#     8   8   8   8   8   8   8
#     4  12  23  39  64  95 128 168 212 260 318 376
#     4  12  26  40  65  97 133 169 223 279 321 375
#     4  11  26  42  62  87 130 176 217 261 319 392
#     4  12  24  42  64  99 124 169 218 272 322 379
#     4  10  21  40  68  98 127 163 210 262 320 385
#     4  11  24  41  62  87 127 174 217 257 319 383
#     4  10  23  44  70  97 129 168 212 268 336 395
#
# _framework density 18.766076999999999
#
# number of rings (size 3 to 8) (size 9 to 14) (size 15 to 20)
#    0.000    0.857    5.714    1.286    4.000    3.143 
#    0.000    0.000    0.000    0.429    0.000    0.000 
#    0.000    0.000    0.000    0.000    0.000    0.000 
#
# Total GULP energy -156340.003795 kJ/mol
# GULP energy per Si atom -5583.571564 kJ/mol
# Density = 1.872336 g / cm^3
# Si number density = 18.766077 Si / 1000 Ang^3
#
#
#
# Elastic Constant Matrix: (Units=GPa)
#
#
# Indices 1 2 3 4 5 6 
#
# 1 107.0015 30.5306 44.4200 0.0000 -15.2729 0.0000
# 2 30.5306 48.6814 20.9302 0.0000 4.6975 0.0000
# 3 44.4200 20.9302 100.0342 0.0000 -8.0445 0.0000
# 4 0.0000 0.0000 0.0000 16.2067 0.0000 4.2343
# 5 -15.2729 4.6975 -8.0445 0.0000 40.4937 0.0000
# 6 0.0000 0.0000 0.0000 4.2343 0.0000 27.6681
#
#
#
# Elastic Compliance Matrix: (Units=1/GPa)
#
#
# Indices 1 2 3 4 5 6 
#
# 1 0.013986 -0.007468 -0.004221 0.000000 0.005303 0.000000
# 2 -0.007468 0.027093 -0.002878 0.000000 -0.006531 0.000000
# 3 -0.004221 -0.002878 0.012573 0.000000 0.001239 0.000000
# 4 0.000000 0.000000 0.000000 0.064273 0.000000 -0.009836
# 5 0.005303 -0.006531 0.001239 0.000000 0.027699 0.000000
# 6 0.000000 0.000000 0.000000 -0.009836 0.000000 0.037648
#
#
# Mechanical properties :
#
#
# Convention : Reuss Voigt Hill
#
# Bulk Modulus (GPa) = 40.78761 49.71984 45.25373
# Shear Modulus (GPa) = 22.66772 27.52945 25.09859
#
# Velocity S-wave (km/s) = 3.47927 3.83427 3.66108
# Velocity P-wave (km/s) = 6.15811 6.79369 6.48369
#
# Compressibility (1/GPa) = 0.02451725
#
# Stress axis : x y z
#
# Youngs Moduli (GPa) = 71.50092 36.91030 79.53631
#
# Poissons Ratio (x) = 0.27564 0.33576
# Poissons Ratio (y) = 0.53396 0.22888
# Poissons Ratio (z) = 0.30184 0.10622
#
# Static dielectric constant tensor:
#      x y z
#    x 1.585380 0.000000 -0.082980 
#    y 0.000000 1.682010 0.000000 
#    z -0.082980 0.000000 1.626580 
# 
# From -- ./inp_files/91551.got.cif
#   From: 2010.05.17/outbox.cif.g08.bks.cpg/sg12_46_cif.got.tgz:91551.got - 2010.06.03 13:09:07.
