data_PCOD9211157
_publ_section_title
;
Structure prediction by ZEFSAII (Michael W. Deem and Ramdas Pophale) SiO2 
 PCOD9211157
Probable space group: C 2/M
;
_chemical_formula_sum "Si O2"
_cell_formula_units_Z 56
_cell_length_a 12.369574
_cell_length_b 27.997808
_cell_length_c 8.919180
_cell_angle_alpha 90.000000
_cell_angle_beta 111.750949
_cell_angle_gamma 90.000000
_cell_volume 2868.979904
_symmetry_space_group_name_H-M "C 2/M"
_symmetry_group_IT_number 12
_symmetry_cell_setting 'monoclinic'
loop_
_space_group_symop_operation_xyz
x,y,z
-x,y,-z
-x,-y,-z
x,-y,z
1/2+x,1/2+y,z
1/2-x,1/2+y,-z
1/2-x,1/2-y,-z
1/2+x,1/2-y,z
loop_
_atom_site_type_symbol
_atom_site_label
_atom_site_fract_x
_atom_site_fract_y
_atom_site_fract_z
Si Si1 0.218948 0.889064 0.297897
Si Si2 0.553715 0.854121 0.192061
Si Si3 0.030009 0.114645 0.682321
Si Si4 0.782167 0.805992 0.188815
Si Si5 0.668953 0.804001 0.800035
Si Si6 0.598042 0.055291 0.420460
Si Si7 0.627048 0.553611 0.984369
O O1 0.286423 0.840151 0.303740
O O2 0.284352 0.925113 0.442075
O O3 0.090501 0.878763 0.291861
O O4 0.207830 0.914525 0.130799
O O5 0.676801 0.827635 0.232406
O O6 0.462808 0.819577 0.230587
O O7 0.566300 0.904880 0.281025
O O8 0.500000 0.862045 0.000000
O O9 0.104371 0.162727 0.722111
O O10 0.106263 0.076369 0.812423
O O11 0.000000 0.099121 0.500000
O O12 0.810570 0.750759 0.232657
O O13 0.742079 0.810598 0.993434
O O14 0.500000 0.056748 0.500000
O O15 0.608256 0.000000 0.375203
O O16 0.671513 0.500000 0.998969
O O17 0.500000 0.552628 0.000000
#
# Coordination Sequence:
#
# PCOD9211157 Si02
#       7
#     8   8   8   8   8   8   8
#     4  11  21  40  65  90 123 161 213 259 301 373
#     4  10  22  43  65  93 132 163 212 264 308 378
#     4  11  23  39  59  91 131 158 202 256 312 374
#     4  10  22  40  63  94 128 164 208 256 319 373
#     4  10  21  39  67  92 122 168 210 256 313 369
#     4  11  23  41  66  93 128 169 211 261 316 372
#     4   9  19  37  62  88 118 160 206 253 307 368
#
# _framework density 19.519131000000002
#
# number of rings (size 3 to 8) (size 9 to 14) (size 15 to 20)
#    0.000    1.714    2.857    1.286    2.000    1.143 
#    2.571    3.571    0.000    0.000    0.000    0.000 
#    0.000    0.000    0.000    0.000    0.000    0.000 
#
# Total GULP energy -156399.375278 kJ/mol
# GULP energy per Si atom -5585.691974 kJ/mol
# Density = 1.947470 g / cm^3
# Si number density = 19.519131 Si / 1000 Ang^3
#
#
#
# Elastic Constant Matrix: (Units=GPa)
#
#
# Indices 1 2 3 4 5 6 
#
# 1 100.1151 62.4857 29.3626 0.0000 7.4055 0.0000
# 2 62.4857 180.9308 55.7386 0.0000 -4.2654 0.0000
# 3 29.3626 55.7386 71.4556 0.0000 -1.4337 0.0000
# 4 0.0000 0.0000 0.0000 18.5128 0.0000 0.3924
# 5 7.4055 -4.2654 -1.4337 0.0000 25.0732 0.0000
# 6 0.0000 0.0000 0.0000 0.3924 0.0000 22.5327
#
#
#
# Elastic Compliance Matrix: (Units=1/GPa)
#
#
# Indices 1 2 3 4 5 6 
#
# 1 0.013609 -0.004030 -0.002546 0.000000 -0.004851 0.000000
# 2 -0.004030 0.008490 -0.004919 0.000000 0.002353 0.000000
# 3 -0.002546 -0.004919 0.018898 0.000000 0.000996 0.000000
# 4 0.000000 0.000000 0.000000 0.054037 0.000000 -0.000941
# 5 -0.004851 0.002353 0.000996 0.000000 0.041773 0.000000
# 6 0.000000 0.000000 0.000000 -0.000941 0.000000 0.044396
#
#
# Mechanical properties :
#
#
# Convention : Reuss Voigt Hill
#
# Bulk Modulus (GPa) = 55.53504 71.96392 63.74948
# Shear Modulus (GPa) = 23.78733 26.88471 25.33602
#
# Velocity S-wave (km/s) = 3.49473 3.71529 3.60670
# Velocity P-wave (km/s) = 6.69310 7.43996 7.07639
#
# Compressibility (1/GPa) = 0.01800665
#
# Stress axis : x y z
#
# Youngs Moduli (GPa) = 73.47874 117.79021 52.91562
#
# Poissons Ratio (x) = 0.47471 0.13473
# Poissons Ratio (y) = 0.29613 0.26030
# Poissons Ratio (z) = 0.18708 0.57942
#
# Static dielectric constant tensor:
#      x y z
#    x 1.673010 0.000000 -0.001170 
#    y 0.000000 1.667240 0.000000 
#    z -0.001170 0.000000 1.690180 
# 
# From -- ./inp_files/53271.got.cif
#   From: 2010.05.17/outbox.cif.g08.bks.cpg/sg12_27_cif.got.tgz:53271.got - 2010.06.03 13:09:07.
