data_PCOD9211361
_publ_section_title
;
Structure prediction by ZEFSAII (Michael W. Deem and Ramdas Pophale) SiO2 
 PCOD9211361
Probable space group: C 2/M
;
_chemical_formula_sum "Si O2"
_cell_formula_units_Z 48
_cell_length_a 19.194298
_cell_length_b 9.327524
_cell_length_c 14.803476
_cell_angle_alpha 90.000000
_cell_angle_beta 80.302051
_cell_angle_gamma 90.000000
_cell_volume 2612.469653
_symmetry_space_group_name_H-M "C 2/M"
_symmetry_group_IT_number 12
_symmetry_cell_setting 'monoclinic'
loop_
_space_group_symop_operation_xyz
x,y,z
-x,y,-z
-x,-y,-z
x,-y,z
1/2+x,1/2+y,z
1/2-x,1/2+y,-z
1/2-x,1/2-y,-z
1/2+x,1/2-y,z
loop_
_atom_site_type_symbol
_atom_site_label
_atom_site_fract_x
_atom_site_fract_y
_atom_site_fract_z
Si Si1 0.953246 0.838427 0.922197
Si Si2 0.196504 0.165526 0.948510
Si Si3 0.217266 0.827781 0.420048
Si Si4 0.672750 0.827988 0.764634
Si Si5 0.487262 0.829685 0.254756
Si Si6 0.056377 0.831597 0.407073
O O1 0.971858 0.724992 0.842431
O O2 0.968769 0.000000 0.884272
O O3 0.874816 0.834598 0.977311
O O4 0.000000 0.812844 0.000000
O O5 0.184893 0.243798 0.855229
O O6 0.217585 0.000000 0.928515
O O7 0.250000 0.250000 0.000000
O O8 0.250000 0.750000 0.500000
O O9 0.266282 0.796942 0.322068
O O10 0.135526 0.786357 0.419315
O O11 0.218877 0.000000 0.434285
O O12 0.595611 0.790476 0.740473
O O13 0.673221 0.000000 0.782012
O O14 0.524604 0.755913 0.331136
O O15 0.490811 0.000000 0.262841
O O16 0.000000 0.817841 0.500000
O O17 0.061210 0.000000 0.381268
#
# Coordination Sequence:
#
# PCOD9211361 Si02
#       6
#     8   8   8   8   8   8
#     4  10  21  40  62  85 116 158 202 241 289 349
#     4  11  24  40  61  87 119 158 199 245 292 348
#     4  10  22  40  62  87 117 154 193 238 294 353
#     4  10  22  40  59  85 121 158 196 242 298 350
#     4  11  23  37  60  90 120 154 196 250 298 344
#     4  10  22  40  62  88 118 154 197 243 294 356
#
# _framework density 18.373419999999999
#
# number of rings (size 3 to 8) (size 9 to 14) (size 15 to 20)
#    0.000    1.667    1.667    2.000    2.333    4.000 
#    0.000    0.000    0.000    0.000    0.000    0.000 
#    0.000    0.000    0.000    0.000    0.000    0.000 
#
# Total GULP energy -134029.576253 kJ/mol
# GULP energy per Si atom -5584.565677 kJ/mol
# Density = 1.833160 g / cm^3
# Si number density = 18.373420 Si / 1000 Ang^3
#
#
#
# Elastic Constant Matrix: (Units=GPa)
#
#
# Indices 1 2 3 4 5 6 
#
# 1 63.2693 108.2310 198.3709 0.0000 71.0367 0.0000
# 2 108.2310 64.3246 31.6542 0.0000 -0.0397 0.0000
# 3 198.3709 31.6542 -24.8289 0.0000 -40.5811 0.0000
# 4 0.0000 0.0000 0.0000 29.1211 0.0000 4.1312
# 5 71.0367 -0.0397 -40.5811 0.0000 10.4417 0.0000
# 6 0.0000 0.0000 0.0000 4.1312 0.0000 26.5207
#
#
#
# Elastic Compliance Matrix: (Units=1/GPa)
#
#
# Indices 1 2 3 4 5 6 
#
# 1 0.003406 -0.009294 0.007248 0.000000 0.004964 0.000000
# 2 -0.009294 0.039699 -0.017306 0.000000 -0.003878 0.000000
# 3 0.007248 -0.017306 0.010374 0.000000 -0.009058 0.000000
# 4 0.000000 0.000000 0.000000 0.035115 0.000000 -0.005470
# 5 0.004964 -0.003878 -0.009058 0.000000 0.026782 0.000000
# 6 0.000000 0.000000 0.000000 -0.005470 0.000000 0.038558
#
#
# Mechanical properties :
#
#
# Convention : Reuss Voigt Hill
#
# Bulk Modulus (GPa) = 67.68803 86.58634 77.13719
# Shear Modulus (GPa) = 25.30833 -2.48272 11.41280
#
# Velocity S-wave (km/s) = 3.71542 -1.16370 2.49501
# Velocity P-wave (km/s) = 7.43814 6.73963 7.09748
#
# Compressibility (1/GPa) = 0.01477366
#
# Stress axis : x y z
#
# Youngs Moduli (GPa) = 293.61729 25.18986 96.39379
#
# Poissons Ratio (x) = 0.23412 -0.69868
# Poissons Ratio (y) = 2.72896 1.66822
# Poissons Ratio (z) = -2.12818 0.43594
#
# Static dielectric constant tensor:
#      x y z
#    x 1.606030 0.000000 -0.015160 
#    y 0.000000 1.628210 0.000000 
#    z -0.015160 0.000000 1.569240 
# 
# From -- ./inp_files/221658.got.cif
#   From: 2010.05.17/outbox.cif.g08.bks.cpg/sg12_111_cif.got.tgz:221658.got - 2010.06.03 13:09:07.
