data_PCOD9211037
_publ_section_title
;
Structure prediction by ZEFSAII (Michael W. Deem and Ramdas Pophale) SiO2 
 PCOD9211037
Probable space group: C 2/M
;
_chemical_formula_sum "Si O2"
_cell_formula_units_Z 64
_cell_length_a 15.564058
_cell_length_b 18.168564
_cell_length_c 15.036544
_cell_angle_alpha 90.000000
_cell_angle_beta 136.504270
_cell_angle_gamma 90.000000
_cell_volume 2926.641775
_symmetry_space_group_name_H-M "C 2/M"
_symmetry_group_IT_number 12
_symmetry_cell_setting 'monoclinic'
loop_
_space_group_symop_operation_xyz
x,y,z
-x,y,-z
-x,-y,-z
x,-y,z
1/2+x,1/2+y,z
1/2-x,1/2+y,-z
1/2-x,1/2-y,-z
1/2+x,1/2-y,z
loop_
_atom_site_type_symbol
_atom_site_label
_atom_site_fract_x
_atom_site_fract_y
_atom_site_fract_z
Si Si1 0.301713 0.312959 0.671940
Si Si2 0.936102 0.195873 0.044741
Si Si3 0.905106 0.349077 0.346460
Si Si4 0.773181 0.350375 0.676186
Si Si5 0.048357 0.366784 0.940448
Si Si6 0.571510 0.317854 0.648933
Si Si7 0.872628 0.082989 0.580608
Si Si8 0.286855 0.082573 0.092052
O O1 0.448693 0.308908 0.800930
O O2 0.227043 0.339027 0.702574
O O3 0.253099 0.230549 0.616935
O O4 0.286508 0.371862 0.583654
O O5 0.903726 0.282401 0.012874
O O6 0.820604 0.144341 0.981336
O O7 0.000000 0.173284 0.000000
O O8 0.936949 0.267708 0.331876
O O9 0.883506 0.401700 0.246408
O O10 0.000000 0.366729 0.500000
O O11 0.711186 0.341593 0.727178
O O12 0.700608 0.411679 0.567389
O O13 0.918658 0.363353 0.789036
O O14 0.145392 0.409382 0.952124
O O15 0.000000 0.394801 0.000000
O O16 0.500000 0.321662 0.500000
O O17 0.501045 0.373189 0.660304
O O18 0.893670 0.000000 0.625028
O O19 0.236475 0.000000 0.064241
#
# Coordination Sequence:
#
# PCOD9211037 Si02
#       8
#     8   8   8   8   8   8   8   8
#     4  10  21  39  65  95 127 167 218 264 321 384
#     4  10  21  45  70  95 123 168 228 281 319 378
#     4  10  22  41  66  95 131 175 217 261 314 393
#     4   9  20  39  63  89 127 170 215 269 313 383
#     4  10  24  43  69  97 122 169 228 272 318 387
#     4   8  18  36  60  90 122 167 213 258 310 371
#     4  11  23  36  60 100 135 167 210 264 335 388
#     4  12  27  43  66  99 135 175 214 268 341 390
#
# _framework density 21.868067
#
# number of rings (size 3 to 8) (size 9 to 14) (size 15 to 20)
#    0.000    2.000    1.250    1.500    7.000    5.500 
#    0.000    0.000    0.000    0.000    0.000    0.000 
#    0.000    0.000    0.000    0.000    0.000    0.000 
#
# Total GULP energy -178657.503785 kJ/mol
# GULP energy per Si atom -5583.046993 kJ/mol
# Density = 2.181829 g / cm^3
# Si number density = 21.868067 Si / 1000 Ang^3
#
#
#
# Elastic Constant Matrix: (Units=GPa)
#
#
# Indices 1 2 3 4 5 6 
#
# 1 90.3453 44.8109 13.9848 0.0000 -1.4609 0.0000
# 2 44.8109 79.6357 9.9594 0.0000 -3.4686 0.0000
# 3 13.9848 9.9594 50.8374 0.0000 7.4432 0.0000
# 4 0.0000 0.0000 0.0000 14.9257 0.0000 1.7479
# 5 -1.4609 -3.4686 7.4432 0.0000 31.2824 0.0000
# 6 0.0000 0.0000 0.0000 1.7479 0.0000 -6.2443
#
#
#
# Elastic Compliance Matrix: (Units=1/GPa)
#
#
# Indices 1 2 3 4 5 6 
#
# 1 0.015701 -0.008475 -0.002723 0.000000 0.000442 0.000000
# 2 -0.008475 0.017582 -0.001389 0.000000 0.001884 0.000000
# 3 -0.002723 -0.001389 0.021481 0.000000 -0.005392 0.000000
# 4 0.000000 0.000000 0.000000 0.064872 0.000000 0.018159
# 5 0.000442 0.001884 -0.005392 0.000000 0.033479 0.000000
# 6 0.000000 0.000000 0.000000 0.018159 0.000000 -0.155063
#
#
# Mechanical properties :
#
#
# Convention : Reuss Voigt Hill
#
# Bulk Modulus (GPa) = 33.79596 39.81427 36.80512
# Shear Modulus (GPa) = 151.09931 18.13031 84.61481
#
# Velocity S-wave (km/s) = 8.32141 2.88249 6.22714
# Velocity P-wave (km/s) = 10.38344 5.41521 8.28071
#
# Compressibility (1/GPa) = 0.02958933
#
# Stress axis : x y z
#
# Youngs Moduli (GPa) = 63.69039 56.87680 46.55200
#
# Poissons Ratio (x) = 0.48204 0.12678
# Poissons Ratio (y) = 0.53978 0.06465
# Poissons Ratio (z) = 0.17346 0.07899
#
# Static dielectric constant tensor:
#      x y z
#    x 1.805640 0.000000 -0.009890 
#    y 0.000000 1.761900 0.000000 
#    z -0.009890 0.000000 1.882280 
# 
# From -- ./inp_files/216844.got.cif
#   From: 2010.05.17/outbox.cif.g08.bks.cpg/sg12_109_cif.got.tgz:216844.got - 2010.06.03 13:09:07.
