data_PCOD9211057
_publ_section_title
;
Structure prediction by ZEFSAII (Michael W. Deem and Ramdas Pophale) SiO2 
 PCOD9211057
Probable space group: C 2/M
;
_chemical_formula_sum "Si O2"
_cell_formula_units_Z 40
_cell_length_a 11.405981
_cell_length_b 19.501649
_cell_length_c 9.674821
_cell_angle_alpha 90.000000
_cell_angle_beta 110.643640
_cell_angle_gamma 90.000000
_cell_volume 2013.844401
_symmetry_space_group_name_H-M "C 2/M"
_symmetry_group_IT_number 12
_symmetry_cell_setting 'monoclinic'
loop_
_space_group_symop_operation_xyz
x,y,z
-x,y,-z
-x,-y,-z
x,-y,z
1/2+x,1/2+y,z
1/2-x,1/2+y,-z
1/2-x,1/2-y,-z
1/2+x,1/2-y,z
loop_
_atom_site_type_symbol
_atom_site_label
_atom_site_fract_x
_atom_site_fract_y
_atom_site_fract_z
Si Si1 0.318774 0.000000 0.733688
Si Si2 0.834255 0.500000 0.140748
Si Si3 0.976445 0.375589 0.842542
Si Si4 0.947378 0.891391 0.635685
Si Si5 0.108771 0.000000 0.830797
Si Si6 0.402096 0.238827 0.589443
Si Si7 0.735003 0.000000 0.571867
O O1 0.366673 0.069190 0.821017
O O2 0.173970 0.000000 0.706307
O O3 0.362820 0.000000 0.593881
O O4 0.807067 0.500000 0.290773
O O5 0.911768 0.429463 0.145782
O O6 0.709843 0.500000 0.994017
O O7 0.933644 0.323353 0.706444
O O8 0.000000 0.340328 0.000000
O O9 0.938868 0.812130 0.668499
O O10 0.000000 0.894588 0.500000
O O11 0.816332 0.931773 0.579325
O O12 0.024999 0.932574 0.783693
O O13 0.500000 0.229757 0.500000
O O14 0.250000 0.250000 0.500000
#
# Coordination Sequence:
#
# PCOD9211057 Si02
#       7
#     4   4   8   8   4   8   4
#     4  11  19  37  71  88 125 168 224 276 328 401
#     4  11  25  39  65 103 132 169 222 289 339 391
#     4  11  24  43  65  97 132 178 222 276 341 403
#     4  10  21  39  65  97 127 179 224 274 335 401
#     4  11  19  41  67  92 130 177 221 274 338 403
#     4  11  27  46  70 100 139 180 230 279 333 403
#     4  11  21  37  67  97 127 160 232 280 331 390
#
# _framework density 19.862508999999999
#
# number of rings (size 3 to 8) (size 9 to 14) (size 15 to 20)
#    0.000    1.200    4.000    2.400    8.400    2.400 
#    3.600    2.000    0.000    0.000    0.000    0.000 
#    0.000    0.000    0.000    0.000    0.000    0.000 
#
# Total GULP energy -111352.619625 kJ/mol
# GULP energy per Si atom -5567.630981 kJ/mol
# Density = 1.981730 g / cm^3
# Si number density = 19.862509 Si / 1000 Ang^3
#
#
#
# Elastic Constant Matrix: (Units=GPa)
#
#
# Indices 1 2 3 4 5 6 
#
# 1 69.7055 29.9166 45.3039 0.0000 3.3413 0.0000
# 2 29.9166 143.1500 49.3660 0.0000 7.9018 0.0000
# 3 45.3039 49.3660 127.1146 0.0000 3.1670 0.0000
# 4 0.0000 0.0000 0.0000 -914.9537 0.0000 -508.1495
# 5 3.3413 7.9018 3.1670 0.0000 37.0248 0.0000
# 6 0.0000 0.0000 0.0000 -508.1495 0.0000 -291.7161
#
#
#
# Elastic Compliance Matrix: (Units=1/GPa)
#
#
# Indices 1 2 3 4 5 6 
#
# 1 0.019132 -0.001858 -0.006077 0.000000 -0.000810 0.000000
# 2 -0.001858 0.008326 -0.002536 0.000000 -0.001392 0.000000
# 3 -0.006077 -0.002536 0.011014 0.000000 0.000148 0.000000
# 4 0.000000 0.000000 0.000000 -0.033566 0.000000 0.058470
# 5 -0.000810 -0.001392 0.000148 0.000000 0.027367 0.000000
# 6 0.000000 0.000000 0.000000 0.058470 0.000000 -0.105279
#
#
# Mechanical properties :
#
#
# Convention : Reuss Voigt Hill
#
# Bulk Modulus (GPa) = 57.04847 65.46034 61.25440
# Shear Modulus (GPa) = -108.17609 -219.57009 -163.87309
#
# Velocity S-wave (km/s) = -7.38787 -10.52544 -9.09301
# Velocity P-wave (km/s) = 6.63251 10.70911 8.90717
#
# Compressibility (1/GPa) = 0.01752895
#
# Stress axis : x y z
#
# Youngs Moduli (GPa) = 52.26868 120.11265 90.79267
#
# Poissons Ratio (x) = 0.22316 0.55174
# Poissons Ratio (y) = 0.09711 0.23029
# Poissons Ratio (z) = 0.31763 0.30466
#
# Static dielectric constant tensor:
#      x y z
#    x 1.767270 0.000000 0.012910 
#    y 0.000000 1.663660 0.000000 
#    z 0.012910 0.000000 1.728550 
# 
# From -- ./inp_files/48854.got.cif
#   From: 2010.05.17/outbox.cif.g08.bks.cpg/sg12_25_cif.got.tgz:48854.got - 2010.06.03 13:09:07.
