data_PCOD9211289
_publ_section_title
;
Structure prediction by ZEFSAII (Michael W. Deem and Ramdas Pophale) SiO2 
 PCOD9211289
Probable space group: C 2/M
;
_chemical_formula_sum "Si O2"
_cell_formula_units_Z 42
_cell_length_a 14.973059
_cell_length_b 7.427801
_cell_length_c 16.454602
_cell_angle_alpha 90.000000
_cell_angle_beta 71.583411
_cell_angle_gamma 90.000000
_cell_volume 1736.304122
_symmetry_space_group_name_H-M "C 2/M"
_symmetry_group_IT_number 12
_symmetry_cell_setting 'monoclinic'
loop_
_space_group_symop_operation_xyz
x,y,z
-x,y,-z
-x,-y,-z
x,-y,z
1/2+x,1/2+y,z
1/2-x,1/2+y,-z
1/2-x,1/2-y,-z
1/2+x,1/2-y,z
loop_
_atom_site_type_symbol
_atom_site_label
_atom_site_fract_x
_atom_site_fract_y
_atom_site_fract_z
Si Si1 0.991525 0.203053 0.286121
Si Si2 0.340709 0.719396 0.211269
Si Si3 0.653436 0.286585 0.979184
Si Si4 0.138466 0.713514 0.528052
Si Si5 0.000000 0.500000 0.000000
Si Si6 0.656345 0.794094 0.348653
O O1 0.936338 0.283326 0.225903
O O2 0.916139 0.199821 0.381641
O O3 0.082625 0.294025 0.297089
O O4 0.019978 0.000000 0.257403
O O5 0.341006 0.500000 0.215891
O O6 0.330171 0.764354 0.120538
O O7 0.252969 0.788199 0.289297
O O8 0.631558 0.500000 0.991555
O O9 0.750000 0.250000 0.000000
O O10 0.566061 0.158801 0.024813
O O11 0.118073 0.500000 0.541810
O O12 0.250000 0.750000 0.500000
O O13 0.112877 0.779892 0.444532
O O14 0.678710 0.000000 0.363963
#
# Coordination Sequence:
#
# PCOD9211289 Si02
#       6
#     8   8   8   8   2   8
#     4  11  22  39  59  90 128 166 221 271 324 392
#     4   9  21  43  66  92 135 173 211 278 340 402
#     4  11  24  49  78 110 151 190 240 300 366 445
#     4  11  21  36  59  83 119 170 217 270 325 380
#     4  12  26  48  80 116 144 196 238 292 370 452
#     4  10  21  40  60  86 124 172 216 267 334 390
#
# _framework density 24.189309999999999
#
# number of rings (size 3 to 8) (size 9 to 14) (size 15 to 20)
#    0.000    1.524    2.857    2.000    0.000    5.333 
#    8.571    1.905    0.000    0.000    0.000    0.000 
#    0.000    0.000    0.000    0.000    0.000    0.000 
#
# Total GULP energy -117159.905846 kJ/mol
# GULP energy per Si atom -5579.043136 kJ/mol
# Density = 2.413425 g / cm^3
# Si number density = 24.189310 Si / 1000 Ang^3
#
#
#
# Elastic Constant Matrix: (Units=GPa)
#
#
# Indices 1 2 3 4 5 6 
#
# 1 145.6363 15.2460 31.9604 0.0000 37.5660 0.0000
# 2 15.2460 128.9021 7.5160 0.0000 3.2755 0.0000
# 3 31.9604 7.5160 89.0385 0.0000 27.8164 0.0000
# 4 0.0000 0.0000 0.0000 3.8759 0.0000 6.5969
# 5 37.5660 3.2755 27.8164 0.0000 45.4128 0.0000
# 6 0.0000 0.0000 0.0000 6.5969 0.0000 32.1575
#
#
#
# Elastic Compliance Matrix: (Units=1/GPa)
#
#
# Indices 1 2 3 4 5 6 
#
# 1 0.008900 -0.000823 -0.001043 0.000000 -0.006664 0.000000
# 2 -0.000823 0.007874 -0.000500 0.000000 0.000419 0.000000
# 3 -0.001043 -0.000500 0.014057 0.000000 -0.007711 0.000000
# 4 0.000000 0.000000 0.000000 0.396413 0.000000 -0.081321
# 5 -0.006664 0.000419 -0.007711 0.000000 0.032226 0.000000
# 6 0.000000 0.000000 0.000000 -0.081321 0.000000 0.047780
#
#
# Mechanical properties :
#
#
# Convention : Reuss Voigt Hill
#
# Bulk Modulus (GPa) = 38.31651 52.55797 45.43724
# Shear Modulus (GPa) = 9.60281 36.87955 23.24118
#
# Velocity S-wave (km/s) = 1.99461 3.90888 3.10305
# Velocity P-wave (km/s) = 4.60210 6.49210 5.62702
#
# Compressibility (1/GPa) = 0.02609841
#
# Stress axis : x y z
#
# Youngs Moduli (GPa) = 112.35340 127.00615 71.13986
#
# Poissons Ratio (x) = 0.10447 0.07423
# Poissons Ratio (y) = 0.09241 0.03559
# Poissons Ratio (z) = 0.11724 0.06354
#
# Static dielectric constant tensor:
#      x y z
#    x 1.910960 0.000000 -0.000220 
#    y 0.000000 1.915360 0.000000 
#    z -0.000220 0.000000 1.956260 
# 
# From -- ./inp_files/267063.got.cif
#   From: 2010.05.17/outbox.cif.g08.bks.cpg/sg12_134_cif.got.tgz:267063.got - 2010.06.03 13:09:07.
