data_PCOD9211463
_publ_section_title
;
Structure prediction by ZEFSAII (Michael W. Deem and Ramdas Pophale) SiO2 
 PCOD9211463
Probable space group: C 2/M
;
_chemical_formula_sum "Si O2"
_cell_formula_units_Z 48
_cell_length_a 17.698201
_cell_length_b 13.444891
_cell_length_c 17.737386
_cell_angle_alpha 90.000000
_cell_angle_beta 33.061050
_cell_angle_gamma 90.000000
_cell_volume 2302.483541
_symmetry_space_group_name_H-M "C 2/M"
_symmetry_group_IT_number 12
_symmetry_cell_setting 'monoclinic'
loop_
_space_group_symop_operation_xyz
x,y,z
-x,y,-z
-x,-y,-z
x,-y,z
1/2+x,1/2+y,z
1/2-x,1/2+y,-z
1/2-x,1/2-y,-z
1/2+x,1/2-y,z
loop_
_atom_site_type_symbol
_atom_site_label
_atom_site_fract_x
_atom_site_fract_y
_atom_site_fract_z
Si Si1 0.156705 0.679904 0.391901
Si Si2 0.154426 0.182176 0.901330
Si Si3 0.844887 0.115833 0.363970
Si Si4 0.201025 0.892724 0.195076
Si Si5 0.120347 0.885906 0.492053
Si Si6 0.141916 0.160975 0.079201
O O1 0.249118 0.642581 0.245721
O O2 0.212451 0.633728 0.422775
O O3 0.171048 0.798917 0.395314
O O4 0.000000 0.659681 0.500000
O O5 0.204290 0.296887 0.870692
O O6 0.164444 0.128591 0.974030
O O7 0.000000 0.179019 0.000000
O O8 0.820963 0.132553 0.472681
O O9 0.976305 0.180516 0.225578
O O10 0.887199 0.000000 0.320569
O O11 0.174551 0.899425 0.127320
O O12 0.046481 0.877678 0.358487
O O13 0.255506 0.000000 0.175773
O O14 0.150805 0.000000 0.444383
O O15 0.250000 0.250000 0.000000
#
# Coordination Sequence:
#
# PCOD9211463 Si02
#       6
#     8   8   8   8   8   8
#     4  12  23  37  60  89 123 164 200 246 308 357
#     4  11  21  36  55  85 121 152 190 246 300 362
#     4  10  21  40  63  87 119 161 209 252 294 355
#     4   9  18  35  59  85 113 150 193 243 295 356
#     4   9  19  37  61  87 115 155 204 244 296 365
#     4   9  18  35  60  81 111 152 196 238 291 352
#
# _framework density 20.847055000000001
#
# number of rings (size 3 to 8) (size 9 to 14) (size 15 to 20)
#    0.000    2.000    3.333    2.000    0.000    1.667 
#    0.000    2.500    0.000    0.000    0.000    0.000 
#    0.000    0.000    0.000    0.000    0.000    0.000 
#
# Total GULP energy -133830.787982 kJ/mol
# GULP energy per Si atom -5576.282833 kJ/mol
# Density = 2.079961 g / cm^3
# Si number density = 20.847055 Si / 1000 Ang^3
#
#
#
# Elastic Constant Matrix: (Units=GPa)
#
#
# Indices 1 2 3 4 5 6 
#
# 1 144.0721 5.2546 41.5439 0.0000 -1.8184 0.0000
# 2 5.2546 31.6508 0.1155 0.0001 -0.6423 -0.0001
# 3 41.5439 0.1155 67.6303 0.0000 2.7964 -0.0001
# 4 0.0000 0.0001 0.0000 2.9213 0.0000 -14.2597
# 5 -1.8184 -0.6423 2.7964 0.0000 44.0378 0.0000
# 6 0.0000 -0.0001 -0.0001 -14.2597 0.0000 -19.0183
#
#
#
# Elastic Compliance Matrix: (Units=1/GPa)
#
#
# Indices 1 2 3 4 5 6 
#
# 1 0.008515 -0.001381 -0.005256 0.000000 0.000665 0.000000
# 2 -0.001381 0.031828 0.000779 0.000000 0.000358 0.000000
# 3 -0.005256 0.000779 0.018070 0.000000 -0.001353 0.000000
# 4 0.000000 0.000000 0.000000 0.073459 0.000000 -0.055079
# 5 0.000665 0.000358 -0.001353 0.000000 0.022826 0.000000
# 6 0.000000 0.000000 0.000000 -0.055079 0.000000 -0.011284
#
#
# Mechanical properties :
#
#
# Convention : Reuss Voigt Hill
#
# Bulk Modulus (GPa) = 21.41431 37.46458 29.43944
# Shear Modulus (GPa) = 29.29172 18.68410 23.98791
#
# Velocity S-wave (km/s) = 3.75250 2.99699 3.39582
# Velocity P-wave (km/s) = 5.39161 5.47595 5.43394
#
# Compressibility (1/GPa) = 0.04669775
#
# Stress axis : x y z
#
# Youngs Moduli (GPa) = 117.43559 31.41845 55.34187
#
# Poissons Ratio (x) = 0.04339 0.29087
# Poissons Ratio (y) = 0.16218 -0.04312
# Poissons Ratio (z) = 0.61723 -0.02448
#
# Static dielectric constant tensor:
#      x y z
#    x 1.764660 0.000000 0.028440 
#    y 0.000000 1.800030 0.000000 
#    z 0.028440 0.000000 1.736620 
# 
# From -- ./inp_files/87751.got.cif
#   From: 2010.05.17/outbox.cif.g08.bks.cpg/sg12_44_cif.got.tgz:87751.got - 2010.06.03 13:09:07.
