data_PCOD9211896
_publ_section_title
;
Structure prediction by ZEFSAII (Michael W. Deem and Ramdas Pophale) SiO2 
 PCOD9211896
Probable space group: C 2/M
;
_chemical_formula_sum "Si O2"
_cell_formula_units_Z 64
_cell_length_a 15.128961
_cell_length_b 27.595049
_cell_length_c 8.600459
_cell_angle_alpha 90.000000
_cell_angle_beta 111.870975
_cell_angle_gamma 90.000000
_cell_volume 3332.127553
_symmetry_space_group_name_H-M "C 2/M"
_symmetry_group_IT_number 12
_symmetry_cell_setting 'monoclinic'
loop_
_space_group_symop_operation_xyz
x,y,z
-x,y,-z
-x,-y,-z
x,-y,z
1/2+x,1/2+y,z
1/2-x,1/2+y,-z
1/2-x,1/2-y,-z
1/2+x,1/2-y,z
loop_
_atom_site_type_symbol
_atom_site_label
_atom_site_fract_x
_atom_site_fract_y
_atom_site_fract_z
Si Si1 0.232936 0.799713 0.397260
Si Si2 0.395728 0.136266 0.366272
Si Si3 0.094805 0.871291 0.487129
Si Si4 0.715178 0.629378 0.858355
Si Si5 0.765929 0.555317 0.160789
Si Si6 0.106091 0.203648 0.006851
Si Si7 0.438292 0.444331 0.811127
Si Si8 0.403200 0.183829 0.032408
O O1 0.250000 0.750000 0.500000
O O2 0.329858 0.829098 0.428846
O O3 0.158682 0.831926 0.443905
O O4 0.181704 0.794242 0.197049
O O5 0.500000 0.130731 0.500000
O O6 0.343173 0.085258 0.307980
O O7 0.403714 0.159398 0.200700
O O8 0.161420 0.889680 0.671196
O O9 0.060172 0.911132 0.339849
O O10 0.000000 0.849192 0.500000
O O11 0.744463 0.585560 0.990551
O O12 0.644617 0.664980 0.908371
O O13 0.809879 0.661482 0.886609
O O14 0.792794 0.500000 0.146319
O O15 0.669442 0.555677 0.197736
O O16 0.103592 0.258605 0.944481
O O17 0.000000 0.191726 0.000000
O O18 0.468016 0.500000 0.797232
O O19 0.500000 0.427114 0.000000
O O20 0.500000 0.174641 0.000000
#
# Coordination Sequence:
#
# PCOD9211896 Si02
#       8
#     8   8   8   8   8   8   8   8
#     4  12  26  42  62  94 133 174 220 267 314 383
#     4  11  25  43  67  94 128 168 218 272 320 383
#     4  12  25  38  62  95 133 170 212 263 321 383
#     4  11  22  39  61  90 127 166 209 270 318 378
#     4  10  21  43  68  92 122 167 216 268 331 390
#     4  11  22  40  63  88 128 172 217 254 316 386
#     4  10  21  40  67  95 129 169 211 261 328 399
#     4  10  23  39  63  90 121 170 214 262 317 378
#
# _framework density 19.206947
#
# number of rings (size 3 to 8) (size 9 to 14) (size 15 to 20)
#    0.000    1.125    3.750    2.625    7.000    2.500 
#    0.000    0.000    0.000    6.000    0.000    0.000 
#    0.000    0.000    0.000    0.000    0.000    0.000 
#
# Total GULP energy -178897.597722 kJ/mol
# GULP energy per Si atom -5590.549929 kJ/mol
# Density = 1.916323 g / cm^3
# Si number density = 19.206947 Si / 1000 Ang^3
#
#
#
# Elastic Constant Matrix: (Units=GPa)
#
#
# Indices 1 2 3 4 5 6 
#
# 1 123.8725 59.0304 39.5928 0.0000 11.4598 0.0000
# 2 59.0304 123.8140 42.6883 0.0000 -1.0858 0.0000
# 3 39.5928 42.6883 113.3176 0.0000 15.5707 0.0000
# 4 0.0000 0.0000 0.0000 23.8198 0.0000 3.7473
# 5 11.4598 -1.0858 15.5707 0.0000 34.8773 0.0000
# 6 0.0000 0.0000 0.0000 3.7473 0.0000 11.7444
#
#
#
# Elastic Compliance Matrix: (Units=1/GPa)
#
#
# Indices 1 2 3 4 5 6 
#
# 1 0.011168 -0.004771 -0.001683 0.000000 -0.003067 0.000000
# 2 -0.004771 0.011449 -0.003101 0.000000 0.003308 0.000000
# 3 -0.001683 -0.003101 0.011206 0.000000 -0.004546 0.000000
# 4 0.000000 0.000000 0.000000 0.044201 0.000000 -0.014103
# 5 -0.003067 0.003308 -0.004546 0.000000 0.031812 0.000000
# 6 0.000000 0.000000 0.000000 -0.014103 0.000000 0.089647
#
#
# Mechanical properties :
#
#
# Convention : Reuss Voigt Hill
#
# Bulk Modulus (GPa) = 67.96816 71.51412 69.74114
# Shear Modulus (GPa) = 22.37162 28.73447 25.55304
#
# Velocity S-wave (km/s) = 3.41657 3.87207 3.65143
# Velocity P-wave (km/s) = 7.14339 7.57000 7.35979
#
# Compressibility (1/GPa) = 0.01471277
#
# Stress axis : x y z
#
# Youngs Moduli (GPa) = 89.53982 87.34066 89.24034
#
# Poissons Ratio (x) = 0.41671 0.15023
# Poissons Ratio (y) = 0.42721 0.27671
# Poissons Ratio (z) = 0.15073 0.27082
#
# Static dielectric constant tensor:
#      x y z
#    x 1.673260 0.000000 0.006180 
#    y 0.000000 1.670910 0.000000 
#    z 0.006180 0.000000 1.713090 
# 
# From -- ./inp_files/67040.got.cif
#   From: 2010.05.17/outbox.cif.g08.bks.cpg/sg12_34_cif.got.tgz:67040.got - 2010.06.03 13:09:07.
