data_PCOD9211425
_publ_section_title
;
Structure prediction by ZEFSAII (Michael W. Deem and Ramdas Pophale) SiO2 
 PCOD9211425
Probable space group: C 2/M
;
_chemical_formula_sum "Si O2"
_cell_formula_units_Z 52
_cell_length_a 9.439749
_cell_length_b 20.797659
_cell_length_c 16.958805
_cell_angle_alpha 90.000000
_cell_angle_beta 129.274899
_cell_angle_gamma 90.000000
_cell_volume 2577.371947
_symmetry_space_group_name_H-M "C 2/M"
_symmetry_group_IT_number 12
_symmetry_cell_setting 'monoclinic'
loop_
_space_group_symop_operation_xyz
x,y,z
-x,y,-z
-x,-y,-z
x,-y,z
1/2+x,1/2+y,z
1/2-x,1/2+y,-z
1/2-x,1/2-y,-z
1/2+x,1/2-y,z
loop_
_atom_site_type_symbol
_atom_site_label
_atom_site_fract_x
_atom_site_fract_y
_atom_site_fract_z
Si Si1 0.807513 0.114531 0.398874
Si Si2 0.358818 0.735827 0.154106
Si Si3 0.928906 0.500000 0.385408
Si Si4 0.717435 0.500000 0.052891
Si Si5 0.026319 0.636865 0.602213
Si Si6 0.091767 0.500000 0.280879
Si Si7 0.242580 0.238465 0.715022
Si Si8 0.181278 0.855300 0.009094
O O1 0.665790 0.128790 0.420080
O O2 0.841003 0.179959 0.362823
O O3 0.000000 0.089608 0.500000
O O4 0.705000 0.064386 0.304421
O O5 0.566234 0.741075 0.255445
O O6 0.231010 0.721324 0.183617
O O7 0.312610 0.805951 0.102028
O O8 0.348199 0.681068 0.083911
O O9 0.850964 0.571459 0.344594
O O10 0.000000 0.500000 0.500000
O O11 0.085485 0.500000 0.374249
O O12 0.741887 0.429678 0.021231
O O13 0.882794 0.500000 0.176357
O O14 0.500000 0.500000 0.000000
O O15 0.121892 0.698219 0.671123
O O16 0.000000 0.645925 0.500000
O O17 0.000000 0.856249 0.000000
#
# Coordination Sequence:
#
# PCOD9211425 Si02
#       8
#     8   8   4   4   8   4   8   8
#     4  11  24  40  64  92 130 173 214 260 316 377
#     4  11  23  39  61  89 126 167 206 263 318 391
#     4   8  18  37  59  87 120 162 207 259 314 361
#     4  10  22  37  70  99 126 157 216 273 320 379
#     4  10  22  38  60  89 123 160 208 265 307 359
#     4  10  21  42  65  90 127 173 212 257 326 390
#     4  12  23  38  61  91 124 167 216 256 315 373
#     4  10  21  40  62  93 125 158 209 264 329 379
#
# _framework density 20.175588999999999
#
# number of rings (size 3 to 8) (size 9 to 14) (size 15 to 20)
#    0.000    1.538    3.077    1.615    4.308    1.231 
#    0.000    0.769    0.000    1.846    0.000    0.000 
#    0.000    0.000    0.000    0.000    0.000    0.000 
#
# Total GULP energy -144789.928809 kJ/mol
# GULP energy per Si atom -5568.843416 kJ/mol
# Density = 2.012967 g / cm^3
# Si number density = 20.175589 Si / 1000 Ang^3
#
#
#
# Elastic Constant Matrix: (Units=GPa)
#
#
# Indices 1 2 3 4 5 6 
#
# 1 56.7552 41.0305 20.1080 0.0000 0.0997 0.0000
# 2 41.0305 153.8261 44.2709 0.0000 -8.5466 0.0000
# 3 20.1080 44.2709 58.0842 0.0000 12.3249 0.0000
# 4 0.0000 0.0000 0.0000 23.4398 0.0000 1.7806
# 5 0.0997 -8.5466 12.3249 0.0000 38.5789 0.0000
# 6 0.0000 0.0000 0.0000 1.7806 0.0000 24.1825
#
#
#
# Elastic Compliance Matrix: (Units=1/GPa)
#
#
# Indices 1 2 3 4 5 6 
#
# 1 0.022579 -0.004800 -0.004205 0.000000 0.000222 0.000000
# 2 -0.004800 0.010019 -0.006917 0.000000 0.004442 0.000000
# 3 -0.004205 -0.006917 0.026032 0.000000 -0.009838 0.000000
# 4 0.000000 0.000000 0.000000 0.042903 0.000000 -0.003159
# 5 0.000222 0.004442 -0.009838 0.000000 0.030047 0.000000
# 6 0.000000 0.000000 0.000000 -0.003159 0.000000 0.041585
#
#
# Mechanical properties :
#
#
# Convention : Reuss Voigt Hill
#
# Bulk Modulus (GPa) = 37.33389 53.27604 45.30497
# Shear Modulus (GPa) = 23.37145 28.12396 25.74771
#
# Velocity S-wave (km/s) = 3.40722 3.73763 3.57624
# Velocity P-wave (km/s) = 5.83297 6.71491 6.28942
#
# Compressibility (1/GPa) = 0.02678532
#
# Stress axis : x y z
#
# Youngs Moduli (GPa) = 44.28867 99.81450 38.41498
#
# Poissons Ratio (x) = 0.47911 0.16154
# Poissons Ratio (y) = 0.21259 0.26571
# Poissons Ratio (z) = 0.18624 0.69039
#
# Static dielectric constant tensor:
#      x y z
#    x 1.708910 0.000000 -0.000050 
#    y 0.000000 1.771850 0.000000 
#    z -0.000050 0.000000 1.764110 
# 
# From -- ./inp_files/258595.got.cif
#   From: 2010.05.17/outbox.cif.g08.bks.cpg/sg12_130_cif.got.tgz:258595.got - 2010.06.03 13:09:07.
