data_PCOD9211334
_publ_section_title
;
Structure prediction by ZEFSAII (Michael W. Deem and Ramdas Pophale) SiO2 
 PCOD9211334
Probable space group: C 2/M
;
_chemical_formula_sum "Si O2"
_cell_formula_units_Z 48
_cell_length_a 20.899757
_cell_length_b 7.941805
_cell_length_c 13.676181
_cell_angle_alpha 90.000000
_cell_angle_beta 72.274076
_cell_angle_gamma 90.000000
_cell_volume 2162.226280
_symmetry_space_group_name_H-M "C 2/M"
_symmetry_group_IT_number 12
_symmetry_cell_setting 'monoclinic'
loop_
_space_group_symop_operation_xyz
x,y,z
-x,y,-z
-x,-y,-z
x,-y,z
1/2+x,1/2+y,z
1/2-x,1/2+y,-z
1/2-x,1/2-y,-z
1/2+x,1/2-y,z
loop_
_atom_site_type_symbol
_atom_site_label
_atom_site_fract_x
_atom_site_fract_y
_atom_site_fract_z
Si Si1 0.990945 0.500000 0.670348
Si Si2 0.673776 0.697148 0.519617
Si Si3 0.362190 0.197692 0.936245
Si Si4 0.350991 0.697174 0.245093
Si Si5 0.893499 0.500000 0.547946
Si Si6 0.996364 0.195304 0.185380
Si Si7 0.249691 0.303621 0.858096
O O1 0.922773 0.500000 0.641587
O O2 0.995327 0.333631 0.733903
O O3 0.048391 0.500000 0.561581
O O4 0.666619 0.500000 0.497793
O O5 0.750000 0.750000 0.500000
O O6 0.641979 0.725794 0.642050
O O7 0.645552 0.827924 0.454911
O O8 0.433677 0.288683 0.904828
O O9 0.319825 0.218850 0.854926
O O10 0.374222 0.000000 0.947284
O O11 0.309229 0.261862 0.041860
O O12 0.338353 0.500000 0.235981
O O13 0.424804 0.739628 0.167790
O O14 0.286136 0.786205 0.229864
O O15 0.989445 0.000000 0.221209
O O16 0.259916 0.500000 0.873751
#
# Coordination Sequence:
#
# PCOD9211334 Si02
#       7
#     4   8   8   8   4   8   8
#     4  11  24  42  66  90 127 164 206 257 313 377
#     4  11  23  41  65  93 126 163 208 259 312 373
#     4  10  21  40  61  89 129 166 205 258 306 368
#     4  10  23  40  61  91 123 162 208 258 310 370
#     4  11  24  42  66  93 122 170 201 255 327 364
#     4  11  23  41  66  92 127 166 207 258 311 368
#     4  10  22  37  62  92 123 165 209 254 311 369
#
# _framework density 22.199342000000001
#
# number of rings (size 3 to 8) (size 9 to 14) (size 15 to 20)
#    0.000    1.500    3.333    1.000    2.333    4.667 
#    0.000    5.000    0.000    0.000    0.000    0.000 
#    0.000    0.000    0.000    0.000    0.000    0.000 
#
# Total GULP energy -134029.399127 kJ/mol
# GULP energy per Si atom -5584.558297 kJ/mol
# Density = 2.214882 g / cm^3
# Si number density = 22.199342 Si / 1000 Ang^3
#
#
#
# Elastic Constant Matrix: (Units=GPa)
#
#
# Indices 1 2 3 4 5 6 
#
# 1 75.1509 16.6804 6.0026 0.0000 -4.8388 0.0000
# 2 16.6804 91.7644 17.3216 0.0000 13.2247 0.0000
# 3 6.0026 17.3216 21.7014 0.0000 -5.6500 0.0000
# 4 0.0000 0.0000 0.0000 19.6232 0.0000 -1.0361
# 5 -4.8388 13.2247 -5.6500 0.0000 41.9501 0.0000
# 6 0.0000 0.0000 0.0000 -1.0361 0.0000 37.7078
#
#
#
# Elastic Compliance Matrix: (Units=1/GPa)
#
#
# Indices 1 2 3 4 5 6 
#
# 1 0.014145 -0.002686 -0.001164 0.000000 0.002322 0.000000
# 2 -0.002686 0.014761 -0.012780 0.000000 -0.006685 0.000000
# 3 -0.001164 -0.012780 0.059710 0.000000 0.011937 0.000000
# 4 0.000000 0.000000 0.000000 0.051034 0.000000 0.001402
# 5 0.002322 -0.006685 0.011937 0.000000 0.027821 0.000000
# 6 0.000000 0.000000 0.000000 0.001402 0.000000 0.026558
#
#
# Mechanical properties :
#
#
# Convention : Reuss Voigt Hill
#
# Bulk Modulus (GPa) = 18.06455 29.84733 23.95594
# Shear Modulus (GPa) = 20.34655 29.76370 25.05513
#
# Velocity S-wave (km/s) = 3.03072 3.66559 3.36317
# Velocity P-wave (km/s) = 4.51687 5.60266 5.08881
#
# Compressibility (1/GPa) = 0.05535703
#
# Stress axis : x y z
#
# Youngs Moduli (GPa) = 70.69521 67.74435 16.74755
#
# Poissons Ratio (x) = 0.18196 0.01950
# Poissons Ratio (y) = 0.18989 0.21403
# Poissons Ratio (z) = 0.08230 0.86575
#
# Static dielectric constant tensor:
#      x y z
#    x 1.837570 0.000000 -0.028010 
#    y 0.000000 1.732110 0.000000 
#    z -0.028010 0.000000 1.940730 
# 
# From -- ./inp_files/230006.got.cif
#   From: 2010.05.17/outbox.cif.g08.bks.cpg/sg12_116_cif.got.tgz:230006.got - 2010.06.03 13:09:07.
