data_PCOD9211172
_publ_section_title
;
Structure prediction by ZEFSAII (Michael W. Deem and Ramdas Pophale) SiO2 
 PCOD9211172
Probable space group: C 2/M
;
_chemical_formula_sum "Si O2"
_cell_formula_units_Z 32
_cell_length_a 14.004109
_cell_length_b 19.131553
_cell_length_c 10.856924
_cell_angle_alpha 90.000000
_cell_angle_beta 30.864901
_cell_angle_gamma 90.000000
_cell_volume 1492.254859
_symmetry_space_group_name_H-M "C 2/M"
_symmetry_group_IT_number 12
_symmetry_cell_setting 'monoclinic'
loop_
_space_group_symop_operation_xyz
x,y,z
-x,y,-z
-x,-y,-z
x,-y,z
1/2+x,1/2+y,z
1/2-x,1/2+y,-z
1/2-x,1/2-y,-z
1/2+x,1/2-y,z
loop_
_atom_site_type_symbol
_atom_site_label
_atom_site_fract_x
_atom_site_fract_y
_atom_site_fract_z
Si Si1 0.428185 0.260523 0.388422
Si Si2 0.198438 0.118620 0.318060
Si Si3 0.387933 0.000000 0.750055
Si Si4 0.124466 0.500000 0.738022
Si Si5 0.717035 0.142877 0.047375
O O1 0.250000 0.250000 0.500000
O O2 0.339148 0.301960 0.601011
O O3 0.541889 0.189301 0.284132
O O4 0.592535 0.312310 0.156894
O O5 0.265240 0.071898 0.357609
O O6 0.000000 0.087060 0.500000
O O7 0.312913 0.122970 0.064569
O O8 0.500000 0.000000 0.500000
O O9 0.526095 0.000000 0.715852
O O10 0.271075 0.070839 0.893023
O O11 0.000000 0.500000 0.000000
#
# Coordination Sequence:
#
# PCOD9211172 Si02
#       5
#     8   8   4   4   8
#     4  10  22  37  64  96 130 168 222 273 331 396
#     4  10  21  39  67  97 126 168 232 279 326 389
#     4  12  26  42  66  98 143 178 222 279 348 401
#     4  12  21  38  71  95 124 174 226 270 323 396
#     4  10  22  43  63  93 132 175 216 280 334 386
#
# _framework density 21.444057999999998
#
# number of rings (size 3 to 8) (size 9 to 14) (size 15 to 20)
#    0.000    1.500    2.500    1.875    0.000    8.000 
#    0.000    3.750    0.000   18.000    0.000    0.000 
#    0.000    0.000    0.000    0.000    0.000    0.000 
#
# Total GULP energy -89265.949449 kJ/mol
# GULP energy per Si atom -5579.121841 kJ/mol
# Density = 2.139525 g / cm^3
# Si number density = 21.444058 Si / 1000 Ang^3
#
#
#
# Elastic Constant Matrix: (Units=GPa)
#
#
# Indices 1 2 3 4 5 6 
#
# 1 91.3641 10.1221 17.8129 -0.0040 -8.6070 0.0148
# 2 10.1221 130.8770 34.8905 -0.0076 4.4764 0.0149
# 3 17.8129 34.8905 67.6709 -0.0009 8.8488 0.0128
# 4 -0.0040 -0.0076 -0.0009 59.7225 0.0001 10.5109
# 5 -8.6070 4.4764 8.8488 0.0001 43.0330 -0.0087
# 6 0.0148 0.0149 0.0128 10.5109 -0.0087 36.3530
#
#
#
# Elastic Compliance Matrix: (Units=1/GPa)
#
#
# Indices 1 2 3 4 5 6 
#
# 1 0.011932 -0.000097 -0.003498 0.000001 0.003116 -0.000003
# 2 -0.000097 0.008859 -0.004541 0.000001 -0.000007 -0.000002
# 3 -0.003498 -0.004541 0.018569 0.000000 -0.004046 -0.000004
# 4 0.000001 0.000001 0.000000 0.017642 -0.000001 -0.005101
# 5 0.003116 -0.000007 -0.004046 -0.000001 0.024694 0.000006
# 6 -0.000003 -0.000002 -0.000004 -0.005101 0.000006 0.028983
#
#
# Mechanical properties :
#
#
# Convention : Reuss Voigt Hill
#
# Bulk Modulus (GPa) = 43.31492 46.17366 44.74429
# Shear Modulus (GPa) = 37.13441 42.96082 40.04762
#
# Velocity S-wave (km/s) = 4.16587 4.48078 4.32619
# Velocity P-wave (km/s) = 6.58651 6.95333 6.77240
#
# Compressibility (1/GPa) = 0.02308673
#
# Stress axis : x y z
#
# Youngs Moduli (GPa) = 83.81173 112.87762 53.85408
#
# Poissons Ratio (x) = 0.01092 0.18839
# Poissons Ratio (y) = 0.00811 0.24457
# Poissons Ratio (z) = 0.29319 0.51261
#
# Static dielectric constant tensor:
#      x y z
#    x 1.838450 -0.000010 -0.041460 
#    y -0.000010 1.862100 0.000010 
#    z -0.041460 0.000010 1.843620 
# 
# From -- ./inp_files/146821.got.cif
#   From: 2010.05.17/outbox.cif.g08.bks.cpg/sg12_74_cif.got.tgz:146821.got - 2010.06.03 13:09:07.
