data_PCOD9211110
_publ_section_title
;
Structure prediction by ZEFSAII (Michael W. Deem and Ramdas Pophale) SiO2 
 PCOD9211110
Probable space group: C 2/M
;
_chemical_formula_sum "Si O2"
_cell_formula_units_Z 48
_cell_length_a 23.290207
_cell_length_b 16.540094
_cell_length_c 19.678680
_cell_angle_alpha 90.000000
_cell_angle_beta 17.556061
_cell_angle_gamma 90.000000
_cell_volume 2286.622734
_symmetry_space_group_name_H-M "C 2/M"
_symmetry_group_IT_number 12
_symmetry_cell_setting 'monoclinic'
loop_
_space_group_symop_operation_xyz
x,y,z
-x,y,-z
-x,-y,-z
x,-y,z
1/2+x,1/2+y,z
1/2-x,1/2+y,-z
1/2-x,1/2-y,-z
1/2+x,1/2-y,z
loop_
_atom_site_type_symbol
_atom_site_label
_atom_site_fract_x
_atom_site_fract_y
_atom_site_fract_z
Si Si1 0.880666 0.129329 0.698191
Si Si2 0.466812 0.820149 0.614627
Si Si3 0.038678 0.840946 0.126930
Si Si4 0.520536 0.178854 0.895954
Si Si5 0.832816 0.909331 0.241516
Si Si6 0.598783 0.407745 0.580505
O O1 0.943984 0.223466 0.636918
O O2 0.000000 0.096933 0.500000
O O3 0.936050 0.090561 0.706654
O O4 0.662179 0.128235 0.922684
O O5 0.500000 0.848787 0.500000
O O6 0.653909 0.849500 0.442087
O O7 0.266312 0.851803 0.868561
O O8 0.991149 0.758599 0.138783
O O9 0.932224 0.907116 0.201998
O O10 0.963807 0.849571 0.287399
O O11 0.712832 0.129995 0.665845
O O12 0.500000 0.197027 0.000000
O O13 0.768690 0.000000 0.296123
O O14 0.000000 0.886129 0.000000
O O15 0.632278 0.500000 0.565761
#
# Coordination Sequence:
#
# PCOD9211110 Si02
#       6
#     8   8   8   8   8   8
#     4  10  22  43  70  98 126 168 229 281 332 387
#     4  10  21  39  66  94 128 173 226 280 318 387
#     4  11  24  42  68  97 136 172 222 280 333 392
#     4  11  23  44  75 101 128 174 233 280 326 393
#     4  11  22  35  58  92 134 182 225 266 328 399
#     4  12  27  44  65 101 144 176 214 275 346 406
#
# _framework density 20.991658000000001
#
# number of rings (size 3 to 8) (size 9 to 14) (size 15 to 20)
#    0.000    1.167    3.333    2.500    2.333    7.000 
#    0.000    0.000    0.000    0.000    0.000    0.000 
#    0.000    0.000    0.000    0.000    0.000    0.000 
#
# Total GULP energy -134109.609237 kJ/mol
# GULP energy per Si atom -5587.900385 kJ/mol
# Density = 2.094388 g / cm^3
# Si number density = 20.991658 Si / 1000 Ang^3
#
#
#
# Elastic Constant Matrix: (Units=GPa)
#
#
# Indices 1 2 3 4 5 6 
#
# 1 130.3942 22.5446 56.1206 0.0196 8.7375 0.0045
# 2 22.5446 52.5275 35.7330 0.0454 -0.5942 -0.0163
# 3 56.1206 35.7330 121.9100 0.0120 -5.3357 -0.0311
# 4 0.0196 0.0454 0.0120 -30.0928 -0.0271 -6.6547
# 5 8.7375 -0.5942 -5.3357 -0.0271 42.6026 0.0012
# 6 0.0045 -0.0163 -0.0311 -6.6547 0.0012 22.4713
#
#
#
# Elastic Compliance Matrix: (Units=1/GPa)
#
#
# Indices 1 2 3 4 5 6 
#
# 1 0.009922 -0.001378 -0.004277 0.000007 -0.002590 -0.000007
# 2 -0.001378 0.023983 -0.006403 0.000029 -0.000185 0.000017
# 3 -0.004277 -0.006403 0.012149 -0.000012 0.002309 0.000009
# 4 0.000007 0.000029 -0.000012 -0.031188 -0.000022 -0.009236
# 5 -0.002590 -0.000185 0.002309 -0.000022 0.024291 -0.000004
# 6 -0.000007 0.000017 0.000009 -0.009236 -0.000004 0.041766
#
#
# Mechanical properties :
#
#
# Convention : Reuss Voigt Hill
#
# Bulk Modulus (GPa) = 45.58390 59.29203 52.43797
# Shear Modulus (GPa) = 44.50317 19.69178 32.09747
#
# Velocity S-wave (km/s) = 4.60938 3.06613 3.91456
# Velocity P-wave (km/s) = 7.07750 6.39075 6.74287
#
# Compressibility (1/GPa) = 0.02193757
#
# Stress axis : x y z
#
# Youngs Moduli (GPa) = 100.79085 41.69614 82.30813
#
# Poissons Ratio (x) = 0.05747 0.35201
# Poissons Ratio (y) = 0.13892 0.52704
# Poissons Ratio (z) = 0.43105 0.26699
#
# Static dielectric constant tensor:
#      x y z
#    x 1.775710 -0.000020 -0.002800 
#    y -0.000020 1.799360 0.000020 
#    z -0.002800 0.000020 1.738700 
# 
# From -- ./inp_files/285345.got.cif
#   From: 2010.05.17/outbox.cif.g08.bks.cpg/sg12_143_cif.got.tgz:285345.got - 2010.06.03 13:09:07.
