data_PCOD9211944
_publ_section_title
;
Structure prediction by ZEFSAII (Michael W. Deem and Ramdas Pophale) SiO2 
 PCOD9211944
Probable space group: C 2/M
;
_chemical_formula_sum "Si O2"
_cell_formula_units_Z 52
_cell_length_a 5.220885
_cell_length_b 24.466230
_cell_length_c 20.247034
_cell_angle_alpha 90.000000
_cell_angle_beta 128.620469
_cell_angle_gamma 90.000000
_cell_volume 2020.640487
_symmetry_space_group_name_H-M "C 2/M"
_symmetry_group_IT_number 12
_symmetry_cell_setting 'monoclinic'
loop_
_space_group_symop_operation_xyz
x,y,z
-x,y,-z
-x,-y,-z
x,-y,z
1/2+x,1/2+y,z
1/2-x,1/2+y,-z
1/2-x,1/2-y,-z
1/2+x,1/2-y,z
loop_
_atom_site_type_symbol
_atom_site_label
_atom_site_fract_x
_atom_site_fract_y
_atom_site_fract_z
Si Si1 0.349515 0.058548 0.820167
Si Si2 0.936753 0.278942 0.862163
Si Si3 0.376082 0.875672 0.585227
Si Si4 0.500000 0.589889 0.000000
Si Si5 0.000000 0.290527 0.500000
Si Si6 0.389198 0.369235 0.123173
Si Si7 0.895012 0.500000 0.559922
Si Si8 0.601841 0.838602 0.264335
O O1 0.088239 0.073522 0.835119
O O2 0.320229 0.104387 0.759504
O O3 0.693971 0.058766 0.916436
O O4 0.293087 0.000000 0.781125
O O5 0.408542 0.161261 0.888746
O O6 0.779864 0.244661 0.895768
O O7 0.766945 0.290068 0.762222
O O8 0.589384 0.835390 0.572056
O O9 0.496376 0.939471 0.605112
O O10 0.346812 0.845961 0.650893
O O11 0.000000 0.877360 0.500000
O O12 0.625319 0.622029 0.955882
O O13 0.750000 0.250000 0.500000
O O14 0.706390 0.334199 0.193007
O O15 0.500000 0.500000 0.500000
O O16 0.000000 0.500000 0.500000
#
# Coordination Sequence:
#
# PCOD9211944 Si02
#       8
#     8   8   8   4   4   8   4   8
#     4  10  22  40  65 101 137 179 226 278 345 414
#     4  11  22  44  71  97 135 185 233 282 350 415
#     4  11  25  48  71 103 143 187 245 294 363 425
#     4  10  21  40  68  92 142 180 220 282 343 412
#     4  12  26  47  72 107 144 184 240 306 366 428
#     4  10  22  42  63 100 135 175 230 280 343 410
#     4  10  22  46  72  98 134 187 232 287 352 428
#     4  10  24  43  69  99 139 178 229 291 343 416
#
# _framework density 25.734414999999998
#
# number of rings (size 3 to 8) (size 9 to 14) (size 15 to 20)
#    0.000    1.538    3.077    0.692    1.077    7.385 
#    0.000    0.769    0.000    0.000    0.000    0.000 
#    0.000    0.000    0.000    0.000    0.000    0.000 
#
# Total GULP energy -144995.120483 kJ/mol
# GULP energy per Si atom -5576.735403 kJ/mol
# Density = 2.567584 g / cm^3
# Si number density = 25.734415 Si / 1000 Ang^3
#
#
#
# Elastic Constant Matrix: (Units=GPa)
#
#
# Indices 1 2 3 4 5 6 
#
# 1 152.8628 50.5328 34.5359 0.0000 -49.5118 0.0000
# 2 50.5328 137.8822 7.6934 0.0000 -21.9702 0.0000
# 3 34.5359 7.6934 103.3343 0.0000 -43.0870 0.0000
# 4 0.0000 0.0000 0.0000 3.5967 0.0000 34.8363
# 5 -49.5118 -21.9702 -43.0870 0.0000 47.3267 0.0000
# 6 0.0000 0.0000 0.0000 34.8363 0.0000 -72.9860
#
#
#
# Elastic Compliance Matrix: (Units=1/GPa)
#
#
# Indices 1 2 3 4 5 6 
#
# 1 0.010623 -0.002164 0.001331 0.000000 0.011321 0.000000
# 2 -0.002164 0.008420 0.001261 0.000000 0.002793 0.000000
# 3 0.001331 0.001261 0.016060 0.000000 0.016599 0.000000
# 4 0.000000 0.000000 0.000000 0.049446 0.000000 0.023601
# 5 0.011321 0.002793 0.016599 0.000000 0.049383 0.000000
# 6 0.000000 0.000000 0.000000 0.023601 0.000000 -0.002437
#
#
# Mechanical properties :
#
#
# Convention : Reuss Voigt Hill
#
# Bulk Modulus (GPa) = 27.80840 64.40039 46.10439
# Shear Modulus (GPa) = 35.05697 15.67529 25.36613
#
# Velocity S-wave (km/s) = 3.69488 2.47071 3.14297
# Velocity P-wave (km/s) = 5.38816 5.76355 5.57901
#
# Compressibility (1/GPa) = 0.03596036
#
# Stress axis : x y z
#
# Youngs Moduli (GPa) = 94.13323 118.76107 62.26704
#
# Poissons Ratio (x) = 0.25696 -0.08289
# Poissons Ratio (y) = 0.20367 -0.07852
# Poissons Ratio (z) = -0.12531 -0.14975
#
# Static dielectric constant tensor:
#      x y z
#    x 2.133360 0.000000 0.128010 
#    y 0.000000 2.211910 0.000000 
#    z 0.128010 0.000000 2.051180 
# 
# From -- ./inp_files/298134.got.cif
#   From: 2010.05.17/outbox.cif.g08.bks.cpg/sg12_150_cif.got.tgz:298134.got - 2010.06.03 13:09:07.
