data_PCOD9211933
_publ_section_title
;
Structure prediction by ZEFSAII (Michael W. Deem and Ramdas Pophale) SiO2 
 PCOD9211933
Probable space group: C 2/M
;
_chemical_formula_sum "Si O2"
_cell_formula_units_Z 56
_cell_length_a 19.697396
_cell_length_b 17.739072
_cell_length_c 16.662599
_cell_angle_alpha 90.000000
_cell_angle_beta 157.507843
_cell_angle_gamma 90.000000
_cell_volume 2227.299224
_symmetry_space_group_name_H-M "C 2/M"
_symmetry_group_IT_number 12
_symmetry_cell_setting 'monoclinic'
loop_
_space_group_symop_operation_xyz
x,y,z
-x,y,-z
-x,-y,-z
x,-y,z
1/2+x,1/2+y,z
1/2-x,1/2+y,-z
1/2-x,1/2-y,-z
1/2+x,1/2-y,z
loop_
_atom_site_type_symbol
_atom_site_label
_atom_site_fract_x
_atom_site_fract_y
_atom_site_fract_z
Si Si1 0.293660 0.186626 0.219746
Si Si2 0.388926 0.788500 0.554617
Si Si3 0.300983 0.587186 0.747405
Si Si4 0.808791 0.883564 0.462608
Si Si5 0.145112 0.080243 0.935312
Si Si6 0.943968 0.386473 0.140840
Si Si7 0.304097 0.152264 0.823439
O O1 0.463706 0.211652 0.354669
O O2 0.313315 0.117655 0.302732
O O3 0.234884 0.259367 0.205789
O O4 0.157612 0.151920 0.006576
O O5 0.254083 0.856672 0.385170
O O6 0.301721 0.707366 0.464312
O O7 0.496506 0.808410 0.752492
O O8 0.269096 0.500000 0.692433
O O9 0.500000 0.596104 0.000000
O O10 0.630113 0.916031 0.308133
O O11 0.813214 0.890475 0.370752
O O12 0.982714 0.911518 0.697103
O O13 0.124910 0.000000 0.957600
O O14 0.330003 0.078013 0.087919
O O15 0.813980 0.380403 0.923278
O O16 0.500000 0.147332 0.000000
#
# Coordination Sequence:
#
# PCOD9211933 Si02
#       7
#     8   8   8   8   8   8   8
#     4  11  22  40  66  95 138 177 217 275 331 411
#     4  11  23  39  64  97 132 178 226 279 338 399
#     4  11  25  40  60  96 139 186 226 266 333 413
#     4  11  23  41  69 101 131 175 231 289 346 395
#     4  11  26  45  67  99 137 183 232 279 343 413
#     4  10  24  42  65  94 132 176 224 287 334 400
#     4  10  21  40  68 101 133 168 221 284 342 400
#
# _framework density 25.142558000000001
#
# number of rings (size 3 to 8) (size 9 to 14) (size 15 to 20)
#    0.000    1.286    1.429    3.429    4.000    8.000 
#    0.000    1.429    0.000    2.571    0.000    0.000 
#    0.000    0.000    0.000    0.000    0.000    0.000 
#
# Total GULP energy -156588.220720 kJ/mol
# GULP energy per Si atom -5592.436454 kJ/mol
# Density = 2.508533 g / cm^3
# Si number density = 25.142558 Si / 1000 Ang^3
#
#
#
# Elastic Constant Matrix: (Units=GPa)
#
#
# Indices 1 2 3 4 5 6 
#
# 1 88.6122 -0.9972 10.1689 -0.0004 4.2315 0.0000
# 2 -0.9972 93.1445 10.7318 -0.0002 7.9536 0.0000
# 3 10.1689 10.7318 99.3508 -0.0008 -5.4943 0.0000
# 4 -0.0004 -0.0002 -0.0008 -89.3376 -0.0005 -7.1644
# 5 4.2315 7.9536 -5.4943 -0.0005 45.4051 0.0000
# 6 0.0000 0.0000 0.0000 -7.1644 0.0000 4.7462
#
#
#
# Elastic Compliance Matrix: (Units=1/GPa)
#
#
# Indices 1 2 3 4 5 6 
#
# 1 0.011499 0.000382 -0.001290 0.000000 -0.001295 0.000000
# 2 0.000382 0.011079 -0.001354 0.000000 -0.002140 0.000000
# 3 -0.001290 -0.001354 0.010433 0.000000 0.001620 0.000000
# 4 0.000000 0.000000 0.000000 -0.009985 0.000000 -0.015072
# 5 -0.001295 -0.002140 0.001620 0.000000 0.022716 0.000000
# 6 0.000000 0.000000 0.000000 -0.015072 0.000000 0.187942
#
#
# Mechanical properties :
#
#
# Convention : Reuss Voigt Hill
#
# Bulk Modulus (GPa) = 35.10281 35.65717 35.37999
# Shear Modulus (GPa) = 20.18540 9.57636 14.88088
#
# Velocity S-wave (km/s) = 2.83651 1.95374 2.43546
# Velocity P-wave (km/s) = 4.97188 4.39343 4.69158
#
# Compressibility (1/GPa) = 0.02848775
#
# Stress axis : x y z
#
# Youngs Moduli (GPa) = 86.96198 90.26187 95.84750
#
# Poissons Ratio (x) = -0.03451 0.12363
# Poissons Ratio (y) = -0.03324 0.12980
# Poissons Ratio (z) = 0.11217 0.12223
#
# Static dielectric constant tensor:
#      x y z
#    x 2.007560 0.000000 -0.042250 
#    y 0.000000 1.961760 0.000000 
#    z -0.042250 0.000000 2.020380 
# 
# From -- ./inp_files/286071.got.cif
#   From: 2010.05.17/outbox.cif.g08.bks.cpg/sg12_144_cif.got.tgz:286071.got - 2010.06.03 13:09:07.
