data_PCOD9211850
_publ_section_title
;
Structure prediction by ZEFSAII (Michael W. Deem and Ramdas Pophale) SiO2 
 PCOD9211850
Probable space group: C 2/M
;
_chemical_formula_sum "Si O2"
_cell_formula_units_Z 64
_cell_length_a 27.841210
_cell_length_b 14.217106
_cell_length_c 18.836988
_cell_angle_alpha 90.000000
_cell_angle_beta 23.534279
_cell_angle_gamma 90.000000
_cell_volume 2977.196715
_symmetry_space_group_name_H-M "C 2/M"
_symmetry_group_IT_number 12
_symmetry_cell_setting 'monoclinic'
loop_
_space_group_symop_operation_xyz
x,y,z
-x,y,-z
-x,-y,-z
x,-y,z
1/2+x,1/2+y,z
1/2-x,1/2+y,-z
1/2-x,1/2-y,-z
1/2+x,1/2-y,z
loop_
_atom_site_type_symbol
_atom_site_label
_atom_site_fract_x
_atom_site_fract_y
_atom_site_fract_z
Si Si1 0.606776 0.807086 0.295846
Si Si2 0.550165 0.603192 0.352058
Si Si3 0.118611 0.294337 0.791818
Si Si4 0.861545 0.891588 0.480499
Si Si5 0.008148 0.249215 0.803749
Si Si6 0.464192 0.893749 0.757714
Si Si7 0.249352 0.602708 0.357888
Si Si8 0.185110 0.106728 0.893270
O O1 0.500000 0.809116 0.500000
O O2 0.627243 0.698214 0.245824
O O3 0.568640 0.862154 0.276922
O O4 0.721353 0.855627 0.175731
O O5 0.500000 0.598509 0.500000
O O6 0.604892 0.500000 0.261401
O O7 0.440659 0.617579 0.444907
O O8 0.223386 0.362312 0.677733
O O9 0.085033 0.309551 0.755164
O O10 0.172640 0.188980 0.720977
O O11 0.000000 0.302411 0.000000
O O12 0.914685 0.817828 0.352138
O O13 0.870821 0.000000 0.444601
O O14 0.926234 0.317444 0.867056
O O15 0.924908 0.178203 0.960445
O O16 0.609811 0.890283 0.566900
O O17 0.423924 0.000000 0.825750
O O18 0.296188 0.500000 0.317108
O O19 0.253761 0.606429 0.266487
O O20 0.147872 0.000000 0.960780
#
# Coordination Sequence:
#
# PCOD9211850 Si02
#       8
#     8   8   8   8   8   8   8   8
#     4  11  20  37  68  97 132 168 215 264 320 376
#     4   9  19  36  63  95 129 171 216 255 306 380
#     4  12  25  43  67  93 125 167 222 271 325 380
#     4  11  24  44  67  94 129 171 217 265 322 385
#     4  12  25  44  64  91 133 171 213 266 327 387
#     4  11  23  41  66  97 131 167 212 265 326 385
#     4  10  21  40  66  96 128 163 212 269 323 383
#     4  11  24  40  65  99 131 170 216 263 320 389
#
# _framework density 21.496732999999999
#
# number of rings (size 3 to 8) (size 9 to 14) (size 15 to 20)
#    0.000    1.125    5.000    1.125    1.750    3.000 
#    0.000    0.625    0.000    0.000    0.000    0.000 
#    0.000    0.000    0.000    0.000    0.000    0.000 
#
# Total GULP energy -178887.576006 kJ/mol
# GULP energy per Si atom -5590.236750 kJ/mol
# Density = 2.144781 g / cm^3
# Si number density = 21.496733 Si / 1000 Ang^3
#
#
#
# Elastic Constant Matrix: (Units=GPa)
#
#
# Indices 1 2 3 4 5 6 
#
# 1 98.2003 15.2462 8.5876 0.0000 1.8956 0.0000
# 2 15.2462 111.1058 5.5704 0.0000 2.9005 0.0000
# 3 8.5876 5.5704 34.5291 0.0000 -4.4215 0.0000
# 4 0.0000 0.0000 0.0000 25.2807 0.0000 -3.2563
# 5 1.8956 2.9005 -4.4215 0.0000 16.7351 0.0000
# 6 0.0000 0.0000 0.0000 -3.2563 0.0000 27.3210
#
#
#
# Elastic Compliance Matrix: (Units=1/GPa)
#
#
# Indices 1 2 3 4 5 6 
#
# 1 0.010647 -0.001284 -0.002657 0.000000 -0.001685 0.000000
# 2 -0.001284 0.009296 -0.001416 0.000000 -0.001840 0.000000
# 3 -0.002657 -0.001416 0.030968 0.000000 0.008728 0.000000
# 4 0.000000 0.000000 0.000000 0.040173 0.000000 0.004788
# 5 -0.001685 -0.001840 0.008728 0.000000 0.062570 0.000000
# 6 0.000000 0.000000 0.000000 0.004788 0.000000 0.037173
#
#
# Mechanical properties :
#
#
# Convention : Reuss Voigt Hill
#
# Bulk Modulus (GPa) = 24.87692 33.62707 29.25199
# Shear Modulus (GPa) = 23.26241 28.16275 25.71258
#
# Velocity S-wave (km/s) = 3.29315 3.62345 3.46224
# Velocity P-wave (km/s) = 5.10464 5.76044 5.44243
#
# Compressibility (1/GPa) = 0.04019791
#
# Stress axis : x y z
#
# Youngs Moduli (GPa) = 93.91904 107.57756 32.29148
#
# Poissons Ratio (x) = 0.13812 0.08579
# Poissons Ratio (y) = 0.12058 0.04572
# Poissons Ratio (z) = 0.24952 0.15232
#
# Static dielectric constant tensor:
#      x y z
#    x 1.749370 0.000000 0.006730 
#    y 0.000000 1.802700 0.000000 
#    z 0.006730 0.000000 1.789580 
# 
# From -- ./inp_files/290100.got.cif
#   From: 2010.05.17/outbox.cif.g08.bks.cpg/sg12_146_cif.got.tgz:290100.got - 2010.06.03 13:09:07.
