data_PCOD9211069
_publ_section_title
;
Structure prediction by ZEFSAII (Michael W. Deem and Ramdas Pophale) SiO2 
 PCOD9211069
Probable space group: C 2/M
;
_chemical_formula_sum "Si O2"
_cell_formula_units_Z 40
_cell_length_a 9.242047
_cell_length_b 27.528432
_cell_length_c 13.573940
_cell_angle_alpha 90.000000
_cell_angle_beta 30.601866
_cell_angle_gamma 90.000000
_cell_volume 1758.055602
_symmetry_space_group_name_H-M "C 2/M"
_symmetry_group_IT_number 12
_symmetry_cell_setting 'monoclinic'
loop_
_space_group_symop_operation_xyz
x,y,z
-x,y,-z
-x,-y,-z
x,-y,z
1/2+x,1/2+y,z
1/2-x,1/2+y,-z
1/2-x,1/2-y,-z
1/2+x,1/2-y,z
loop_
_atom_site_type_symbol
_atom_site_label
_atom_site_fract_x
_atom_site_fract_y
_atom_site_fract_z
Si Si1 0.810196 0.662015 0.512088
Si Si2 0.792547 0.946889 0.389101
Si Si3 0.707038 0.133761 0.116559
Si Si4 0.597835 0.054534 0.050048
Si Si5 0.723348 0.707175 0.095084
O O1 0.696232 0.606292 0.567873
O O2 0.557017 0.700422 0.673784
O O3 0.000000 0.664214 0.500000
O O4 0.019681 0.667833 0.296818
O O5 0.500000 0.946602 0.500000
O O6 0.060914 0.947503 0.158570
O O7 0.805096 0.000000 0.434860
O O8 0.533622 0.086941 0.181783
O O9 0.781408 0.159993 0.971534
O O10 0.000000 0.121679 0.000000
O O11 0.484033 0.000000 0.125622
O O12 0.500000 0.073388 0.000000
O O13 0.750000 0.750000 0.000000
O O14 0.000000 0.708739 0.000000
#
# Coordination Sequence:
#
# PCOD9211069 Si02
#       5
#     8   8   8   8   8
#     4  11  23  43  73 103 141 184 231 285 348 419
#     4   9  17  34  61  95 136 180 224 273 324 394
#     4  12  23  43  73 103 142 185 230 288 351 415
#     4  10  21  39  65  98 143 190 235 288 341 403
#     4  12  28  51  74 102 136 176 229 297 357 428
#
# _framework density 22.752409
#
# number of rings (size 3 to 8) (size 9 to 14) (size 15 to 20)
#    0.000    1.200    4.000    2.400    0.000    2.800 
#    0.000    0.000    0.000    3.600    0.000    0.000 
#    0.000    0.000    0.000    0.000    0.000    0.000 
#
# Total GULP energy -111648.606596 kJ/mol
# GULP energy per Si atom -5582.430330 kJ/mol
# Density = 2.270062 g / cm^3
# Si number density = 22.752409 Si / 1000 Ang^3
#
#
#
# Elastic Constant Matrix: (Units=GPa)
#
#
# Indices 1 2 3 4 5 6 
#
# 1 143.8189 37.6810 51.3376 0.0000 -10.6944 0.0000
# 2 37.6810 81.1916 9.3175 0.0000 -13.2883 0.0000
# 3 51.3376 9.3175 116.8624 0.0000 0.2094 0.0000
# 4 0.0000 0.0000 0.0000 21.9199 0.0000 12.9423
# 5 -10.6944 -13.2883 0.2094 0.0000 31.7618 0.0000
# 6 0.0000 0.0000 0.0000 12.9423 0.0000 -2.0057
#
#
#
# Elastic Compliance Matrix: (Units=1/GPa)
#
#
# Indices 1 2 3 4 5 6 
#
# 1 0.009406 -0.003652 -0.003844 0.000000 0.001665 0.000000
# 2 -0.003652 0.014773 0.000417 0.000000 0.004948 0.000000
# 3 -0.003844 0.000417 0.010214 0.000000 -0.001187 0.000000
# 4 0.000000 0.000000 0.000000 0.009485 0.000000 0.061202
# 5 0.001665 0.004948 -0.001187 0.000000 0.034123 0.000000
# 6 0.000000 0.000000 0.000000 0.061202 0.000000 -0.103655
#
#
# Mechanical properties :
#
#
# Convention : Reuss Voigt Hill
#
# Bulk Modulus (GPa) = 49.41326 59.83835 54.62580
# Shear Modulus (GPa) = -1052.19328 26.57098 -512.81115
#
# Velocity S-wave (km/s) = -21.52806 3.42106 -15.02920
# Velocity P-wave (km/s) = 24.41676 6.47779 16.64657
#
# Compressibility (1/GPa) = 0.02023748
#
# Stress axis : x y z
#
# Youngs Moduli (GPa) = 106.31742 67.68980 97.90014
#
# Poissons Ratio (x) = 0.24718 0.37631
# Poissons Ratio (y) = 0.38824 -0.04087
# Poissons Ratio (z) = 0.40866 -0.02826
#
# Static dielectric constant tensor:
#      x y z
#    x 1.898470 0.000000 0.045230 
#    y 0.000000 2.008460 0.000000 
#    z 0.045230 0.000000 1.897410 
# 
# From -- ./inp_files/201108.got.cif
#   From: 2010.05.17/outbox.cif.g08.bks.cpg/sg12_101_cif.got.tgz:201108.got - 2010.06.03 13:09:07.
