data_PCOD9211871
_publ_section_title
;
Structure prediction by ZEFSAII (Michael W. Deem and Ramdas Pophale) SiO2 
 PCOD9211871
Probable space group: C 2/M
;
_chemical_formula_sum "Si O2"
_cell_formula_units_Z 40
_cell_length_a 14.101613
_cell_length_b 20.874953
_cell_length_c 9.912958
_cell_angle_alpha 90.000000
_cell_angle_beta 35.837509
_cell_angle_gamma 90.000000
_cell_volume 1708.503789
_symmetry_space_group_name_H-M "C 2/M"
_symmetry_group_IT_number 12
_symmetry_cell_setting 'monoclinic'
loop_
_space_group_symop_operation_xyz
x,y,z
-x,y,-z
-x,-y,-z
x,-y,z
1/2+x,1/2+y,z
1/2-x,1/2+y,-z
1/2-x,1/2-y,-z
1/2+x,1/2-y,z
loop_
_atom_site_type_symbol
_atom_site_label
_atom_site_fract_x
_atom_site_fract_y
_atom_site_fract_z
Si Si1 0.343943 0.926349 0.467494
Si Si2 0.809478 0.377158 0.992130
Si Si3 0.648552 0.373542 0.918489
Si Si4 0.014714 0.747801 0.192419
Si Si5 0.228662 0.834902 0.383970
O O1 0.528067 0.919138 0.203489
O O2 0.306395 0.885930 0.645523
O O3 0.231515 0.894106 0.484056
O O4 0.307885 0.000000 0.535065
O O5 0.682892 0.401172 0.027241
O O6 0.871099 0.306253 0.878236
O O7 0.747179 0.363555 0.214236
O O8 0.500000 0.400040 0.000000
O O9 0.605354 0.299487 0.995592
O O10 0.923226 0.789573 0.410853
O O11 0.881866 0.707885 0.258669
#
# Coordination Sequence:
#
# PCOD9211871 Si02
#       5
#     8   8   8   8   8
#     4  11  25  47  72  97 133 181 229 276 332 401
#     4  11  25  40  70 101 133 181 224 274 337 398
#     4  12  24  44  65  97 140 179 225 278 330 394
#     4  10  21  40  67 101 143 168 220 273 343 407
#     4  10  22  42  69 102 136 175 218 282 338 395
#
# _framework density 23.412298
#
# number of rings (size 3 to 8) (size 9 to 14) (size 15 to 20)
#    0.000    1.200    2.000    4.800    5.600    4.400 
#    7.200    0.000    0.000    1.200    0.000    0.000 
#    0.000    0.000    0.000    0.000    0.000    0.000 
#
# Total GULP energy -111818.237294 kJ/mol
# GULP energy per Si atom -5590.911865 kJ/mol
# Density = 2.335901 g / cm^3
# Si number density = 23.412298 Si / 1000 Ang^3
#
#
#
# Elastic Constant Matrix: (Units=GPa)
#
#
# Indices 1 2 3 4 5 6 
#
# 1 105.6844 -0.4042 48.7994 -0.0002 34.8237 0.0001
# 2 -0.4042 81.0855 48.4002 -0.0001 -3.4415 0.0000
# 3 48.7994 48.4002 130.2976 -0.0003 36.9111 0.0002
# 4 -0.0002 -0.0001 -0.0003 18.6754 0.0002 -5.8577
# 5 34.8237 -3.4415 36.9111 0.0002 30.4392 -0.0001
# 6 0.0001 0.0000 0.0002 -5.8577 -0.0001 7.9857
#
#
#
# Elastic Compliance Matrix: (Units=1/GPa)
#
#
# Indices 1 2 3 4 5 6 
#
# 1 0.015306 0.000160 -0.001274 0.000000 -0.015947 0.000000
# 2 0.000160 0.020670 -0.012716 0.000000 0.017574 0.000000
# 3 -0.001274 -0.012716 0.019604 0.000000 -0.023752 -0.000001
# 4 0.000000 0.000000 0.000000 0.069547 -0.000001 0.051014
# 5 -0.015947 0.017574 -0.023752 -0.000001 0.081886 0.000001
# 6 0.000000 0.000000 -0.000001 0.051014 0.000001 0.162643
#
#
# Mechanical properties :
#
#
# Convention : Reuss Voigt Hill
#
# Bulk Modulus (GPa) = 35.81817 56.73983 46.27900
# Shear Modulus (GPa) = 12.29639 26.10487 19.20063
#
# Velocity S-wave (km/s) = 2.29423 3.34279 2.86686
# Velocity P-wave (km/s) = 4.72759 6.25993 5.54693
#
# Compressibility (1/GPa) = 0.02791879
#
# Stress axis : x y z
#
# Youngs Moduli (GPa) = 65.33453 48.38002 51.00966
#
# Poissons Ratio (x) = -0.00774 0.06500
# Poissons Ratio (y) = -0.01046 0.64865
# Poissons Ratio (z) = 0.08325 0.61521
#
# Static dielectric constant tensor:
#      x y z
#    x 1.935240 0.000000 -0.044750 
#    y 0.000000 1.847690 0.000000 
#    z -0.044750 0.000000 1.968180 
# 
# From -- ./inp_files/65095.got.cif
#   From: 2010.05.17/outbox.cif.g08.bks.cpg/sg12_33_cif.got.tgz:65095.got - 2010.06.03 13:09:07.
