data_PCOD9211921
_publ_section_title
;
Structure prediction by ZEFSAII (Michael W. Deem and Ramdas Pophale) SiO2 
 PCOD9211921
Probable space group: C 2/M
;
_chemical_formula_sum "Si O2"
_cell_formula_units_Z 48
_cell_length_a 27.573698
_cell_length_b 13.181238
_cell_length_c 12.269026
_cell_angle_alpha 90.000000
_cell_angle_beta 152.571211
_cell_angle_gamma 90.000000
_cell_volume 2054.132428
_symmetry_space_group_name_H-M "C 2/M"
_symmetry_group_IT_number 12
_symmetry_cell_setting 'monoclinic'
loop_
_space_group_symop_operation_xyz
x,y,z
-x,y,-z
-x,-y,-z
x,-y,z
1/2+x,1/2+y,z
1/2-x,1/2+y,-z
1/2-x,1/2-y,-z
1/2+x,1/2-y,z
loop_
_atom_site_type_symbol
_atom_site_label
_atom_site_fract_x
_atom_site_fract_y
_atom_site_fract_z
Si Si1 0.035010 0.116032 0.696712
Si Si2 0.394325 0.172746 0.727694
Si Si3 0.798519 0.117417 0.508945
Si Si4 0.804921 0.620221 0.925150
Si Si5 0.738021 0.122177 0.922258
Si Si6 0.046904 0.681963 0.395194
O O1 0.000000 0.122230 0.500000
O O2 0.970726 0.196772 0.637274
O O3 0.020031 0.000000 0.702081
O O4 0.158294 0.145409 0.941750
O O5 0.294501 0.123999 0.587391
O O6 0.380070 0.295192 0.704461
O O7 0.406614 0.145355 0.626068
O O8 0.500000 0.142228 0.000000
O O9 0.834302 0.000000 0.571778
O O10 0.746018 0.154916 0.289795
O O11 0.787502 0.500000 0.889242
O O12 0.754807 0.659209 0.938236
O O13 0.929898 0.638542 0.177886
O O14 0.627411 0.152144 0.649847
O O15 0.739824 0.000000 0.932064
#
# Coordination Sequence:
#
# PCOD9211921 Si02
#       6
#     8   8   8   8   8   8
#     4  10  24  42  61  93 135 176 214 253 310 384
#     4  11  25  45  65  95 128 165 219 273 316 379
#     4  10  24  45  69  93 124 171 215 263 325 382
#     4  10  21  40  67  98 130 167 214 263 320 386
#     4  10  23  42  64  96 135 170 210 261 318 384
#     4  12  24  38  68  97 130 169 215 266 322 376
#
# _framework density 23.367529999999999
#
# number of rings (size 3 to 8) (size 9 to 14) (size 15 to 20)
#    0.000    1.500    1.667    2.000    4.667    5.333 
#    0.000    1.667    0.000    0.000    0.000    0.000 
#    0.000    0.000    0.000    0.000    0.000    0.000 
#
# Total GULP energy -134395.484257 kJ/mol
# GULP energy per Si atom -5599.811844 kJ/mol
# Density = 2.331434 g / cm^3
# Si number density = 23.367530 Si / 1000 Ang^3
#
#
#
# Elastic Constant Matrix: (Units=GPa)
#
#
# Indices 1 2 3 4 5 6 
#
# 1 125.2140 -5.3784 12.0802 0.0000 -5.9263 0.0000
# 2 -5.3784 49.6345 -0.0485 0.0000 -7.7775 0.0000
# 3 12.0802 -0.0485 58.1882 0.0000 5.8579 0.0000
# 4 0.0000 0.0000 0.0000 26.3139 0.0000 2.7845
# 5 -5.9263 -7.7775 5.8579 0.0000 30.5002 0.0000
# 6 0.0000 0.0000 0.0000 2.7845 0.0000 23.5753
#
#
#
# Elastic Compliance Matrix: (Units=1/GPa)
#
#
# Indices 1 2 3 4 5 6 
#
# 1 0.008340 0.001265 -0.001964 0.000000 0.002320 0.000000
# 2 0.001265 0.021194 -0.000830 0.000000 0.005810 0.000000
# 3 -0.001964 -0.000830 0.018000 0.000000 -0.004050 0.000000
# 4 0.000000 0.000000 0.000000 0.038484 0.000000 -0.004545
# 5 0.002320 0.005810 -0.004050 0.000000 0.035497 0.000000
# 6 0.000000 0.000000 0.000000 -0.004545 0.000000 0.042954
#
#
# Mechanical properties :
#
#
# Convention : Reuss Voigt Hill
#
# Bulk Modulus (GPa) = 22.48332 27.37146 24.92739
# Shear Modulus (GPa) = 27.41951 31.17010 29.29481
#
# Velocity S-wave (km/s) = 3.42921 3.65623 3.54454
# Velocity P-wave (km/s) = 5.03208 5.43718 5.23855
#
# Compressibility (1/GPa) = 0.04447741
#
# Stress axis : x y z
#
# Youngs Moduli (GPa) = 119.90442 47.18330 55.55423
#
# Poissons Ratio (x) = -0.05971 0.10911
# Poissons Ratio (y) = -0.15173 0.04610
# Poissons Ratio (z) = 0.23549 0.03916
#
# Static dielectric constant tensor:
#      x y z
#    x 1.858980 0.000000 -0.010540 
#    y 0.000000 1.924190 0.000000 
#    z -0.010540 0.000000 1.830740 
# 
# From -- ./inp_files/183693.got.cif
#   From: 2010.05.17/outbox.cif.g08.bks.cpg/sg12_92_cif.got.tgz:183693.got - 2010.06.03 13:09:07.
