data_PCOD9211183
_publ_section_title
;
Structure prediction by ZEFSAII (Michael W. Deem and Ramdas Pophale) SiO2 
 PCOD9211183
Probable space group: C 2/M
;
_chemical_formula_sum "Si O2"
_cell_formula_units_Z 58
_cell_length_a 25.598489
_cell_length_b 16.112142
_cell_length_c 19.850389
_cell_angle_alpha 90.000000
_cell_angle_beta 20.277749
_cell_angle_gamma 90.000000
_cell_volume 2837.457373
_symmetry_space_group_name_H-M "C 2/M"
_symmetry_group_IT_number 12
_symmetry_cell_setting 'monoclinic'
loop_
_space_group_symop_operation_xyz
x,y,z
-x,y,-z
-x,-y,-z
x,-y,z
1/2+x,1/2+y,z
1/2-x,1/2+y,-z
1/2-x,1/2-y,-z
1/2+x,1/2-y,z
loop_
_atom_site_type_symbol
_atom_site_label
_atom_site_fract_x
_atom_site_fract_y
_atom_site_fract_z
Si Si1 0.673607 0.279893 0.307403
Si Si2 0.335242 0.908395 0.337477
Si Si3 0.966425 0.750486 0.879996
Si Si4 0.573680 0.257608 0.225301
Si Si5 0.868329 0.366009 0.551123
Si Si6 0.860601 0.909101 0.288585
Si Si7 0.900561 0.906011 0.499712
Si Si8 0.000000 0.500000 0.500000
O O1 0.500000 0.262694 0.500000
O O2 0.715041 0.211619 0.313069
O O3 0.672602 0.369562 0.343792
O O4 0.790639 0.266512 0.106374
O O5 0.445519 0.830695 0.201973
O O6 0.238949 0.903369 0.522871
O O7 0.222922 0.904871 0.410114
O O8 0.409478 0.000000 0.247190
O O9 0.997462 0.762608 0.763294
O O10 0.024776 0.832587 0.847133
O O11 0.505701 0.177157 0.344386
O O12 0.526102 0.339584 0.324335
O O13 0.750000 0.250000 0.000000
O O14 0.752908 0.403578 0.636841
O O15 0.930715 0.427944 0.532090
O O16 0.936571 0.000000 0.196433
O O17 0.955948 0.000000 0.440632
#
# Coordination Sequence:
#
# PCOD9211183 Si02
#       8
#     8   8   8   8   8   8   8   2
#     4  11  25  44  64  91 136 178 222 274 340 408
#     4  10  21  39  67  99 131 163 214 284 346 398
#     4  12  22  40  69 100 130 175 227 282 343 397
#     4  11  23  41  66  96 131 175 227 278 333 403
#     4  11  23  44  66  91 133 184 219 272 347 400
#     4  11  22  40  65 101 136 172 223 288 346 406
#     4  10  22  43  67  93 130 177 218 273 341 401
#     4  12  24  44  68  94 130 188 226 264 338 422
#
# _framework density 20.440836000000001
#
# number of rings (size 3 to 8) (size 9 to 14) (size 15 to 20)
#    0.000    1.103    4.138    3.724    0.000    3.034 
#    2.483    3.448    0.000    0.000    0.000    0.000 
#    0.000    0.000    0.000    0.000    0.000    0.000 
#
# Total GULP energy -161742.768034 kJ/mol
# GULP energy per Si atom -5577.336829 kJ/mol
# Density = 2.039431 g / cm^3
# Si number density = 20.440836 Si / 1000 Ang^3
#
#
#
# Elastic Constant Matrix: (Units=GPa)
#
#
# Indices 1 2 3 4 5 6 
#
# 1 85.9488 34.1181 10.3376 -0.0013 -2.5145 0.0016
# 2 34.1181 174.1343 50.0220 -0.0014 -13.1723 0.0019
# 3 10.3376 50.0220 68.2744 0.0004 1.5874 0.0012
# 4 -0.0013 -0.0014 0.0004 -1.7555 0.0002 -2.9998
# 5 -2.5145 -13.1723 1.5874 0.0002 25.8361 -0.0006
# 6 0.0016 0.0019 0.0012 -2.9998 -0.0006 34.1067
#
#
#
# Elastic Compliance Matrix: (Units=1/GPa)
#
#
# Indices 1 2 3 4 5 6 
#
# 1 0.012617 -0.002437 -0.000125 -0.000006 -0.000007 -0.000001
# 2 -0.002437 0.008191 -0.005732 -0.000004 0.004291 0.000000
# 3 -0.000125 -0.005732 0.018961 0.000007 -0.004100 0.000000
# 4 -0.000006 -0.000004 0.000007 -0.495199 0.000000 -0.043555
# 5 -0.000007 0.004291 -0.004100 0.000000 0.041145 0.000001
# 6 -0.000001 0.000000 0.000000 -0.043555 0.000001 0.025489
#
#
# Mechanical properties :
#
#
# Convention : Reuss Voigt Hill
#
# Bulk Modulus (GPa) = 43.13827 57.47920 50.30874
# Shear Modulus (GPa) = -13.71813 27.22942 6.75565
#
# Velocity S-wave (km/s) = -2.59340 3.65377 1.81993
# Velocity P-wave (km/s) = 3.49030 6.78092 5.39273
#
# Compressibility (1/GPa) = 0.02318127
#
# Stress axis : x y z
#
# Youngs Moduli (GPa) = 79.25869 122.07915 52.74009
#
# Poissons Ratio (x) = 0.29746 0.00659
# Poissons Ratio (y) = 0.19312 0.30233
# Poissons Ratio (z) = 0.00991 0.69980
#
# Static dielectric constant tensor:
#      x y z
#    x 1.757290 0.000000 0.012870 
#    y 0.000000 1.736760 0.000000 
#    z 0.012870 0.000000 1.712460 
# 
# From -- ./inp_files/328373.got.cif
#   From: 2010.05.17/outbox.cif.g08.bks.cpg/sg12_165_cif.got.tgz:328373.got - 2010.06.03 13:09:07.
