data_PCOD9211617
_publ_section_title
;
Structure prediction by ZEFSAII (Michael W. Deem and Ramdas Pophale) SiO2 
 PCOD9211617
Probable space group: C 2/M
;
_chemical_formula_sum "Si O2"
_cell_formula_units_Z 56
_cell_length_a 17.552342
_cell_length_b 13.137611
_cell_length_c 15.749903
_cell_angle_alpha 90.000000
_cell_angle_beta 47.747073
_cell_angle_gamma 90.000000
_cell_volume 2688.245435
_symmetry_space_group_name_H-M "C 2/M"
_symmetry_group_IT_number 12
_symmetry_cell_setting 'monoclinic'
loop_
_space_group_symop_operation_xyz
x,y,z
-x,y,-z
-x,-y,-z
x,-y,z
1/2+x,1/2+y,z
1/2-x,1/2+y,-z
1/2-x,1/2-y,-z
1/2+x,1/2-y,z
loop_
_atom_site_type_symbol
_atom_site_label
_atom_site_fract_x
_atom_site_fract_y
_atom_site_fract_z
Si Si1 0.479798 0.791576 0.293764
Si Si2 0.925198 0.384819 0.625345
Si Si3 0.294016 0.119717 0.338491
Si Si4 0.785295 0.879543 0.132572
Si Si5 0.156274 0.382048 0.062411
Si Si6 0.555564 0.382869 0.549551
Si Si7 0.619336 0.177481 0.908430
O O1 0.510280 0.880357 0.336741
O O2 0.368165 0.810775 0.339724
O O3 0.564121 0.805683 0.157078
O O4 0.487953 0.691275 0.345283
O O5 0.905957 0.500000 0.611228
O O6 0.813082 0.345700 0.735599
O O7 0.000000 0.335637 0.500000
O O8 0.175035 0.143547 0.444041
O O9 0.327217 0.138681 0.216700
O O10 0.310688 0.000000 0.345341
O O11 0.746323 0.867551 0.064221
O O12 0.872654 0.799985 0.090499
O O13 0.805505 0.000000 0.130682
O O14 0.122544 0.500000 0.097165
O O15 0.178341 0.363726 0.947456
O O16 0.500000 0.378553 0.500000
O O17 0.549219 0.500000 0.583392
O O18 0.500000 0.144656 0.000000
#
# Coordination Sequence:
#
# PCOD9211617 Si02
#       7
#     8   8   8   8   8   8   8
#     4  11  20  36  64  89 119 159 195 254 310 354
#     4   9  18  33  59  92 118 150 200 253 304 355
#     4  11  24  41  63  91 125 161 204 256 309 362
#     4   9  21  40  59  85 123 161 205 256 301 361
#     4  10  21  40  64  92 121 154 210 266 304 354
#     4  10  24  44  63  91 128 164 203 247 298 375
#     4  12  24  38  62  90 124 166 205 251 314 366
#
# _framework density 20.831430000000001
#
# number of rings (size 3 to 8) (size 9 to 14) (size 15 to 20)
#    0.000    1.714    1.429    3.857    6.000    0.857 
#    0.000    1.429    0.000    0.000    0.000    0.000 
#    0.000    0.000    0.000    0.000    0.000    0.000 
#
# Total GULP energy -156278.315552 kJ/mol
# GULP energy per Si atom -5581.368413 kJ/mol
# Density = 2.078402 g / cm^3
# Si number density = 20.831430 Si / 1000 Ang^3
#
#
#
# Elastic Constant Matrix: (Units=GPa)
#
#
# Indices 1 2 3 4 5 6 
#
# 1 41.1617 9.0395 6.7913 0.0000 -4.1586 0.0000
# 2 9.0395 79.3495 13.6036 0.0000 -2.7784 0.0000
# 3 6.7913 13.6036 58.2175 0.0000 14.2256 0.0000
# 4 0.0000 0.0000 0.0000 21.1845 0.0000 7.6432
# 5 -4.1586 -2.7784 14.2256 0.0000 22.5064 0.0000
# 6 0.0000 0.0000 0.0000 7.6432 0.0000 18.9638
#
#
#
# Elastic Compliance Matrix: (Units=1/GPa)
#
#
# Indices 1 2 3 4 5 6 
#
# 1 0.026199 -0.001972 -0.004398 0.000000 0.007377 0.000000
# 2 -0.001972 0.013623 -0.003873 0.000000 0.003766 0.000000
# 3 -0.004398 -0.003873 0.022365 0.000000 -0.015427 0.000000
# 4 0.000000 0.000000 0.000000 0.055237 0.000000 -0.022263
# 5 0.007377 0.003766 -0.015427 0.000000 0.056011 0.000000
# 6 0.000000 0.000000 0.000000 -0.022263 0.000000 0.061705
#
#
# Mechanical properties :
#
#
# Convention : Reuss Voigt Hill
#
# Bulk Modulus (GPa) = 23.98130 26.39973 25.19052
# Shear Modulus (GPa) = 18.55112 22.48387 20.51749
#
# Velocity S-wave (km/s) = 2.98742 3.28887 3.14176
# Velocity P-wave (km/s) = 4.84114 5.20795 5.02789
#
# Compressibility (1/GPa) = 0.04169916
#
# Stress axis : x y z
#
# Youngs Moduli (GPa) = 38.17007 73.40506 44.71345
#
# Poissons Ratio (x) = 0.14477 0.19665
# Poissons Ratio (y) = 0.07528 0.17319
# Poissons Ratio (z) = 0.16787 0.28432
#
# Static dielectric constant tensor:
#      x y z
#    x 1.740110 0.000000 0.005040 
#    y 0.000000 1.775750 0.000000 
#    z 0.005040 0.000000 1.778020 
# 
# From -- ./inp_files/225170.got.cif
#   From: 2010.05.17/outbox.cif.g08.bks.cpg/sg12_113_cif.got.tgz:225170.got - 2010.06.03 13:09:07.
