data_PCOD9211663
_publ_section_title
;
Structure prediction by ZEFSAII (Michael W. Deem and Ramdas Pophale) SiO2 
 PCOD9211663
Probable space group: C 2/M
;
_chemical_formula_sum "Si O2"
_cell_formula_units_Z 36
_cell_length_a 11.948878
_cell_length_b 27.147640
_cell_length_c 5.185181
_cell_angle_alpha 90.000000
_cell_angle_beta 88.728084
_cell_angle_gamma 90.000000
_cell_volume 1681.574489
_symmetry_space_group_name_H-M "C 2/M"
_symmetry_group_IT_number 12
_symmetry_cell_setting 'monoclinic'
loop_
_space_group_symop_operation_xyz
x,y,z
-x,y,-z
-x,-y,-z
x,-y,z
1/2+x,1/2+y,z
1/2-x,1/2+y,-z
1/2-x,1/2-y,-z
1/2+x,1/2-y,z
loop_
_atom_site_type_symbol
_atom_site_label
_atom_site_fract_x
_atom_site_fract_y
_atom_site_fract_z
Si Si1 0.500000 0.885128 0.000000
Si Si2 0.127329 0.867524 0.040686
Si Si3 0.700891 0.941936 0.723832
Si Si4 0.679461 0.139592 0.373780
Si Si5 0.740929 0.284593 0.255144
O O1 0.591187 0.921283 0.870039
O O2 0.428386 0.853084 0.799136
O O3 0.191747 0.913424 0.165521
O O4 0.131825 0.818309 0.216653
O O5 0.206998 0.851898 0.795557
O O6 0.000000 0.880201 0.000000
O O7 0.685538 0.918157 0.442618
O O8 0.710935 0.000000 0.729005
O O9 0.677132 0.171172 0.640135
O O10 0.750000 0.250000 0.500000
O O11 0.750000 0.250000 0.000000
#
# Coordination Sequence:
#
# PCOD9211663 Si02
#       5
#     4   8   8   8   8
#     4  10  21  40  64  98 134 176 222 282 339 402
#     4  10  23  44  66  95 134 177 224 278 332 399
#     4  10  22  39  64  95 135 177 224 278 338 404
#     4  10  22  41  67  97 139 173 224 278 340 400
#     4  11  22  44  69  97 132 172 225 275 333 400
#
# _framework density 21.408505000000002
#
# number of rings (size 3 to 8) (size 9 to 14) (size 15 to 20)
#    0.000    1.778    2.222    1.000    0.000    9.333 
#    2.000    5.556    0.000    0.000    0.000    0.000 
#    0.000    0.000    0.000    0.000    0.000    0.000 
#
# Total GULP energy -100214.621838 kJ/mol
# GULP energy per Si atom -5567.478991 kJ/mol
# Density = 2.135978 g / cm^3
# Si number density = 21.408505 Si / 1000 Ang^3
#
#
#
# Elastic Constant Matrix: (Units=GPa)
#
#
# Indices 1 2 3 4 5 6 
#
# 1 159.1194 35.6995 47.3493 0.0000 27.5223 0.0000
# 2 35.6995 145.8517 44.8238 0.0000 4.3206 0.0000
# 3 47.3493 44.8238 134.2219 0.0000 19.6948 0.0000
# 4 0.0000 0.0000 0.0000 29.8431 0.0000 -0.8976
# 5 27.5223 4.3206 19.6948 0.0000 24.3545 0.0000
# 6 0.0000 0.0000 0.0000 -0.8976 0.0000 8.6506
#
#
#
# Elastic Compliance Matrix: (Units=1/GPa)
#
#
# Indices 1 2 3 4 5 6 
#
# 1 0.008405 -0.001419 -0.001287 0.000000 -0.008206 0.000000
# 2 -0.001419 0.007894 -0.002457 0.000000 0.002190 0.000000
# 3 -0.001287 -0.002457 0.009585 0.000000 -0.005860 0.000000
# 4 0.000000 0.000000 0.000000 0.033613 0.000000 0.003488
# 5 -0.008206 0.002190 -0.005860 0.000000 0.054684 0.000000
# 6 0.000000 0.000000 0.000000 0.003488 0.000000 0.115961
#
#
# Mechanical properties :
#
#
# Convention : Reuss Voigt Hill
#
# Bulk Modulus (GPa) = 64.27514 77.21536 70.74525
# Shear Modulus (GPa) = 20.35377 33.32433 26.83905
#
# Velocity S-wave (km/s) = 3.08674 3.94965 3.54455
# Velocity P-wave (km/s) = 6.54158 7.54623 7.06179
#
# Compressibility (1/GPa) = 0.01555812
#
# Stress axis : x y z
#
# Youngs Moduli (GPa) = 118.97297 126.68275 104.33081
#
# Poissons Ratio (x) = 0.17971 0.13430
# Poissons Ratio (y) = 0.16878 0.25634
# Poissons Ratio (z) = 0.15315 0.31126
#
# Static dielectric constant tensor:
#      x y z
#    x 1.773180 0.000000 -0.034720 
#    y 0.000000 1.837900 0.000000 
#    z -0.034720 0.000000 1.937250 
# 
# From -- ./inp_files/7432.got.cif
#   From: 2010.05.17/outbox.cif.g08.bks.cpg/sg12_4_cif.got.tgz:7432.got - 2010.06.03 13:09:07.
