data_PCOD9211204
_publ_section_title
;
Structure prediction by ZEFSAII (Michael W. Deem and Ramdas Pophale) SiO2 
 PCOD9211204
Probable space group: C 2/M
;
_chemical_formula_sum "Si O2"
_cell_formula_units_Z 58
_cell_length_a 19.698431
_cell_length_b 14.265975
_cell_length_c 24.085785
_cell_angle_alpha 90.000000
_cell_angle_beta 22.541142
_cell_angle_gamma 90.000000
_cell_volume 2594.691154
_symmetry_space_group_name_H-M "C 2/M"
_symmetry_group_IT_number 12
_symmetry_cell_setting 'monoclinic'
loop_
_space_group_symop_operation_xyz
x,y,z
-x,y,-z
-x,-y,-z
x,-y,z
1/2+x,1/2+y,z
1/2-x,1/2+y,-z
1/2-x,1/2-y,-z
1/2+x,1/2-y,z
loop_
_atom_site_type_symbol
_atom_site_label
_atom_site_fract_x
_atom_site_fract_y
_atom_site_fract_z
Si Si1 0.062871 0.324704 0.034482
Si Si2 0.252692 0.611847 0.996501
Si Si3 0.193779 0.747887 0.346059
Si Si4 0.500000 0.000000 0.000000
Si Si5 0.828925 0.727324 0.762680
Si Si6 0.470421 0.888006 0.301181
Si Si7 0.419672 0.388677 0.391492
Si Si8 0.147068 0.110689 0.689330
O O1 0.205343 0.339494 0.975113
O O2 0.870625 0.310013 0.207645
O O3 0.143890 0.242087 0.934916
O O4 0.047975 0.417426 0.009065
O O5 0.236847 0.500000 0.000012
O O6 0.107600 0.640927 0.150576
O O7 0.453637 0.628347 0.862490
O O8 0.192268 0.703075 0.285482
O O9 0.220512 0.675132 0.376209
O O10 0.000000 0.794363 0.500000
O O11 0.957926 0.656378 0.696632
O O12 0.927425 0.827801 0.696366
O O13 0.269288 0.862358 0.439009
O O14 0.472384 0.000000 0.305051
O O15 0.454599 0.500000 0.370802
O O16 0.385500 0.369821 0.351593
O O17 0.190877 0.000000 0.660286
#
# Coordination Sequence:
#
# PCOD9211204 Si02
#       8
#     8   8   8   2   8   8   8   8
#     4  12  25  43  70  94 130 180 224 270 334 408
#     4  10  21  39  68  98 122 164 224 284 326 381
#     4  12  28  43  61 101 142 173 223 274 339 400
#     4  12  24  48  70  92 134 184 222 268 334 438
#     4  12  24  41  67  95 130 182 224 270 333 409
#     4  10  23  40  61  97 136 168 217 278 343 393
#     4  10  22  40  67  99 130 175 226 275 334 402
#     4  10  22  43  70 100 130 178 231 276 327 398
#
# _framework density 22.353335000000001
#
# number of rings (size 3 to 8) (size 9 to 14) (size 15 to 20)
#    0.000    1.103    3.448    2.069    4.828    1.931 
#    0.000    0.345    0.000    4.138    0.000    0.000 
#    0.000    0.000    0.000    0.000    0.000    0.000 
#
# Total GULP energy -161960.427703 kJ/mol
# GULP energy per Si atom -5584.842335 kJ/mol
# Density = 2.230246 g / cm^3
# Si number density = 22.353335 Si / 1000 Ang^3
#
#
#
# Elastic Constant Matrix: (Units=GPa)
#
#
# Indices 1 2 3 4 5 6 
#
# 1 68.3051 14.5403 -5.2493 -0.0031 -11.7673 -0.0027
# 2 14.5403 58.3140 14.6531 -0.0022 -14.3485 -0.0030
# 3 -5.2493 14.6531 112.9488 -0.0001 -6.5389 -0.0057
# 4 -0.0031 -0.0022 -0.0001 6.2840 0.0034 12.8775
# 5 -11.7673 -14.3485 -6.5389 0.0034 30.1137 -0.0008
# 6 -0.0027 -0.0030 -0.0057 12.8775 -0.0008 5.5839
#
#
#
# Elastic Compliance Matrix: (Units=1/GPa)
#
#
# Indices 1 2 3 4 5 6 
#
# 1 0.016320 -0.003161 0.001469 0.000003 0.005190 0.000000
# 2 -0.003161 0.020500 -0.002342 0.000004 0.008024 -0.000001
# 3 0.001469 -0.002342 0.009311 0.000005 0.001480 -0.000003
# 4 0.000003 0.000004 0.000005 -0.042710 0.000012 0.098497
# 5 0.005190 0.008024 0.001480 0.000012 0.039380 -0.000014
# 6 0.000000 -0.000001 -0.000003 0.098497 -0.000014 -0.048065
#
#
# Mechanical properties :
#
#
# Convention : Reuss Voigt Hill
#
# Bulk Modulus (GPa) = 26.27252 31.93955 29.10604
# Shear Modulus (GPa) = 322.73464 22.77125 172.75294
#
# Velocity S-wave (km/s) = 12.02881 3.19516 8.80060
# Velocity P-wave (km/s) = 14.30740 5.28504 10.78502
#
# Compressibility (1/GPa) = 0.03806258
#
# Stress axis : x y z
#
# Youngs Moduli (GPa) = 61.27378 48.78145 107.39581
#
# Poissons Ratio (x) = 0.15422 -0.15777
# Poissons Ratio (y) = 0.19372 0.25151
# Poissons Ratio (z) = -0.09002 0.11424
#
# Static dielectric constant tensor:
#      x y z
#    x 1.810220 0.000000 0.033780 
#    y 0.000000 1.791680 0.000010 
#    z 0.033780 0.000010 1.881480 
# 
# From -- ./inp_files/366546.got.cif
#   From: 2010.05.17/outbox.cif.g08.bks.cpg/sg12_184_cif.got.tgz:366546.got - 2010.06.03 13:09:07.
