data_PCOD9211749
_publ_section_title
;
Structure prediction by ZEFSAII (Michael W. Deem and Ramdas Pophale) SiO2 
 PCOD9211749
Probable space group: C 2/M
;
_chemical_formula_sum "Si O2"
_cell_formula_units_Z 56
_cell_length_a 18.401564
_cell_length_b 28.726648
_cell_length_c 8.688896
_cell_angle_alpha 90.000000
_cell_angle_beta 35.805039
_cell_angle_gamma 90.000000
_cell_volume 2687.086739
_symmetry_space_group_name_H-M "C 2/M"
_symmetry_group_IT_number 12
_symmetry_cell_setting 'monoclinic'
loop_
_space_group_symop_operation_xyz
x,y,z
-x,y,-z
-x,-y,-z
x,-y,z
1/2+x,1/2+y,z
1/2-x,1/2+y,-z
1/2-x,1/2-y,-z
1/2+x,1/2-y,z
loop_
_atom_site_type_symbol
_atom_site_label
_atom_site_fract_x
_atom_site_fract_y
_atom_site_fract_z
Si Si1 0.912624 0.816243 0.946333
Si Si2 0.842895 0.370862 0.037300
Si Si3 0.114108 0.729104 0.182675
Si Si4 0.126271 0.102191 0.197382
Si Si5 0.313429 0.447553 0.219451
Si Si6 0.978857 0.447427 0.352650
Si Si7 0.672467 0.641848 0.614435
O O1 0.921246 0.762169 0.899601
O O2 0.874604 0.844389 0.859869
O O3 0.046350 0.837903 0.758315
O O4 0.815885 0.829144 0.247132
O O5 0.740718 0.400337 0.116452
O O6 0.781544 0.356463 0.304051
O O7 0.875526 0.324260 0.887352
O O8 0.956438 0.406310 0.852081
O O9 0.000000 0.734019 0.500000
O O10 0.250000 0.750000 0.000000
O O11 0.000000 0.091908 0.500000
O O12 0.133854 0.071112 0.032447
O O13 0.351896 0.500000 0.187487
O O14 0.345388 0.411067 0.297914
O O15 0.165570 0.446701 0.442697
O O16 0.026415 0.500000 0.239047
O O17 0.000000 0.439080 0.500000
#
# Coordination Sequence:
#
# PCOD9211749 Si02
#       7
#     8   8   8   8   8   8   8
#     4  10  21  43  63  91 133 180 214 266 342 396
#     4  12  23  38  67 103 130 170 227 277 332 407
#     4  12  25  41  71 106 133 174 232 288 335 397
#     4  11  20  37  68  93 130 173 219 280 336 390
#     4  10  23  43  66  94 131 177 229 277 334 406
#     4  10  21  40  65  93 129 172 217 279 341 388
#     4  10  23  41  66  91 135 185 212 268 345 403
#
# _framework density 20.840413999999999
#
# number of rings (size 3 to 8) (size 9 to 14) (size 15 to 20)
#    0.000    1.286    4.286    1.714    0.000    2.000 
#    0.000   10.000    0.000    0.000    0.000    0.000 
#    0.000    0.000    0.000    0.000    0.000    0.000 
#
# Total GULP energy -156408.238434 kJ/mol
# GULP energy per Si atom -5586.008515 kJ/mol
# Density = 2.079298 g / cm^3
# Si number density = 20.840414 Si / 1000 Ang^3
#
#
#
# Elastic Constant Matrix: (Units=GPa)
#
#
# Indices 1 2 3 4 5 6 
#
# 1 40.5454 26.5910 22.3623 0.0000 -9.7886 0.0000
# 2 26.5910 121.5410 50.3006 0.0000 -1.2720 0.0000
# 3 22.3623 50.3006 140.4980 0.0000 9.5532 0.0000
# 4 0.0000 0.0000 0.0000 13.7392 0.0000 -5.6228
# 5 -9.7886 -1.2720 9.5532 0.0000 20.9742 0.0000
# 6 0.0000 0.0000 0.0000 -5.6228 0.0000 29.4957
#
#
#
# Elastic Compliance Matrix: (Units=1/GPa)
#
#
# Indices 1 2 3 4 5 6 
#
# 1 0.035458 -0.005529 -0.004919 0.000000 0.018453 0.000000
# 2 -0.005529 0.010623 -0.002881 0.000000 -0.000624 0.000000
# 3 -0.004919 -0.002881 0.009391 0.000000 -0.006748 0.000000
# 4 0.000000 0.000000 0.000000 0.078944 0.000000 0.015049
# 5 0.018453 -0.000624 -0.006748 0.000000 0.059325 0.000000
# 6 0.000000 0.000000 0.000000 0.015049 0.000000 0.036772
#
#
# Mechanical properties :
#
#
# Convention : Reuss Voigt Hill
#
# Bulk Modulus (GPa) = 34.70490 55.67692 45.19091
# Shear Modulus (GPa) = 18.74248 26.39717 22.56982
#
# Velocity S-wave (km/s) = 3.00214 3.56284 3.29444
# Velocity P-wave (km/s) = 5.35780 6.61052 6.01685
#
# Compressibility (1/GPa) = 0.02881438
#
# Stress axis : x y z
#
# Youngs Moduli (GPa) = 28.20270 94.13579 106.48880
#
# Poissons Ratio (x) = 0.52044 0.52382
# Poissons Ratio (y) = 0.15592 0.30678
# Poissons Ratio (z) = 0.13873 0.27119
#
# Static dielectric constant tensor:
#      x y z
#    x 1.791190 0.000000 -0.005430 
#    y 0.000000 1.744530 0.000000 
#    z -0.005430 0.000000 1.753390 
# 
# From -- ./inp_files/91568.got.cif
#   From: 2010.05.17/outbox.cif.g08.bks.cpg/sg12_46_cif.got.tgz:91568.got - 2010.06.03 13:09:07.
