data_PCOD9211873
_publ_section_title
;
Structure prediction by ZEFSAII (Michael W. Deem and Ramdas Pophale) SiO2 
 PCOD9211873
Probable space group: C 2/M
;
_chemical_formula_sum "Si O2"
_cell_formula_units_Z 34
_cell_length_a 19.139401
_cell_length_b 18.496533
_cell_length_c 7.972683
_cell_angle_alpha 90.000000
_cell_angle_beta 151.483531
_cell_angle_gamma 90.000000
_cell_volume 1347.460076
_symmetry_space_group_name_H-M "C 2/M"
_symmetry_group_IT_number 12
_symmetry_cell_setting 'monoclinic'
loop_
_space_group_symop_operation_xyz
x,y,z
-x,y,-z
-x,-y,-z
x,-y,z
1/2+x,1/2+y,z
1/2-x,1/2+y,-z
1/2-x,1/2-y,-z
1/2+x,1/2-y,z
loop_
_atom_site_type_symbol
_atom_site_label
_atom_site_fract_x
_atom_site_fract_y
_atom_site_fract_z
Si Si1 0.234074 0.000000 0.395847
Si Si2 0.876464 0.767214 0.637117
Si Si3 0.152640 0.849929 0.752464
Si Si4 0.000000 0.500000 0.500000
Si Si5 0.399186 0.118819 0.543900
Si Si6 0.584631 0.500000 0.438516
O O1 0.326133 0.929685 0.536049
O O2 0.181828 0.000000 0.475957
O O3 0.085200 0.000000 0.971489
O O4 0.750000 0.750000 0.500000
O O5 0.811149 0.807121 0.339038
O O6 0.954625 0.694046 0.734944
O O7 0.000000 0.811917 0.000000
O O8 0.000000 0.819075 0.500000
O O9 0.122984 0.931069 0.629220
O O10 0.271471 0.854876 0.147323
O O11 0.995852 0.564018 0.638088
#
# Coordination Sequence:
#
# PCOD9211873 Si02
#       6
#     4   8   8   2   8   4
#     4  10  21  40  67 103 136 183 219 291 348 415
#     4  12  29  48  72 103 144 189 237 295 363 423
#     4  12  24  42  75 105 136 184 237 295 349 415
#     4  10  26  42  74  96 140 186 232 286 346 426
#     4  11  24  47  68 102 141 182 238 283 353 425
#     4  11  21  37  72 103 144 169 233 290 351 406
#
# _framework density 25.232659999999999
#
# number of rings (size 3 to 8) (size 9 to 14) (size 15 to 20)
#    0.000    0.706    2.353    5.294    8.235    0.000 
#    4.235    1.176    0.000    0.000    0.000    0.000 
#    0.000    0.000    0.000    0.000    0.000    0.000 
#
# Total GULP energy -95081.551862 kJ/mol
# GULP energy per Si atom -5593.032462 kJ/mol
# Density = 2.517523 g / cm^3
# Si number density = 25.232660 Si / 1000 Ang^3
#
#
#
# Elastic Constant Matrix: (Units=GPa)
#
#
# Indices 1 2 3 4 5 6 
#
# 1 137.4062 20.9005 -7.0905 0.0000 -1.3425 0.0000
# 2 20.9005 114.1794 -11.1787 0.0000 -6.8471 0.0000
# 3 -7.0905 -11.1787 77.8266 0.0000 -12.5401 0.0000
# 4 0.0000 0.0000 0.0000 34.4842 0.0000 -23.9279
# 5 -1.3425 -6.8471 -12.5401 0.0000 30.6985 0.0000
# 6 0.0000 0.0000 0.0000 -23.9279 0.0000 53.3993
#
#
#
# Elastic Compliance Matrix: (Units=1/GPa)
#
#
# Indices 1 2 3 4 5 6 
#
# 1 0.007507 -0.001306 0.000538 0.000000 0.000257 0.000000
# 2 -0.001306 0.009321 0.001655 0.000000 0.002698 0.000000
# 3 0.000538 0.001655 0.014129 0.000000 0.006164 0.000000
# 4 0.000000 0.000000 0.000000 0.042083 0.000000 0.018857
# 5 0.000257 0.002698 0.006164 0.000000 0.035706 0.000000
# 6 0.000000 0.000000 0.000000 0.018857 0.000000 0.027177
#
#
# Mechanical properties :
#
#
# Convention : Reuss Voigt Hill
#
# Bulk Modulus (GPa) = 30.55418 37.18607 33.87012
# Shear Modulus (GPa) = 34.46857 45.50182 39.98519
#
# Velocity S-wave (km/s) = 3.69999 4.25112 3.98510
# Velocity P-wave (km/s) = 5.51258 6.23421 5.88447
#
# Compressibility (1/GPa) = 0.03272875
#
# Stress axis : x y z
#
# Youngs Moduli (GPa) = 133.21602 107.28486 70.77680
#
# Poissons Ratio (x) = 0.14012 -0.03805
# Poissons Ratio (y) = 0.17399 -0.11710
# Poissons Ratio (z) = -0.07162 -0.17751
#
# Static dielectric constant tensor:
#      x y z
#    x 1.947790 0.000000 0.054000 
#    y 0.000000 1.976480 0.000000 
#    z 0.054000 0.000000 2.010130 
# 
# From -- ./inp_files/88546.got.cif
#   From: 2010.05.17/outbox.cif.g08.bks.cpg/sg12_45_cif.got.tgz:88546.got - 2010.06.03 13:09:07.
