data_PCOD9211016
_publ_section_title
;
Structure prediction by ZEFSAII (Michael W. Deem and Ramdas Pophale) SiO2 
 PCOD9211016
Probable space group: C 2/M
;
_chemical_formula_sum "Si O2"
_cell_formula_units_Z 44
_cell_length_a 7.478103
_cell_length_b 17.245189
_cell_length_c 17.006087
_cell_angle_alpha 90.000000
_cell_angle_beta 52.574489
_cell_angle_gamma 90.000000
_cell_volume 1741.658947
_symmetry_space_group_name_H-M "C 2/M"
_symmetry_group_IT_number 12
_symmetry_cell_setting 'monoclinic'
loop_
_space_group_symop_operation_xyz
x,y,z
-x,y,-z
-x,-y,-z
x,-y,z
1/2+x,1/2+y,z
1/2-x,1/2+y,-z
1/2-x,1/2-y,-z
1/2+x,1/2-y,z
loop_
_atom_site_type_symbol
_atom_site_label
_atom_site_fract_x
_atom_site_fract_y
_atom_site_fract_z
Si Si1 0.733338 0.167224 0.889567
Si Si2 0.472684 0.819751 0.625739
Si Si3 0.741958 0.000000 0.891449
Si Si4 0.123203 0.147808 0.591481
Si Si5 0.451461 0.000000 0.817048
Si Si6 0.862856 0.000000 0.617581
Si Si7 0.949122 0.332078 0.818509
O O1 0.840892 0.250923 0.874808
O O2 0.668532 0.165974 0.814920
O O3 0.851497 0.084414 0.877952
O O4 0.500000 0.165816 0.000000
O O5 0.676158 0.862448 0.526324
O O6 0.243290 0.844203 0.644044
O O7 0.508477 0.728683 0.599091
O O8 0.478235 0.828247 0.717330
O O9 0.655578 0.000000 0.825236
O O10 0.500000 0.000000 0.000000
O O11 0.956802 0.077172 0.632159
O O12 0.333741 0.083010 0.862122
O O13 0.590918 0.000000 0.697375
O O14 0.000000 0.000000 0.500000
#
# Coordination Sequence:
#
# PCOD9211016 Si02
#       7
#     8   8   4   8   4   4   8
#     4  10  21  39  65  94 126 167 212 260 321 380
#     4  10  22  40  62  90 122 167 207 261 314 371
#     4   8  18  38  60  86 118 158 203 252 309 374
#     4  10  24  39  62  87 127 161 211 254 315 374
#     4  10  24  39  60  90 127 165 209 258 322 373
#     4  12  26  40  63  95 124 168 212 261 315 380
#     4  11  22  40  63  91 127 168 210 260 316 382
#
# _framework density 25.263269999999999
#
# number of rings (size 3 to 8) (size 9 to 14) (size 15 to 20)
#    0.000    1.818    0.000    2.727   12.727    2.182 
#    0.000    1.364    0.000    0.000    0.000    0.000 
#    0.000    0.000    0.000    0.000    0.000    0.000 
#
# Total GULP energy -122989.290598 kJ/mol
# GULP energy per Si atom -5590.422300 kJ/mol
# Density = 2.520577 g / cm^3
# Si number density = 25.263270 Si / 1000 Ang^3
#
#
#
# Elastic Constant Matrix: (Units=GPa)
#
#
# Indices 1 2 3 4 5 6 
#
# 1 57.4250 25.3845 9.2843 0.0000 8.6919 0.0000
# 2 25.3845 264.9022 21.5045 0.0000 -23.9037 0.0000
# 3 9.2843 21.5045 90.3856 0.0000 13.1136 0.0000
# 4 0.0000 0.0000 0.0000 34.7067 0.0000 -15.1394
# 5 8.6919 -23.9037 13.1136 0.0000 22.1832 0.0000
# 6 0.0000 0.0000 0.0000 -15.1394 0.0000 28.9675
#
#
#
# Elastic Compliance Matrix: (Units=1/GPa)
#
#
# Indices 1 2 3 4 5 6 
#
# 1 0.020427 -0.003009 0.000273 0.000000 -0.011407 0.000000
# 2 -0.003009 0.004912 -0.001967 0.000000 0.007635 0.000000
# 3 0.000273 -0.001967 0.012936 0.000000 -0.009874 0.000000
# 4 0.000000 0.000000 0.000000 0.037321 0.000000 0.019505
# 5 -0.011407 0.007635 -0.009874 0.000000 0.063613 0.000000
# 6 0.000000 0.000000 0.000000 0.019505 0.000000 0.044715
#
#
# Mechanical properties :
#
#
# Convention : Reuss Voigt Hill
#
# Bulk Modulus (GPa) = 34.64061 58.33994 46.49027
# Shear Modulus (GPa) = 24.63618 40.94080 32.78849
#
# Velocity S-wave (km/s) = 3.12617 4.02999 3.60651
# Velocity P-wave (km/s) = 5.17419 6.69308 5.98204
#
# Compressibility (1/GPa) = 0.02886786
#
# Stress axis : x y z
#
# Youngs Moduli (GPa) = 48.95591 203.58576 77.30180
#
# Poissons Ratio (x) = 0.61256 -0.02108
# Poissons Ratio (y) = 0.14730 0.15207
# Poissons Ratio (z) = -0.01335 0.40051
#
# Static dielectric constant tensor:
#      x y z
#    x 1.992010 0.000000 0.004370 
#    y 0.000000 2.034540 0.000000 
#    z 0.004370 0.000000 2.177520 
# 
# From -- ./inp_files/256886.got.cif
#   From: 2010.05.17/outbox.cif.g08.bks.cpg/sg12_129_cif.got.tgz:256886.got - 2010.06.03 13:09:07.
