data_PCOD9211153
_publ_section_title
;
Structure prediction by ZEFSAII (Michael W. Deem and Ramdas Pophale) SiO2 
 PCOD9211153
Probable space group: C 2/M
;
_chemical_formula_sum "Si O2"
_cell_formula_units_Z 40
_cell_length_a 21.376706
_cell_length_b 14.474594
_cell_length_c 5.840728
_cell_angle_alpha 90.000000
_cell_angle_beta 78.375491
_cell_angle_gamma 90.000000
_cell_volume 1770.165145
_symmetry_space_group_name_H-M "C 2/M"
_symmetry_group_IT_number 12
_symmetry_cell_setting 'monoclinic'
loop_
_space_group_symop_operation_xyz
x,y,z
-x,y,-z
-x,-y,-z
x,-y,z
1/2+x,1/2+y,z
1/2-x,1/2+y,-z
1/2-x,1/2-y,-z
1/2+x,1/2-y,z
loop_
_atom_site_type_symbol
_atom_site_label
_atom_site_fract_x
_atom_site_fract_y
_atom_site_fract_z
Si Si1 0.618984 0.602583 0.893668
Si Si2 0.034483 0.758433 0.725578
Si Si3 0.132270 0.394361 0.497128
Si Si4 0.223881 0.098885 0.465127
Si Si5 0.820350 0.753528 0.839064
O O1 0.599138 0.500000 0.983303
O O2 0.571605 0.644610 0.739362
O O3 0.690036 0.594661 0.735220
O O4 0.628485 0.682662 0.070880
O O5 0.083113 0.672731 0.658808
O O6 0.000000 0.762225 0.500000
O O7 0.000000 0.744858 0.000000
O O8 0.110590 0.500000 0.488887
O O9 0.200372 0.394798 0.576082
O O10 0.149956 0.345032 0.243331
O O11 0.194550 0.189169 0.377781
O O12 0.207462 0.000000 0.360136
O O13 0.750000 0.750000 0.000000
#
# Coordination Sequence:
#
# PCOD9211153 Si02
#       5
#     8   8   8   8   8
#     4  11  24  44  72 106 141 181 234 302 378 446
#     4  12  28  51  74 103 145 202 261 307 356 425
#     4  11  24  45  71 106 147 191 245 304 368 438
#     4  10  21  39  67 106 140 173 223 292 381 454
#     4  12  21  37  69 104 150 186 225 290 371 453
#
# _framework density 22.596761999999998
#
# number of rings (size 3 to 8) (size 9 to 14) (size 15 to 20)
#    0.000    0.800    4.000    3.600    0.000    2.400 
#    0.000    5.000    0.000    0.000    0.000    0.000 
#    0.000    0.000    0.000    0.000    0.000    0.000 
#
# Total GULP energy -111575.747981 kJ/mol
# GULP energy per Si atom -5578.787399 kJ/mol
# Density = 2.254533 g / cm^3
# Si number density = 22.596762 Si / 1000 Ang^3
#
#
#
# Elastic Constant Matrix: (Units=GPa)
#
#
# Indices 1 2 3 4 5 6 
#
# 1 84.6125 47.1349 39.9505 0.0000 1.7836 0.0000
# 2 47.1349 157.6875 26.6052 0.0000 9.1236 0.0000
# 3 39.9505 26.6052 85.0974 0.0000 -12.3098 0.0000
# 4 0.0000 0.0000 0.0000 29.0832 0.0000 -0.0770
# 5 1.7836 9.1236 -12.3098 0.0000 39.4438 0.0000
# 6 0.0000 0.0000 0.0000 -0.0770 0.0000 16.1723
#
#
#
# Elastic Compliance Matrix: (Units=1/GPa)
#
#
# Indices 1 2 3 4 5 6 
#
# 1 0.017466 -0.003862 -0.007307 0.000000 -0.002177 0.000000
# 2 -0.003862 0.007755 -0.000886 0.000000 -0.001896 0.000000
# 3 -0.007307 -0.000886 0.016271 0.000000 0.005613 0.000000
# 4 0.000000 0.000000 0.000000 0.034384 0.000000 0.000164
# 5 -0.002177 -0.001896 0.005613 0.000000 0.027641 0.000000
# 6 0.000000 0.000000 0.000000 0.000164 0.000000 0.061835
#
#
# Mechanical properties :
#
#
# Convention : Reuss Voigt Hill
#
# Bulk Modulus (GPa) = 57.53099 61.64208 59.58654
# Shear Modulus (GPa) = 25.60735 31.18699 28.39717
#
# Velocity S-wave (km/s) = 3.37000 3.71907 3.54883
# Velocity P-wave (km/s) = 6.37634 6.76612 6.57412
#
# Compressibility (1/GPa) = 0.01738194
#
# Stress axis : x y z
#
# Youngs Moduli (GPa) = 57.25402 128.94608 61.46041
#
# Poissons Ratio (x) = 0.49799 0.44910
# Poissons Ratio (y) = 0.22111 0.05444
# Poissons Ratio (z) = 0.41837 0.11421
#
# Static dielectric constant tensor:
#      x y z
#    x 1.892150 0.000000 -0.003290 
#    y 0.000000 1.864020 0.000000 
#    z -0.003290 0.000000 1.920170 
# 
# From -- ./inp_files/24214.got.cif
#   From: 2010.05.17/outbox.cif.g08.bks.cpg/sg12_13_cif.got.tgz:24214.got - 2010.06.03 13:09:07.
