data_PCOD9211542
_publ_section_title
;
Structure prediction by ZEFSAII (Michael W. Deem and Ramdas Pophale) SiO2 
 PCOD9211542
Probable space group: C 2/M
;
_chemical_formula_sum "Si O2"
_cell_formula_units_Z 40
_cell_length_a 29.459755
_cell_length_b 7.556516
_cell_length_c 15.259115
_cell_angle_alpha 90.000000
_cell_angle_beta 31.088254
_cell_angle_gamma 90.000000
_cell_volume 1754.004916
_symmetry_space_group_name_H-M "C 2/M"
_symmetry_group_IT_number 12
_symmetry_cell_setting 'monoclinic'
loop_
_space_group_symop_operation_xyz
x,y,z
-x,y,-z
-x,-y,-z
x,-y,z
1/2+x,1/2+y,z
1/2-x,1/2+y,-z
1/2-x,1/2-y,-z
1/2+x,1/2-y,z
loop_
_atom_site_type_symbol
_atom_site_label
_atom_site_fract_x
_atom_site_fract_y
_atom_site_fract_z
Si Si1 0.312841 0.297881 0.670574
Si Si2 0.131728 0.717450 0.032294
Si Si3 0.494177 0.795876 0.606275
Si Si4 0.189232 0.710232 0.517749
Si Si5 0.999808 0.284144 0.100893
O O1 0.328589 0.500000 0.670951
O O2 0.407074 0.205972 0.519299
O O3 0.280993 0.293782 0.622541
O O4 0.232855 0.224304 0.860552
O O5 0.132304 0.500000 0.031118
O O6 0.074699 0.778810 0.209699
O O7 0.080107 0.772157 0.029504
O O8 0.500000 0.714145 0.500000
O O9 0.466185 0.000000 0.640688
O O10 0.187582 0.500000 0.507057
O O11 0.250000 0.750000 0.500000
O O12 0.090957 0.770899 0.703609
O O13 0.000480 0.500000 0.098086
O O14 0.000000 0.224060 0.000000
#
# Coordination Sequence:
#
# PCOD9211542 Si02
#       5
#     8   8   8   8   8
#     4  11  22  37  60  87 119 154 193 242 296 349
#     4   9  18  35  57  83 115 154 195 234 290 360
#     4  10  21  40  64  86 113 154 200 244 293 352
#     4  11  21  35  57  84 119 158 198 240 288 347
#     4   9  16  29  53  79 106 148 194 228 273 345
#
# _framework density 22.804952
#
# number of rings (size 3 to 8) (size 9 to 14) (size 15 to 20)
#    0.000    2.000    2.000    2.400    0.000    4.400 
#    0.000    2.000    0.000    2.400    0.000    0.000 
#    0.000    0.000    0.000    0.000    0.000    0.000 
#
# Total GULP energy -111763.705472 kJ/mol
# GULP energy per Si atom -5588.185274 kJ/mol
# Density = 2.275305 g / cm^3
# Si number density = 22.804952 Si / 1000 Ang^3
#
#
#
# Elastic Constant Matrix: (Units=GPa)
#
#
# Indices 1 2 3 4 5 6 
#
# 1 66.8806 -7.7029 28.5980 0.0000 27.5987 0.0000
# 2 -7.7029 58.9967 3.8019 -0.0004 1.8780 0.0000
# 3 28.5980 3.8019 174.5527 -0.0001 18.7545 0.0000
# 4 0.0000 -0.0004 -0.0001 6.0494 0.0000 -2.8904
# 5 27.5987 1.8780 18.7545 0.0000 37.1621 0.0000
# 6 0.0000 0.0000 0.0000 -2.8904 0.0000 3.8756
#
#
#
# Elastic Compliance Matrix: (Units=1/GPa)
#
#
# Indices 1 2 3 4 5 6 
#
# 1 0.022939 0.003645 -0.002101 0.000000 -0.016159 0.000000
# 2 0.003645 0.017571 -0.000628 0.000002 -0.003278 0.000001
# 3 -0.002101 -0.000628 0.006255 0.000000 -0.001564 0.000000
# 4 0.000000 0.000002 0.000000 0.256825 -0.000001 0.191541
# 5 -0.016159 -0.003278 -0.001564 -0.000001 0.039865 -0.000001
# 6 0.000000 0.000001 0.000000 0.191541 -0.000001 0.400876
#
#
# Mechanical properties :
#
#
# Convention : Reuss Voigt Hill
#
# Bulk Modulus (GPa) = 20.57792 38.86932 29.72362
# Shear Modulus (GPa) = 6.59024 27.79962 17.19493
#
# Velocity S-wave (km/s) = 1.70179 3.49523 2.74888
# Velocity P-wave (km/s) = 3.59228 5.77669 4.81012
#
# Compressibility (1/GPa) = 0.04859578
#
# Stress axis : x y z
#
# Youngs Moduli (GPa) = 43.59480 56.91268 159.87322
#
# Poissons Ratio (x) = -0.20743 0.33595
# Poissons Ratio (y) = -0.15889 0.10034
# Poissons Ratio (z) = 0.09161 0.03572
#
# Static dielectric constant tensor:
#      x y z
#    x 1.840380 0.000000 0.012740 
#    y 0.000000 1.865030 0.000000 
#    z 0.012740 0.000000 1.843200 
# 
# From -- ./inp_files/211254.got.cif
#   From: 2010.05.17/outbox.cif.g08.bks.cpg/sg12_106_cif.got.tgz:211254.got - 2010.06.03 13:09:07.
