data_PCOD9211259
_publ_section_title
;
Structure prediction by ZEFSAII (Michael W. Deem and Ramdas Pophale) SiO2 
 PCOD9211259
Probable space group: C 2/M
;
_chemical_formula_sum "Si O2"
_cell_formula_units_Z 64
_cell_length_a 18.343725
_cell_length_b 25.545117
_cell_length_c 15.385428
_cell_angle_alpha 90.000000
_cell_angle_beta 151.659165
_cell_angle_gamma 90.000000
_cell_volume 3422.461108
_symmetry_space_group_name_H-M "C 2/M"
_symmetry_group_IT_number 12
_symmetry_cell_setting 'monoclinic'
loop_
_space_group_symop_operation_xyz
x,y,z
-x,y,-z
-x,-y,-z
x,-y,z
1/2+x,1/2+y,z
1/2-x,1/2+y,-z
1/2-x,1/2-y,-z
1/2+x,1/2-y,z
loop_
_atom_site_type_symbol
_atom_site_label
_atom_site_fract_x
_atom_site_fract_y
_atom_site_fract_z
Si Si1 0.616319 0.319560 0.201520
Si Si2 0.587531 0.645111 0.682306
Si Si3 0.532085 0.141516 0.438231
Si Si4 0.124837 0.871096 0.386102
Si Si5 0.087946 0.439678 0.347382
Si Si6 0.599460 0.241775 0.782242
Si Si7 0.887152 0.290314 0.716978
Si Si8 0.067099 0.611187 0.975826
O O1 0.790449 0.339542 0.373279
O O2 0.554411 0.349462 0.222585
O O3 0.632736 0.258225 0.240478
O O4 0.500000 0.327311 0.000000
O O5 0.500000 0.641858 0.500000
O O6 0.496867 0.618368 0.666715
O O7 0.593108 0.706099 0.717761
O O8 0.751670 0.618814 0.839427
O O9 0.500000 0.120265 0.500000
O O10 0.520633 0.098690 0.350518
O O11 0.418406 0.190088 0.296261
O O12 0.238547 0.919145 0.486727
O O13 0.237217 0.824324 0.537723
O O14 0.083537 0.500000 0.367326
O O15 0.995480 0.428677 0.161862
O O16 0.461920 0.231709 0.706867
O O17 0.750000 0.250000 0.000000
O O18 0.000637 0.332163 0.878516
O O19 0.000000 0.598314 0.000000
#
# Coordination Sequence:
#
# PCOD9211259 Si02
#       8
#     8   8   8   8   8   8   8   8
#     4  11  22  33  55  84 118 165 196 233 291 350
#     4  12  23  35  58  90 125 165 194 233 298 357
#     4  11  24  39  58  89 124 155 205 255 295 355
#     4  10  21  40  59  82 118 153 200 253 292 356
#     4  10  22  45  69  84 107 152 201 256 318 361
#     4  12  21  35  58  89 128 167 207 244 282 349
#     4  11  19  37  55  80 126 167 200 236 284 345
#     4  11  23  40  60  90 123 156 200 245 296 364
#
# _framework density 18.699994
#
# number of rings (size 3 to 8) (size 9 to 14) (size 15 to 20)
#    0.000    1.000    6.250    3.375    1.750    3.500 
#    0.000    0.625    0.000    7.500    0.000    0.000 
#    0.000    0.000    0.000    0.000    0.000    0.000 
#
# Total GULP energy -178766.416938 kJ/mol
# GULP energy per Si atom -5586.450529 kJ/mol
# Density = 1.865743 g / cm^3
# Si number density = 18.699994 Si / 1000 Ang^3
#
#
#
# Elastic Constant Matrix: (Units=GPa)
#
#
# Indices 1 2 3 4 5 6 
#
# 1 112.0237 3.8306 31.9952 0.0000 -8.4437 0.0000
# 2 3.8306 61.9654 10.9978 0.0000 -3.0296 0.0000
# 3 31.9952 10.9978 103.6829 0.0000 -16.8930 0.0000
# 4 0.0000 0.0000 0.0000 6.6635 0.0000 2.6588
# 5 -8.4437 -3.0296 -16.8930 0.0000 32.7847 0.0000
# 6 0.0000 0.0000 0.0000 2.6588 0.0000 3.7573
#
#
#
# Elastic Compliance Matrix: (Units=1/GPa)
#
#
# Indices 1 2 3 4 5 6 
#
# 1 0.009823 -0.000049 -0.002854 0.000000 0.001055 0.000000
# 2 -0.000049 0.016462 -0.001621 0.000000 0.000673 0.000000
# 3 -0.002854 -0.001621 0.011521 0.000000 0.005051 0.000000
# 4 0.000000 0.000000 0.000000 0.209116 0.000000 -0.147979
# 5 0.001055 0.000673 0.005051 0.000000 0.033439 0.000000
# 6 0.000000 0.000000 0.000000 -0.147979 0.000000 0.370862
#
#
# Mechanical properties :
#
#
# Convention : Reuss Voigt Hill
#
# Bulk Modulus (GPa) = 34.77521 41.25768 38.01645
# Shear Modulus (GPa) = 7.46429 24.03101 15.74765
#
# Velocity S-wave (km/s) = 2.00007 3.58869 2.90508
# Velocity P-wave (km/s) = 4.89596 6.26757 5.62374
#
# Compressibility (1/GPa) = 0.02875611
#
# Stress axis : x y z
#
# Youngs Moduli (GPa) = 101.80135 60.74696 86.80148
#
# Poissons Ratio (x) = 0.00298 0.24775
# Poissons Ratio (y) = 0.00500 0.14073
# Poissons Ratio (z) = 0.29056 0.09849
#
# Static dielectric constant tensor:
#      x y z
#    x 1.687690 0.000000 0.009580 
#    y 0.000000 1.620510 0.000000 
#    z 0.009580 0.000000 1.666380 
# 
# From -- ./inp_files/228155.got.cif
#   From: 2010.05.17/outbox.cif.g08.bks.cpg/sg12_115_cif.got.tgz:228155.got - 2010.06.03 13:09:07.
