data_PCOD9211324
_publ_section_title
;
Structure prediction by ZEFSAII (Michael W. Deem and Ramdas Pophale) SiO2 
 PCOD9211324
Probable space group: C 2/M
;
_chemical_formula_sum "Si O2"
_cell_formula_units_Z 56
_cell_length_a 29.649086
_cell_length_b 9.275118
_cell_length_c 21.439684
_cell_angle_alpha 90.000000
_cell_angle_beta 28.887927
_cell_angle_gamma 90.000000
_cell_volume 2848.290512
_symmetry_space_group_name_H-M "C 2/M"
_symmetry_group_IT_number 12
_symmetry_cell_setting 'monoclinic'
loop_
_space_group_symop_operation_xyz
x,y,z
-x,y,-z
-x,-y,-z
x,-y,z
1/2+x,1/2+y,z
1/2-x,1/2+y,-z
1/2-x,1/2-y,-z
1/2+x,1/2-y,z
loop_
_atom_site_type_symbol
_atom_site_label
_atom_site_fract_x
_atom_site_fract_y
_atom_site_fract_z
Si Si1 0.848736 0.328407 0.064618
Si Si2 0.297139 0.330117 0.242692
Si Si3 0.964276 0.164518 0.129660
Si Si4 0.103989 0.329595 0.544881
Si Si5 0.027727 0.173076 0.394551
Si Si6 0.767856 0.826981 0.912252
Si Si7 0.655568 0.335476 0.600044
O O1 0.847423 0.500000 0.070042
O O2 0.783231 0.261662 0.197491
O O3 0.812395 0.286336 0.040330
O O4 0.949573 0.265722 0.959209
O O5 0.300030 0.500000 0.224349
O O6 0.394511 0.290853 0.158627
O O7 0.211304 0.310025 0.393347
O O8 0.901151 0.159917 0.267493
O O9 0.996522 0.000000 0.078630
O O10 0.085673 0.500000 0.573645
O O11 0.096613 0.246782 0.618936
O O12 0.039341 0.259122 0.570861
O O13 0.133520 0.204526 0.242454
O O14 0.000000 0.209168 0.500000
O O15 0.014422 0.000000 0.404315
O O16 0.765187 0.000000 0.925219
O O17 0.750000 0.750000 0.000000
O O18 0.675766 0.500000 0.555717
O O19 0.750000 0.250000 0.500000
#
# Coordination Sequence:
#
# PCOD9211324 Si02
#       7
#     8   8   8   8   8   8   8
#     4  11  24  40  61  91 120 154 204 256 303 357
#     4  10  21  40  61  87 124 164 199 239 300 368
#     4  10  22  40  60  85 122 165 202 240 298 367
#     4  11  23  39  62  93 126 160 205 255 307 368
#     4  10  22  43  68  93 124 163 210 265 324 381
#     4  10  24  44  64  89 124 163 206 259 318 375
#     4  11  22  39  61  88 124 164 205 249 304 365
#
# _framework density 19.660917000000001
#
# number of rings (size 3 to 8) (size 9 to 14) (size 15 to 20)
#    0.000    1.571    1.429    2.571    2.000    7.714 
#    0.000    0.000    0.000    0.000    0.000    0.000 
#    0.000    0.000    0.000    0.000    0.000    0.000 
#
# Total GULP energy -156419.442508 kJ/mol
# GULP energy per Si atom -5586.408661 kJ/mol
# Density = 1.961617 g / cm^3
# Si number density = 19.660917 Si / 1000 Ang^3
#
#
#
# Elastic Constant Matrix: (Units=GPa)
#
#
# Indices 1 2 3 4 5 6 
#
# 1 166.1019 69.8580 37.4321 0.0012 15.7578 -0.0011
# 2 69.8580 68.7773 32.7926 0.0005 5.6087 -0.0019
# 3 37.4321 32.7926 77.7308 -0.0013 11.5905 -0.0011
# 4 0.0012 0.0005 -0.0013 30.7731 -0.0012 1.8972
# 5 15.7578 5.6087 11.5905 -0.0012 36.2234 0.0012
# 6 -0.0011 -0.0019 -0.0011 1.8972 0.0012 37.3343
#
#
#
# Elastic Compliance Matrix: (Units=1/GPa)
#
#
# Indices 1 2 3 4 5 6 
#
# 1 0.010837 -0.010626 -0.000293 0.000000 -0.002976 0.000000
# 2 -0.010626 0.028624 -0.007337 0.000000 0.002538 0.000001
# 3 -0.000293 -0.007337 0.016710 0.000001 -0.004083 0.000000
# 4 0.000000 0.000000 0.000001 0.032598 0.000001 -0.001657
# 5 -0.002976 0.002538 -0.004083 0.000001 0.029815 -0.000001
# 6 0.000000 0.000001 0.000000 -0.001657 -0.000001 0.026869
#
#
# Mechanical properties :
#
#
# Convention : Reuss Voigt Hill
#
# Bulk Modulus (GPa) = 50.86329 65.86393 58.36361
# Shear Modulus (GPa) = 26.52283 32.36798 29.44541
#
# Velocity S-wave (km/s) = 3.67688 4.06188 3.87416
# Velocity P-wave (km/s) = 6.62965 7.45460 7.05420
#
# Compressibility (1/GPa) = 0.01966055
#
# Stress axis : x y z
#
# Youngs Moduli (GPa) = 92.27248 34.93625 59.84441
#
# Poissons Ratio (x) = 0.37122 0.01751
# Poissons Ratio (y) = 0.98045 0.43908
# Poissons Ratio (z) = 0.02699 0.25633
#
# Static dielectric constant tensor:
#      x y z
#    x 1.668450 0.000000 -0.000200 
#    y 0.000000 1.660840 0.000000 
#    z -0.000200 0.000000 1.715160 
# 
# From -- ./inp_files/239017.got.cif
#   From: 2010.05.17/outbox.cif.g08.bks.cpg/sg12_120_cif.got.tgz:239017.got - 2010.06.03 13:09:07.
