data_PCOD9211860
_publ_section_title
;
Structure prediction by ZEFSAII (Michael W. Deem and Ramdas Pophale) SiO2 
 PCOD9211860
Probable space group: C 2/M
;
_chemical_formula_sum "Si O2"
_cell_formula_units_Z 56
_cell_length_a 14.564450
_cell_length_b 31.761739
_cell_length_c 11.100256
_cell_angle_alpha 90.000000
_cell_angle_beta 28.619818
_cell_angle_gamma 90.000000
_cell_volume 2459.590476
_symmetry_space_group_name_H-M "C 2/M"
_symmetry_group_IT_number 12
_symmetry_cell_setting 'monoclinic'
loop_
_space_group_symop_operation_xyz
x,y,z
-x,y,-z
-x,-y,-z
x,-y,z
1/2+x,1/2+y,z
1/2-x,1/2+y,-z
1/2-x,1/2-y,-z
1/2+x,1/2-y,z
loop_
_atom_site_type_symbol
_atom_site_label
_atom_site_fract_x
_atom_site_fract_y
_atom_site_fract_z
Si Si1 0.572219 0.923445 0.547024
Si Si2 0.064011 0.672081 0.254856
Si Si3 0.293953 0.809726 0.174261
Si Si4 0.771540 0.785798 0.240215
Si Si5 0.732337 0.898126 0.731854
Si Si6 0.742649 0.452996 0.066968
Si Si7 0.393866 0.550289 0.320404
O O1 0.500000 0.936628 0.500000
O O2 0.500192 0.876008 0.653295
O O3 0.795504 0.929833 0.316640
O O4 0.461258 0.950754 0.774359
O O5 0.200895 0.687201 0.206143
O O6 0.865456 0.698384 0.494005
O O7 0.168392 0.679156 0.008389
O O8 0.217480 0.762783 0.277044
O O9 0.195268 0.849874 0.351077
O O10 0.500000 0.807007 0.000000
O O11 0.000000 0.790029 0.000000
O O12 0.792314 0.920624 0.786190
O O13 0.798011 0.925850 0.544263
O O14 0.500000 0.896669 0.000000
O O15 0.692238 0.500000 0.166100
O O16 0.616953 0.442955 0.093644
O O17 0.363720 0.500000 0.354110
#
# Coordination Sequence:
#
# PCOD9211860 Si02
#       7
#     8   8   8   8   8   8   8
#     4  12  24  44  68  91 130 180 222 272 325 383
#     4  11  22  46  64  94 135 169 219 274 320 387
#     4  10  21  40  66  97 132 168 221 265 324 392
#     4  10  23  41  68  96 126 175 215 269 329 380
#     4  11  20  40  69  98 132 174 210 266 329 401
#     4  11  24  42  66  99 131 168 217 267 330 398
#     4  11  25  43  66 100 134 167 215 275 335 393
#
# _framework density 22.768018000000001
#
# number of rings (size 3 to 8) (size 9 to 14) (size 15 to 20)
#    0.000    1.143    4.286    2.571    0.000    6.857 
#    5.143    1.429    0.000    0.000    0.000    0.000 
#    0.000    0.000    0.000    0.000    0.000    0.000 
#
# Total GULP energy -156533.901870 kJ/mol
# GULP energy per Si atom -5590.496495 kJ/mol
# Density = 2.271620 g / cm^3
# Si number density = 22.768018 Si / 1000 Ang^3
#
#
#
# Elastic Constant Matrix: (Units=GPa)
#
#
# Indices 1 2 3 4 5 6 
#
# 1 121.9095 37.5330 10.8684 0.0000 -21.5776 0.0000
# 2 37.5330 132.2823 3.5727 0.0000 -11.2232 0.0000
# 3 10.8684 3.5727 59.9396 0.0000 -18.0034 0.0000
# 4 0.0000 0.0000 0.0000 -32.4854 0.0000 0.1057
# 5 -21.5776 -11.2232 -18.0034 0.0000 44.3166 0.0000
# 6 0.0000 0.0000 0.0000 0.1057 0.0000 26.4168
#
#
#
# Elastic Compliance Matrix: (Units=1/GPa)
#
#
# Indices 1 2 3 4 5 6 
#
# 1 0.009675 -0.002400 -0.000432 0.000000 0.003928 0.000000
# 2 -0.002400 0.008322 0.000252 0.000000 0.001041 0.000000
# 3 -0.000432 0.000252 0.019024 0.000000 0.007582 0.000000
# 4 0.000000 0.000000 0.000000 -0.030783 0.000000 0.000123
# 5 0.003928 0.001041 0.007582 0.000000 0.027821 0.000000
# 6 0.000000 0.000000 0.000000 0.000123 0.000000 0.037854
#
#
# Mechanical properties :
#
#
# Convention : Reuss Voigt Hill
#
# Bulk Modulus (GPa) = 31.38557 46.45326 38.91941
# Shear Modulus (GPa) = 57.01574 25.12676 41.07125
#
# Velocity S-wave (km/s) = 5.00963 3.32565 4.25184
# Velocity P-wave (km/s) = 6.87581 5.93243 6.42147
#
# Compressibility (1/GPa) = 0.03186178
#
# Stress axis : x y z
#
# Youngs Moduli (GPa) = 103.35384 120.16061 52.56496
#
# Poissons Ratio (x) = 0.28843 0.02269
# Poissons Ratio (y) = 0.24809 -0.01324
# Poissons Ratio (z) = 0.04460 -0.03027
#
# Static dielectric constant tensor:
#      x y z
#    x 1.839320 0.000000 -0.014950 
#    y 0.000000 1.832660 0.000000 
#    z -0.014950 0.000000 1.831680 
# 
# From -- ./inp_files/150414.got.cif
#   From: 2010.05.17/outbox.cif.g08.bks.cpg/sg12_76_cif.got.tgz:150414.got - 2010.06.03 13:09:07.
