data_PCOD9211233
_publ_section_title
;
Structure prediction by ZEFSAII (Michael W. Deem and Ramdas Pophale) SiO2 
 PCOD9211233
Probable space group: C 2/M
;
_chemical_formula_sum "Si O2"
_cell_formula_units_Z 52
_cell_length_a 27.838947
_cell_length_b 16.306450
_cell_length_c 9.033308
_cell_angle_alpha 90.000000
_cell_angle_beta 35.851050
_cell_angle_gamma 90.000000
_cell_volume 2401.704149
_symmetry_space_group_name_H-M "C 2/M"
_symmetry_group_IT_number 12
_symmetry_cell_setting 'monoclinic'
loop_
_space_group_symop_operation_xyz
x,y,z
-x,y,-z
-x,-y,-z
x,-y,z
1/2+x,1/2+y,z
1/2-x,1/2+y,-z
1/2-x,1/2-y,-z
1/2+x,1/2-y,z
loop_
_atom_site_type_symbol
_atom_site_label
_atom_site_fract_x
_atom_site_fract_y
_atom_site_fract_z
Si Si1 0.562704 0.097552 0.203322
Si Si2 0.000000 0.165611 0.500000
Si Si3 0.730339 0.163327 0.130267
Si Si4 0.354081 0.597412 0.045401
Si Si5 0.589865 0.653341 0.778149
Si Si6 0.447633 0.213165 0.362561
Si Si7 0.752293 0.591824 0.209150
O O1 0.500000 0.109745 0.500000
O O2 0.523076 0.151001 0.173128
O O3 0.563307 0.000000 0.175619
O O4 0.656236 0.128292 0.993634
O O5 0.072240 0.110772 0.254120
O O6 0.034146 0.222185 0.549197
O O7 0.633946 0.162918 0.396740
O O8 0.750000 0.250000 0.000000
O O9 0.777475 0.143959 0.162885
O O10 0.757550 0.096709 0.942359
O O11 0.340071 0.500000 0.107513
O O12 0.381298 0.644790 0.125636
O O13 0.569854 0.737244 0.742352
O O14 0.669989 0.625135 0.487229
O O15 0.500000 0.608716 0.000000
O O16 0.758790 0.500000 0.248211
#
# Coordination Sequence:
#
# PCOD9211233 Si02
#       7
#     8   4   8   8   8   8   8
#     4  10  21  39  72 110 144 182 232 297 357 416
#     4  12  21  44  73 106 132 186 242 302 349 414
#     4  12  23  43  69 104 137 178 238 294 349 418
#     4  12  28  46  68 101 142 185 239 296 355 424
#     4  12  27  48  68 104 142 197 236 292 362 423
#     4  12  23  43  74 106 144 181 238 296 350 429
#     4  11  23  43  73 107 144 186 233 293 358 421
#
# _framework density 21.651292000000002
#
# number of rings (size 3 to 8) (size 9 to 14) (size 15 to 20)
#    0.000    0.462    6.923    1.154    0.000    2.462 
#    2.769    0.000    0.000    0.462    0.000    0.000 
#    0.000    0.000    0.000    0.000    0.000    0.000 
#
# Total GULP energy -145108.263123 kJ/mol
# GULP energy per Si atom -5581.087043 kJ/mol
# Density = 2.160201 g / cm^3
# Si number density = 21.651292 Si / 1000 Ang^3
#
#
#
# Elastic Constant Matrix: (Units=GPa)
#
#
# Indices 1 2 3 4 5 6 
#
# 1 171.5601 46.4330 52.2356 0.0000 -22.4188 0.0000
# 2 46.4330 81.1584 25.5226 0.0000 0.0824 0.0000
# 3 52.2356 25.5226 141.4347 0.0000 -27.5326 0.0000
# 4 0.0000 0.0000 0.0000 -5.4456 0.0000 -16.9012
# 5 -22.4188 0.0824 -27.5326 0.0000 35.7990 0.0000
# 6 0.0000 0.0000 0.0000 -16.9012 0.0000 22.2804
#
#
#
# Elastic Compliance Matrix: (Units=1/GPa)
#
#
# Indices 1 2 3 4 5 6 
#
# 1 0.007861 -0.004053 -0.001425 0.000000 0.003836 0.000000
# 2 -0.004053 0.015297 -0.002075 0.000000 -0.004170 0.000000
# 3 -0.001425 -0.002075 0.009172 0.000000 0.006166 0.000000
# 4 0.000000 0.000000 0.000000 -0.054746 0.000000 -0.041528
# 5 0.003836 -0.004170 0.006166 0.000000 0.035088 0.000000
# 6 0.000000 0.000000 0.000000 -0.041528 0.000000 0.013381
#
#
# Mechanical properties :
#
#
# Convention : Reuss Voigt Hill
#
# Bulk Modulus (GPa) = 58.06212 71.39283 64.72748
# Shear Modulus (GPa) = 106.60754 28.52423 67.56589
#
# Velocity S-wave (km/s) = 7.02462 3.63359 5.59233
# Velocity P-wave (km/s) = 9.62647 7.11685 8.46518
#
# Compressibility (1/GPa) = 0.01722293
#
# Stress axis : x y z
#
# Youngs Moduli (GPa) = 127.20872 65.37053 109.03309
#
# Poissons Ratio (x) = 0.26497 0.15538
# Poissons Ratio (y) = 0.51561 0.22626
# Poissons Ratio (z) = 0.18128 0.13566
#
# Static dielectric constant tensor:
#      x y z
#    x 1.827350 0.000000 -0.019370 
#    y 0.000000 1.838170 0.000000 
#    z -0.019370 0.000000 1.831510 
# 
# From -- ./inp_files/105757.got.cif
#   From: 2010.05.17/outbox.cif.g08.bks.cpg/sg12_53_cif.got.tgz:105757.got - 2010.06.03 13:09:07.
