data_PCOD9211464
_publ_section_title
;
Structure prediction by ZEFSAII (Michael W. Deem and Ramdas Pophale) SiO2 
 PCOD9211464
Probable space group: C 2/M
;
_chemical_formula_sum "Si O2"
_cell_formula_units_Z 64
_cell_length_a 9.223765
_cell_length_b 33.596090
_cell_length_c 17.518462
_cell_angle_alpha 90.000000
_cell_angle_beta 141.128885
_cell_angle_gamma 90.000000
_cell_volume 3406.869950
_symmetry_space_group_name_H-M "C 2/M"
_symmetry_group_IT_number 12
_symmetry_cell_setting 'monoclinic'
loop_
_space_group_symop_operation_xyz
x,y,z
-x,y,-z
-x,-y,-z
x,-y,z
1/2+x,1/2+y,z
1/2-x,1/2+y,-z
1/2-x,1/2-y,-z
1/2+x,1/2-y,z
loop_
_atom_site_type_symbol
_atom_site_label
_atom_site_fract_x
_atom_site_fract_y
_atom_site_fract_z
Si Si1 0.662645 0.454127 0.492099
Si Si2 0.305062 0.826822 0.860796
Si Si3 0.943796 0.609974 0.319217
Si Si4 0.024331 0.701296 0.389499
Si Si5 0.273098 0.454056 0.205833
Si Si6 0.080568 0.100361 0.861924
Si Si7 0.064254 0.387849 0.865742
Si Si8 0.871167 0.771798 0.664269
O O1 0.500000 0.448353 0.500000
O O2 0.747415 0.500000 0.529683
O O3 0.503495 0.449605 0.352036
O O4 0.865281 0.422049 0.577937
O O5 0.169340 0.862794 0.847140
O O6 0.435566 0.848083 0.843906
O O7 0.116455 0.793689 0.766167
O O8 0.500000 0.812389 0.000000
O O9 0.693146 0.599066 0.248363
O O10 0.924398 0.611107 0.219802
O O11 0.005838 0.654410 0.371162
O O12 0.090850 0.725592 0.340694
O O13 0.220376 0.710628 0.532520
O O14 0.784395 0.718862 0.325465
O O15 0.204372 0.500000 0.179410
O O16 0.320406 0.438332 0.140147
O O17 0.086128 0.425204 0.166933
O O18 0.193549 0.107719 0.990739
#
# Coordination Sequence:
#
# PCOD9211464 Si02
#       8
#     8   8   8   8   8   8   8   8
#     4  10  22  40  60  90 127 157 198 254 305 370
#     4   9  19  39  62  81 118 162 202 248 301 365
#     4  12  23  38  63  93 120 165 203 252 318 368
#     4  10  24  37  63  88 124 160 201 263 311 365
#     4  10  21  40  63  87 119 162 206 249 303 373
#     4  10  22  39  58  88 123 153 207 257 303 353
#     4  10  22  37  60  89 118 163 203 254 296 372
#     4  10  21  43  57  89 122 159 204 263 304 366
#
# _framework density 18.785571000000001
#
# number of rings (size 3 to 8) (size 9 to 14) (size 15 to 20)
#    0.000    1.875    2.500    1.500    5.250    2.000 
#    2.250    3.125    0.000    2.250    0.000    0.000 
#    0.000    0.000    0.000    0.000    0.000    0.000 
#
# Total GULP energy -178680.184990 kJ/mol
# GULP energy per Si atom -5583.755781 kJ/mol
# Density = 1.874281 g / cm^3
# Si number density = 18.785571 Si / 1000 Ang^3
#
#
#
# Elastic Constant Matrix: (Units=GPa)
#
#
# Indices 1 2 3 4 5 6 
#
# 1 45.5369 25.1692 10.5215 0.0000 9.1330 0.0000
# 2 25.1692 84.5762 24.9034 0.0000 17.6616 0.0000
# 3 10.5215 24.9034 44.5546 0.0000 16.9673 0.0000
# 4 0.0000 0.0000 0.0000 16.2528 0.0000 4.4448
# 5 9.1330 17.6616 16.9673 0.0000 28.8665 0.0000
# 6 0.0000 0.0000 0.0000 4.4448 0.0000 17.7956
#
#
#
# Elastic Compliance Matrix: (Units=1/GPa)
#
#
# Indices 1 2 3 4 5 6 
#
# 1 0.026740 -0.006882 -0.001095 0.000000 -0.003606 0.000000
# 2 -0.006882 0.016549 -0.005924 0.000000 -0.004466 0.000000
# 3 -0.001095 -0.005924 0.031568 0.000000 -0.014584 0.000000
# 4 0.000000 0.000000 0.000000 0.066038 0.000000 -0.016494
# 5 -0.003606 -0.004466 -0.014584 0.000000 0.047088 0.000000
# 6 0.000000 0.000000 0.000000 -0.016494 0.000000 0.060313
#
#
# Mechanical properties :
#
#
# Convention : Reuss Voigt Hill
#
# Bulk Modulus (GPa) = 21.25157 32.87287 27.06222
# Shear Modulus (GPa) = 17.13600 20.18790 18.66195
#
# Velocity S-wave (km/s) = 3.02352 3.28174 3.15527
# Velocity P-wave (km/s) = 4.85038 5.64772 5.26417
#
# Compressibility (1/GPa) = 0.04705534
#
# Stress axis : x y z
#
# Youngs Moduli (GPa) = 37.39666 60.42806 31.67767
#
# Poissons Ratio (x) = 0.41589 0.03467
# Poissons Ratio (y) = 0.25738 0.18765
# Poissons Ratio (z) = 0.04093 0.35797
#
# Static dielectric constant tensor:
#      x y z
#    x 1.651630 0.000000 -0.010010 
#    y 0.000000 1.628060 0.000000 
#    z -0.010010 0.000000 1.643060 
# 
# From -- ./inp_files/260338.got.cif
#   From: 2010.05.17/outbox.cif.g08.bks.cpg/sg12_131_cif.got.tgz:260338.got - 2010.06.03 13:09:07.
