data_PCOD9211654
_publ_section_title
;
Structure prediction by ZEFSAII (Michael W. Deem and Ramdas Pophale) SiO2 
 PCOD9211654
Probable space group: C 2/M
;
_chemical_formula_sum "Si O2"
_cell_formula_units_Z 48
_cell_length_a 9.317602
_cell_length_b 29.246855
_cell_length_c 16.838063
_cell_angle_alpha 90.000000
_cell_angle_beta 31.120159
_cell_angle_gamma 90.000000
_cell_volume 2371.521193
_symmetry_space_group_name_H-M "C 2/M"
_symmetry_group_IT_number 12
_symmetry_cell_setting 'monoclinic'
loop_
_space_group_symop_operation_xyz
x,y,z
-x,y,-z
-x,-y,-z
x,-y,z
1/2+x,1/2+y,z
1/2-x,1/2+y,-z
1/2-x,1/2-y,-z
1/2+x,1/2-y,z
loop_
_atom_site_type_symbol
_atom_site_label
_atom_site_fract_x
_atom_site_fract_y
_atom_site_fract_z
Si Si1 0.723326 0.214883 0.672287
Si Si2 0.674056 0.946754 0.335785
Si Si3 0.612833 0.633238 0.115037
Si Si4 0.891690 0.052039 0.462271
Si Si5 0.245627 0.132456 0.226950
Si Si6 0.836619 0.783452 0.155805
O O1 0.792773 0.167002 0.682092
O O2 0.479236 0.210394 0.723748
O O3 0.636970 0.247500 0.785698
O O4 0.000000 0.233366 0.500000
O O5 0.500000 0.940240 0.500000
O O6 0.434843 0.936759 0.384540
O O7 0.926103 0.912112 0.207816
O O8 0.757902 0.000000 0.291267
O O9 0.639059 0.652125 0.193011
O O10 0.470615 0.669835 0.124755
O O11 0.926224 0.623608 0.938309
O O12 0.000000 0.053242 0.500000
O O13 0.071643 0.086992 0.326263
O O14 0.916943 0.000000 0.419145
O O15 0.000000 0.767798 0.000000
#
# Coordination Sequence:
#
# PCOD9211654 Si02
#       6
#     8   8   8   8   8   8
#     4  12  27  45  70  99 131 173 223 275 329 398
#     4  10  21  40  64  95 132 173 222 274 325 382
#     4  11  25  40  66  97 130 178 218 267 331 395
#     4  10  22  41  66  94 131 176 218 270 330 384
#     4  11  24  42  63  96 135 172 222 270 328 391
#     4  12  26  47  70  97 135 175 217 274 337 399
#
# _framework density 20.240174
#
# number of rings (size 3 to 8) (size 9 to 14) (size 15 to 20)
#    0.000    1.000    3.333    2.500    7.000    1.333 
#    0.000    1.667    0.000    3.500    0.000    0.000 
#    0.000    0.000    0.000    0.000    0.000    0.000 
#
# Total GULP energy -134207.732527 kJ/mol
# GULP energy per Si atom -5591.988855 kJ/mol
# Density = 2.019411 g / cm^3
# Si number density = 20.240174 Si / 1000 Ang^3
#
#
#
# Elastic Constant Matrix: (Units=GPa)
#
#
# Indices 1 2 3 4 5 6 
#
# 1 118.7295 26.0360 33.5465 0.0000 -21.9472 0.0000
# 2 26.0360 79.7503 32.0638 0.0000 -3.9692 0.0000
# 3 33.5465 32.0638 77.3433 0.0000 -6.1341 0.0000
# 4 0.0000 0.0000 0.0000 29.7443 0.0000 -0.7000
# 5 -21.9472 -3.9692 -6.1341 0.0000 35.1051 0.0000
# 6 0.0000 0.0000 0.0000 -0.7000 0.0000 27.7184
#
#
#
# Elastic Compliance Matrix: (Units=1/GPa)
#
#
# Indices 1 2 3 4 5 6 
#
# 1 0.010929 -0.001866 -0.003490 0.000000 0.006012 0.000000
# 2 -0.001866 0.015379 -0.005599 0.000000 -0.000406 0.000000
# 3 -0.003490 -0.005599 0.016773 0.000000 0.000116 0.000000
# 4 0.000000 0.000000 0.000000 0.033640 0.000000 0.000850
# 5 0.006012 -0.000406 0.000116 0.000000 0.032219 0.000000
# 6 0.000000 0.000000 0.000000 0.000850 0.000000 0.036099
#
#
# Mechanical properties :
#
#
# Convention : Reuss Voigt Hill
#
# Bulk Modulus (GPa) = 47.23050 51.01286 49.12168
# Shear Modulus (GPa) = 28.73489 30.79202 29.76345
#
# Velocity S-wave (km/s) = 3.77197 3.90466 3.83889
# Velocity P-wave (km/s) = 6.50815 6.75181 6.63110
#
# Compressibility (1/GPa) = 0.02117276
#
# Stress axis : x y z
#
# Youngs Moduli (GPa) = 91.49958 65.02409 59.61853
#
# Poissons Ratio (x) = 0.12131 0.20807
# Poissons Ratio (y) = 0.17070 0.33378
# Poissons Ratio (z) = 0.31934 0.36404
#
# Static dielectric constant tensor:
#      x y z
#    x 1.753710 0.000000 -0.002340 
#    y 0.000000 1.705880 0.000000 
#    z -0.002340 0.000000 1.691490 
# 
# From -- ./inp_files/260222.got.cif
#   From: 2010.05.17/outbox.cif.g08.bks.cpg/sg12_131_cif.got.tgz:260222.got - 2010.06.03 13:09:07.
