data_PCOD9211048
_publ_section_title
;
Structure prediction by ZEFSAII (Michael W. Deem and Ramdas Pophale) SiO2 
 PCOD9211048
Probable space group: C 2/M
;
_chemical_formula_sum "Si O2"
_cell_formula_units_Z 56
_cell_length_a 19.175278
_cell_length_b 13.615544
_cell_length_c 21.451215
_cell_angle_alpha 90.000000
_cell_angle_beta 28.210078
_cell_angle_gamma 90.000000
_cell_volume 2647.399422
_symmetry_space_group_name_H-M "C 2/M"
_symmetry_group_IT_number 12
_symmetry_cell_setting 'monoclinic'
loop_
_space_group_symop_operation_xyz
x,y,z
-x,y,-z
-x,-y,-z
x,-y,z
1/2+x,1/2+y,z
1/2-x,1/2+y,-z
1/2-x,1/2-y,-z
1/2+x,1/2-y,z
loop_
_atom_site_type_symbol
_atom_site_label
_atom_site_fract_x
_atom_site_fract_y
_atom_site_fract_z
Si Si1 0.077536 0.380841 0.610535
Si Si2 0.123991 0.689940 0.029364
Si Si3 0.710612 0.115446 0.093431
Si Si4 0.641719 0.382614 0.252828
Si Si5 0.203528 0.699853 0.746662
Si Si6 0.692586 0.618418 0.466739
Si Si7 0.159925 0.613909 0.406377
O O1 0.082849 0.500000 0.606935
O O2 0.182499 0.346013 0.583710
O O3 0.138044 0.353080 0.495203
O O4 0.906811 0.358898 0.759724
O O5 0.156968 0.806409 0.010016
O O6 0.259331 0.646265 0.883819
O O7 0.126530 0.638285 0.094702
O O8 0.968670 0.673885 0.118282
O O9 0.749302 0.000000 0.066142
O O10 0.645125 0.500000 0.257444
O O11 0.713856 0.335131 0.257043
O O12 0.470824 0.352443 0.382169
O O13 0.276380 0.651687 0.627967
O O14 0.228095 0.815621 0.717143
O O15 0.697555 0.500000 0.463255
O O16 0.204158 0.500000 0.370150
O O17 0.000000 0.622444 0.500000
#
# Coordination Sequence:
#
# PCOD9211048 Si02
#       7
#     8   8   8   8   8   8   8
#     4   9  19  38  66  94 122 163 210 265 325 374
#     4  11  25  41  63  98 128 173 219 257 321 388
#     4  10  22  42  66  93 131 171 213 267 322 382
#     4  11  25  43  65  94 133 172 213 267 323 384
#     4  12  24  40  63  93 129 172 216 267 321 384
#     4  10  21  39  65  96 125 161 214 268 324 385
#     4  10  23  41  63  94 129 169 216 269 326 381
#
# _framework density 21.152833999999999
#
# number of rings (size 3 to 8) (size 9 to 14) (size 15 to 20)
#    0.000    1.571    1.429    2.571    4.000    6.857 
#    0.000    1.429    0.000    1.714    0.000    0.000 
#    0.000    0.000    0.000    0.000    0.000    0.000 
#
# Total GULP energy -156611.397146 kJ/mol
# GULP energy per Si atom -5593.264184 kJ/mol
# Density = 2.110469 g / cm^3
# Si number density = 21.152834 Si / 1000 Ang^3
#
#
#
# Elastic Constant Matrix: (Units=GPa)
#
#
# Indices 1 2 3 4 5 6 
#
# 1 53.0459 -8.2863 -1.6841 -0.0011 5.2131 0.0000
# 2 -8.2863 70.3714 11.7805 -0.0028 8.7079 0.0012
# 3 -1.6841 11.7805 73.3087 -0.0038 -8.6652 0.0010
# 4 -0.0011 -0.0028 -0.0038 26.6585 0.0004 7.3112
# 5 5.2131 8.7079 -8.6652 0.0004 22.7929 0.0003
# 6 0.0000 0.0012 0.0010 7.3112 0.0003 19.9481
#
#
#
# Elastic Compliance Matrix: (Units=1/GPa)
#
#
# Indices 1 2 3 4 5 6 
#
# 1 0.019930 0.003231 -0.000781 0.000001 -0.006090 -0.000001
# 2 0.003231 0.016200 -0.003505 0.000002 -0.008261 -0.000001
# 3 -0.000781 -0.003505 0.015042 0.000002 0.007236 -0.000001
# 4 0.000001 0.000002 0.000002 0.041703 -0.000001 -0.015285
# 5 -0.006090 -0.008261 0.007236 -0.000001 0.051173 0.000000
# 6 -0.000001 -0.000001 -0.000001 -0.015285 0.000000 0.055732
#
#
# Mechanical properties :
#
#
# Convention : Reuss Voigt Hill
#
# Bulk Modulus (GPa) = 20.38306 22.26070 21.32188
# Shear Modulus (GPa) = 22.91005 26.87429 24.89217
#
# Velocity S-wave (km/s) = 3.29458 3.56825 3.43414
# Velocity P-wave (km/s) = 4.91216 5.24625 5.08195
#
# Compressibility (1/GPa) = 0.04906034
#
# Stress axis : x y z
#
# Youngs Moduli (GPa) = 50.17560 61.72908 66.48197
#
# Poissons Ratio (x) = -0.19945 0.05194
# Poissons Ratio (y) = -0.16212 0.23305
# Poissons Ratio (z) = 0.03920 0.21639
#
# Static dielectric constant tensor:
#      x y z
#    x 1.719850 0.000000 -0.004420 
#    y 0.000000 1.798990 0.000000 
#    z -0.004420 0.000000 1.736770 
# 
# From -- ./inp_files/316688.got.cif
#   From: 2010.05.17/outbox.cif.g08.bks.cpg/sg12_159_cif.got.tgz:316688.got - 2010.06.03 13:09:07.
