data_PCOD9211462
_publ_section_title
;
Structure prediction by ZEFSAII (Michael W. Deem and Ramdas Pophale) SiO2 
 PCOD9211462
Probable space group: C 2/M
;
_chemical_formula_sum "Si O2"
_cell_formula_units_Z 40
_cell_length_a 10.592514
_cell_length_b 30.452491
_cell_length_c 5.107597
_cell_angle_alpha 90.000000
_cell_angle_beta 97.271794
_cell_angle_gamma 90.000000
_cell_volume 1634.298135
_symmetry_space_group_name_H-M "C 2/M"
_symmetry_group_IT_number 12
_symmetry_cell_setting 'monoclinic'
loop_
_space_group_symop_operation_xyz
x,y,z
-x,y,-z
-x,-y,-z
x,-y,z
1/2+x,1/2+y,z
1/2-x,1/2+y,-z
1/2-x,1/2-y,-z
1/2+x,1/2-y,z
loop_
_atom_site_type_symbol
_atom_site_label
_atom_site_fract_x
_atom_site_fract_y
_atom_site_fract_z
Si Si1 0.411604 0.136407 0.724456
Si Si2 0.093894 0.270480 0.274268
Si Si3 0.366719 0.579148 0.809101
Si Si4 0.258124 0.048464 0.712072
Si Si5 0.906873 0.824075 0.727446
O O1 0.500000 0.142355 0.500000
O O2 0.333895 0.182587 0.722574
O O3 0.343460 0.090363 0.676159
O O4 0.500000 0.133477 0.000000
O O5 0.163702 0.223217 0.290845
O O6 0.000000 0.268277 0.500000
O O7 0.000000 0.271372 0.000000
O O8 0.356466 0.555381 0.527121
O O9 0.331780 0.630511 0.751102
O O10 0.500000 0.579130 0.000000
O O11 0.277918 0.554888 0.994436
O O12 0.312292 0.000000 0.686044
O O13 0.000000 0.829427 0.500000
O O14 0.000000 0.821649 0.000000
#
# Coordination Sequence:
#
# PCOD9211462 Si02
#       5
#     8   8   8   8   8
#     4  10  21  40  63  87 119 155 191 238 295 348
#     4   8  15  29  54  84 113 148 185 226 281 343
#     4  11  23  41  62  86 118 156 194 240 295 346
#     4  12  26  41  60  88 117 151 203 251 288 343
#     4   9  16  31  56  84 114 150 188 228 282 344
#
# _framework density 24.475339999999999
#
# number of rings (size 3 to 8) (size 9 to 14) (size 15 to 20)
#    0.000    2.000    0.000    4.800    0.000    3.200 
#    0.000    2.000    0.000    0.000    0.000    0.000 
#    0.000    0.000    0.000    0.000    0.000    0.000 
#
# Total GULP energy -111713.110061 kJ/mol
# GULP energy per Si atom -5585.655503 kJ/mol
# Density = 2.441963 g / cm^3
# Si number density = 24.475340 Si / 1000 Ang^3
#
#
#
# Elastic Constant Matrix: (Units=GPa)
#
#
# Indices 1 2 3 4 5 6 
#
# 1 10.7923 21.4581 13.5974 0.0000 3.8289 0.0000
# 2 21.4581 242.7073 38.7457 0.0000 22.6615 0.0000
# 3 13.5974 38.7457 170.2735 0.0000 -12.1888 0.0000
# 4 0.0000 0.0000 0.0000 38.9106 0.0000 -9.6451
# 5 3.8289 22.6615 -12.1888 0.0000 27.1049 0.0000
# 6 0.0000 0.0000 0.0000 -9.6451 0.0000 19.1465
#
#
#
# Elastic Compliance Matrix: (Units=1/GPa)
#
#
# Indices 1 2 3 4 5 6 
#
# 1 0.126115 -0.008262 -0.009270 0.000000 -0.015076 0.000000
# 2 -0.008262 0.005321 -0.000812 0.000000 -0.003646 0.000000
# 3 -0.009270 -0.000812 0.007171 0.000000 0.005213 0.000000
# 4 0.000000 0.000000 0.000000 0.029367 0.000000 0.014794
# 5 -0.015076 -0.003646 0.005213 0.000000 0.044416 0.000000
# 6 0.000000 0.000000 0.000000 0.014794 0.000000 0.059681
#
#
# Mechanical properties :
#
#
# Convention : Reuss Voigt Hill
#
# Bulk Modulus (GPa) = 9.81184 63.48616 36.64900
# Shear Modulus (GPa) = 14.58862 40.36386 27.47624
#
# Velocity S-wave (km/s) = 2.44407 4.06540 3.35417
# Velocity P-wave (km/s) = 3.46153 6.93049 5.47786
#
# Compressibility (1/GPa) = 0.10191772
#
# Stress axis : x y z
#
# Youngs Moduli (GPa) = 7.92927 187.94260 139.44808
#
# Poissons Ratio (x) = 1.55286 1.29271
# Poissons Ratio (y) = 0.06552 0.11323
# Poissons Ratio (z) = 0.07351 0.15260
#
# Static dielectric constant tensor:
#      x y z
#    x -6.639210 0.000000 -6.962050 
#    y 0.000000 2.012290 0.000000 
#    z -6.962050 0.000000 -3.787520 
# 
# From -- ./inp_files/7668.got.cif
#   From: 2010.05.17/outbox.cif.g08.bks.cpg/sg12_4_cif.got.tgz:7668.got - 2010.06.03 13:09:07.
