data_PCOD9211978
_publ_section_title
;
Structure prediction by ZEFSAII (Michael W. Deem and Ramdas Pophale) SiO2 
 PCOD9211978
Probable space group: C 2/M
;
_chemical_formula_sum "Si O2"
_cell_formula_units_Z 40
_cell_length_a 20.786442
_cell_length_b 15.366449
_cell_length_c 14.887835
_cell_angle_alpha 90.000000
_cell_angle_beta 19.264633
_cell_angle_gamma 90.000000
_cell_volume 1568.950830
_symmetry_space_group_name_H-M "C 2/M"
_symmetry_group_IT_number 12
_symmetry_cell_setting 'monoclinic'
loop_
_space_group_symop_operation_xyz
x,y,z
-x,y,-z
-x,-y,-z
x,-y,z
1/2+x,1/2+y,z
1/2-x,1/2+y,-z
1/2-x,1/2-y,-z
1/2+x,1/2-y,z
loop_
_atom_site_type_symbol
_atom_site_label
_atom_site_fract_x
_atom_site_fract_y
_atom_site_fract_z
Si Si1 0.728448 0.841482 0.445967
Si Si2 0.337640 0.407358 0.787704
Si Si3 0.975805 0.399188 0.931133
Si Si4 0.097664 0.198465 0.138343
Si Si5 0.825282 0.104086 0.131314
O O1 0.663318 0.895047 0.619770
O O2 0.602225 0.752408 0.615991
O O3 0.690718 0.879183 0.395450
O O4 0.961959 0.849457 0.138797
O O5 0.500000 0.416798 0.500000
O O6 0.241331 0.500000 0.938473
O O7 0.449756 0.377158 0.728045
O O8 0.177627 0.356191 0.937513
O O9 0.916041 0.500000 0.024007
O O10 0.000000 0.361255 0.000000
O O11 0.250000 0.250000 0.000000
O O12 0.227981 0.153363 0.889349
O O13 0.850356 0.000000 0.089097
#
# Coordination Sequence:
#
# PCOD9211978 Si02
#       5
#     8   8   8   8   8
#     4  11  24  47  75 105 143 191 249 307 365 432
#     4  10  23  43  67  98 141 186 234 294 360 437
#     4  10  21  40  69 102 137 184 240 296 356 426
#     4  12  26  45  69 107 146 192 237 305 368 437
#     4  11  26  50  77 107 148 200 251 305 366 444
#
# _framework density 25.494744000000001
#
# number of rings (size 3 to 8) (size 9 to 14) (size 15 to 20)
#    0.000    1.200    2.000    3.600    5.600    0.000 
#    3.600    1.000    0.000    0.000    0.000    0.000 
#    0.000    0.000    0.000    0.000    0.000    0.000 
#
# Total GULP energy -111340.330452 kJ/mol
# GULP energy per Si atom -5567.016523 kJ/mol
# Density = 2.543672 g / cm^3
# Si number density = 25.494744 Si / 1000 Ang^3
#
#
#
# Elastic Constant Matrix: (Units=GPa)
#
#
# Indices 1 2 3 4 5 6 
#
# 1 141.4126 49.9400 25.6642 0.0000 29.6640 -0.0027
# 2 49.9400 106.8287 15.2310 -0.0035 10.2622 0.0003
# 3 25.6642 15.2310 77.5186 -0.0058 21.2908 -0.0006
# 4 0.0000 -0.0035 -0.0058 25.8691 0.0014 -7.9312
# 5 29.6640 10.2622 21.2908 0.0014 58.0816 0.0027
# 6 -0.0027 0.0003 -0.0006 -7.9312 0.0027 20.4480
#
#
#
# Elastic Compliance Matrix: (Units=1/GPa)
#
#
# Indices 1 2 3 4 5 6 
#
# 1 0.009452 -0.003874 -0.001368 0.000000 -0.003641 0.000002
# 2 -0.003874 0.011284 -0.001035 0.000001 0.000364 0.000000
# 3 -0.001368 -0.001035 0.014805 0.000004 -0.004545 0.000003
# 4 0.000000 0.000001 0.000004 0.043874 -0.000004 0.017017
# 5 -0.003641 0.000364 -0.004545 -0.000004 0.020679 -0.000005
# 6 0.000002 0.000000 0.000003 0.017017 -0.000005 0.055505
#
#
# Mechanical properties :
#
#
# Convention : Reuss Voigt Hill
#
# Bulk Modulus (GPa) = 43.50067 56.38114 49.94091
# Shear Modulus (GPa) = 28.43933 36.54139 32.49036
#
# Velocity S-wave (km/s) = 3.34353 3.78999 3.57374
# Velocity P-wave (km/s) = 5.65732 6.42766 6.05475
#
# Compressibility (1/GPa) = 0.02298815
#
# Stress axis : x y z
#
# Youngs Moduli (GPa) = 105.80266 88.61990 67.54597
#
# Poissons Ratio (x) = 0.34327 0.09240
# Poissons Ratio (y) = 0.40983 0.06989
# Poissons Ratio (z) = 0.14473 0.09169
#
# Static dielectric constant tensor:
#      x y z
#    x 2.948880 0.000010 0.270720 
#    y 0.000010 2.447940 0.000000 
#    z 0.270720 0.000000 2.081980 
# 
# From -- ./inp_files/234589.got.cif
#   From: 2010.05.17/outbox.cif.g08.bks.cpg/sg12_118_cif.got.tgz:234589.got - 2010.06.03 13:09:07.
