data_PCOD9211511
_publ_section_title
;
Structure prediction by ZEFSAII (Michael W. Deem and Ramdas Pophale) SiO2 
 PCOD9211511
Probable space group: C 2/M
;
_chemical_formula_sum "Si O2"
_cell_formula_units_Z 58
_cell_length_a 24.345540
_cell_length_b 8.662219
_cell_length_c 27.436077
_cell_angle_alpha 90.000000
_cell_angle_beta 151.619750
_cell_angle_gamma 90.000000
_cell_volume 2750.157418
_symmetry_space_group_name_H-M "C 2/M"
_symmetry_group_IT_number 12
_symmetry_cell_setting 'monoclinic'
loop_
_space_group_symop_operation_xyz
x,y,z
-x,y,-z
-x,-y,-z
x,-y,z
1/2+x,1/2+y,z
1/2-x,1/2+y,-z
1/2-x,1/2-y,-z
1/2+x,1/2-y,z
loop_
_atom_site_type_symbol
_atom_site_label
_atom_site_fract_x
_atom_site_fract_y
_atom_site_fract_z
Si Si1 0.488777 0.186475 0.830587
Si Si2 0.900922 0.826390 0.463302
Si Si3 0.785110 0.233800 0.847052
Si Si4 0.000000 0.000000 0.000000
Si Si5 0.272272 0.174668 0.945020
Si Si6 0.798428 0.183042 0.751369
Si Si7 0.486462 0.313672 0.250790
Si Si8 0.488074 0.175668 0.355594
O O1 0.411151 0.262295 0.811413
O O2 0.452292 0.243429 0.748579
O O3 0.484647 0.000000 0.830386
O O4 0.618431 0.246135 0.943067
O O5 0.805175 0.713045 0.366744
O O6 0.000000 0.831562 0.500000
O O7 0.957830 0.768467 0.557384
O O8 0.852468 0.000000 0.431201
O O9 0.794606 0.329713 0.904274
O O10 0.782248 0.283046 0.787948
O O11 0.652423 0.172351 0.749239
O O12 0.901337 0.131128 0.937668
O O13 0.147094 0.245313 0.856207
O O14 0.264284 0.000000 0.956935
O O15 0.806288 0.000000 0.770817
O O16 0.489982 0.500000 0.252520
O O17 0.524228 0.254213 0.333056
O O18 0.528735 0.000000 0.388821
#
# Coordination Sequence:
#
# PCOD9211511 Si02
#       8
#     8   8   8   2   8   8   8   8
#     4  11  23  41  60  88 125 168 214 263 319 378
#     4  11  24  41  65  94 127 164 208 263 321 382
#     4  11  22  36  59  89 128 167 209 253 305 376
#     4  12  20  36  50  86 132 164 208 238 300 360
#     4   9  21  38  60  88 122 164 214 263 316 373
#     4  12  24  41  61  92 127 169 209 261 319 380
#     4  10  21  40  63  91 123 163 214 266 316 375
#     4  11  21  40  65  96 122 164 208 263 314 369
#
# _framework density 21.089701999999999
#
# number of rings (size 3 to 8) (size 9 to 14) (size 15 to 20)
#    0.000    1.241    2.759    3.310    0.000    2.207 
#    1.241    2.414    0.000    0.000    0.000    0.000 
#    0.000    0.000    0.000    0.000    0.000    0.000 
#
# Total GULP energy -161458.002555 kJ/mol
# GULP energy per Si atom -5567.517329 kJ/mol
# Density = 2.104170 g / cm^3
# Si number density = 21.089702 Si / 1000 Ang^3
#
#
#
# Elastic Constant Matrix: (Units=GPa)
#
#
# Indices 1 2 3 4 5 6 
#
# 1 90.2723 18.7942 22.3481 0.0000 -38.1369 0.0000
# 2 18.7942 62.0325 -0.0034 0.0000 -9.0517 -0.0002
# 3 22.3481 -0.0034 25.3331 0.0000 -28.2496 0.0000
# 4 0.0000 0.0000 0.0000 32.8238 0.0000 4.1092
# 5 -38.1369 -9.0517 -28.2496 0.0000 34.4508 0.0000
# 6 0.0000 -0.0002 0.0000 4.1092 0.0000 23.4843
#
#
#
# Elastic Compliance Matrix: (Units=1/GPa)
#
#
# Indices 1 2 3 4 5 6 
#
# 1 -0.393882 -0.250727 -2.479580 0.000004 -2.535154 0.000003
# 2 -0.250727 -0.130383 -1.478330 0.000002 -1.524039 0.000002
# 3 -2.479580 -1.478330-14.805750 0.000022-15.273994 0.000017
# 4 0.000004 0.000002 0.000022 0.031148 0.000023 -0.005450
# 5 -2.535154 -1.524039-15.273994 0.000023-15.702455 0.000017
# 6 0.000003 0.000002 0.000017 -0.005450 0.000017 0.043535
#
#
# Mechanical properties :
#
#
# Convention : Reuss Voigt Hill
#
# Bulk Modulus (GPa) = -0.04211 28.87951 14.41870
# Shear Modulus (GPa) = -0.16417 27.25172 13.54378
#
# Velocity S-wave (km/s) = -0.27931 3.59859 2.53691
# Velocity P-wave (km/s) = 0.35217 5.56685 3.92848
#
# Compressibility (1/GPa) = -23.74728967
#
# Stress axis : x y z
#
# Youngs Moduli (GPa) = -2.53883 -7.66971 -0.06754
#
# Poissons Ratio (x) = -1.92301 -0.16747
# Poissons Ratio (y) = -0.63655 -0.09985
# Poissons Ratio (z) = -6.29524 -11.33836
#
# Static dielectric constant tensor:
#      x y z
#    x 1.752860 0.000000 0.006960 
#    y 0.000000 1.735830 0.000000 
#    z 0.006960 0.000000 1.787230 
# 
# From -- ./inp_files/367579.got.cif
#   From: 2010.05.17/outbox.cif.g08.bks.cpg/sg12_184_cif.got.tgz:367579.got - 2010.06.03 13:09:07.
