data_PCOD9211105
_publ_section_title
;
Structure prediction by ZEFSAII (Michael W. Deem and Ramdas Pophale) SiO2 
 PCOD9211105
Probable space group: C 2/M
;
_chemical_formula_sum "Si O2"
_cell_formula_units_Z 52
_cell_length_a 21.917749
_cell_length_b 19.044929
_cell_length_c 15.161068
_cell_angle_alpha 90.000000
_cell_angle_beta 24.696190
_cell_angle_gamma 90.000000
_cell_volume 2644.115737
_symmetry_space_group_name_H-M "C 2/M"
_symmetry_group_IT_number 12
_symmetry_cell_setting 'monoclinic'
loop_
_space_group_symop_operation_xyz
x,y,z
-x,y,-z
-x,-y,-z
x,-y,z
1/2+x,1/2+y,z
1/2-x,1/2+y,-z
1/2-x,1/2-y,-z
1/2+x,1/2-y,z
loop_
_atom_site_type_symbol
_atom_site_label
_atom_site_fract_x
_atom_site_fract_y
_atom_site_fract_z
Si Si1 0.900458 0.583963 0.458656
Si Si2 0.865970 0.818689 0.245103
Si Si3 0.305732 0.921195 0.037637
Si Si4 0.500000 0.170669 0.500000
Si Si5 0.140176 0.190452 0.544041
Si Si6 0.158444 0.420825 0.800510
Si Si7 0.864514 0.216404 0.784983
O O1 0.885380 0.500000 0.490621
O O2 0.750103 0.618619 0.621876
O O3 0.949103 0.622747 0.485233
O O4 0.034925 0.595585 0.213325
O O5 0.915880 0.817881 0.282064
O O6 0.765761 0.749192 0.371169
O O7 0.000000 0.819568 0.000000
O O8 0.265866 0.000000 0.058288
O O9 0.312948 0.923115 0.133348
O O10 0.191297 0.860658 0.165733
O O11 0.623006 0.226629 0.309151
O O12 0.216314 0.119062 0.414498
O O13 0.015321 0.210689 0.639419
O O14 0.146573 0.500000 0.780372
O O15 0.000000 0.385615 0.000000
O O16 0.750000 0.250000 0.000000
#
# Coordination Sequence:
#
# PCOD9211105 Si02
#       7
#     8   8   8   4   8   8   8
#     4  11  24  44  66  96 132 171 219 267 320 385
#     4  11  25  42  65  93 128 168 214 265 324 377
#     4  10  22  41  66  98 133 167 210 268 322 378
#     4  12  23  42  67  96 126 174 218 268 317 386
#     4  11  24  42  63  95 128 165 212 271 316 381
#     4  10  21  39  66  94 125 169 210 257 319 377
#     4  12  24  40  67  95 128 168 219 259 323 386
#
# _framework density 19.666309999999999
#
# number of rings (size 3 to 8) (size 9 to 14) (size 15 to 20)
#    0.000    1.077    3.077    2.538    2.154    5.231 
#    0.000    1.923    0.000    0.000    0.000    0.000 
#    0.000    0.000    0.000    0.000    0.000    0.000 
#
# Total GULP energy -145210.175673 kJ/mol
# GULP energy per Si atom -5585.006757 kJ/mol
# Density = 1.962155 g / cm^3
# Si number density = 19.666310 Si / 1000 Ang^3
#
#
#
# Elastic Constant Matrix: (Units=GPa)
#
#
# Indices 1 2 3 4 5 6 
#
# 1 65.0294 32.6500 28.2631 -0.0005 3.8600 -0.0002
# 2 32.6500 110.5123 42.4540 -0.0004 7.6324 0.0000
# 3 28.2631 42.4540 103.6728 -0.0005 25.3101 -0.0002
# 4 -0.0005 -0.0004 -0.0005 39.8552 0.0003 7.8519
# 5 3.8600 7.6324 25.3101 0.0003 30.5049 0.0002
# 6 -0.0002 0.0000 -0.0002 7.8519 0.0002 38.9525
#
#
#
# Elastic Compliance Matrix: (Units=1/GPa)
#
#
# Indices 1 2 3 4 5 6 
#
# 1 0.019116 -0.004270 -0.003929 0.000000 0.001909 0.000000
# 2 -0.004270 0.011727 -0.003830 0.000000 0.000783 0.000000
# 3 -0.003929 -0.003830 0.014960 0.000000 -0.010957 0.000000
# 4 0.000000 0.000000 0.000000 0.026128 0.000000 -0.005267
# 5 0.001909 0.000783 -0.010957 0.000000 0.041435 0.000000
# 6 0.000000 0.000000 0.000000 -0.005267 0.000000 0.026734
#
#
# Mechanical properties :
#
#
# Convention : Reuss Voigt Hill
#
# Bulk Modulus (GPa) = 45.98510 53.99431 49.98970
# Shear Modulus (GPa) = 29.17040 33.58568 31.37804
#
# Velocity S-wave (km/s) = 3.85550 4.13701 3.99873
# Velocity P-wave (km/s) = 6.57672 7.09469 6.84061
#
# Compressibility (1/GPa) = 0.02174618
#
# Stress axis : x y z
#
# Youngs Moduli (GPa) = 52.31259 85.27047 66.84498
#
# Poissons Ratio (x) = 0.36412 0.26262
# Poissons Ratio (y) = 0.22339 0.25598
# Poissons Ratio (z) = 0.20553 0.32654
#
# Static dielectric constant tensor:
#      x y z
#    x 1.699480 0.000000 0.044660 
#    y 0.000000 1.700220 0.000000 
#    z 0.044660 0.000000 1.682910 
# 
# From -- ./inp_files/234447.got.cif
#   From: 2010.05.17/outbox.cif.g08.bks.cpg/sg12_118_cif.got.tgz:234447.got - 2010.06.03 13:09:07.
