data_PCOD9211604
_publ_section_title
;
Structure prediction by ZEFSAII (Michael W. Deem and Ramdas Pophale) SiO2 
 PCOD9211604
Probable space group: C 2/M
;
_chemical_formula_sum "Si O2"
_cell_formula_units_Z 56
_cell_length_a 14.233169
_cell_length_b 22.917024
_cell_length_c 15.299913
_cell_angle_alpha 90.000000
_cell_angle_beta 30.566170
_cell_angle_gamma 90.000000
_cell_volume 2537.862090
_symmetry_space_group_name_H-M "C 2/M"
_symmetry_group_IT_number 12
_symmetry_cell_setting 'monoclinic'
loop_
_space_group_symop_operation_xyz
x,y,z
-x,y,-z
-x,-y,-z
x,-y,z
1/2+x,1/2+y,z
1/2-x,1/2+y,-z
1/2-x,1/2-y,-z
1/2+x,1/2-y,z
loop_
_atom_site_type_symbol
_atom_site_label
_atom_site_fract_x
_atom_site_fract_y
_atom_site_fract_z
Si Si1 0.838665 0.935517 0.868205
Si Si2 0.506800 0.241380 0.269910
Si Si3 0.284565 0.768419 0.174661
Si Si4 0.722847 0.066701 0.450879
Si Si5 0.690318 0.396096 0.301231
Si Si6 0.518703 0.884227 0.782837
Si Si7 0.763489 0.691504 0.618932
O O1 0.792541 0.929218 0.803181
O O2 0.058200 0.929339 0.703111
O O3 0.789246 0.000000 0.939351
O O4 0.698465 0.893778 0.030772
O O5 0.714987 0.249015 0.134986
O O6 0.456706 0.184519 0.254198
O O7 0.424367 0.296562 0.285671
O O8 0.404864 0.228192 0.444639
O O9 0.180196 0.827611 0.284212
O O10 0.252581 0.719285 0.273290
O O11 0.500000 0.782545 0.000000
O O12 0.604144 0.081123 0.632483
O O13 0.688003 0.123188 0.417907
O O14 0.686043 0.000000 0.450444
O O15 0.500000 0.413468 0.500000
O O16 0.862791 0.402814 0.227923
#
# Coordination Sequence:
#
# PCOD9211604 Si02
#       7
#     8   8   8   8   8   8   8
#     4  11  24  39  62  91 127 172 211 257 307 371
#     4  10  22  39  64  92 123 164 208 255 318 377
#     4  12  25  38  62  96 128 162 208 262 321 377
#     4  10  22  40  63  92 124 165 211 258 316 372
#     4  12  23  40  59  88 129 169 211 258 308 380
#     4  11  22  40  63  91 127 166 207 262 314 370
#     4  10  21  40  64  91 123 168 204 260 316 372
#
# _framework density 22.065815000000001
#
# number of rings (size 3 to 8) (size 9 to 14) (size 15 to 20)
#    0.000    1.143    2.857    3.857    4.000    2.571 
#    0.000    0.000    0.000    8.143    0.000    0.000 
#    0.000    0.000    0.000    0.000    0.000    0.000 
#
# Total GULP energy -156588.310066 kJ/mol
# GULP energy per Si atom -5592.439645 kJ/mol
# Density = 2.201559 g / cm^3
# Si number density = 22.065815 Si / 1000 Ang^3
#
#
#
# Elastic Constant Matrix: (Units=GPa)
#
#
# Indices 1 2 3 4 5 6 
#
# 1 68.2667 0.8055 0.1092 -0.0104 -11.5841 -0.0016
# 2 0.8055 113.5126 5.9388 -0.0142 10.2155 0.0092
# 3 0.1092 5.9388 90.5180 -0.0308 -8.1764 0.0187
# 4 -0.0104 -0.0142 -0.0308 28.4041 0.0125 2.8665
# 5 -11.5841 10.2155 -8.1764 0.0125 27.1313 -0.0091
# 6 -0.0016 0.0092 0.0187 2.8665 -0.0091 16.5640
#
#
#
# Elastic Compliance Matrix: (Units=1/GPa)
#
#
# Indices 1 2 3 4 5 6 
#
# 1 0.015895 -0.000806 0.000693 0.000002 0.007299 0.000005
# 2 -0.000806 0.009237 -0.000977 0.000006 -0.004116 -0.000007
# 3 0.000693 -0.000977 0.011483 0.000012 0.004124 -0.000012
# 4 0.000002 0.000006 0.000012 0.035832 -0.000016 -0.006201
# 5 0.007299 -0.004116 0.004124 -0.000016 0.042767 0.000025
# 6 0.000005 -0.000007 -0.000012 -0.006201 0.000025 0.061445
#
#
# Mechanical properties :
#
#
# Convention : Reuss Voigt Hill
#
# Bulk Modulus (GPa) = 29.03932 31.77823 30.40877
# Shear Modulus (GPa) = 26.27182 32.11615 29.19398
#
# Velocity S-wave (km/s) = 3.45427 3.81920 3.64131
# Velocity P-wave (km/s) = 5.39427 5.82076 5.61157
#
# Compressibility (1/GPa) = 0.03443607
#
# Stress axis : x y z
#
# Youngs Moduli (GPa) = 62.91129 108.26167 87.08262
#
# Poissons Ratio (x) = 0.08725 -0.06035
# Poissons Ratio (y) = 0.05070 0.08507
# Poissons Ratio (z) = -0.04360 0.10576
#
# Static dielectric constant tensor:
#      x y z
#    x 1.806200 0.000000 -0.037660 
#    y 0.000000 1.795960 0.000010 
#    z -0.037660 0.000010 1.839340 
# 
# From -- ./inp_files/219050.got.cif
#   From: 2010.05.17/outbox.cif.g08.bks.cpg/sg12_110_cif.got.tgz:219050.got - 2010.06.03 13:09:07.
