data_PCOD9211156
_publ_section_title
;
Structure prediction by ZEFSAII (Michael W. Deem and Ramdas Pophale) SiO2 
 PCOD9211156
Probable space group: C 2/M
;
_chemical_formula_sum "Si O2"
_cell_formula_units_Z 42
_cell_length_a 17.647223
_cell_length_b 21.685215
_cell_length_c 6.372530
_cell_angle_alpha 90.000000
_cell_angle_beta 45.724873
_cell_angle_gamma 90.000000
_cell_volume 1746.073437
_symmetry_space_group_name_H-M "C 2/M"
_symmetry_group_IT_number 12
_symmetry_cell_setting 'monoclinic'
loop_
_space_group_symop_operation_xyz
x,y,z
-x,y,-z
-x,-y,-z
x,-y,z
1/2+x,1/2+y,z
1/2-x,1/2+y,-z
1/2-x,1/2-y,-z
1/2+x,1/2-y,z
loop_
_atom_site_type_symbol
_atom_site_label
_atom_site_fract_x
_atom_site_fract_y
_atom_site_fract_z
Si Si1 0.000000 0.000000 0.500000
Si Si2 0.738447 0.364043 0.619602
Si Si3 0.668899 0.070055 0.176944
Si Si4 0.637388 0.717500 0.162389
Si Si5 0.616629 0.600203 0.474863
Si Si6 0.415549 0.831082 0.979929
O O1 0.980863 0.944628 0.364598
O O2 0.819101 0.400663 0.615562
O O3 0.665417 0.325280 0.912345
O O4 0.663821 0.403267 0.614644
O O5 0.806693 0.324564 0.322097
O O6 0.632529 0.000000 0.254300
O O7 0.789395 0.072291 0.854121
O O8 0.601946 0.111726 0.144981
O O9 0.567381 0.771869 0.198606
O O10 0.750000 0.750000 0.000000
O O11 0.602921 0.670714 0.415869
O O12 0.500000 0.838990 0.000000
#
# Coordination Sequence:
#
# PCOD9211156 Si02
#       6
#     2   8   8   8   8   8
#     4  12  24  44  62 104 138 162 214 276 326 372
#     4  10  21  39  67  90 118 178 208 255 328 381
#     4  10  21  41  63  89 124 168 214 252 315 391
#     4  11  20  42  63  92 124 170 218 259 316 394
#     4  10  23  39  64  91 129 169 209 265 314 388
#     4  11  24  39  63  95 127 158 214 275 315 370
#
# _framework density 24.053972000000002
#
# number of rings (size 3 to 8) (size 9 to 14) (size 15 to 20)
#    0.000    1.524    6.667    0.571    1.333    3.429 
#    0.000    7.619    0.000    0.000    0.000    0.000 
#    0.000    0.000    0.000    0.000    0.000    0.000 
#
# Total GULP energy -117133.966702 kJ/mol
# GULP energy per Si atom -5577.807938 kJ/mol
# Density = 2.399922 g / cm^3
# Si number density = 24.053972 Si / 1000 Ang^3
#
#
#
# Elastic Constant Matrix: (Units=GPa)
#
#
# Indices 1 2 3 4 5 6 
#
# 1 130.4603 61.7513 35.4729 0.0000 55.5552 0.0000
# 2 61.7513 190.6636 43.7142 0.0000 31.9540 0.0000
# 3 35.4729 43.7142 103.9371 0.0000 27.6044 0.0000
# 4 0.0000 0.0000 0.0000 9.2328 0.0000 7.0679
# 5 55.5552 31.9540 27.6044 0.0000 44.7287 0.0000
# 6 0.0000 0.0000 0.0000 7.0679 0.0000 9.3429
#
#
#
# Elastic Compliance Matrix: (Units=1/GPa)
#
#
# Indices 1 2 3 4 5 6 
#
# 1 0.017091 -0.002304 0.000403 0.000000 -0.019830 0.000000
# 2 -0.002304 0.006514 -0.001767 0.000000 -0.000701 0.000000
# 3 0.000403 -0.001767 0.011990 0.000000 -0.006637 0.000000
# 4 0.000000 0.000000 0.000000 0.257345 0.000000 -0.194683
# 5 -0.019830 -0.000701 -0.006637 0.000000 0.051584 0.000000
# 6 0.000000 0.000000 0.000000 -0.194683 0.000000 0.254311
#
#
# Mechanical properties :
#
#
# Convention : Reuss Voigt Hill
#
# Bulk Modulus (GPa) = 35.38914 78.54867 56.96891
# Shear Modulus (GPa) = 8.12229 31.60237 19.86233
#
# Velocity S-wave (km/s) = 1.83957 3.62858 2.87669
# Velocity P-wave (km/s) = 4.38821 7.09095 5.89652
#
# Compressibility (1/GPa) = 0.02825725
#
# Stress axis : x y z
#
# Youngs Moduli (GPa) = 58.51135 153.52215 83.40467
#
# Poissons Ratio (x) = 0.35375 -0.03359
# Poissons Ratio (y) = 0.13482 0.14738
# Poissons Ratio (z) = -0.02357 0.27127
#
# Static dielectric constant tensor:
#      x y z
#    x 2.183390 0.000000 -0.012110 
#    y 0.000000 2.048200 0.000000 
#    z -0.012110 0.000000 1.946810 
# 
# From -- ./inp_files/11602.got.cif
#   From: 2010.05.17/outbox.cif.g08.bks.cpg/sg12_6_cif.got.tgz:11602.got - 2010.06.03 13:09:07.
