data_PCOD9211080
_publ_section_title
;
Structure prediction by ZEFSAII (Michael W. Deem and Ramdas Pophale) SiO2 
 PCOD9211080
Probable space group: C 2/M
;
_chemical_formula_sum "Si O2"
_cell_formula_units_Z 48
_cell_length_a 29.426747
_cell_length_b 8.946751
_cell_length_c 9.762973
_cell_angle_alpha 90.000000
_cell_angle_beta 80.891748
_cell_angle_gamma 90.000000
_cell_volume 2537.925482
_symmetry_space_group_name_H-M "C 2/M"
_symmetry_group_IT_number 12
_symmetry_cell_setting 'monoclinic'
loop_
_space_group_symop_operation_xyz
x,y,z
-x,y,-z
-x,-y,-z
x,-y,z
1/2+x,1/2+y,z
1/2-x,1/2+y,-z
1/2-x,1/2-y,-z
1/2+x,1/2-y,z
loop_
_atom_site_type_symbol
_atom_site_label
_atom_site_fract_x
_atom_site_fract_y
_atom_site_fract_z
Si Si1 0.956880 0.819480 0.422645
Si Si2 0.372372 0.681889 0.655638
Si Si3 0.232075 0.178833 0.370026
Si Si4 0.279934 0.672991 0.101563
Si Si5 0.042139 0.321674 0.879645
Si Si6 0.385533 0.673680 0.959765
O O1 0.909863 0.773960 0.523834
O O2 0.960674 0.751379 0.269290
O O3 0.000000 0.779383 0.500000
O O4 0.956589 0.000000 0.410049
O O5 0.371914 0.500000 0.660276
O O6 0.320042 0.728173 0.645644
O O7 0.387569 0.729534 0.801410
O O8 0.250000 0.250000 0.500000
O O9 0.268215 0.234044 0.240780
O O10 0.231270 0.000000 0.378890
O O11 0.266661 0.500000 0.127524
O O12 0.250000 0.750000 0.000000
O O13 0.332518 0.675993 0.029944
O O14 0.042361 0.500000 0.863414
O O15 0.086147 0.266550 0.943682
O O16 0.000000 0.279514 0.000000
O O17 0.401390 0.500000 0.954420
#
# Coordination Sequence:
#
# PCOD9211080 Si02
#       6
#     8   8   8   8   8   8
#     4  10  21  39  66  92 116 153 201 246 293 357
#     4   9  19  38  61  87 118 154 197 248 299 347
#     4  11  23  40  59  86 126 165 206 255 303 361
#     4  11  22  39  63  91 122 163 208 255 305 359
#     4  11  25  42  60  89 126 158 192 244 305 362
#     4  10  21  40  65  89 117 158 205 250 295 354
#
# _framework density 18.913084000000001
#
# number of rings (size 3 to 8) (size 9 to 14) (size 15 to 20)
#    0.000    1.667    1.667    2.500    2.333    4.333 
#    0.000    1.667    0.000    0.000    0.000    0.000 
#    0.000    0.000    0.000    0.000    0.000    0.000 
#
# Total GULP energy -134013.866142 kJ/mol
# GULP energy per Si atom -5583.911089 kJ/mol
# Density = 1.887004 g / cm^3
# Si number density = 18.913084 Si / 1000 Ang^3
#
#
#
# Elastic Constant Matrix: (Units=GPa)
#
#
# Indices 1 2 3 4 5 6 
#
# 1 66.9900 31.7091 46.6433 0.0000 4.0097 0.0000
# 2 31.7091 45.5004 45.0864 0.0000 1.0421 0.0000
# 3 46.6433 45.0864 192.1890 0.0000 4.8527 0.0000
# 4 0.0000 0.0000 0.0000 34.3003 0.0000 -0.4834
# 5 4.0097 1.0421 4.8527 0.0000 33.9495 0.0000
# 6 0.0000 0.0000 0.0000 -0.4834 0.0000 23.8749
#
#
#
# Elastic Compliance Matrix: (Units=1/GPa)
#
#
# Indices 1 2 3 4 5 6 
#
# 1 0.023216 -0.013810 -0.002344 0.000000 -0.001983 0.000000
# 2 -0.013810 0.036850 -0.005325 0.000000 0.001261 0.000000
# 3 -0.002344 -0.005325 0.007036 0.000000 -0.000565 0.000000
# 4 0.000000 0.000000 0.000000 0.029163 0.000000 0.000590
# 5 -0.001983 0.001261 -0.000565 0.000000 0.029732 0.000000
# 6 0.000000 0.000000 0.000000 0.000590 0.000000 0.041897
#
#
# Mechanical properties :
#
#
# Convention : Reuss Voigt Hill
#
# Bulk Modulus (GPa) = 41.42213 61.28410 51.35311
# Shear Modulus (GPa) = 22.84158 30.50764 26.67461
#
# Velocity S-wave (km/s) = 3.47899 4.02063 3.75958
# Velocity P-wave (km/s) = 6.17144 7.35033 6.78653
#
# Compressibility (1/GPa) = 0.02414169
#
# Stress axis : x y z
#
# Youngs Moduli (GPa) = 43.07439 27.13724 142.13352
#
# Poissons Ratio (x) = 0.37478 0.33322
# Poissons Ratio (y) = 0.59487 0.75684
# Poissons Ratio (z) = 0.10098 0.14450
#
# Static dielectric constant tensor:
#      x y z
#    x 1.635330 0.000000 -0.046790 
#    y 0.000000 1.645600 0.000000 
#    z -0.046790 0.000000 1.465170 
# 
# From -- ./inp_files/108698.got.cif
#   From: 2010.05.17/outbox.cif.g08.bks.cpg/sg12_55_cif.got.tgz:108698.got - 2010.06.03 13:09:07.
