data_PCOD9212758
_publ_section_title
;
Structure prediction by ZEFSAII (Michael W. Deem and Ramdas Pophale) SiO2 
 PCOD9212758
Probable space group: C 2/M
;
_chemical_formula_sum "Si O2"
_cell_formula_units_Z 22
_cell_length_a 13.717426
_cell_length_b 9.911841
_cell_length_c 12.398858
_cell_angle_alpha 90.000000
_cell_angle_beta 31.311576
_cell_angle_gamma 90.000000
_cell_volume 876.101551
_symmetry_space_group_name_H-M "C 2/M"
_symmetry_group_IT_number 12
_symmetry_cell_setting 'monoclinic'
loop_
_space_group_symop_operation_xyz
x,y,z
-x,y,-z
-x,-y,-z
x,-y,z
1/2+x,1/2+y,z
1/2-x,1/2+y,-z
1/2-x,1/2-y,-z
1/2+x,1/2-y,z
loop_
_atom_site_type_symbol
_atom_site_label
_atom_site_fract_x
_atom_site_fract_y
_atom_site_fract_z
Si Si1 0.334478 0.000000 0.919209
Si Si2 0.928889 0.000000 0.189817
Si Si3 0.628935 0.500000 0.480670
Si Si4 0.500000 0.000000 0.000000
Si Si5 0.083471 0.697375 0.542560
O O1 0.119759 0.000000 0.079446
O O2 0.445879 0.875490 0.757292
O O3 0.345578 0.000000 0.038653
O O4 0.785344 0.874807 0.341086
O O5 0.000000 0.000000 0.000000
O O6 0.500000 0.500000 0.500000
O O7 0.838594 0.500000 0.239692
O O8 0.602064 0.353067 0.555672
O O9 0.000000 0.686412 0.500000
#
# Coordination Sequence:
#
# PCOD9212758 Si02
#       5
#     4   4   4   2   8
#     4  11  24  46  76 113 148 201 257 316 382 452
#     4  11  19  38  81 116 147 191 259 319 379 450
#     4  10  26  47  72 106 159 201 248 314 386 459
#     4  12  30  48  70 110 160 204 258 308 382 470
#     4  10  21  43  76 114 151 193 253 322 383 452
#
# _framework density 25.111243999999999
#
# number of rings (size 3 to 8) (size 9 to 14) (size 15 to 20)
#    0.000    1.455    3.636    1.091    2.545    4.364 
#    0.000   12.727    0.000    3.273    0.000    2.545 
#    0.000    0.000    0.000    0.000    0.000    0.000 
#
# Total GULP energy -61328.622836 kJ/mol
# GULP energy per Si atom -5575.329349 kJ/mol
# Density = 2.505409 g / cm^3
# Si number density = 25.111244 Si / 1000 Ang^3
#
#
#
# Elastic Constant Matrix: (Units=GPa)
#
#
# Indices 1 2 3 4 5 6 
#
# 1 260.5571 55.7220 90.1915 0.0000 7.0691 0.0001
# 2 55.7220 249.3253 103.9196 0.0000 -13.8033 0.0000
# 3 90.1915 103.9196 173.8251 0.0000 -14.7754 0.0001
# 4 0.0000 0.0000 0.0000 19.2913 0.0000 -18.3436
# 5 7.0691 -13.8033 -14.7754 0.0000 74.6309 -0.0001
# 6 0.0001 0.0000 0.0001 -18.3436 -0.0001 34.8991
#
#
#
# Elastic Compliance Matrix: (Units=1/GPa)
#
#
# Indices 1 2 3 4 5 6 
#
# 1 0.004745 -0.000071 -0.002501 0.000000 -0.000958 0.000000
# 2 -0.000071 0.005353 -0.003131 0.000000 0.000377 0.000000
# 3 -0.002501 -0.003131 0.009046 0.000000 0.001449 0.000000
# 4 0.000000 0.000000 0.000000 0.103632 0.000000 0.054471
# 5 -0.000958 0.000377 0.001449 0.000000 0.013846 0.000000
# 6 0.000000 0.000000 0.000000 0.054471 0.000000 0.057285
#
#
# Mechanical properties :
#
#
# Convention : Reuss Voigt Hill
#
# Bulk Modulus (GPa) = 129.25007 131.48597 130.36802
# Shear Modulus (GPa) = 24.05098 54.68921 39.37010
#
# Velocity S-wave (km/s) = 3.09816 4.67184 3.96388
# Velocity P-wave (km/s) = 8.02377 9.03197 8.54275
#
# Compressibility (1/GPa) = 0.00773694
#
# Stress axis : x y z
#
# Youngs Moduli (GPa) = 210.75877 186.82417 110.55217
#
# Poissons Ratio (x) = 0.01328 0.27647
# Poissons Ratio (y) = 0.01498 0.34615
# Poissons Ratio (z) = 0.52706 0.58496
#
# Static dielectric constant tensor:
#      x y z
#    x 2.056600 0.000000 -0.007210 
#    y 0.000000 2.143990 0.000000 
#    z -0.007210 0.000000 1.916930 
# 
# From -- ./inp_files/139348.got.cif
#   From: 2010.05.17/outbox.cif.g08.bks.cpg/sg12_70_cif.got.tgz:139348.got - 2010.06.03 13:09:07.
