data_PCOD9212549
_publ_section_title
;
Structure prediction by ZEFSAII (Michael W. Deem and Ramdas Pophale) SiO2 
 PCOD9212549
Probable space group: C 2/M
;
_chemical_formula_sum "Si O2"
_cell_formula_units_Z 46
_cell_length_a 16.772615
_cell_length_b 28.117973
_cell_length_c 5.178608
_cell_angle_alpha 90.000000
_cell_angle_beta 61.334751
_cell_angle_gamma 90.000000
_cell_volume 2142.959197
_symmetry_space_group_name_H-M "C 2/M"
_symmetry_group_IT_number 12
_symmetry_cell_setting 'monoclinic'
loop_
_space_group_symop_operation_xyz
x,y,z
-x,y,-z
-x,-y,-z
x,-y,z
1/2+x,1/2+y,z
1/2-x,1/2+y,-z
1/2-x,1/2-y,-z
1/2+x,1/2-y,z
loop_
_atom_site_type_symbol
_atom_site_label
_atom_site_fract_x
_atom_site_fract_y
_atom_site_fract_z
Si Si1 0.500000 0.000000 0.500000
Si Si2 0.780540 0.146140 0.122299
Si Si3 0.591001 0.931514 0.008804
Si Si4 0.563705 0.500000 0.651878
Si Si5 0.712172 0.418394 0.392720
Si Si6 0.561331 0.277880 0.146910
Si Si7 0.907595 0.672717 0.803198
O O1 0.574684 0.958031 0.304003
O O2 0.792338 0.121635 0.380053
O O3 0.679930 0.167475 0.243175
O O4 0.790759 0.106466 0.882996
O O5 0.854349 0.186893 0.962806
O O6 0.591444 0.874527 0.025191
O O7 0.500000 0.947807 0.000000
O O8 0.688785 0.943390 0.740549
O O9 0.500000 0.500000 0.500000
O O10 0.629915 0.454598 0.548928
O O11 0.500000 0.500000 0.000000
O O12 0.500000 0.279277 0.500000
O O13 0.594452 0.223499 0.054650
O O14 0.500000 0.292081 0.000000
O O15 0.000000 0.671043 0.500000
#
# Coordination Sequence:
#
# PCOD9212549 Si02
#       7
#     2   8   8   4   8   8   8
#     4  12  24  38  64  98 128 174 222 262 334 410
#     4  11  24  43  69 100 136 177 229 284 342 399
#     4  11  23  42  66  99 136 177 219 273 345 408
#     4  12  27  49  71  97 130 180 226 281 350 397
#     4  11  26  45  70 101 135 177 227 287 338 419
#     4  11  24  41  67 100 135 181 232 286 341 405
#     4  10  21  42  66  95 140 180 224 272 343 415
#
# _framework density 21.465646
#
# number of rings (size 3 to 8) (size 9 to 14) (size 15 to 20)
#    0.000    1.043    0.870    4.957    2.435    8.348 
#    3.130    8.696    0.000    0.000    0.000    0.000 
#    0.000    0.000    0.000    0.000    0.000    0.000 
#
# Total GULP energy -128409.243538 kJ/mol
# GULP energy per Si atom -5583.010589 kJ/mol
# Density = 2.141679 g / cm^3
# Si number density = 21.465646 Si / 1000 Ang^3
#
#
#
# Elastic Constant Matrix: (Units=GPa)
#
#
# Indices 1 2 3 4 5 6 
#
# 1 143.2086 43.4433 38.0875 0.0000 -30.9837 0.0000
# 2 43.4433 97.1308 28.4365 0.0000 -34.6997 0.0000
# 3 38.0875 28.4365 106.0351 0.0000 -24.1069 0.0000
# 4 0.0000 0.0000 0.0000 11.0645 0.0000 29.7793
# 5 -30.9837 -34.6997 -24.1069 0.0000 43.3922 0.0000
# 6 0.0000 0.0000 0.0000 29.7793 0.0000 5.5507
#
#
#
# Elastic Compliance Matrix: (Units=1/GPa)
#
#
# Indices 1 2 3 4 5 6 
#
# 1 0.008900 -0.002158 -0.001792 0.000000 0.003634 0.000000
# 2 -0.002158 0.015127 -0.001009 0.000000 0.009995 0.000000
# 3 -0.001792 -0.001009 0.011298 0.000000 0.004190 0.000000
# 4 0.000000 0.000000 0.000000 -0.006725 0.000000 0.036079
# 5 0.003634 0.009995 0.004190 0.000000 0.035961 0.000000
# 6 0.000000 0.000000 0.000000 0.036079 0.000000 -0.013405
#
#
# Mechanical properties :
#
#
# Convention : Reuss Voigt Hill
#
# Bulk Modulus (GPa) = 39.36041 62.92324 51.14182
# Shear Modulus (GPa) = 71.89839 27.76196 49.83018
#
# Velocity S-wave (km/s) = 5.79373 3.60018 4.82331
# Velocity P-wave (km/s) = 7.94561 6.83073 7.40917
#
# Compressibility (1/GPa) = 0.02540624
#
# Stress axis : x y z
#
# Youngs Moduli (GPa) = 112.35617 66.10827 88.51309
#
# Poissons Ratio (x) = 0.14266 0.15862
# Poissons Ratio (y) = 0.24246 0.08933
# Poissons Ratio (z) = 0.20135 0.06672
#
# Static dielectric constant tensor:
#      x y z
#    x 1.808640 0.000000 0.030490 
#    y 0.000000 1.771600 0.000000 
#    z 0.030490 0.000000 1.805290 
# 
# From -- ./inp_files/17343.got.cif
#   From: 2010.05.17/outbox.cif.g08.bks.cpg/sg12_9_cif.got.tgz:17343.got - 2010.06.03 13:09:07.
