data_PCOD9212525
_publ_section_title
;
Structure prediction by ZEFSAII (Michael W. Deem and Ramdas Pophale) SiO2 
 PCOD9212525
Probable space group: C 2/M
;
_chemical_formula_sum "Si O2"
_cell_formula_units_Z 40
_cell_length_a 13.092882
_cell_length_b 14.588362
_cell_length_c 18.358838
_cell_angle_alpha 90.000000
_cell_angle_beta 29.256000
_cell_angle_gamma 90.000000
_cell_volume 1713.722571
_symmetry_space_group_name_H-M "C 2/M"
_symmetry_group_IT_number 12
_symmetry_cell_setting 'monoclinic'
loop_
_space_group_symop_operation_xyz
x,y,z
-x,y,-z
-x,-y,-z
x,-y,z
1/2+x,1/2+y,z
1/2-x,1/2+y,-z
1/2-x,1/2-y,-z
1/2+x,1/2-y,z
loop_
_atom_site_type_symbol
_atom_site_label
_atom_site_fract_x
_atom_site_fract_y
_atom_site_fract_z
Si Si1 0.073220 0.694736 0.153058
Si Si2 0.233948 0.500000 0.439213
Si Si3 0.362445 0.100626 0.158291
Si Si4 0.245643 0.500000 0.257088
Si Si5 0.297077 0.810519 0.759464
Si Si6 0.741401 0.191198 0.433459
O O1 0.145929 0.675306 0.190385
O O2 0.999219 0.612910 0.147038
O O3 0.870699 0.759913 0.291006
O O4 0.250000 0.750000 0.000000
O O5 0.231133 0.500000 0.353316
O O6 0.342686 0.594081 0.390544
O O7 0.998329 0.500000 0.618427
O O8 0.263210 0.203186 0.210483
O O9 0.251710 0.000000 0.233218
O O10 0.500000 0.094675 0.000000
O O11 0.339888 0.401534 0.174516
O O12 0.493888 0.822384 0.581945
O O13 0.750000 0.250000 0.500000
#
# Coordination Sequence:
#
# PCOD9212525 Si02
#       6
#     8   4   8   4   8   8
#     4  11  22  41  63  90 128 174 213 265 322 386
#     4   9  16  34  57  90 116 162 200 252 323 379
#     4  11  24  43  66  94 133 176 216 266 328 395
#     4   9  18  32  66  87 122 154 203 272 320 363
#     4  10  21  42  65  95 128 165 216 272 323 385
#     4   9  20  38  61  93 126 163 210 266 315 385
#
# _framework density 23.341000000000001
#
# number of rings (size 3 to 8) (size 9 to 14) (size 15 to 20)
#    0.000    2.000    2.000    1.200    1.400    2.400 
#   10.800    1.500    0.000    0.000    0.000    0.000 
#    0.000    0.000    0.000    0.000    0.000    0.000 
#
# Total GULP energy -111338.281195 kJ/mol
# GULP energy per Si atom -5566.914060 kJ/mol
# Density = 2.328788 g / cm^3
# Si number density = 23.341000 Si / 1000 Ang^3
#
#
#
# Elastic Constant Matrix: (Units=GPa)
#
#
# Indices 1 2 3 4 5 6 
#
# 1 84.9672 51.5365 14.3655 -0.0034 33.8011 -0.0004
# 2 51.5365 236.4267 34.7397 0.0220 16.2867 0.0040
# 3 14.3655 34.7397 119.8027 0.0205 22.7082 0.0020
# 4 -0.0034 0.0220 0.0205 -13.3422 -0.0046 -30.0529
# 5 33.8011 16.2867 22.7082 -0.0046 30.1666 -0.0010
# 6 -0.0004 0.0040 0.0020 -30.0529 -0.0010 8.1891
#
#
#
# Elastic Compliance Matrix: (Units=1/GPa)
#
#
# Indices 1 2 3 4 5 6 
#
# 1 0.024893 -0.003992 0.003559 0.000000 -0.028416 0.000001
# 2 -0.003992 0.005130 -0.001553 0.000001 0.002872 0.000002
# 3 0.003559 -0.001553 0.010460 0.000002 -0.011023 0.000006
# 4 0.000000 0.000001 0.000002 -0.008088 -0.000005 -0.029684
# 5 -0.028416 0.002872 -0.011023 -0.000005 0.071735 -0.000011
# 6 0.000001 0.000002 0.000006 -0.029684 -0.000011 0.013178
#
#
# Mechanical properties :
#
#
# Convention : Reuss Voigt Hill
#
# Bulk Modulus (GPa) = 27.38940 71.38666 49.38803
# Shear Modulus (GPa) = 37.46693 27.70635 32.58664
#
# Velocity S-wave (km/s) = 4.01084 3.44906 3.74051
# Velocity P-wave (km/s) = 5.76273 6.81997 6.31352
#
# Compressibility (1/GPa) = 0.03651048
#
# Stress axis : x y z
#
# Youngs Moduli (GPa) = 40.17222 194.92695 95.60142
#
# Poissons Ratio (x) = 0.77807 -0.34021
# Poissons Ratio (y) = 0.16035 0.14850
# Poissons Ratio (z) = -0.14296 0.30279
#
# Static dielectric constant tensor:
#      x y z
#    x 2.015840 0.000000 -0.138060 
#    y 0.000000 2.011180 0.000000 
#    z -0.138060 0.000000 1.948230 
# 
# From -- ./inp_files/270531.got.cif
#   From: 2010.05.17/outbox.cif.g08.bks.cpg/sg12_136_cif.got.tgz:270531.got - 2010.06.03 13:09:07.
