data_PCOD9212652
_publ_section_title
;
Structure prediction by ZEFSAII (Michael W. Deem and Ramdas Pophale) SiO2 
 PCOD9212652
Probable space group: C 2/M
;
_chemical_formula_sum "Si O2"
_cell_formula_units_Z 64
_cell_length_a 9.478895
_cell_length_b 29.356129
_cell_length_c 11.215043
_cell_angle_alpha 90.000000
_cell_angle_beta 98.315883
_cell_angle_gamma 90.000000
_cell_volume 3087.926682
_symmetry_space_group_name_H-M "C 2/M"
_symmetry_group_IT_number 12
_symmetry_cell_setting 'monoclinic'
loop_
_space_group_symop_operation_xyz
x,y,z
-x,y,-z
-x,-y,-z
x,-y,z
1/2+x,1/2+y,z
1/2-x,1/2+y,-z
1/2-x,1/2-y,-z
1/2+x,1/2-y,z
loop_
_atom_site_type_symbol
_atom_site_label
_atom_site_fract_x
_atom_site_fract_y
_atom_site_fract_z
Si Si1 0.411450 0.447304 0.139115
Si Si2 0.830921 0.609793 0.462850
Si Si3 0.159539 0.382157 0.016355
Si Si4 0.698055 0.206872 0.184067
Si Si5 0.364836 0.447949 0.414639
Si Si6 0.018701 0.798304 0.139400
Si Si7 0.154149 0.707150 0.458765
Si Si8 0.319371 0.613359 0.797906
O O1 0.405470 0.500000 0.098164
O O2 0.280407 0.416509 0.078617
O O3 0.394708 0.447527 0.279791
O O4 0.564789 0.423132 0.138883
O O5 0.769333 0.580289 0.562072
O O6 0.785262 0.661860 0.473984
O O7 0.764526 0.595178 0.328044
O O8 0.000000 0.608633 0.500000
O O9 0.158583 0.335988 0.095195
O O10 0.206755 0.373284 0.886332
O O11 0.000000 0.401608 0.000000
O O12 0.615986 0.253425 0.142465
O O13 0.656241 0.198610 0.316812
O O14 0.867518 0.212840 0.182147
O O15 0.500000 0.427795 0.500000
O O16 0.346900 0.500000 0.453290
O O17 0.091831 0.840447 0.215897
O O18 0.000000 0.814582 0.000000
O O19 0.250000 0.750000 0.500000
O O20 0.000000 0.714637 0.500000
#
# Coordination Sequence:
#
# PCOD9212652 Si02
#       8
#     8   8   8   8   8   8   8   8
#     4  11  24  48  76 103 140 184 237 296 351 422
#     4  11  26  42  68  99 142 182 224 286 359 408
#     4  12  28  44  71 102 142 184 235 291 355 414
#     4  12  25  43  70  99 146 184 236 291 355 416
#     4  10  21  42  71 104 133 173 229 280 347 423
#     4  12  24  43  66 104 141 184 237 287 348 417
#     4  11  25  44  64  97 138 181 235 284 345 417
#     4  12  25  46  68 103 139 184 240 287 341 434
#
# _framework density 20.725881000000001
#
# number of rings (size 3 to 8) (size 9 to 14) (size 15 to 20)
#    0.000    0.625    3.750    3.375    7.000    2.000 
#    0.000    0.000    0.000    0.000    0.000    0.000 
#    0.000    0.000    0.000    0.000    0.000    0.000 
#
# Total GULP energy -178906.230339 kJ/mol
# GULP energy per Si atom -5590.819698 kJ/mol
# Density = 2.067871 g / cm^3
# Si number density = 20.725881 Si / 1000 Ang^3
#
#
#
# Elastic Constant Matrix: (Units=GPa)
#
#
# Indices 1 2 3 4 5 6 
#
# 1 120.5649 42.2498 36.8500 0.0000 -14.2766 0.0000
# 2 42.2498 84.0004 -8.6245 0.0000 -4.9172 0.0000
# 3 36.8500 -8.6245 59.1097 0.0000 -16.2310 0.0000
# 4 0.0000 0.0000 0.0000 24.7092 0.0000 -3.1680
# 5 -14.2766 -4.9172 -16.2310 0.0000 39.7553 0.0000
# 6 0.0000 0.0000 0.0000 -3.1680 0.0000 25.0004
#
#
#
# Elastic Compliance Matrix: (Units=1/GPa)
#
#
# Indices 1 2 3 4 5 6 
#
# 1 0.014249 -0.008203 -0.010084 0.000000 -0.000015 0.000000
# 2 -0.008203 0.017032 0.008299 0.000000 0.002549 0.000000
# 3 -0.010084 0.008299 0.026696 0.000000 0.008304 0.000000
# 4 0.000000 0.000000 0.000000 0.041139 0.000000 0.005213
# 5 -0.000015 0.002549 0.008304 0.000000 0.028854 0.000000
# 6 0.000000 0.000000 0.000000 0.005213 0.000000 0.040660
#
#
# Mechanical properties :
#
#
# Convention : Reuss Voigt Hill
#
# Bulk Modulus (GPa) = 26.31574 44.95840 35.63707
# Shear Modulus (GPa) = 24.84176 30.77297 27.80737
#
# Velocity S-wave (km/s) = 3.46582 3.85744 3.66686
# Velocity P-wave (km/s) = 5.36101 6.44816 5.92956
#
# Compressibility (1/GPa) = 0.03800007
#
# Stress axis : x y z
#
# Youngs Moduli (GPa) = 70.17812 58.71296 37.45943
#
# Poissons Ratio (x) = 0.48164 0.37775
# Poissons Ratio (y) = 0.57569 -0.31088
# Poissons Ratio (z) = 0.70770 -0.48726
#
# Static dielectric constant tensor:
#      x y z
#    x 1.804050 0.000000 0.001580 
#    y 0.000000 1.724580 0.000000 
#    z 0.001580 0.000000 1.779850 
# 
# From -- ./inp_files/125731.got.cif
#   From: 2010.05.17/outbox.cif.g08.bks.cpg/sg12_63_cif.got.tgz:125731.got - 2010.06.03 13:09:07.
