data_PCOD9212856
_publ_section_title
;
Structure prediction by ZEFSAII (Michael W. Deem and Ramdas Pophale) SiO2 
 PCOD9212856
Probable space group: C 2/M
;
_chemical_formula_sum "Si O2"
_cell_formula_units_Z 56
_cell_length_a 9.573039
_cell_length_b 30.690491
_cell_length_c 21.669053
_cell_angle_alpha 90.000000
_cell_angle_beta 26.923173
_cell_angle_gamma 90.000000
_cell_volume 2882.674192
_symmetry_space_group_name_H-M "C 2/M"
_symmetry_group_IT_number 12
_symmetry_cell_setting 'monoclinic'
loop_
_space_group_symop_operation_xyz
x,y,z
-x,y,-z
-x,-y,-z
x,-y,z
1/2+x,1/2+y,z
1/2-x,1/2+y,-z
1/2-x,1/2-y,-z
1/2+x,1/2-y,z
loop_
_atom_site_type_symbol
_atom_site_label
_atom_site_fract_x
_atom_site_fract_y
_atom_site_fract_z
Si Si1 0.326946 0.647252 0.715226
Si Si2 0.190218 0.409597 0.664558
Si Si3 0.776027 0.204346 0.027603
Si Si4 0.373684 0.000000 0.358382
Si Si5 0.755543 0.848843 0.228496
Si Si6 0.280593 0.293035 0.526822
Si Si7 0.782586 0.500000 0.645299
Si Si8 0.300275 0.401738 0.335891
O O1 0.263380 0.601287 0.705856
O O2 0.584036 0.669636 0.570776
O O3 0.456997 0.631436 0.728999
O O4 0.052903 0.682665 0.825515
O O5 0.500000 0.405730 0.500000
O O6 0.039046 0.455819 0.710138
O O7 0.949980 0.372666 0.741348
O O8 0.926013 0.167577 0.924137
O O9 0.750000 0.250000 0.000000
O O10 0.000000 0.209421 0.000000
O O11 0.000000 0.000000 0.500000
O O12 0.507606 0.000000 0.374908
O O13 0.562585 0.805848 0.319447
O O14 0.745173 0.881134 0.290540
O O15 0.500000 0.288981 0.500000
O O16 0.250000 0.250000 0.500000
O O17 0.614068 0.452905 0.707438
O O18 0.000000 0.500000 0.500000
O O19 0.000000 0.400909 0.500000
#
# Coordination Sequence:
#
# PCOD9212856 Si02
#       8
#     8   8   8   4   8   8   4   8
#     4  12  24  42  65  92 130 167 216 264 318 389
#     4  11  19  39  64  95 129 169 213 261 323 372
#     4  12  28  47  67  94 129 170 221 270 324 390
#     4  10  22  32  62  99 135 169 209 264 322 383
#     4  12  22  42  66  89 131 169 211 263 320 384
#     4  12  24  39  61  90 121 159 210 272 323 372
#     4  10  22  36  56 101 140 164 206 269 319 382
#     4  11  23  39  68  99 135 170 212 262 323 383
#
# _framework density 19.426407000000001
#
# number of rings (size 3 to 8) (size 9 to 14) (size 15 to 20)
#    0.000    0.571    7.143    0.857   10.000    0.000 
#    0.000    0.000    0.000    5.143    0.000    0.000 
#    0.000    0.000    0.000    0.000    0.000    0.000 
#
# Total GULP energy -156148.752705 kJ/mol
# GULP energy per Si atom -5576.741168 kJ/mol
# Density = 1.938219 g / cm^3
# Si number density = 19.426407 Si / 1000 Ang^3
#
#
#
# Elastic Constant Matrix: (Units=GPa)
#
#
# Indices 1 2 3 4 5 6 
#
# 1 60.3170 21.2729 1.5839 -0.0013 -0.6778 0.0007
# 2 21.2729 105.7087 -1.4203 0.0005 2.6167 -0.0007
# 3 1.5839 -1.4203 41.2441 -0.0028 0.8672 -0.0004
# 4 -0.0013 0.0005 -0.0028 23.6434 0.0007 -5.9496
# 5 -0.6778 2.6167 0.8672 0.0007 19.7504 -0.0003
# 6 0.0007 -0.0007 -0.0004 -5.9496 -0.0003 51.3339
#
#
#
# Elastic Compliance Matrix: (Units=1/GPa)
#
#
# Indices 1 2 3 4 5 6 
#
# 1 0.017898 -0.003641 -0.000837 0.000001 0.001133 0.000000
# 2 -0.003641 0.010237 0.000524 0.000000 -0.001504 0.000000
# 3 -0.000837 0.000524 0.024321 0.000003 -0.001166 0.000001
# 4 0.000001 0.000000 0.000003 0.043566 -0.000001 0.005049
# 5 0.001133 -0.001504 -0.001166 -0.000001 0.050921 0.000000
# 6 0.000000 0.000000 0.000001 0.005049 0.000000 0.020066
#
#
# Mechanical properties :
#
#
# Convention : Reuss Voigt Hill
#
# Bulk Modulus (GPa) = 22.44759 27.79362 25.12060
# Shear Modulus (GPa) = 26.34841 31.33441 28.84141
#
# Velocity S-wave (km/s) = 3.68682 4.02055 3.85730
# Velocity P-wave (km/s) = 5.45012 5.99093 5.72691
#
# Compressibility (1/GPa) = 0.04454821
#
# Stress axis : x y z
#
# Youngs Moduli (GPa) = 55.87238 97.68515 41.11740
#
# Poissons Ratio (x) = 0.35568 0.03440
# Poissons Ratio (y) = 0.20344 -0.02154
# Poissons Ratio (z) = 0.04674 -0.05119
#
# Static dielectric constant tensor:
#      x y z
#    x 1.732740 -0.000030 -0.051290 
#    y -0.000030 1.814880 0.000070 
#    z -0.051290 0.000070 1.667490 
# 
# From -- ./inp_files/303021.got.cif
#   From: 2010.05.17/outbox.cif.g08.bks.cpg/sg12_152_cif.got.tgz:303021.got - 2010.06.03 13:09:07.
