data_PCOD9212206
_publ_section_title
;
Structure prediction by ZEFSAII (Michael W. Deem and Ramdas Pophale) SiO2 
 PCOD9212206
Probable space group: C 2/M
;
_chemical_formula_sum "Si O2"
_cell_formula_units_Z 48
_cell_length_a 15.100364
_cell_length_b 17.991978
_cell_length_c 15.942968
_cell_angle_alpha 90.000000
_cell_angle_beta 35.639457
_cell_angle_gamma 90.000000
_cell_volume 2523.874082
_symmetry_space_group_name_H-M "C 2/M"
_symmetry_group_IT_number 12
_symmetry_cell_setting 'monoclinic'
loop_
_space_group_symop_operation_xyz
x,y,z
-x,y,-z
-x,-y,-z
x,-y,z
1/2+x,1/2+y,z
1/2-x,1/2+y,-z
1/2-x,1/2-y,-z
1/2+x,1/2-y,z
loop_
_atom_site_type_symbol
_atom_site_label
_atom_site_fract_x
_atom_site_fract_y
_atom_site_fract_z
Si Si1 0.564622 0.911322 0.541830
Si Si2 0.160043 0.411772 0.131651
Si Si3 0.971520 0.647699 0.116462
Si Si4 0.659745 0.412316 0.424238
Si Si5 0.834055 0.825747 0.408395
Si Si6 0.603794 0.293626 0.078387
O O1 0.500000 0.894368 0.500000
O O2 0.451220 0.890359 0.705483
O O3 0.720773 0.868615 0.434109
O O4 0.587622 0.000000 0.530192
O O5 0.182872 0.500000 0.116463
O O6 0.074431 0.390709 0.110143
O O7 0.318878 0.367744 0.017377
O O8 0.797802 0.630410 0.273323
O O9 0.014103 0.735096 0.089520
O O10 0.000000 0.620771 0.000000
O O11 0.500000 0.404227 0.500000
O O12 0.698010 0.500000 0.399367
O O13 0.644638 0.377342 0.527412
O O14 0.750000 0.750000 0.500000
O O15 0.991455 0.810644 0.241233
O O16 0.750000 0.250000 0.000000
#
# Coordination Sequence:
#
# PCOD9212206 Si02
#       6
#     8   8   8   8   8   8
#     4  10  22  42  68  94 124 170 220 268 324 379
#     4  10  21  41  65  93 132 169 212 271 325 386
#     4  11  23  42  64  93 134 176 214 258 326 395
#     4  11  25  42  64  99 135 169 218 272 324 389
#     4  12  22  42  67  93 127 170 215 270 324 379
#     4  10  23  41  61  90 128 171 216 257 320 387
#
# _framework density 19.018381000000002
#
# number of rings (size 3 to 8) (size 9 to 14) (size 15 to 20)
#    0.000    1.333    3.333    2.000    4.667    4.667 
#    0.000    0.000    0.000    3.500    0.000    0.000 
#    0.000    0.000    0.000    0.000    0.000    0.000 
#
# Total GULP energy -134033.628821 kJ/mol
# GULP energy per Si atom -5584.734534 kJ/mol
# Density = 1.897509 g / cm^3
# Si number density = 19.018381 Si / 1000 Ang^3
#
#
#
# Elastic Constant Matrix: (Units=GPa)
#
#
# Indices 1 2 3 4 5 6 
#
# 1 105.4665 56.7063 58.9330 -0.0003 4.7035 -0.0004
# 2 56.7063 72.9380 51.3750 -0.0002 -10.6878 -0.0002
# 3 58.9330 51.3750 161.2937 -0.0005 -11.2509 0.0000
# 4 -0.0003 -0.0002 -0.0005 39.4322 0.0003 -0.1869
# 5 4.7035 -10.6878 -11.2509 0.0003 34.0246 0.0005
# 6 -0.0004 -0.0002 0.0000 -0.1869 0.0005 42.0449
#
#
#
# Elastic Compliance Matrix: (Units=1/GPa)
#
#
# Indices 1 2 3 4 5 6 
#
# 1 0.018940 -0.013698 -0.003112 0.000000 -0.007950 0.000000
# 2 -0.013698 0.028071 -0.003264 0.000000 0.009632 0.000000
# 3 -0.003112 -0.003264 0.008532 0.000000 0.002226 0.000000
# 4 0.000000 0.000000 0.000000 0.025361 0.000000 0.000113
# 5 -0.007950 0.009632 0.002226 0.000000 0.034251 0.000000
# 6 0.000000 0.000000 0.000000 0.000113 0.000000 0.023785
#
#
# Mechanical properties :
#
#
# Convention : Reuss Voigt Hill
#
# Bulk Modulus (GPa) = 64.95911 74.85856 69.90883
# Shear Modulus (GPa) = 27.14162 34.61260 30.87711
#
# Velocity S-wave (km/s) = 3.78183 4.27072 4.03369
# Velocity P-wave (km/s) = 7.30067 7.98532 7.65066
#
# Compressibility (1/GPa) = 0.01539430
#
# Stress axis : x y z
#
# Youngs Moduli (GPa) = 52.79758 35.62426 117.20920
#
# Poissons Ratio (x) = 0.48800 0.36472
# Poissons Ratio (y) = 0.72325 0.38258
# Poissons Ratio (z) = 0.16429 0.11628
#
# Static dielectric constant tensor:
#      x y z
#    x 1.646620 0.000000 0.006940 
#    y 0.000000 1.676930 0.000000 
#    z 0.006940 0.000000 1.636930 
# 
# From -- ./inp_files/88158.got.cif
#   From: 2010.05.17/outbox.cif.g08.bks.cpg/sg12_45_cif.got.tgz:88158.got - 2010.06.03 13:09:07.
