data_PCOD9212770
_publ_section_title
;
Structure prediction by ZEFSAII (Michael W. Deem and Ramdas Pophale) SiO2 
 PCOD9212770
Probable space group: C 2/M
;
_chemical_formula_sum "Si O2"
_cell_formula_units_Z 48
_cell_length_a 9.239543
_cell_length_b 29.345786
_cell_length_c 17.203910
_cell_angle_alpha 90.000000
_cell_angle_beta 149.538057
_cell_angle_gamma 90.000000
_cell_volume 2364.842281
_symmetry_space_group_name_H-M "C 2/M"
_symmetry_group_IT_number 12
_symmetry_cell_setting 'monoclinic'
loop_
_space_group_symop_operation_xyz
x,y,z
-x,y,-z
-x,-y,-z
x,-y,z
1/2+x,1/2+y,z
1/2-x,1/2+y,-z
1/2-x,1/2-y,-z
1/2+x,1/2-y,z
loop_
_atom_site_type_symbol
_atom_site_label
_atom_site_fract_x
_atom_site_fract_y
_atom_site_fract_z
Si Si1 0.231349 0.310457 0.416283
Si Si2 0.452444 0.052416 0.709391
Si Si3 0.509515 0.446493 0.367664
Si Si4 0.842307 0.124522 0.156045
Si Si5 0.164881 0.867905 0.145977
Si Si6 0.173220 0.209934 0.365782
O O1 0.500000 0.335202 0.500000
O O2 0.154478 0.263346 0.336263
O O3 0.358630 0.295226 0.557121
O O4 0.946400 0.338866 0.297050
O O5 0.246668 0.058515 0.688427
O O6 0.708822 0.086649 0.832989
O O7 0.284154 0.061445 0.550157
O O8 0.539312 0.000000 0.748059
O O9 0.514240 0.500000 0.344501
O O10 0.471927 0.411299 0.279281
O O11 0.972833 0.118794 0.130486
O O12 0.948578 0.175517 0.225515
O O13 0.500000 0.120450 0.000000
O O14 0.000000 0.842839 0.000000
O O15 0.500000 0.195544 0.500000
#
# Coordination Sequence:
#
# PCOD9212770 Si02
#       6
#     8   8   8   8   8   8
#     4  10  23  40  69  93 120 161 204 258 309 367
#     4   9  20  40  66  95 124 159 205 255 304 367
#     4   9  20  40  67  95 123 160 206 253 308 366
#     4  12  26  41  61  91 131 168 204 256 309 364
#     4  12  26  41  60  94 128 166 209 251 312 371
#     4  10  21  44  65  93 122 156 210 258 306 364
#
# _framework density 20.297338
#
# number of rings (size 3 to 8) (size 9 to 14) (size 15 to 20)
#    0.000    1.667    1.667    3.000    7.000    2.000 
#    0.000    3.333    0.000    0.000    0.000    0.000 
#    0.000    0.000    0.000    0.000    0.000    0.000 
#
# Total GULP energy -133908.997849 kJ/mol
# GULP energy per Si atom -5579.541577 kJ/mol
# Density = 2.025114 g / cm^3
# Si number density = 20.297338 Si / 1000 Ang^3
#
#
#
# Elastic Constant Matrix: (Units=GPa)
#
#
# Indices 1 2 3 4 5 6 
#
# 1 72.9399 11.1771 9.5714 0.0000 2.2822 0.0000
# 2 11.1771 72.4063 21.4753 0.0000 -0.3873 0.0000
# 3 9.5714 21.4753 41.6329 0.0000 10.5940 0.0000
# 4 0.0000 0.0000 0.0000 5.1346 0.0000 11.4618
# 5 2.2822 -0.3873 10.5940 0.0000 30.7160 0.0000
# 6 0.0000 0.0000 0.0000 11.4618 0.0000 17.9865
#
#
#
# Elastic Compliance Matrix: (Units=1/GPa)
#
#
# Indices 1 2 3 4 5 6 
#
# 1 0.014266 -0.001473 -0.002461 0.000000 -0.000230 0.000000
# 2 -0.001473 0.016789 -0.009212 0.000000 0.003498 0.000000
# 3 -0.002461 -0.009212 0.032141 0.000000 -0.011019 0.000000
# 4 0.000000 0.000000 0.000000 -0.460967 0.000000 0.293750
# 5 -0.000230 0.003498 -0.011019 0.000000 0.036418 0.000000
# 6 0.000000 0.000000 0.000000 0.293750 0.000000 -0.131594
#
#
# Mechanical properties :
#
#
# Convention : Reuss Voigt Hill
#
# Bulk Modulus (GPa) = 27.09805 30.15852 28.62829
# Shear Modulus (GPa) = -11.00466 20.41777 4.70656
#
# Velocity S-wave (km/s) = -2.33099 3.17509 1.52441
# Velocity P-wave (km/s) = 2.47687 5.32280 4.15133
#
# Compressibility (1/GPa) = 0.03690303
#
# Stress axis : x y z
#
# Youngs Moduli (GPa) = 70.09739 59.56187 31.11312
#
# Poissons Ratio (x) = 0.08776 0.07658
# Poissons Ratio (y) = 0.10328 0.28661
# Poissons Ratio (z) = 0.17253 0.54867
#
# Static dielectric constant tensor:
#      x y z
#    x 1.730180 0.000000 -0.011640 
#    y 0.000000 1.750570 0.000000 
#    z -0.011640 0.000000 1.732920 
# 
# From -- ./inp_files/260223.got.cif
#   From: 2010.05.17/outbox.cif.g08.bks.cpg/sg12_131_cif.got.tgz:260223.got - 2010.06.03 13:09:07.
