data_PCOD9212958
_publ_section_title
;
Structure prediction by ZEFSAII (Michael W. Deem and Ramdas Pophale) SiO2 
 PCOD9212958
Probable space group: C 2/M
;
_chemical_formula_sum "Si O2"
_cell_formula_units_Z 64
_cell_length_a 29.577373
_cell_length_b 19.275119
_cell_length_c 8.329400
_cell_angle_alpha 90.000000
_cell_angle_beta 138.222748
_cell_angle_gamma 90.000000
_cell_volume 3163.725316
_symmetry_space_group_name_H-M "C 2/M"
_symmetry_group_IT_number 12
_symmetry_cell_setting 'monoclinic'
loop_
_space_group_symop_operation_xyz
x,y,z
-x,y,-z
-x,-y,-z
x,-y,z
1/2+x,1/2+y,z
1/2-x,1/2+y,-z
1/2-x,1/2-y,-z
1/2+x,1/2-y,z
loop_
_atom_site_type_symbol
_atom_site_label
_atom_site_fract_x
_atom_site_fract_y
_atom_site_fract_z
Si Si1 0.447570 0.813905 0.587740
Si Si2 0.297735 0.842413 0.581049
Si Si3 0.650568 0.642853 0.063068
Si Si4 0.096971 0.297430 0.899171
Si Si5 0.233229 0.166993 0.961020
Si Si6 0.644842 0.291589 0.453835
Si Si7 0.074729 0.076658 0.117449
Si Si8 0.649585 0.919804 0.575996
O O1 0.528041 0.807845 0.816191
O O2 0.423729 0.811266 0.338934
O O3 0.406553 0.753338 0.571082
O O4 0.423821 0.887292 0.593201
O O5 0.217354 0.855329 0.356028
O O6 0.314810 0.768474 0.537410
O O7 0.328451 0.900847 0.546199
O O8 0.339025 0.838427 0.856334
O O9 0.595878 0.587469 0.984345
O O10 0.616062 0.717506 0.966495
O O11 0.683536 0.640337 0.971913
O O12 0.195703 0.161991 0.694148
O O13 0.250000 0.250000 0.000000
O O14 0.300898 0.124524 0.176511
O O15 0.602552 0.349543 0.251127
O O16 0.103922 0.000000 0.237713
O O17 0.000000 0.074746 0.000000
O O18 0.654890 0.000000 0.623598
#
# Coordination Sequence:
#
# PCOD9212958 Si02
#       8
#     8   8   8   8   8   8   8   8
#     4  10  22  36  61  88 123 160 206 259 303 385
#     4  10  22  35  65  95 122 152 205 266 314 384
#     4  11  20  37  65  90 122 161 199 270 322 371
#     4  11  20  36  58  96 118 155 211 257 312 367
#     4  11  19  38  65  97 128 153 206 261 317 381
#     4  11  20  37  62  91 122 159 208 259 320 371
#     4  11  26  43  57  85 129 172 217 265 318 378
#     4  10  22  40  59  86 124 168 201 249 315 375
#
# _framework density 20.229315
#
# number of rings (size 3 to 8) (size 9 to 14) (size 15 to 20)
#    0.000    1.375    6.250    1.125    0.000    4.000 
#    0.000    3.125    0.000    1.500    0.000    0.000 
#    0.000    0.000    0.000    0.000    0.000    0.000 
#
# Total GULP energy -178262.833480 kJ/mol
# GULP energy per Si atom -5570.713546 kJ/mol
# Density = 2.018327 g / cm^3
# Si number density = 20.229315 Si / 1000 Ang^3
#
#
#
# Elastic Constant Matrix: (Units=GPa)
#
#
# Indices 1 2 3 4 5 6 
#
# 1 97.7015 14.7339 13.3275 0.0000 23.6275 0.0000
# 2 14.7339 85.2005 2.8399 0.0000 9.9852 0.0000
# 3 13.3275 2.8399 42.5213 0.0000 4.0970 0.0000
# 4 0.0000 0.0000 0.0000 15.3442 0.0000 0.8328
# 5 23.6275 9.9852 4.0970 0.0000 31.4622 0.0000
# 6 0.0000 0.0000 0.0000 0.8328 0.0000 2.9594
#
#
#
# Elastic Compliance Matrix: (Units=1/GPa)
#
#
# Indices 1 2 3 4 5 6 
#
# 1 0.013007 -0.001088 -0.003136 0.000000 -0.009014 0.000000
# 2 -0.001088 0.012290 -0.000185 0.000000 -0.003059 0.000000
# 3 -0.003136 -0.000185 0.024589 0.000000 -0.000788 0.000000
# 4 0.000000 0.000000 0.000000 0.066182 0.000000 -0.018625
# 5 -0.009014 -0.003059 -0.000788 0.000000 0.039627 0.000000
# 6 0.000000 0.000000 0.000000 -0.018625 0.000000 0.343146
#
#
# Mechanical properties :
#
#
# Convention : Reuss Voigt Hill
#
# Bulk Modulus (GPa) = 24.34989 31.91397 28.13193
# Shear Modulus (GPa) = 9.59052 22.92132 16.25592
#
# Velocity S-wave (km/s) = 2.17972 3.36977 2.83783
# Velocity P-wave (km/s) = 4.28929 5.56334 4.96733
#
# Compressibility (1/GPa) = 0.04106795
#
# Stress axis : x y z
#
# Youngs Moduli (GPa) = 76.88111 81.36759 40.66907
#
# Poissons Ratio (x) = 0.08856 0.12752
# Poissons Ratio (y) = 0.08367 0.00752
# Poissons Ratio (z) = 0.24107 0.01505
#
# Static dielectric constant tensor:
#      x y z
#    x 1.878870 0.000000 -0.053740 
#    y 0.000000 1.670390 0.000000 
#    z -0.053740 0.000000 1.788070 
# 
# From -- ./inp_files/112874.got.cif
#   From: 2010.05.17/outbox.cif.g08.bks.cpg/sg12_57_cif.got.tgz:112874.got - 2010.06.03 13:09:07.
