data_PCOD9212170
_publ_section_title
;
Structure prediction by ZEFSAII (Michael W. Deem and Ramdas Pophale) SiO2 
 PCOD9212170
Probable space group: C 2/M
;
_chemical_formula_sum "Si O2"
_cell_formula_units_Z 52
_cell_length_a 13.785920
_cell_length_b 14.532475
_cell_length_c 18.495699
_cell_angle_alpha 90.000000
_cell_angle_beta 138.698539
_cell_angle_gamma 90.000000
_cell_volume 2445.703054
_symmetry_space_group_name_H-M "C 2/M"
_symmetry_group_IT_number 12
_symmetry_cell_setting 'monoclinic'
loop_
_space_group_symop_operation_xyz
x,y,z
-x,y,-z
-x,-y,-z
x,-y,z
1/2+x,1/2+y,z
1/2-x,1/2+y,-z
1/2-x,1/2-y,-z
1/2+x,1/2-y,z
loop_
_atom_site_type_symbol
_atom_site_label
_atom_site_fract_x
_atom_site_fract_y
_atom_site_fract_z
Si Si1 0.333890 0.891899 0.094500
Si Si2 0.191832 0.500000 0.448090
Si Si3 0.917699 0.223465 0.378885
Si Si4 0.878905 0.149023 0.631587
Si Si5 0.538971 0.393442 0.867275
Si Si6 0.647375 0.837839 0.306105
Si Si7 0.255185 0.107997 0.218460
O O1 0.486357 0.836978 0.180086
O O2 0.272465 0.887654 0.142192
O O3 0.367177 0.000000 0.096947
O O4 0.202031 0.855739 0.970575
O O5 0.251241 0.580172 0.537681
O O6 0.151175 0.420635 0.364703
O O7 0.774965 0.162013 0.318060
O O8 0.868714 0.320722 0.317379
O O9 0.000000 0.238699 0.500000
O O10 0.021762 0.169083 0.382446
O O11 0.824395 0.245336 0.632678
O O12 0.980864 0.111677 0.753365
O O13 0.555385 0.500000 0.898148
O O14 0.405040 0.361024 0.843119
O O15 0.281303 0.000000 0.254138
#
# Coordination Sequence:
#
# PCOD9212170 Si02
#       7
#     8   4   8   8   8   8   8
#     4  10  21  42  70  99 134 176 220 273 334 397
#     4  12  26  45  70  95 132 188 212 279 330 387
#     4  12  26  42  63  97 136 175 227 272 322 406
#     4  12  25  45  68  99 133 173 228 271 329 396
#     4  10  21  42  70  99 134 176 220 273 334 397
#     4  12  25  45  68  99 133 173 228 271 329 396
#     4  10  21  41  64  99 135 170 218 273 342 394
#
# _framework density 21.261780999999999
#
# number of rings (size 3 to 8) (size 9 to 14) (size 15 to 20)
#    0.000    0.923    6.154    0.923    0.000    4.000 
#    0.000    0.769    0.000    1.846    0.000    0.000 
#    0.000    0.000    0.000    0.000    0.000    0.000 
#
# Total GULP energy -144847.094633 kJ/mol
# GULP energy per Si atom -5571.042101 kJ/mol
# Density = 2.121339 g / cm^3
# Si number density = 21.261781 Si / 1000 Ang^3
#
#
#
# Elastic Constant Matrix: (Units=GPa)
#
#
# Indices 1 2 3 4 5 6 
#
# 1 47.2288 -18.9010 -1.5892 0.0001 1.1860 0.0000
# 2 -18.9010 64.4774 -5.0328 0.0000 11.7162 0.0000
# 3 -1.5892 -5.0328 79.9947 0.0001 8.0763 0.0001
# 4 0.0001 0.0000 0.0001 30.1006 0.0001 -4.2456
# 5 1.1860 11.7162 8.0763 0.0001 19.1260 0.0001
# 6 0.0000 0.0000 0.0001 -4.2456 0.0001 -5.2696
#
#
#
# Elastic Compliance Matrix: (Units=1/GPa)
#
#
# Indices 1 2 3 4 5 6 
#
# 1 0.024983 0.008878 0.001839 0.000000 -0.007764 0.000000
# 2 0.008878 0.021012 0.002980 0.000000 -0.014681 0.000000
# 3 0.001839 0.002980 0.013496 0.000000 -0.007639 0.000000
# 4 0.000000 0.000000 0.000000 0.029832 0.000000 -0.024035
# 5 -0.007764 -0.014681 -0.007639 0.000000 0.064985 0.000000
# 6 0.000000 0.000000 0.000000 -0.024035 0.000000 -0.170404
#
#
# Mechanical properties :
#
#
# Convention : Reuss Voigt Hill
#
# Bulk Modulus (GPa) = 11.50933 15.62833 13.56883
# Shear Modulus (GPa) = -344.16795 23.27299 -160.44748
#
# Velocity S-wave (km/s) = -12.73668 3.31205 -8.69636
# Velocity P-wave (km/s) = 14.52145 4.68963 9.71802
#
# Compressibility (1/GPa) = 0.08688604
#
# Stress axis : x y z
#
# Youngs Moduli (GPa) = 40.02665 47.59162 74.09554
#
# Poissons Ratio (x) = -0.42252 -0.13624
# Poissons Ratio (y) = -0.35536 -0.22084
# Poissons Ratio (z) = -0.07360 -0.14185
#
# Static dielectric constant tensor:
#      x y z
#    x 1.777510 0.000000 0.053590 
#    y 0.000000 1.792610 0.000000 
#    z 0.053590 0.000000 1.798110 
# 
# From -- ./inp_files/270774.got.cif
#   From: 2010.05.17/outbox.cif.g08.bks.cpg/sg12_136_cif.got.tgz:270774.got - 2010.06.03 13:09:07.
