data_PCOD9212517
_publ_section_title
;
Structure prediction by ZEFSAII (Michael W. Deem and Ramdas Pophale) SiO2 
 PCOD9212517
Probable space group: C 2/M
;
_chemical_formula_sum "Si O2"
_cell_formula_units_Z 56
_cell_length_a 12.796930
_cell_length_b 30.864564
_cell_length_c 8.117689
_cell_angle_alpha 90.000000
_cell_angle_beta 65.311262
_cell_angle_gamma 90.000000
_cell_volume 2913.174122
_symmetry_space_group_name_H-M "C 2/M"
_symmetry_group_IT_number 12
_symmetry_cell_setting 'monoclinic'
loop_
_space_group_symop_operation_xyz
x,y,z
-x,y,-z
-x,-y,-z
x,-y,z
1/2+x,1/2+y,z
1/2-x,1/2+y,-z
1/2-x,1/2-y,-z
1/2+x,1/2-y,z
loop_
_atom_site_type_symbol
_atom_site_label
_atom_site_fract_x
_atom_site_fract_y
_atom_site_fract_z
Si Si1 0.551492 0.813852 0.299010
Si Si2 0.000000 0.261630 0.000000
Si Si3 0.295455 0.708864 0.074546
Si Si4 0.785218 0.451277 0.962373
Si Si5 0.482177 0.086216 0.327172
Si Si6 0.406790 0.378556 0.912871
Si Si7 0.000000 0.911252 0.500000
Si Si8 0.745796 0.452117 0.378129
O O1 0.500000 0.794278 0.500000
O O2 0.525505 0.789861 0.144607
O O3 0.687833 0.811861 0.235926
O O4 0.507353 0.862629 0.307866
O O5 0.894913 0.230291 0.115895
O O6 0.250000 0.750000 0.000000
O O7 0.350199 0.669101 0.939248
O O8 0.765304 0.500000 0.906231
O O9 0.691500 0.414446 0.975744
O O10 0.767349 0.454362 0.169092
O O11 0.916555 0.436515 0.843571
O O12 0.500000 0.069924 0.500000
O O13 0.349687 0.077662 0.371627
O O14 0.459320 0.387958 0.696626
O O15 0.500000 0.378766 0.000000
O O16 0.885802 0.937144 0.517623
O O17 0.760283 0.500000 0.441648
#
# Coordination Sequence:
#
# PCOD9212517 Si02
#       8
#     8   4   8   8   8   8   4   8
#     4  10  23  40  63  95 126 163 209 257 314 386
#     4  10  22  40  66  90 122 170 202 262 326 368
#     4  10  21  42  65  92 127 163 210 262 320 384
#     4  10  22  40  62  91 125 171 218 260 323 381
#     4  11  23  37  61  94 129 167 212 262 321 378
#     4  11  23  43  67  92 130 170 212 274 319 385
#     4  10  25  42  66  94 124 174 218 258 327 382
#     4  10  22  40  62  90 127 168 216 268 313 378
#
# _framework density 19.223019000000001
#
# number of rings (size 3 to 8) (size 9 to 14) (size 15 to 20)
#    0.000    1.714    2.143    1.071    4.000    4.857 
#    5.143    0.000    0.000    0.000    0.000    0.000 
#    0.000    0.000    0.000    0.000    0.000    0.000 
#
# Total GULP energy -155939.432080 kJ/mol
# GULP energy per Si atom -5569.265431 kJ/mol
# Density = 1.917927 g / cm^3
# Si number density = 19.223019 Si / 1000 Ang^3
#
#
#
# Elastic Constant Matrix: (Units=GPa)
#
#
# Indices 1 2 3 4 5 6 
#
# 1 112.0287 49.3419 33.6931 0.0000 -27.2887 0.0000
# 2 49.3419 108.7907 25.9203 0.0000 -13.7005 0.0000
# 3 33.6931 25.9203 94.5842 0.0000 -18.3087 0.0000
# 4 0.0000 0.0000 0.0000 -17.8407 0.0000 10.9107
# 5 -27.2887 -13.7005 -18.3087 0.0000 33.9876 0.0000
# 6 0.0000 0.0000 0.0000 10.9107 0.0000 21.2074
#
#
#
# Elastic Compliance Matrix: (Units=1/GPa)
#
#
# Indices 1 2 3 4 5 6 
#
# 1 0.013499 -0.004651 -0.002008 0.000000 0.007881 0.000000
# 2 -0.004651 0.011682 -0.001514 0.000000 0.000159 0.000000
# 3 -0.002008 -0.001514 0.012585 0.000000 0.004557 0.000000
# 4 0.000000 0.000000 0.000000 -0.042637 0.000000 0.021936
# 5 0.007881 0.000159 0.004557 0.000000 0.038269 0.000000
# 6 0.000000 0.000000 0.000000 0.021936 0.000000 0.035868
#
#
# Mechanical properties :
#
#
# Convention : Reuss Voigt Hill
#
# Bulk Modulus (GPa) = 46.68724 59.25713 52.97219
# Shear Modulus (GPa) = 53.90671 21.23407 37.57039
#
# Velocity S-wave (km/s) = 5.30129 3.32718 4.42571
# Velocity P-wave (km/s) = 7.86203 6.75672 7.33023
#
# Compressibility (1/GPa) = 0.02141913
#
# Stress axis : x y z
#
# Youngs Moduli (GPa) = 74.08130 85.59983 79.46059
#
# Poissons Ratio (x) = 0.39815 0.15958
# Poissons Ratio (y) = 0.34457 0.12028
# Poissons Ratio (z) = 0.14878 0.12958
#
# Static dielectric constant tensor:
#      x y z
#    x 1.705540 0.000000 -0.032720 
#    y 0.000000 1.691990 0.000000 
#    z -0.032720 0.000000 1.686140 
# 
# From -- ./inp_files/54627.got.cif
#   From: 2010.05.17/outbox.cif.g08.bks.cpg/sg12_28_cif.got.tgz:54627.got - 2010.06.03 13:09:07.
