data_PCOD9212250
_publ_section_title
;
Structure prediction by ZEFSAII (Michael W. Deem and Ramdas Pophale) SiO2 
 PCOD9212250
Probable space group: C 2/M
;
_chemical_formula_sum "Si O2"
_cell_formula_units_Z 58
_cell_length_a 20.042661
_cell_length_b 7.213758
_cell_length_c 14.766837
_cell_angle_alpha 90.000000
_cell_angle_beta 92.310836
_cell_angle_gamma 90.000000
_cell_volume 2133.295973
_symmetry_space_group_name_H-M "C 2/M"
_symmetry_group_IT_number 12
_symmetry_cell_setting 'monoclinic'
loop_
_space_group_symop_operation_xyz
x,y,z
-x,y,-z
-x,-y,-z
x,-y,z
1/2+x,1/2+y,z
1/2-x,1/2+y,-z
1/2-x,1/2-y,-z
1/2+x,1/2-y,z
loop_
_atom_site_type_symbol
_atom_site_label
_atom_site_fract_x
_atom_site_fract_y
_atom_site_fract_z
Si Si1 0.118561 0.710863 0.608536
Si Si2 0.396656 0.222704 0.187738
Si Si3 0.962684 0.278376 0.771174
Si Si4 0.500000 0.500000 0.000000
Si Si5 0.906771 0.726320 0.584645
Si Si6 0.381320 0.777218 0.938014
Si Si7 0.736925 0.776036 0.345110
Si Si8 0.747294 0.283554 0.861317
O O1 0.093673 0.500000 0.615678
O O2 0.113516 0.789881 0.709000
O O3 0.084267 0.790706 0.517611
O O4 0.198306 0.709960 0.596566
O O5 0.471350 0.292333 0.174881
O O6 0.331973 0.269095 0.125631
O O7 0.397201 0.000000 0.186230
O O8 0.968394 0.500000 0.765428
O O9 0.955220 0.212600 0.668054
O O10 0.900262 0.247404 0.832069
O O11 0.560559 0.661080 0.011660
O O12 0.909052 0.500000 0.581412
O O13 0.833119 0.778790 0.615711
O O14 0.303876 0.712639 0.932527
O O15 0.387628 0.000000 0.959272
O O16 0.744520 0.710123 0.241349
O O17 0.738878 0.000000 0.344620
O O18 0.762907 0.500000 0.856612
#
# Coordination Sequence:
#
# PCOD9212250 Si02
#       8
#     8   8   8   2   8   8   8   8
#     4   9  17  26  39  68 106 142 188 246 291 325
#     4   9  18  30  49  79 112 150 194 244 288 328
#     4   9  17  33  55  79 109 152 196 231 284 350
#     4  12  26  40  68 106 124 142 174 240 300 346
#     4   9  15  25  44  68 101 145 193 240 286 335
#     4  10  21  41  66  93 122 153 188 229 287 353
#     4   9  15  26  44  65  96 141 192 234 283 336
#     4   9  17  32  55  80 106 148 195 233 275 341
#
# _framework density 27.187977
#
# number of rings (size 3 to 8) (size 9 to 14) (size 15 to 20)
#    0.000    2.759    1.379    0.621    0.966    0.552 
#    1.241    2.759    1.517    0.828    0.000    3.862 
#    0.000    0.000    0.000    0.000    0.000    0.000 
#
# Total GULP energy -161893.369127 kJ/mol
# GULP energy per Si atom -5582.529970 kJ/mol
# Density = 2.712610 g / cm^3
# Si number density = 27.187977 Si / 1000 Ang^3
#
#
#
# Elastic Constant Matrix: (Units=GPa)
#
#
# Indices 1 2 3 4 5 6 
#
# 1 164.9105 0.1990 50.9125 0.0000 41.9448 0.0000
# 2 0.1990 147.6348 -1.0010 0.0000 11.3043 0.0000
# 3 50.9125 -1.0010 187.5890 0.0000 40.7419 0.0000
# 4 0.0000 0.0000 0.0000 471.4569 0.0000 1022.4515
# 5 41.9448 11.3043 40.7419 0.0000 46.8094 0.0000
# 6 0.0000 0.0000 0.0000 1022.4515 0.0000 2125.4678
#
#
#
# Elastic Compliance Matrix: (Units=1/GPa)
#
#
# Indices 1 2 3 4 5 6 
#
# 1 0.007974 0.000493 -0.000720 0.000000 -0.006637 0.000000
# 2 0.000493 0.006968 0.000450 0.000000 -0.002516 0.000000
# 3 -0.000720 0.000450 0.006674 0.000000 -0.005272 0.000000
# 4 0.000000 0.000000 0.000000 -0.049041 0.000000 0.023591
# 5 -0.006637 -0.002516 -0.005272 0.000000 0.032507 0.000000
# 6 0.000000 0.000000 0.000000 0.023591 0.000000 -0.010878
#
#
# Mechanical properties :
#
#
# Convention : Reuss Voigt Hill
#
# Bulk Modulus (GPa) = 45.32870 66.70616 56.01743
# Shear Modulus (GPa) = 4494.06835 558.74842 2526.40839
#
# Velocity S-wave (km/s) = 40.70074 14.35128 30.51647
# Velocity P-wave (km/s) = 47.17459 17.29742 35.52916
#
# Compressibility (1/GPa) = 0.02206108
#
# Stress axis : x y z
#
# Youngs Moduli (GPa) = 125.41080 143.50308 149.84343
#
# Poissons Ratio (x) = -0.07069 0.10787
# Poissons Ratio (y) = -0.06178 -0.06741
# Poissons Ratio (z) = 0.09029 -0.06456
#
# Static dielectric constant tensor:
#      x y z
#    x 2.118340 0.000000 -0.023230 
#    y 0.000000 2.077540 0.000000 
#    z -0.023230 0.000000 2.136910 
# 
# From -- ./inp_files/281501.got.cif
#   From: 2010.05.17/outbox.cif.g08.bks.cpg/sg12_141_cif.got.tgz:281501.got - 2010.06.03 13:09:07.
