data_PCOD9212666
_publ_section_title
;
Structure prediction by ZEFSAII (Michael W. Deem and Ramdas Pophale) SiO2 
 PCOD9212666
Probable space group: C 2/M
;
_chemical_formula_sum "Si O2"
_cell_formula_units_Z 48
_cell_length_a 17.872963
_cell_length_b 30.394164
_cell_length_c 9.872485
_cell_angle_alpha 90.000000
_cell_angle_beta 26.901763
_cell_angle_gamma 90.000000
_cell_volume 2426.584930
_symmetry_space_group_name_H-M "C 2/M"
_symmetry_group_IT_number 12
_symmetry_cell_setting 'monoclinic'
loop_
_space_group_symop_operation_xyz
x,y,z
-x,y,-z
-x,-y,-z
x,-y,z
1/2+x,1/2+y,z
1/2-x,1/2+y,-z
1/2-x,1/2-y,-z
1/2+x,1/2-y,z
loop_
_atom_site_type_symbol
_atom_site_label
_atom_site_fract_x
_atom_site_fract_y
_atom_site_fract_z
Si Si1 0.963485 0.609510 0.704271
Si Si2 0.918188 0.739845 0.982757
Si Si3 0.122617 0.549796 0.675240
Si Si4 0.358073 0.629375 0.343272
Si Si5 0.336167 0.338681 0.678956
Si Si6 0.813096 0.310576 0.582683
O O1 0.024310 0.574896 0.716543
O O2 0.088697 0.651405 0.501089
O O3 0.000000 0.588833 0.500000
O O4 0.785242 0.628600 0.038309
O O5 0.783031 0.702406 0.167057
O O6 0.841610 0.788350 0.094946
O O7 0.000000 0.736830 0.000000
O O8 0.065896 0.729793 0.642518
O O9 0.171470 0.500000 0.561060
O O10 0.272554 0.581950 0.470594
O O11 0.000000 0.548271 0.000000
O O12 0.389541 0.639645 0.449240
O O13 0.236260 0.667181 0.480576
O O14 0.500000 0.630086 0.000000
O O15 0.500000 0.327602 0.500000
#
# Coordination Sequence:
#
# PCOD9212666 Si02
#       6
#     8   8   8   8   8   8
#     4  10  23  42  64  93 130 165 210 261 319 380
#     4  11  21  38  59  87 123 167 218 273 307 366
#     4  10  21  42  73  98 120 161 213 261 313 385
#     4  11  23  40  65  93 129 163 213 262 315 377
#     4  11  25  40  60  92 131 170 210 260 322 368
#     4  10  23  36  64  89 121 167 224 264 311 367
#
# _framework density 19.780885999999999
#
# number of rings (size 3 to 8) (size 9 to 14) (size 15 to 20)
#    0.000    1.500    3.333    1.000    7.000    1.333 
#    0.000    3.333    0.000    1.000    0.000    0.000 
#    0.000    0.000    0.000    0.000    0.000    0.000 
#
# Total GULP energy -133938.188684 kJ/mol
# GULP energy per Si atom -5580.757862 kJ/mol
# Density = 1.973586 g / cm^3
# Si number density = 19.780886 Si / 1000 Ang^3
#
#
#
# Elastic Constant Matrix: (Units=GPa)
#
#
# Indices 1 2 3 4 5 6 
#
# 1 100.5258 14.8491 36.7500 0.0001 -0.8961 0.0003
# 2 14.8491 98.1698 41.6683 0.0000 -5.4183 0.0000
# 3 36.7500 41.6683 91.0627 0.0005 4.5785 0.0006
# 4 0.0001 0.0000 0.0005 31.7239 -0.0004 1.7938
# 5 -0.8961 -5.4183 4.5785 -0.0004 30.5006 -0.0003
# 6 0.0003 0.0000 0.0006 1.7938 -0.0003 2.1180
#
#
#
# Elastic Compliance Matrix: (Units=1/GPa)
#
#
# Indices 1 2 3 4 5 6 
#
# 1 0.011716 0.000402 -0.004970 0.000000 0.001162 0.000000
# 2 0.000402 0.012961 -0.006256 0.000000 0.003253 0.000002
# 3 -0.004970 -0.006256 0.016034 0.000000 -0.003664 -0.000004
# 4 0.000000 0.000000 0.000000 0.033107 0.000000 -0.028039
# 5 0.001162 0.003253 -0.003664 0.000000 0.033948 0.000006
# 6 0.000000 0.000002 -0.000004 -0.028039 0.000006 0.495879
#
#
# Mechanical properties :
#
#
# Convention : Reuss Voigt Hill
#
# Bulk Modulus (GPa) = 52.46316 52.92145 52.69230
# Shear Modulus (GPa) = 7.91579 25.96790 16.94185
#
# Velocity S-wave (km/s) = 2.00260 3.62716 2.92974
# Velocity P-wave (km/s) = 5.65039 6.65985 6.17578
#
# Compressibility (1/GPa) = 0.01906100
#
# Stress axis : x y z
#
# Youngs Moduli (GPa) = 85.35521 77.15638 62.36658
#
# Poissons Ratio (x) = -0.03099 0.30998
# Poissons Ratio (y) = -0.03428 0.39018
# Poissons Ratio (z) = 0.42424 0.48271
#
# Static dielectric constant tensor:
#      x y z
#    x 1.759150 0.000000 -0.032090 
#    y 0.000000 1.668220 0.000000 
#    z -0.032090 0.000000 1.749490 
# 
# From -- ./inp_files/80563.got.cif
#   From: 2010.05.17/outbox.cif.g08.bks.cpg/sg12_41_cif.got.tgz:80563.got - 2010.06.03 13:09:07.
