data_PCOD9212695
_publ_section_title
;
Structure prediction by ZEFSAII (Michael W. Deem and Ramdas Pophale) SiO2 
 PCOD9212695
Probable space group: C 2/M
;
_chemical_formula_sum "Si O2"
_cell_formula_units_Z 64
_cell_length_a 14.995041
_cell_length_b 24.256892
_cell_length_c 8.032894
_cell_angle_alpha 90.000000
_cell_angle_beta 99.417423
_cell_angle_gamma 90.000000
_cell_volume 2882.450257
_symmetry_space_group_name_H-M "C 2/M"
_symmetry_group_IT_number 12
_symmetry_cell_setting 'monoclinic'
loop_
_space_group_symop_operation_xyz
x,y,z
-x,y,-z
-x,-y,-z
x,-y,z
1/2+x,1/2+y,z
1/2-x,1/2+y,-z
1/2-x,1/2-y,-z
1/2+x,1/2-y,z
loop_
_atom_site_type_symbol
_atom_site_label
_atom_site_fract_x
_atom_site_fract_y
_atom_site_fract_z
Si Si1 0.434162 0.144443 0.695822
Si Si2 0.248851 0.150163 0.811557
Si Si3 0.034667 0.237860 0.185651
Si Si4 0.776220 0.936863 0.903049
Si Si5 0.563193 0.653714 0.654697
Si Si6 0.372257 0.874259 0.307500
Si Si7 0.237050 0.228987 0.300307
Si Si8 0.463490 0.436400 0.809320
O O1 0.350137 0.133953 0.791460
O O2 0.449497 0.210364 0.689187
O O3 0.534792 0.125418 0.767691
O O4 0.401826 0.122429 0.508016
O O5 0.167347 0.142548 0.652823
O O6 0.252050 0.216940 0.814306
O O7 0.219216 0.110700 0.954043
O O8 0.133838 0.209311 0.230001
O O9 0.953807 0.195751 0.200232
O O10 0.000000 0.262102 0.000000
O O11 0.686164 0.924557 0.775177
O O12 0.857111 0.930550 0.796043
O O13 0.782017 0.000000 0.970612
O O14 0.500000 0.682009 0.500000
O O15 0.511467 0.598639 0.685792
O O16 0.310162 0.818453 0.280520
O O17 0.250000 0.250000 0.500000
O O18 0.487420 0.500000 0.796721
O O19 0.500000 0.417865 0.000000
#
# Coordination Sequence:
#
# PCOD9212695 Si02
#       8
#     8   8   8   8   8   8   8   8
#     4  10  25  44  64  98 132 177 216 282 333 401
#     4  11  24  41  64  98 138 173 223 273 332 389
#     4  11  24  38  62  98 144 175 217 261 338 400
#     4  11  26  46  71  98 131 173 225 282 338 397
#     4  12  25  37  64  98 136 176 221 267 319 401
#     4  11  23  44  73  92 136 178 220 271 348 395
#     4  11  21  41  69 101 140 176 221 276 331 404
#     4  10  21  43  66  92 130 171 214 272 339 399
#
# _framework density 22.203332
#
# number of rings (size 3 to 8) (size 9 to 14) (size 15 to 20)
#    0.000    1.125    3.750    2.625    8.750    0.750 
#    0.000    3.125    0.000    0.000    0.000    0.000 
#    0.000    0.000    0.000    0.000    0.000    0.000 
#
# Total GULP energy -178496.382877 kJ/mol
# GULP energy per Si atom -5578.011965 kJ/mol
# Density = 2.215280 g / cm^3
# Si number density = 22.203332 Si / 1000 Ang^3
#
#
#
# Elastic Constant Matrix: (Units=GPa)
#
#
# Indices 1 2 3 4 5 6 
#
# 1 151.6090 10.8162 12.0680 0.0000 26.3268 0.0000
# 2 10.8162 58.0985 14.8307 0.0000 -12.1527 0.0000
# 3 12.0680 14.8307 46.4789 0.0000 14.5878 0.0000
# 4 0.0000 0.0000 0.0000 20.4533 0.0000 -1.4979
# 5 26.3268 -12.1527 14.5878 0.0000 31.1752 0.0000
# 6 0.0000 0.0000 0.0000 -1.4979 0.0000 25.9018
#
#
#
# Elastic Compliance Matrix: (Units=1/GPa)
#
#
# Indices 1 2 3 4 5 6 
#
# 1 0.008414 -0.004175 0.002213 0.000000 -0.009768 0.000000
# 2 -0.004175 0.025466 -0.013203 0.000000 0.019631 0.000000
# 3 0.002213 -0.013203 0.032064 0.000000 -0.022020 0.000000
# 4 0.000000 0.000000 0.000000 0.049100 0.000000 0.002839
# 5 -0.009768 0.019631 -0.022020 0.000000 0.058282 0.000000
# 6 0.000000 0.000000 0.000000 0.002839 0.000000 0.038772
#
#
# Mechanical properties :
#
#
# Convention : Reuss Voigt Hill
#
# Bulk Modulus (GPa) = 28.07776 36.84623 32.46199
# Shear Modulus (GPa) = 19.66196 30.07083 24.86640
#
# Velocity S-wave (km/s) = 2.97903 3.68413 3.35018
# Velocity P-wave (km/s) = 4.95036 5.89305 5.44215
#
# Compressibility (1/GPa) = 0.03561538
#
# Stress axis : x y z
#
# Youngs Moduli (GPa) = 118.85185 39.26825 31.18719
#
# Poissons Ratio (x) = 0.16393 -0.06903
# Poissons Ratio (y) = 0.49617 0.41177
# Poissons Ratio (z) = -0.26306 0.51846
#
# Static dielectric constant tensor:
#      x y z
#    x 2.055590 0.000000 -0.338740 
#    y 0.000000 1.785690 0.000000 
#    z -0.338740 0.000000 2.636120 
# 
# From -- ./inp_files/67010.got.cif
#   From: 2010.05.17/outbox.cif.g08.bks.cpg/sg12_34_cif.got.tgz:67010.got - 2010.06.03 13:09:07.
