data_PCOD9212939
_publ_section_title
;
Structure prediction by ZEFSAII (Michael W. Deem and Ramdas Pophale) SiO2 
 PCOD9212939
Probable space group: C 2/M
;
_chemical_formula_sum "Si O2"
_cell_formula_units_Z 52
_cell_length_a 24.993975
_cell_length_b 13.359901
_cell_length_c 7.412021
_cell_angle_alpha 90.000000
_cell_angle_beta 90.670200
_cell_angle_gamma 90.000000
_cell_volume 2474.830732
_symmetry_space_group_name_H-M "C 2/M"
_symmetry_group_IT_number 12
_symmetry_cell_setting 'monoclinic'
loop_
_space_group_symop_operation_xyz
x,y,z
-x,y,-z
-x,-y,-z
x,-y,z
1/2+x,1/2+y,z
1/2-x,1/2+y,-z
1/2-x,1/2-y,-z
1/2+x,1/2-y,z
loop_
_atom_site_type_symbol
_atom_site_label
_atom_site_fract_x
_atom_site_fract_y
_atom_site_fract_z
Si Si1 0.240395 0.000000 0.365513
Si Si2 0.577488 0.388306 0.364898
Si Si3 0.142223 0.797245 0.877062
Si Si4 0.297528 0.500000 0.240232
Si Si5 0.822708 0.500000 0.671931
Si Si6 0.258331 0.790931 0.205137
Si Si7 0.464162 0.388261 0.229754
Si Si8 0.845205 0.282526 0.716917
O O1 0.200673 0.000000 0.538545
O O2 0.297386 0.000000 0.471186
O O3 0.238032 0.902128 0.242387
O O4 0.597356 0.500000 0.311193
O O5 0.527056 0.362532 0.232975
O O6 0.553015 0.397269 0.562280
O O7 0.620302 0.300216 0.382913
O O8 0.172092 0.903203 0.837037
O O9 0.178720 0.722421 0.758856
O O10 0.079642 0.812188 0.844158
O O11 0.147100 0.756974 0.079424
O O12 0.232599 0.500000 0.206842
O O13 0.856332 0.399507 0.702591
O O14 0.218560 0.724279 0.324117
O O15 0.250000 0.750000 0.000000
O O16 0.457191 0.500000 0.150341
#
# Coordination Sequence:
#
# PCOD9212939 Si02
#       8
#     4   8   8   4   4   8   8   8
#     4  10  24  40  60  88 126 174 210 256 308 376
#     4   9  21  37  61  92 120 159 206 262 324 384
#     4  11  22  36  59  89 127 164 200 257 317 377
#     4  10  22  35  58  90 123 161 210 256 308 382
#     4  10  24  41  58  86 127 169 218 256 302 378
#     4  10  23  37  57  90 123 163 205 248 310 372
#     4   9  19  37  59  89 125 154 201 267 325 383
#     4  11  24  38  60  87 129 168 206 260 314 369
#
# _framework density 21.011538000000002
#
# number of rings (size 3 to 8) (size 9 to 14) (size 15 to 20)
#    0.462    1.538    2.308    0.923    6.462    6.154 
#    0.000    1.538    0.000    4.615    0.000    0.000 
#    0.000    0.000    0.000    0.000    0.000    0.000 
#
# Total GULP energy -144946.275424 kJ/mol
# GULP energy per Si atom -5574.856747 kJ/mol
# Density = 2.096371 g / cm^3
# Si number density = 21.011538 Si / 1000 Ang^3
#
#
#
# Elastic Constant Matrix: (Units=GPa)
#
#
# Indices 1 2 3 4 5 6 
#
# 1 82.2454 23.6782 25.6671 0.0000 6.3472 0.0000
# 2 23.6782 147.7948 38.6546 0.0000 -10.0682 0.0000
# 3 25.6671 38.6546 67.1589 0.0000 0.3722 0.0000
# 4 0.0000 0.0000 0.0000 29.8804 0.0000 -1.4117
# 5 6.3472 -10.0682 0.3722 0.0000 31.8276 0.0000
# 6 0.0000 0.0000 0.0000 -1.4117 0.0000 23.8161
#
#
#
# Elastic Compliance Matrix: (Units=1/GPa)
#
#
# Indices 1 2 3 4 5 6 
#
# 1 0.014234 -0.001271 -0.004691 0.000000 -0.003186 0.000000
# 2 -0.001271 0.008295 -0.004305 0.000000 0.002928 0.000000
# 3 -0.004691 -0.004305 0.019164 0.000000 -0.000650 0.000000
# 4 0.000000 0.000000 0.000000 0.033561 0.000000 0.001989
# 5 -0.003186 0.002928 -0.000650 0.000000 0.032988 0.000000
# 6 0.000000 0.000000 0.000000 0.001989 0.000000 0.042106
#
#
# Mechanical properties :
#
#
# Convention : Reuss Voigt Hill
#
# Bulk Modulus (GPa) = 47.25835 52.57767 49.91801
# Shear Modulus (GPa) = 28.09992 31.05144 29.57568
#
# Velocity S-wave (km/s) = 3.66096 3.84842 3.75586
# Velocity P-wave (km/s) = 6.35693 6.69513 6.52822
#
# Compressibility (1/GPa) = 0.02116028
#
# Stress axis : x y z
#
# Youngs Moduli (GPa) = 70.25225 120.55323 52.17998
#
# Poissons Ratio (x) = 0.15317 0.24479
# Poissons Ratio (y) = 0.08926 0.22464
# Poissons Ratio (z) = 0.32957 0.51899
#
# Static dielectric constant tensor:
#      x y z
#    x 1.874000 0.000000 0.049060 
#    y 0.000000 1.772780 0.000000 
#    z 0.049060 0.000000 1.894390 
# 
# From -- ./inp_files/102666.got.cif
#   From: 2010.05.17/outbox.cif.g08.bks.cpg/sg12_52_cif.got.tgz:102666.got - 2010.06.03 13:09:07.
