data_PCOD9212224
_publ_section_title
;
Structure prediction by ZEFSAII (Michael W. Deem and Ramdas Pophale) SiO2 
 PCOD9212224
Probable space group: C 2/M
;
_chemical_formula_sum "Si O2"
_cell_formula_units_Z 64
_cell_length_a 17.133829
_cell_length_b 30.286232
_cell_length_c 11.226427
_cell_angle_alpha 90.000000
_cell_angle_beta 149.820912
_cell_angle_gamma 90.000000
_cell_volume 2928.558976
_symmetry_space_group_name_H-M "C 2/M"
_symmetry_group_IT_number 12
_symmetry_cell_setting 'monoclinic'
loop_
_space_group_symop_operation_xyz
x,y,z
-x,y,-z
-x,-y,-z
x,-y,z
1/2+x,1/2+y,z
1/2-x,1/2+y,-z
1/2-x,1/2-y,-z
1/2+x,1/2-y,z
loop_
_atom_site_type_symbol
_atom_site_label
_atom_site_fract_x
_atom_site_fract_y
_atom_site_fract_z
Si Si1 0.436725 0.658627 0.715695
Si Si2 0.600274 0.152419 0.940564
Si Si3 0.647795 0.282748 0.605726
Si Si4 0.205702 0.637936 0.807591
Si Si5 0.761427 0.953834 0.939251
Si Si6 0.884043 0.549550 0.994856
Si Si7 0.425981 0.578539 0.529614
Si Si8 0.685187 0.812106 0.559039
O O1 0.417936 0.700025 0.605195
O O2 0.382971 0.617501 0.562876
O O3 0.334491 0.666293 0.696071
O O4 0.616523 0.652264 0.975803
O O5 0.672978 0.145970 0.903910
O O6 0.562052 0.102398 0.941045
O O7 0.447308 0.182248 0.717157
O O8 0.726214 0.181952 0.178463
O O9 0.500000 0.278266 0.500000
O O10 0.715972 0.235341 0.658615
O O11 0.204068 0.585898 0.784991
O O12 0.121647 0.660206 0.586708
O O13 0.660294 0.953490 0.925356
O O14 0.750833 0.000000 0.861326
O O15 0.935595 0.946662 0.220221
O O16 0.958152 0.500000 0.068306
O O17 0.725600 0.551619 0.708110
O O18 0.500000 0.594949 0.500000
#
# Coordination Sequence:
#
# PCOD9212224 Si02
#       8
#     8   8   8   8   8   8   8   8
#     4  11  22  41  63  91 124 160 204 255 311 368
#     4  11  23  42  67  93 125 163 210 260 312 368
#     4  12  24  43  70  91 119 160 211 263 313 362
#     4  10  21  41  66  87 125 167 209 251 305 370
#     4   8  15  27  55  93 121 151 204 262 303 346
#     4   9  16  30  57  93 124 152 197 259 317 362
#     4   9  15  29  57  91 123 156 199 256 313 361
#     4  12  28  41  59  92 129 166 209 254 306 373
#
# _framework density 21.853752
#
# number of rings (size 3 to 8) (size 9 to 14) (size 15 to 20)
#    0.000    1.750    2.500    3.375    1.750    3.000 
#    2.250    0.625    0.000   14.250    0.000    0.000 
#    0.000    0.000    0.000    0.000    0.000    0.000 
#
# Total GULP energy -178261.453277 kJ/mol
# GULP energy per Si atom -5570.670415 kJ/mol
# Density = 2.180401 g / cm^3
# Si number density = 21.853752 Si / 1000 Ang^3
#
#
#
# Elastic Constant Matrix: (Units=GPa)
#
#
# Indices 1 2 3 4 5 6 
#
# 1 88.1555 19.6787 1.0092 0.0000 -3.4958 -0.0001
# 2 19.6787 141.5476 13.3704 0.0000 -19.4806 0.0001
# 3 1.0092 13.3704 52.5109 0.0000 -3.5234 -0.0001
# 4 0.0000 0.0000 0.0000 -10.8028 0.0000 -4.5369
# 5 -3.4958 -19.4806 -3.5234 0.0000 21.3787 -0.0002
# 6 -0.0001 0.0001 -0.0001 -4.5369 -0.0002 297.5505
#
#
#
# Elastic Compliance Matrix: (Units=1/GPa)
#
#
# Indices 1 2 3 4 5 6 
#
# 1 0.011714 -0.001578 0.000211 0.000000 0.000512 0.000000
# 2 -0.001578 0.008422 -0.001635 0.000000 0.007147 0.000000
# 3 0.000211 -0.001635 0.019575 0.000000 0.001771 0.000000
# 4 0.000000 0.000000 0.000000 -0.091979 0.000000 -0.001402
# 5 0.000512 0.007147 0.001771 0.000000 0.053664 0.000000
# 6 0.000000 0.000000 0.000000 -0.001402 0.000000 0.003339
#
#
# Mechanical properties :
#
#
# Convention : Reuss Voigt Hill
#
# Bulk Modulus (GPa) = 29.66695 38.92562 34.29629
# Shear Modulus (GPa) = 227.55208 78.16898 152.86053
#
# Velocity S-wave (km/s) = 10.21523 5.98722 8.37251
# Velocity P-wave (km/s) = 12.35878 8.10224 10.44954
#
# Compressibility (1/GPa) = 0.03370754
#
# Stress axis : x y z
#
# Youngs Moduli (GPa) = 85.36992 118.73454 51.08653
#
# Poissons Ratio (x) = 0.18735 -0.01078
# Poissons Ratio (y) = 0.13471 0.08351
# Poissons Ratio (z) = -0.01802 0.19408
#
# Static dielectric constant tensor:
#      x y z
#    x 1.787150 0.000000 0.022870 
#    y 0.000000 2.040990 0.000000 
#    z 0.022870 0.000000 1.905340 
# 
# From -- ./inp_files/161239.got.cif
#   From: 2010.05.17/outbox.cif.g08.bks.cpg/sg12_81_cif.got.tgz:161239.got - 2010.06.03 13:09:07.
