data_PCOD9212223
_publ_section_title
;
Structure prediction by ZEFSAII (Michael W. Deem and Ramdas Pophale) SiO2 
 PCOD9212223
Probable space group: C 2/M
;
_chemical_formula_sum "Si O2"
_cell_formula_units_Z 48
_cell_length_a 14.877981
_cell_length_b 8.588360
_cell_length_c 25.078812
_cell_angle_alpha 90.000000
_cell_angle_beta 41.935291
_cell_angle_gamma 90.000000
_cell_volume 2141.542692
_symmetry_space_group_name_H-M "C 2/M"
_symmetry_group_IT_number 12
_symmetry_cell_setting 'monoclinic'
loop_
_space_group_symop_operation_xyz
x,y,z
-x,y,-z
-x,-y,-z
x,-y,z
1/2+x,1/2+y,z
1/2-x,1/2+y,-z
1/2-x,1/2-y,-z
1/2+x,1/2-y,z
loop_
_atom_site_type_symbol
_atom_site_label
_atom_site_fract_x
_atom_site_fract_y
_atom_site_fract_z
Si Si1 0.568660 0.684037 0.691538
Si Si2 0.909646 0.683600 0.861206
Si Si3 0.333941 0.190157 0.194579
Si Si4 0.846793 0.686980 0.070078
Si Si5 0.821954 0.685857 0.521583
Si Si6 0.573766 0.316933 0.362146
O O1 0.565390 0.500000 0.707208
O O2 0.489870 0.777764 0.771139
O O3 0.722794 0.737373 0.612956
O O4 0.495396 0.696709 0.666198
O O5 0.894103 0.500000 0.873940
O O6 0.762764 0.756776 0.923414
O O7 0.014886 0.740642 0.859218
O O8 0.296008 0.233066 0.151403
O O9 0.223462 0.246255 0.285594
O O10 0.331482 0.000000 0.197968
O O11 0.850634 0.500000 0.065382
O O12 0.000000 0.743405 0.000000
O O13 0.815667 0.500000 0.523556
O O14 0.750000 0.750000 0.500000
O O15 0.975905 0.737227 0.447766
O O16 0.579354 0.500000 0.372508
#
# Coordination Sequence:
#
# PCOD9212223 Si02
#       6
#     8   8   8   8   8   8
#     4   9  17  32  53  75 107 151 190 227 271 327
#     4  11  22  35  57  86 116 145 180 232 279 322
#     4   9  19  37  57  82 115 149 182 222 279 333
#     4  10  21  41  66  84 107 148 186 217 270 344
#     4   9  17  28  46  75 108 143 186 233 275 319
#     4   9  16  31  54  74 104 148 188 229 270 322
#
# _framework density 22.413747999999998
#
# number of rings (size 3 to 8) (size 9 to 14) (size 15 to 20)
#    0.000    2.500    1.667    2.000    0.000    4.333 
#    0.000    4.167    0.000    5.000    0.000    0.000 
#    0.000    0.000    0.000    0.000    0.000    0.000 
#
# Total GULP energy -133985.769468 kJ/mol
# GULP energy per Si atom -5582.740395 kJ/mol
# Density = 2.236273 g / cm^3
# Si number density = 22.413748 Si / 1000 Ang^3
#
#
#
# Elastic Constant Matrix: (Units=GPa)
#
#
# Indices 1 2 3 4 5 6 
#
# 1 77.9854 7.2458 21.5651 0.0000 -24.9043 0.0000
# 2 7.2458 12.7353 7.7758 0.0000 -8.5571 0.0000
# 3 21.5651 7.7758 87.9996 0.0000 -39.8407 0.0000
# 4 0.0000 0.0000 0.0000 27.7717 0.0000 -11.7942
# 5 -24.9043 -8.5571 -39.8407 0.0000 43.1989 0.0000
# 6 0.0000 0.0000 0.0000 -11.7942 0.0000 13.3205
#
#
#
# Elastic Compliance Matrix: (Units=1/GPa)
#
#
# Indices 1 2 3 4 5 6 
#
# 1 0.015846 -0.003315 0.000426 0.000000 0.008872 0.000000
# 2 -0.003315 0.091273 0.000116 0.000000 0.016276 -0.000001
# 3 0.000426 0.000116 0.019522 0.000000 0.018273 0.000000
# 4 0.000000 0.000000 0.000000 0.057707 0.000000 0.051095
# 5 0.008872 0.016276 0.018273 0.000000 0.048340 0.000000
# 6 0.000000 -0.000001 0.000000 0.051095 0.000000 0.120313
#
#
# Mechanical properties :
#
#
# Convention : Reuss Voigt Hill
#
# Bulk Modulus (GPa) = 8.25792 27.98822 18.12307
# Shear Modulus (GPa) = 12.53411 26.33379 19.43395
#
# Velocity S-wave (km/s) = 2.36734 3.43139 2.94777
# Velocity P-wave (km/s) = 3.34136 5.31163 4.43724
#
# Compressibility (1/GPa) = 0.12109586
#
# Stress axis : x y z
#
# Youngs Moduli (GPa) = 63.10658 10.95613 51.22484
#
# Poissons Ratio (x) = 0.03632 -0.02184
# Poissons Ratio (y) = 0.20919 -0.00594
# Poissons Ratio (z) = -0.02690 -0.00127
#
# Static dielectric constant tensor:
#      x y z
#    x 1.883500 0.000000 -0.045250 
#    y 0.000000 1.759660 0.000000 
#    z -0.045250 0.000000 1.883360 
# 
# From -- ./inp_files/360235.got.cif
#   From: 2010.05.17/outbox.cif.g08.bks.cpg/sg12_181_cif.got.tgz:360235.got - 2010.06.03 13:09:07.
