data_PCOD9212562
_publ_section_title
;
Structure prediction by ZEFSAII (Michael W. Deem and Ramdas Pophale) SiO2 
 PCOD9212562
Probable space group: C 2/M
;
_chemical_formula_sum "Si O2"
_cell_formula_units_Z 56
_cell_length_a 9.972914
_cell_length_b 21.025018
_cell_length_c 13.882396
_cell_angle_alpha 90.000000
_cell_angle_beta 77.619149
_cell_angle_gamma 90.000000
_cell_volume 2843.175231
_symmetry_space_group_name_H-M "C 2/M"
_symmetry_group_IT_number 12
_symmetry_cell_setting 'monoclinic'
loop_
_space_group_symop_operation_xyz
x,y,z
-x,y,-z
-x,-y,-z
x,-y,z
1/2+x,1/2+y,z
1/2-x,1/2+y,-z
1/2-x,1/2-y,-z
1/2+x,1/2-y,z
loop_
_atom_site_type_symbol
_atom_site_label
_atom_site_fract_x
_atom_site_fract_y
_atom_site_fract_z
Si Si1 0.760497 0.810103 0.810980
Si Si2 0.188663 0.500000 0.381752
Si Si3 0.376125 0.618081 0.387983
Si Si4 0.074218 0.195427 0.796517
Si Si5 0.883522 0.500000 0.379012
Si Si6 0.339275 0.072371 0.045295
Si Si7 0.870772 0.930092 0.091727
Si Si8 0.312416 0.614943 0.619276
O O1 0.656535 0.751910 0.833349
O O2 0.711833 0.872876 0.875357
O O3 0.774450 0.828531 0.696537
O O4 0.911958 0.792205 0.824043
O O5 0.279128 0.563585 0.358722
O O6 0.145132 0.500000 0.501592
O O7 0.048005 0.500000 0.342026
O O8 0.381256 0.680272 0.320304
O O9 0.325862 0.631492 0.504401
O O10 0.533935 0.593369 0.372433
O O11 0.105549 0.128732 0.843104
O O12 0.803329 0.561210 0.352046
O O13 0.310090 0.000000 0.085559
O O14 0.500000 0.077998 0.000000
O O15 0.260160 0.079011 0.956332
O O16 0.862132 0.000000 0.140325
O O17 0.000000 0.931502 0.000000
#
# Coordination Sequence:
#
# PCOD9212562 Si02
#       8
#     8   4   8   8   4   8   8   8
#     4  11  25  41  61  91 124 163 205 249 303 364
#     4   9  17  31  53  85 119 149 197 253 304 349
#     4   9  19  37  58  85 121 162 210 247 290 360
#     4  11  25  40  61  92 123 163 206 249 304 359
#     4   9  17  31  53  85 117 153 195 250 310 346
#     4  10  23  44  67  94 122 155 199 251 307 364
#     4  10  21  42  67  91 119 156 200 249 303 362
#     4   9  19  37  59  84 120 166 205 247 297 354
#
# _framework density 19.696287999999999
#
# number of rings (size 3 to 8) (size 9 to 14) (size 15 to 20)
#    0.000    2.143    1.429    0.429    4.000    4.571 
#    0.000    0.000    0.000    0.000    0.000    0.000 
#    0.000    0.000    0.000    0.000    0.000    0.000 
#
# Total GULP energy -156287.099596 kJ/mol
# GULP energy per Si atom -5581.682128 kJ/mol
# Density = 1.965146 g / cm^3
# Si number density = 19.696288 Si / 1000 Ang^3
#
#
#
# Elastic Constant Matrix: (Units=GPa)
#
#
# Indices 1 2 3 4 5 6 
#
# 1 133.8948 61.8103 26.1930 0.0000 16.2469 0.0000
# 2 61.8103 118.6976 40.1851 0.0000 8.1987 0.0000
# 3 26.1930 40.1851 48.1913 0.0000 4.4157 0.0000
# 4 0.0000 0.0000 0.0000 8.1556 0.0000 5.9847
# 5 16.2469 8.1987 4.4157 0.0000 20.3169 0.0000
# 6 0.0000 0.0000 0.0000 5.9847 0.0000 26.8260
#
#
#
# Elastic Compliance Matrix: (Units=1/GPa)
#
#
# Indices 1 2 3 4 5 6 
#
# 1 0.010648 -0.004659 -0.001321 0.000000 -0.006348 0.000000
# 2 -0.004659 0.013920 -0.009083 0.000000 0.000083 0.000000
# 3 -0.001321 -0.009083 0.029191 0.000000 -0.001623 0.000000
# 4 0.000000 0.000000 0.000000 0.146617 0.000000 -0.032709
# 5 -0.006348 0.000083 -0.001623 0.000000 0.054616 0.000000
# 6 0.000000 0.000000 0.000000 -0.032709 0.000000 0.044574
#
#
# Mechanical properties :
#
#
# Convention : Reuss Voigt Hill
#
# Bulk Modulus (GPa) = 42.31206 61.90673 52.10939
# Shear Modulus (GPa) = 14.81175 22.56605 18.68890
#
# Velocity S-wave (km/s) = 2.74525 3.38849 3.08369
# Velocity P-wave (km/s) = 5.61938 6.84164 6.26041
#
# Compressibility (1/GPa) = 0.02363392
#
# Stress axis : x y z
#
# Youngs Moduli (GPa) = 93.91432 71.83747 34.25722
#
# Poissons Ratio (x) = 0.33471 0.04524
# Poissons Ratio (y) = 0.43757 0.31115
# Poissons Ratio (z) = 0.12402 0.65249
#
# Static dielectric constant tensor:
#      x y z
#    x 1.648000 0.000000 -0.011410 
#    y 0.000000 1.663880 0.000000 
#    z -0.011410 0.000000 1.715970 
# 
# From -- ./inp_files/197567.got.cif
#   From: 2010.05.17/outbox.cif.g08.bks.cpg/sg12_99_cif.got.tgz:197567.got - 2010.06.03 13:09:07.
