data_PCOD9212940
_publ_section_title
;
Structure prediction by ZEFSAII (Michael W. Deem and Ramdas Pophale) SiO2 
 PCOD9212940
Probable space group: C 2/M
;
_chemical_formula_sum "Si O2"
_cell_formula_units_Z 48
_cell_length_a 13.604606
_cell_length_b 20.683049
_cell_length_c 8.998541
_cell_angle_alpha 90.000000
_cell_angle_beta 95.724027
_cell_angle_gamma 90.000000
_cell_volume 2519.426817
_symmetry_space_group_name_H-M "C 2/M"
_symmetry_group_IT_number 12
_symmetry_cell_setting 'monoclinic'
loop_
_space_group_symop_operation_xyz
x,y,z
-x,y,-z
-x,-y,-z
x,-y,z
1/2+x,1/2+y,z
1/2-x,1/2+y,-z
1/2-x,1/2-y,-z
1/2+x,1/2-y,z
loop_
_atom_site_type_symbol
_atom_site_label
_atom_site_fract_x
_atom_site_fract_y
_atom_site_fract_z
Si Si1 0.137372 0.428371 0.307046
Si Si2 0.485835 0.250974 0.789161
Si Si3 0.341720 0.299454 0.024246
Si Si4 0.660926 0.199725 0.472799
Si Si5 0.721833 0.928627 0.992692
Si Si6 0.071348 0.375275 0.741267
O O1 0.168335 0.500000 0.365611
O O2 0.188363 0.364524 0.381986
O O3 0.021249 0.418004 0.323472
O O4 0.157585 0.426679 0.134048
O O5 0.588076 0.290280 0.820830
O O6 0.426314 0.237482 0.628613
O O7 0.521815 0.179094 0.838323
O O8 0.409845 0.281886 0.893522
O O9 0.250000 0.250000 0.000000
O O10 0.299927 0.371149 0.010410
O O11 0.750000 0.250000 0.500000
O O12 0.621472 0.167388 0.618846
O O13 0.650799 0.915483 0.842910
O O14 0.766522 0.000000 0.989264
#
# Coordination Sequence:
#
# PCOD9212940 Si02
#       6
#     8   8   8   8   8   8
#     4  10  22  38  58  87 124 160 199 248 308 371
#     4  10  22  35  58  91 117 155 204 248 303 349
#     4  11  20  36  63  90 120 157 202 252 303 354
#     4  11  24  39  59  90 126 162 202 249 306 365
#     4  11  23  38  61  91 123 163 202 248 304 365
#     4  11  21  36  59  91 123 154 198 253 312 363
#
# _framework density 19.051952
#
# number of rings (size 3 to 8) (size 9 to 14) (size 15 to 20)
#    0.000    1.333    1.667    6.000    7.000    3.333 
#    0.000    1.667    0.000    1.000    0.000    2.333 
#    0.000    0.000    0.000    0.000    0.000    0.000 
#
# Total GULP energy -133860.500234 kJ/mol
# GULP energy per Si atom -5577.520843 kJ/mol
# Density = 1.900859 g / cm^3
# Si number density = 19.051952 Si / 1000 Ang^3
#
#
#
# Elastic Constant Matrix: (Units=GPa)
#
#
# Indices 1 2 3 4 5 6 
#
# 1 93.6545 63.4700 31.2866 0.0000 10.7099 0.0000
# 2 63.4700 170.2397 45.2958 0.0000 11.7244 0.0000
# 3 31.2866 45.2958 94.1942 0.0000 -3.3691 0.0000
# 4 0.0000 0.0000 0.0000 27.5887 0.0000 -3.3428
# 5 10.7099 11.7244 -3.3691 0.0000 30.0277 0.0000
# 6 0.0000 0.0000 0.0000 -3.3428 0.0000 29.4476
#
#
#
# Elastic Compliance Matrix: (Units=1/GPa)
#
#
# Indices 1 2 3 4 5 6 
#
# 1 0.015262 -0.004621 -0.002989 0.000000 -0.003975 0.000000
# 2 -0.004621 0.008417 -0.002581 0.000000 -0.001928 0.000000
# 3 -0.002989 -0.002581 0.012977 0.000000 0.003530 0.000000
# 4 0.000000 0.000000 0.000000 0.036752 0.000000 0.004172
# 5 -0.003975 -0.001928 0.003530 0.000000 0.035869 0.000000
# 6 0.000000 0.000000 0.000000 0.004172 0.000000 0.034432
#
#
# Mechanical properties :
#
#
# Convention : Reuss Voigt Hill
#
# Bulk Modulus (GPa) = 61.45487 70.91034 66.18260
# Shear Modulus (GPa) = 29.49555 31.94854 30.72204
#
# Velocity S-wave (km/s) = 3.93894 4.09946 4.02000
# Velocity P-wave (km/s) = 7.28104 7.72708 7.50737
#
# Compressibility (1/GPa) = 0.01627210
#
# Stress axis : x y z
#
# Youngs Moduli (GPa) = 65.52011 118.81372 77.06024
#
# Poissons Ratio (x) = 0.54906 0.23036
# Poissons Ratio (y) = 0.30278 0.19892
# Poissons Ratio (z) = 0.19587 0.30670
#
# Static dielectric constant tensor:
#      x y z
#    x 1.673510 0.000000 0.003220 
#    y 0.000000 1.678810 0.000000 
#    z 0.003220 0.000000 1.747320 
# 
# From -- ./inp_files/61714.got.cif
#   From: 2010.05.17/outbox.cif.g08.bks.cpg/sg12_31_cif.got.tgz:61714.got - 2010.06.03 13:09:07.
