data_PCOD9212210
_publ_section_title
;
Structure prediction by ZEFSAII (Michael W. Deem and Ramdas Pophale) SiO2 
 PCOD9212210
Probable space group: C 2/M
;
_chemical_formula_sum "Si O2"
_cell_formula_units_Z 34
_cell_length_a 24.755458
_cell_length_b 7.611132
_cell_length_c 8.585503
_cell_angle_alpha 90.000000
_cell_angle_beta 113.819347
_cell_angle_gamma 90.000000
_cell_volume 1479.868771
_symmetry_space_group_name_H-M "C 2/M"
_symmetry_group_IT_number 12
_symmetry_cell_setting 'monoclinic'
loop_
_space_group_symop_operation_xyz
x,y,z
-x,y,-z
-x,-y,-z
x,-y,z
1/2+x,1/2+y,z
1/2-x,1/2+y,-z
1/2-x,1/2-y,-z
1/2+x,1/2-y,z
loop_
_atom_site_type_symbol
_atom_site_label
_atom_site_fract_x
_atom_site_fract_y
_atom_site_fract_z
Si Si1 0.417639 0.705412 0.847164
Si Si2 0.000000 0.500000 0.000000
Si Si3 0.552691 0.702715 0.461098
Si Si4 0.797416 0.289464 0.844570
Si Si5 0.669815 0.793832 0.769190
O O1 0.432817 0.500000 0.887108
O O2 0.435062 0.776766 0.695695
O O3 0.347528 0.721500 0.788077
O O4 0.452231 0.842600 0.995102
O O5 0.500000 0.784671 0.500000
O O6 0.536029 0.500000 0.411920
O O7 0.613195 0.707350 0.626902
O O8 0.798134 0.500000 0.843752
O O9 0.730097 0.231796 0.742520
O O10 0.816307 0.227193 0.040381
O O11 0.657277 0.000000 0.764311
#
# Coordination Sequence:
#
# PCOD9212210 Si02
#       5
#     8   2   8   8   8
#     4  11  25  43  67  96 129 171 217 263 322 383
#     4  12  26  44  66  98 132 172 210 272 312 394
#     4  10  24  43  62  91 128 168 213 265 326 383
#     4  10  21  41  65  95 129 169 217 265 321 377
#     4  10  22  38  65  95 127 169 215 267 320 384
#
# _framework density 22.975007999999999
#
# number of rings (size 3 to 8) (size 9 to 14) (size 15 to 20)
#    0.000    1.647    1.176    1.765    4.941    4.235 
#    0.000    0.000    0.000    0.000    0.000    0.000 
#    0.000    0.000    0.000    0.000    0.000    0.000 
#
# Total GULP energy -94773.546342 kJ/mol
# GULP energy per Si atom -5574.914491 kJ/mol
# Density = 2.292272 g / cm^3
# Si number density = 22.975008 Si / 1000 Ang^3
#
#
#
# Elastic Constant Matrix: (Units=GPa)
#
#
# Indices 1 2 3 4 5 6 
#
# 1 177.4859 -1.0192 45.9511 0.0000 -12.3133 0.0000
# 2 -1.0192 112.2286 -4.5278 0.0000 -3.6926 0.0000
# 3 45.9511 -4.5278 50.8151 0.0000 -1.9550 0.0000
# 4 0.0000 0.0000 0.0000 4.8476 0.0000 1.6307
# 5 -12.3133 -3.6926 -1.9550 0.0000 34.2288 0.0000
# 6 0.0000 0.0000 0.0000 1.6307 0.0000 39.8809
#
#
#
# Elastic Compliance Matrix: (Units=1/GPa)
#
#
# Indices 1 2 3 4 5 6 
#
# 1 0.007539 -0.000127 -0.006740 0.000000 0.002313 0.000000
# 2 -0.000127 0.008980 0.000953 0.000000 0.000977 0.000000
# 3 -0.006740 0.000953 0.025826 0.000000 -0.000847 0.000000
# 4 0.000000 0.000000 0.000000 0.209164 0.000000 -0.008553
# 5 0.002313 0.000977 -0.000847 0.000000 0.030104 0.000000
# 6 0.000000 0.000000 0.000000 -0.008553 0.000000 0.025424
#
#
# Mechanical properties :
#
#
# Convention : Reuss Voigt Hill
#
# Bulk Modulus (GPa) = 32.76903 46.81531 39.79217
# Shear Modulus (GPa) = 15.19582 35.79986 25.49784
#
# Velocity S-wave (km/s) = 2.57457 3.95170 3.33499
# Velocity P-wave (km/s) = 4.80955 6.42200 5.67335
#
# Compressibility (1/GPa) = 0.03051662
#
# Stress axis : x y z
#
# Youngs Moduli (GPa) = 132.64545 111.36070 38.72063
#
# Poissons Ratio (x) = 0.01418 0.26096
# Poissons Ratio (y) = 0.01689 -0.03690
# Poissons Ratio (z) = 0.89398 -0.10611
#
# Static dielectric constant tensor:
#      x y z
#    x 1.884360 0.000000 -0.015520 
#    y 0.000000 1.901800 0.000000 
#    z -0.015520 0.000000 1.944550 
# 
# From -- ./inp_files/92480.got.cif
#   From: 2010.05.17/outbox.cif.g08.bks.cpg/sg12_47_cif.got.tgz:92480.got - 2010.06.03 13:09:07.
