data_PCOD9212296
_publ_section_title
;
Structure prediction by ZEFSAII (Michael W. Deem and Ramdas Pophale) SiO2 
 PCOD9212296
Probable space group: C 2/M
;
_chemical_formula_sum "Si O2"
_cell_formula_units_Z 34
_cell_length_a 18.789389
_cell_length_b 10.198849
_cell_length_c 7.524534
_cell_angle_alpha 90.000000
_cell_angle_beta 96.971959
_cell_angle_gamma 90.000000
_cell_volume 1431.265435
_symmetry_space_group_name_H-M "C 2/M"
_symmetry_group_IT_number 12
_symmetry_cell_setting 'monoclinic'
loop_
_space_group_symop_operation_xyz
x,y,z
-x,y,-z
-x,-y,-z
x,-y,z
1/2+x,1/2+y,z
1/2-x,1/2+y,-z
1/2-x,1/2-y,-z
1/2+x,1/2-y,z
loop_
_atom_site_type_symbol
_atom_site_label
_atom_site_fract_x
_atom_site_fract_y
_atom_site_fract_z
Si Si1 0.901019 0.857559 0.284432
Si Si2 0.296657 0.845369 0.388540
Si Si3 0.031170 0.712357 0.203324
Si Si4 0.835727 0.856284 0.876344
Si Si5 0.500000 0.000000 0.500000
O O1 0.869967 0.732552 0.378472
O O2 0.982467 0.836137 0.247905
O O3 0.891024 0.000000 0.368643
O O4 0.854896 0.857085 0.088714
O O5 0.250000 0.750000 0.500000
O O6 0.247565 0.845482 0.195967
O O7 0.306586 0.000000 0.442767
O O8 0.113812 0.748802 0.198859
O O9 0.017215 0.610475 0.352205
O O10 0.000000 0.671562 0.000000
O O11 0.857411 0.000000 0.811896
#
# Coordination Sequence:
#
# PCOD9212296 Si02
#       5
#     8   8   8   8   2
#     4  10  21  41  67  92 122 165 214 268 324 382
#     4  11  24  39  60  90 130 168 211 264 320 385
#     4  10  23  42  66  95 128 169 217 268 319 387
#     4   9  20  42  65  89 120 165 216 264 320 382
#     4  12  26  40  62  98 140 168 212 258 340 382
#
# _framework density 23.755203000000002
#
# number of rings (size 3 to 8) (size 9 to 14) (size 15 to 20)
#    0.000    1.882    0.000    2.471    4.941    2.824 
#    4.235    1.176    0.000    0.000    0.000    0.000 
#    0.000    0.000    0.000    0.000    0.000    0.000 
#
# Total GULP energy -94705.996792 kJ/mol
# GULP energy per Si atom -5570.940988 kJ/mol
# Density = 2.370113 g / cm^3
# Si number density = 23.755203 Si / 1000 Ang^3
#
#
#
# Elastic Constant Matrix: (Units=GPa)
#
#
# Indices 1 2 3 4 5 6 
#
# 1 86.2599 42.2750 3.0400 0.0000 -4.3587 0.0000
# 2 42.2750 181.3667 50.3517 0.0000 -17.0021 0.0000
# 3 3.0400 50.3517 86.2647 0.0000 -8.7062 0.0000
# 4 0.0000 0.0000 0.0000 28.1566 0.0000 -25.6938
# 5 -4.3587 -17.0021 -8.7062 0.0000 30.9369 0.0000
# 6 0.0000 0.0000 0.0000 -25.6938 0.0000 289.8491
#
#
#
# Elastic Compliance Matrix: (Units=1/GPa)
#
#
# Indices 1 2 3 4 5 6 
#
# 1 0.013274 -0.003506 0.001619 0.000000 0.000399 0.000000
# 2 -0.003506 0.007717 -0.004120 0.000000 0.002588 0.000000
# 3 0.001619 -0.004120 0.014136 0.000000 0.001942 0.000000
# 4 0.000000 0.000000 0.000000 0.038641 0.000000 0.003425
# 5 0.000399 0.002588 0.001942 0.000000 0.034349 0.000000
# 6 0.000000 0.000000 0.000000 0.003425 0.000000 0.003754
#
#
# Mechanical properties :
#
#
# Convention : Reuss Voigt Hill
#
# Bulk Modulus (GPa) = 43.26475 60.58053 51.92264
# Shear Modulus (GPa) = 37.99688 87.00352 62.50020
#
# Velocity S-wave (km/s) = 4.00374 6.05843 5.13490
# Velocity P-wave (km/s) = 6.29488 8.63115 7.55388
#
# Compressibility (1/GPa) = 0.02311350
#
# Stress axis : x y z
#
# Youngs Moduli (GPa) = 75.33346 129.57905 70.74223
#
# Poissons Ratio (x) = 0.45433 -0.11453
# Poissons Ratio (y) = 0.26413 0.29144
# Poissons Ratio (z) = -0.12196 0.53383
#
# Static dielectric constant tensor:
#      x y z
#    x 1.908790 0.000000 0.041010 
#    y 0.000000 1.882790 0.000000 
#    z 0.041010 0.000000 1.916980 
# 
# From -- ./inp_files/82055.got.cif
#   From: 2010.05.17/outbox.cif.g08.bks.cpg/sg12_42_cif.got.tgz:82055.got - 2010.06.03 13:09:07.
