data_PCOD9212207
_publ_section_title
;
Structure prediction by ZEFSAII (Michael W. Deem and Ramdas Pophale) SiO2 
 PCOD9212207
Probable space group: C 2/M
;
_chemical_formula_sum "Si O2"
_cell_formula_units_Z 48
_cell_length_a 26.956981
_cell_length_b 18.903618
_cell_length_c 9.445473
_cell_angle_alpha 90.000000
_cell_angle_beta 30.614919
_cell_angle_gamma 90.000000
_cell_volume 2451.230614
_symmetry_space_group_name_H-M "C 2/M"
_symmetry_group_IT_number 12
_symmetry_cell_setting 'monoclinic'
loop_
_space_group_symop_operation_xyz
x,y,z
-x,y,-z
-x,-y,-z
x,-y,z
1/2+x,1/2+y,z
1/2-x,1/2+y,-z
1/2-x,1/2-y,-z
1/2+x,1/2-y,z
loop_
_atom_site_type_symbol
_atom_site_label
_atom_site_fract_x
_atom_site_fract_y
_atom_site_fract_z
Si Si1 0.197137 0.151902 0.750598
Si Si2 0.502417 0.201804 0.826412
Si Si3 0.516257 0.344038 0.626447
Si Si4 0.284964 0.809516 0.243839
Si Si5 0.842550 0.420626 0.580793
Si Si6 0.781817 0.081491 0.826936
O O1 0.211404 0.170994 0.551544
O O2 0.223143 0.225683 0.768536
O O3 0.274011 0.094975 0.614670
O O4 0.087282 0.130935 0.056512
O O5 0.537895 0.270798 0.654540
O O6 0.572560 0.136387 0.625904
O O7 0.500000 0.216432 0.000000
O O8 0.393932 0.184414 0.038488
O O9 0.500000 0.330885 0.500000
O O10 0.605655 0.396909 0.428440
O O11 0.265362 0.862136 0.164100
O O12 0.881710 0.500000 0.480245
O O13 0.773978 0.413350 0.886665
O O14 0.773821 0.000000 0.797144
#
# Coordination Sequence:
#
# PCOD9212207 Si02
#       6
#     8   8   8   8   8   8
#     4  10  21  41  65  94 121 166 210 265 308 372
#     4  11  24  42  67  97 126 162 212 266 313 370
#     4  11  24  40  69  96 124 165 214 261 314 368
#     4  10  23  41  66  93 127 161 210 265 317 363
#     4  11  24  41  63  91 128 172 209 253 312 378
#     4  11  26  43  62  92 133 170 207 257 312 377
#
# _framework density 19.582001000000002
#
# number of rings (size 3 to 8) (size 9 to 14) (size 15 to 20)
#    0.000    1.333    3.333    1.000    9.333    4.000 
#    0.000    2.500    0.000    0.000    0.000    0.000 
#    0.000    0.000    0.000    0.000    0.000    0.000 
#
# Total GULP energy -134167.262760 kJ/mol
# GULP energy per Si atom -5590.302615 kJ/mol
# Density = 1.953743 g / cm^3
# Si number density = 19.582001 Si / 1000 Ang^3
#
#
#
# Elastic Constant Matrix: (Units=GPa)
#
#
# Indices 1 2 3 4 5 6 
#
# 1 53.7031 14.6431 -5.3129 0.0000 -0.5822 0.0000
# 2 14.6431 55.6127 -0.4809 0.0000 -3.4862 0.0000
# 3 -5.3129 -0.4809 52.3164 0.0000 -13.0394 0.0000
# 4 0.0000 0.0000 0.0000 3.7306 0.0000 4.1349
# 5 -0.5822 -3.4862 -13.0394 0.0000 20.8000 0.0000
# 6 0.0000 0.0000 0.0000 4.1349 0.0000 18.4314
#
#
#
# Elastic Compliance Matrix: (Units=1/GPa)
#
#
# Indices 1 2 3 4 5 6 
#
# 1 0.020292 -0.005253 0.002293 0.000000 0.001125 0.000000
# 2 -0.005253 0.019585 0.000507 0.000000 0.003454 0.000000
# 3 0.002293 0.000507 0.022980 0.000000 0.014555 0.000000
# 4 0.000000 0.000000 0.000000 0.356763 0.000000 -0.080036
# 5 0.001125 0.003454 0.014555 0.000000 0.057812 0.000000
# 6 0.000000 0.000000 0.000000 -0.080036 0.000000 0.072210
#
#
# Mechanical properties :
#
#
# Convention : Reuss Voigt Hill
#
# Bulk Modulus (GPa) = 17.25554 19.92564 18.59059
# Shear Modulus (GPa) = 8.71285 18.77793 13.74539
#
# Velocity S-wave (km/s) = 2.11165 3.10003 2.65229
# Velocity P-wave (km/s) = 3.84402 4.79700 4.34670
#
# Compressibility (1/GPa) = 0.05795239
#
# Stress axis : x y z
#
# Youngs Moduli (GPa) = 49.28008 51.05824 43.51677
#
# Poissons Ratio (x) = 0.26819 -0.09978
# Poissons Ratio (y) = 0.25885 -0.02208
# Poissons Ratio (z) = -0.11299 -0.02591
#
# Static dielectric constant tensor:
#      x y z
#    x 1.672400 0.000000 -0.006030 
#    y 0.000000 1.673600 0.000000 
#    z -0.006030 0.000000 1.683340 
# 
# From -- ./inp_files/106515.got.cif
#   From: 2010.05.17/outbox.cif.g08.bks.cpg/sg12_54_cif.got.tgz:106515.got - 2010.06.03 13:09:07.
