data_PCOD9212356
_publ_section_title
;
Structure prediction by ZEFSAII (Michael W. Deem and Ramdas Pophale) SiO2 
 PCOD9212356
Probable space group: C 2/M
;
_chemical_formula_sum "Si O2"
_cell_formula_units_Z 56
_cell_length_a 30.796761
_cell_length_b 10.023315
_cell_length_c 10.784999
_cell_angle_alpha 90.000000
_cell_angle_beta 128.131116
_cell_angle_gamma 90.000000
_cell_volume 2618.727851
_symmetry_space_group_name_H-M "C 2/M"
_symmetry_group_IT_number 12
_symmetry_cell_setting 'monoclinic'
loop_
_space_group_symop_operation_xyz
x,y,z
-x,y,-z
-x,-y,-z
x,-y,z
1/2+x,1/2+y,z
1/2-x,1/2+y,-z
1/2-x,1/2-y,-z
1/2+x,1/2-y,z
loop_
_atom_site_type_symbol
_atom_site_label
_atom_site_fract_x
_atom_site_fract_y
_atom_site_fract_z
Si Si1 0.977462 0.749880 0.826309
Si Si2 0.724334 0.655041 0.764111
Si Si3 0.350317 0.654718 0.612594
Si Si4 0.954350 0.642191 0.527978
Si Si5 0.873951 0.843290 0.272770
Si Si6 0.588205 0.352802 0.941378
Si Si7 0.328383 0.161725 0.793846
O O1 0.915655 0.809457 0.727597
O O2 0.976289 0.650437 0.706799
O O3 0.024016 0.852983 0.862621
O O4 0.000000 0.700894 0.000000
O O5 0.736754 0.500000 0.812781
O O6 0.680321 0.663068 0.573374
O O7 0.688808 0.707742 0.817568
O O8 0.781111 0.707660 0.807504
O O9 0.343790 0.500000 0.640625
O O10 0.321311 0.762452 0.651155
O O11 0.924986 0.500000 0.460312
O O12 0.913946 0.763251 0.432667
O O13 0.000000 0.649082 0.500000
O O14 0.898468 0.831187 0.179117
O O15 0.874509 0.000000 0.304740
O O16 0.611074 0.500000 0.014526
O O17 0.615515 0.227436 0.057495
O O18 0.328978 0.000000 0.783639
#
# Coordination Sequence:
#
# PCOD9212356 Si02
#       7
#     8   8   8   8   8   8   8
#     4  12  24  40  64  99 132 169 210 264 323 381
#     4   9  20  40  65  92 121 162 214 270 321 373
#     4  11  22  40  66  92 124 162 212 269 317 375
#     4  11  24  42  64  95 135 175 214 262 321 388
#     4  10  21  41  68  94 121 162 220 272 315 378
#     4  11  24  41  64  95 127 165 215 266 319 385
#     4  11  24  41  61  88 129 171 209 260 328 388
#
# _framework density 21.384429000000001
#
# number of rings (size 3 to 8) (size 9 to 14) (size 15 to 20)
#    0.000    1.286    4.286    1.286    0.000    4.000 
#    0.000    2.143    0.000    0.000    0.000    0.000 
#    0.000    0.000    0.000    0.000    0.000    0.000 
#
# Total GULP energy -156069.787600 kJ/mol
# GULP energy per Si atom -5573.920986 kJ/mol
# Density = 2.133576 g / cm^3
# Si number density = 21.384429 Si / 1000 Ang^3
#
#
#
# Elastic Constant Matrix: (Units=GPa)
#
#
# Indices 1 2 3 4 5 6 
#
# 1 138.6728 23.8449 15.3305 0.0000 -4.8000 0.0000
# 2 23.8449 83.4252 17.1201 0.0000 -10.1718 0.0000
# 3 15.3305 17.1201 34.7383 0.0000 -7.0516 0.0000
# 4 0.0000 0.0000 0.0000 -16.3745 0.0000 13.6484
# 5 -4.8000 -10.1718 -7.0516 0.0000 39.1838 0.0000
# 6 0.0000 0.0000 0.0000 13.6484 0.0000 -5.0558
#
#
#
# Elastic Compliance Matrix: (Units=1/GPa)
#
#
# Indices 1 2 3 4 5 6 
#
# 1 0.007790 -0.001688 -0.002596 0.000000 0.000049 0.000000
# 2 -0.001688 0.013916 -0.005628 0.000000 0.002393 0.000000
# 3 -0.002596 -0.005628 0.033571 0.000000 0.004263 0.000000
# 4 0.000000 0.000000 0.000000 0.048852 0.000000 0.131878
# 5 0.000049 0.002393 0.004263 0.000000 0.026915 0.000000
# 6 0.000000 0.000000 0.000000 0.131878 0.000000 0.158219
#
#
# Mechanical properties :
#
#
# Convention : Reuss Voigt Hill
#
# Bulk Modulus (GPa) = 28.20556 41.04746 34.62651
# Shear Modulus (GPa) = 15.58099 16.92009 16.25054
#
# Velocity S-wave (km/s) = 2.70221 2.81594 2.75966
# Velocity P-wave (km/s) = 4.79107 5.45980 5.13633
#
# Compressibility (1/GPa) = 0.03545400
#
# Stress axis : x y z
#
# Youngs Moduli (GPa) = 128.36718 71.86062 29.78754
#
# Poissons Ratio (x) = 0.12129 0.07733
# Poissons Ratio (y) = 0.21667 0.16763
# Poissons Ratio (z) = 0.33326 0.40440
#
# Static dielectric constant tensor:
#      x y z
#    x 1.835680 0.000000 -0.027910 
#    y 0.000000 1.740640 0.000000 
#    z -0.027910 0.000000 1.810290 
# 
# From -- ./inp_files/187765.got.cif
#   From: 2010.05.17/outbox.cif.g08.bks.cpg/sg12_94_cif.got.tgz:187765.got - 2010.06.03 13:09:07.
