data_PCOD9212057
_publ_section_title
;
Structure prediction by ZEFSAII (Michael W. Deem and Ramdas Pophale) SiO2 
 PCOD9212057
Probable space group: C 2/M
;
_chemical_formula_sum "Si O2"
_cell_formula_units_Z 64
_cell_length_a 17.208258
_cell_length_b 23.342372
_cell_length_c 19.885990
_cell_angle_alpha 90.000000
_cell_angle_beta 158.977590
_cell_angle_gamma 90.000000
_cell_volume 2865.500759
_symmetry_space_group_name_H-M "C 2/M"
_symmetry_group_IT_number 12
_symmetry_cell_setting 'monoclinic'
loop_
_space_group_symop_operation_xyz
x,y,z
-x,y,-z
-x,-y,-z
x,-y,z
1/2+x,1/2+y,z
1/2-x,1/2+y,-z
1/2-x,1/2-y,-z
1/2+x,1/2-y,z
loop_
_atom_site_type_symbol
_atom_site_label
_atom_site_fract_x
_atom_site_fract_y
_atom_site_fract_z
Si Si1 0.239628 0.937813 0.297047
Si Si2 0.571215 0.399795 0.841185
Si Si3 0.557985 0.937367 0.234417
Si Si4 0.715607 0.066277 0.209240
Si Si5 0.319071 0.714031 0.990302
Si Si6 0.914685 0.734708 0.574451
Si Si7 0.576023 0.636391 0.426719
Si Si8 0.758310 0.310558 0.321372
O O1 0.500000 0.941099 0.500000
O O2 0.208913 0.871794 0.246559
O O3 0.121183 0.932995 0.274566
O O4 0.161394 0.000000 0.205519
O O5 0.509123 0.375883 0.717646
O O6 0.637579 0.348424 0.944847
O O7 0.799267 0.433070 0.019127
O O8 0.661597 0.933788 0.244056
O O9 0.677662 0.886702 0.370840
O O10 0.613436 0.000000 0.308528
O O11 0.923564 0.099976 0.352729
O O12 0.743206 0.000000 0.210016
O O13 0.500000 0.090164 0.000000
O O14 0.138277 0.715300 0.787560
O O15 0.250000 0.750000 0.000000
O O16 0.553191 0.730753 0.148336
O O17 0.750000 0.750000 0.500000
O O18 0.943414 0.797846 0.566534
O O19 0.799287 0.687614 0.435076
O O20 0.000000 0.290295 0.500000
#
# Coordination Sequence:
#
# PCOD9212057 Si02
#       8
#     8   8   8   8   8   8   8   8
#     4   9  19  39  67  92 119 158 201 252 321 385
#     4  11  22  39  63  96 125 160 213 268 315 382
#     4  11  24  39  61  92 131 173 214 265 317 369
#     4  10  21  41  62  84 128 176 213 261 313 360
#     4  11  21  41  65  86 122 169 206 252 319 374
#     4  12  23  41  65  91 124 170 214 260 318 377
#     4  12  24  38  61  92 124 170 220 260 311 379
#     4  10  23  41  62  95 130 160 207 264 314 374
#
# _framework density 22.334664
#
# number of rings (size 3 to 8) (size 9 to 14) (size 15 to 20)
#    0.000    1.250    3.750    2.625    0.000    4.000 
#    2.250    0.000    0.000    5.250    0.000   21.000 
#    0.000    0.000    0.000    0.000    0.000    0.000 
#
# Total GULP energy -178322.692781 kJ/mol
# GULP energy per Si atom -5572.584149 kJ/mol
# Density = 2.228383 g / cm^3
# Si number density = 22.334664 Si / 1000 Ang^3
#
#
#
# Elastic Constant Matrix: (Units=GPa)
#
#
# Indices 1 2 3 4 5 6 
#
# 1 50.3249 15.0844 23.7585 -0.0511 35.3886 -0.0125
# 2 15.0844 95.9305 32.9933 0.1037 2.4775 0.0202
# 3 23.7585 32.9933 133.1950 0.0588 13.1749 0.0065
# 4 -0.0511 0.1037 0.0588 43.2962 -0.0162 6.8840
# 5 35.3886 2.4775 13.1749 -0.0162 48.7105 0.0081
# 6 -0.0125 0.0202 0.0065 6.8840 0.0081 19.8105
#
#
#
# Elastic Compliance Matrix: (Units=1/GPa)
#
#
# Indices 1 2 3 4 5 6 
#
# 1 0.045497 -0.005054 -0.003719 0.000054 -0.031791 0.000029
# 2 -0.005054 0.011958 -0.002429 -0.000029 0.003721 -0.000006
# 3 -0.003719 -0.002429 0.008727 -0.000010 0.000465 0.000001
# 4 0.000054 -0.000029 -0.000010 0.024448 -0.000026 -0.008495
# 5 -0.031791 0.003721 0.000465 -0.000026 0.043311 -0.000033
# 6 0.000029 -0.000006 0.000001 -0.008495 -0.000033 0.053431
#
#
# Mechanical properties :
#
#
# Convention : Reuss Voigt Hill
#
# Bulk Modulus (GPa) = 22.84207 47.01365 34.92786
# Shear Modulus (GPa) = 22.28482 36.20437 29.24460
#
# Velocity S-wave (km/s) = 3.16217 4.03053 3.62246
# Velocity P-wave (km/s) = 4.85611 6.53877 5.75923
#
# Compressibility (1/GPa) = 0.04377887
#
# Stress axis : x y z
#
# Youngs Moduli (GPa) = 21.97926 83.62503 114.59023
#
# Poissons Ratio (x) = 0.42265 0.42617
# Poissons Ratio (y) = 0.11109 0.27829
# Poissons Ratio (z) = 0.08174 0.20309
#
# Static dielectric constant tensor:
#      x y z
#    x 1.855340 -0.002520 0.021840 
#    y -0.002520 1.906690 -0.000720 
#    z 0.021840 -0.000720 1.870000 
# 
# From -- ./inp_files/318369.got.cif
#   From: 2010.05.17/outbox.cif.g08.bks.cpg/sg12_160_cif.got.tgz:318369.got - 2010.06.03 13:09:07.
