data_PCOD9212093
_publ_section_title
;
Structure prediction by ZEFSAII (Michael W. Deem and Ramdas Pophale) SiO2 
 PCOD9212093
Probable space group: C 2/M
;
_chemical_formula_sum "Si O2"
_cell_formula_units_Z 56
_cell_length_a 19.465247
_cell_length_b 8.997438
_cell_length_c 28.536271
_cell_angle_alpha 90.000000
_cell_angle_beta 146.219761
_cell_angle_gamma 90.000000
_cell_volume 2778.803317
_symmetry_space_group_name_H-M "C 2/M"
_symmetry_group_IT_number 12
_symmetry_cell_setting 'monoclinic'
loop_
_space_group_symop_operation_xyz
x,y,z
-x,y,-z
-x,-y,-z
x,-y,z
1/2+x,1/2+y,z
1/2-x,1/2+y,-z
1/2-x,1/2-y,-z
1/2+x,1/2-y,z
loop_
_atom_site_type_symbol
_atom_site_label
_atom_site_fract_x
_atom_site_fract_y
_atom_site_fract_z
Si Si1 0.071997 0.825554 0.845824
Si Si2 0.894348 0.178463 0.478226
Si Si3 0.454582 0.178059 0.612700
Si Si4 0.257231 0.175910 0.205816
Si Si5 0.960652 0.676609 0.872641
Si Si6 0.355252 0.676417 0.648995
Si Si7 0.175996 0.322482 0.063177
O O1 0.211014 0.794187 0.908374
O O2 0.028175 0.727585 0.864031
O O3 0.979025 0.801502 0.749650
O O4 0.063918 0.000000 0.854125
O O5 0.760850 0.248306 0.391076
O O6 0.000000 0.214939 0.500000
O O7 0.926898 0.248147 0.547123
O O8 0.885485 0.000000 0.476406
O O9 0.598334 0.208317 0.705905
O O10 0.375013 0.248730 0.609571
O O11 0.435255 0.000000 0.599865
O O12 0.172118 0.248612 0.197217
O O13 0.208880 0.240872 0.129483
O O14 0.241195 0.000000 0.197590
O O15 0.948126 0.500000 0.866718
O O16 0.048751 0.721426 0.966156
O O17 0.334707 0.500000 0.632098
O O18 0.171932 0.500000 0.069972
#
# Coordination Sequence:
#
# PCOD9212093 Si02
#       7
#     8   8   8   8   8   8   8
#     4  10  22  40  63  91 125 164 208 256 310 367
#     4  11  26  45  67  97 130 163 201 250 305 367
#     4  11  24  43  67  94 125 164 210 255 304 368
#     4  11  24  40  62  92 125 164 210 260 310 365
#     4  11  24  38  60  90 126 168 209 259 313 367
#     4  11  23  42  69  95 125 166 206 254 308 365
#     4  10  21  41  63  89 123 164 212 258 310 370
#
# _framework density 20.152560000000001
#
# number of rings (size 3 to 8) (size 9 to 14) (size 15 to 20)
#    0.000    1.286    1.429    3.429    2.000    7.429 
#    0.000    0.000    0.000    0.000    0.000    0.000 
#    0.000    0.000    0.000    0.000    0.000    0.000 
#
# Total GULP energy -156653.134878 kJ/mol
# GULP energy per Si atom -5594.754817 kJ/mol
# Density = 2.010669 g / cm^3
# Si number density = 20.152560 Si / 1000 Ang^3
#
#
#
# Elastic Constant Matrix: (Units=GPa)
#
#
# Indices 1 2 3 4 5 6 
#
# 1 63.6957 34.3752 20.3898 0.0000 24.7066 0.0000
# 2 34.3752 44.9274 27.8327 0.0000 15.0352 0.0000
# 3 20.3898 27.8327 47.6895 0.0000 12.6689 0.0000
# 4 0.0000 0.0000 0.0000 29.3827 0.0000 -1.6707
# 5 24.7066 15.0352 12.6689 0.0000 32.6082 0.0000
# 6 0.0000 0.0000 0.0000 -1.6707 0.0000 36.7388
#
#
#
# Elastic Compliance Matrix: (Units=1/GPa)
#
#
# Indices 1 2 3 4 5 6 
#
# 1 0.032401 -0.021168 0.002709 0.000000 -0.015842 0.000000
# 2 -0.021168 0.051301 -0.021038 0.000000 0.000558 0.000000
# 3 0.002709 -0.021038 0.033517 0.000000 -0.005374 0.000000
# 4 0.000000 0.000000 0.000000 0.034122 0.000000 0.001552
# 5 -0.015842 0.000558 -0.005374 0.000000 0.044501 0.000000
# 6 0.000000 0.000000 0.000000 0.001552 0.000000 0.027290
#
#
# Mechanical properties :
#
#
# Convention : Reuss Voigt Hill
#
# Bulk Modulus (GPa) = 26.16075 35.72311 30.94193
# Shear Modulus (GPa) = 15.87979 24.66027 20.27003
#
# Velocity S-wave (km/s) = 2.81014 3.50191 3.17492
# Velocity P-wave (km/s) = 4.85167 5.84089 5.36911
#
# Compressibility (1/GPa) = 0.03822521
#
# Stress axis : x y z
#
# Youngs Moduli (GPa) = 30.86326 19.49296 29.83591
#
# Poissons Ratio (x) = 0.41262 -0.08083
# Poissons Ratio (y) = 0.65330 0.62769
# Poissons Ratio (z) = -0.08362 0.41010
#
# Static dielectric constant tensor:
#      x y z
#    x 1.696210 0.000000 0.012870 
#    y 0.000000 1.667220 0.000000 
#    z 0.012870 0.000000 1.712720 
# 
# From -- ./inp_files/363124.got.cif
#   From: 2010.05.17/outbox.cif.g08.bks.cpg/sg12_182_cif.got.tgz:363124.got - 2010.06.03 13:09:07.
