data_PCOD9212117
_publ_section_title
;
Structure prediction by ZEFSAII (Michael W. Deem and Ramdas Pophale) SiO2 
 PCOD9212117
Probable space group: C 2/M
;
_chemical_formula_sum "Si O2"
_cell_formula_units_Z 64
_cell_length_a 30.845429
_cell_length_b 8.585132
_cell_length_c 14.119872
_cell_angle_alpha 90.000000
_cell_angle_beta 59.376362
_cell_angle_gamma 90.000000
_cell_volume 3217.625889
_symmetry_space_group_name_H-M "C 2/M"
_symmetry_group_IT_number 12
_symmetry_cell_setting 'monoclinic'
loop_
_space_group_symop_operation_xyz
x,y,z
-x,y,-z
-x,-y,-z
x,-y,z
1/2+x,1/2+y,z
1/2-x,1/2+y,-z
1/2-x,1/2-y,-z
1/2+x,1/2-y,z
loop_
_atom_site_type_symbol
_atom_site_label
_atom_site_fract_x
_atom_site_fract_y
_atom_site_fract_z
Si Si1 0.166891 0.816636 0.833133
Si Si2 0.129167 0.314239 0.065604
Si Si3 0.206495 0.186121 0.117506
Si Si4 0.515810 0.187007 0.187856
Si Si5 0.130346 0.813424 0.535414
Si Si6 0.524584 0.686380 0.570420
Si Si7 0.772078 0.188228 0.690163
Si Si8 0.912124 0.685703 0.222476
O O1 0.218119 0.760393 0.726288
O O2 0.118796 0.768851 0.824980
O O3 0.168462 0.000000 0.846732
O O4 0.162846 0.730993 0.938243
O O5 0.128600 0.500000 0.076536
O O6 0.153857 0.241162 0.131218
O O7 0.072464 0.256994 0.107739
O O8 0.214085 0.236872 0.217604
O O9 0.208796 0.000000 0.113092
O O10 0.250000 0.250000 0.000000
O O11 0.500441 0.234084 0.311022
O O12 0.470037 0.240372 0.171424
O O13 0.516337 0.000000 0.179674
O O14 0.084461 0.786564 0.512879
O O15 0.183158 0.767115 0.430597
O O16 0.115456 0.725124 0.647697
O O17 0.131380 0.000000 0.554019
O O18 0.500000 0.740142 0.500000
O O19 0.516597 0.500000 0.586992
O O20 0.768248 0.000000 0.693206
O O21 0.911646 0.500000 0.206386
#
# Coordination Sequence:
#
# PCOD9212117 Si02
#       8
#     8   8   8   8   8   8   8   8
#     4  12  25  40  61  87 114 149 197 245 295 353
#     4  11  23  40  60  86 120 156 196 240 290 346
#     4  11  22  37  60  87 119 159 196 240 291 343
#     4   9  21  39  59  84 115 154 194 236 287 346
#     4   9  19  37  58  85 117 152 194 238 285 343
#     4   9  18  32  55  84 116 152 190 236 287 338
#     4  10  22  39  60  85 119 157 195 238 288 345
#     4  10  21  41  64  85 115 152 192 242 297 346
#
# _framework density 19.890442
#
# number of rings (size 3 to 8) (size 9 to 14) (size 15 to 20)
#    0.000    1.875    1.250    2.250    1.750    3.750 
#    0.000    2.500    0.000    0.000    0.000    0.000 
#    0.000    0.000    0.000    0.000    0.000    0.000 
#
# Total GULP energy -178752.730872 kJ/mol
# GULP energy per Si atom -5586.022840 kJ/mol
# Density = 1.984517 g / cm^3
# Si number density = 19.890442 Si / 1000 Ang^3
#
#
#
# Elastic Constant Matrix: (Units=GPa)
#
#
# Indices 1 2 3 4 5 6 
#
# 1 93.1008 8.7154 4.4600 0.0000 -7.3019 0.0000
# 2 8.7154 16.8291 -3.8282 0.0000 -5.1374 0.0000
# 3 4.4600 -3.8282 19.7555 0.0000 -19.2490 0.0000
# 4 0.0000 0.0000 0.0000 21.9578 0.0000 1.7674
# 5 -7.3019 -5.1374 -19.2490 0.0000 38.0221 0.0000
# 6 0.0000 0.0000 0.0000 1.7674 0.0000 28.6655
#
#
#
# Elastic Compliance Matrix: (Units=1/GPa)
#
#
# Indices 1 2 3 4 5 6 
#
# 1 0.011626 -0.007959 -0.005998 0.000000 -0.001879 0.000000
# 2 -0.007959 0.088741 0.057600 0.000000 0.039622 0.000000
# 3 -0.005998 0.057600 0.137345 0.000000 0.076163 0.000000
# 4 0.000000 0.000000 0.000000 0.045769 0.000000 -0.002822
# 5 -0.001879 0.039622 0.076163 0.000000 0.069852 0.000000
# 6 0.000000 0.000000 0.000000 -0.002822 0.000000 0.035059
#
#
# Mechanical properties :
#
#
# Convention : Reuss Voigt Hill
#
# Bulk Modulus (GPa) = 3.07695 16.48662 9.78179
# Shear Modulus (GPa) = 12.21182 25.75162 18.98172
#
# Velocity S-wave (km/s) = 2.48050 3.60206 3.09255
# Velocity P-wave (km/s) = 3.12316 5.06029 4.20480
#
# Compressibility (1/GPa) = 0.32499741
#
# Stress axis : x y z
#
# Youngs Moduli (GPa) = 86.01370 11.26875 7.28093
#
# Poissons Ratio (x) = 0.08969 0.04367
# Poissons Ratio (y) = 0.68458 -0.41938
# Poissons Ratio (z) = 0.51592 -0.64908
#
# Static dielectric constant tensor:
#      x y z
#    x 1.729400 0.000000 -0.012630 
#    y 0.000000 1.669280 0.000000 
#    z -0.012630 0.000000 1.674290 
# 
# From -- ./inp_files/249084.got.cif
#   From: 2010.05.17/outbox.cif.g08.bks.cpg/sg12_125_cif.got.tgz:249084.got - 2010.06.03 13:09:07.
