data_PCOD9212521
_publ_section_title
;
Structure prediction by ZEFSAII (Michael W. Deem and Ramdas Pophale) SiO2 
 PCOD9212521
Probable space group: C 2/M
;
_chemical_formula_sum "Si O2"
_cell_formula_units_Z 40
_cell_length_a 13.040590
_cell_length_b 19.134279
_cell_length_c 8.760687
_cell_angle_alpha 90.000000
_cell_angle_beta 59.264274
_cell_angle_gamma 90.000000
_cell_volume 1878.929338
_symmetry_space_group_name_H-M "C 2/M"
_symmetry_group_IT_number 12
_symmetry_cell_setting 'monoclinic'
loop_
_space_group_symop_operation_xyz
x,y,z
-x,y,-z
-x,-y,-z
x,-y,z
1/2+x,1/2+y,z
1/2-x,1/2+y,-z
1/2-x,1/2-y,-z
1/2+x,1/2-y,z
loop_
_atom_site_type_symbol
_atom_site_label
_atom_site_fract_x
_atom_site_fract_y
_atom_site_fract_z
Si Si1 0.281970 0.500000 0.929512
Si Si2 0.046121 0.000000 0.691189
Si Si3 0.764702 0.773862 0.664854
Si Si4 0.114297 0.645467 0.327404
Si Si5 0.500000 0.628745 0.500000
Si Si6 0.203217 0.500000 0.329843
Si Si7 0.123099 0.619153 0.962240
O O1 0.419072 0.500000 0.871482
O O2 0.235385 0.566714 0.873553
O O3 0.213788 0.500000 0.139673
O O4 0.035871 0.072288 0.603678
O O5 0.168702 0.000000 0.688693
O O6 0.750000 0.750000 0.500000
O O7 0.778913 0.699987 0.738326
O O8 0.884004 0.820938 0.601131
O O9 0.657555 0.817213 0.824238
O O10 0.138838 0.573861 0.403450
O O11 0.000000 0.676496 0.500000
O O12 0.100173 0.636799 0.157231
O O13 0.000000 0.585740 0.000000
#
# Coordination Sequence:
#
# PCOD9212521 Si02
#       7
#     4   4   8   8   4   4   8
#     4  10  21  42  65  93 136 170 223 282 321 403
#     4  11  21  42  62  97 130 178 219 277 329 402
#     4  12  24  43  66  96 132 176 222 278 338 399
#     4  11  23  44  66  97 136 172 223 282 329 404
#     4  11  24  40  68  93 134 170 226 277 332 404
#     4  10  23  40  67  98 128 177 225 269 341 391
#     4  11  24  42  66  98 130 177 224 275 338 396
#
# _framework density 21.288719
#
# number of rings (size 3 to 8) (size 9 to 14) (size 15 to 20)
#    0.000    1.000    3.000    3.900    0.000    0.000 
#    0.000    0.000    0.000    0.000    0.000    0.000 
#    0.000    0.000    0.000    0.000    0.000    0.000 
#
# Total GULP energy -111476.267662 kJ/mol
# GULP energy per Si atom -5573.813383 kJ/mol
# Density = 2.124027 g / cm^3
# Si number density = 21.288719 Si / 1000 Ang^3
#
#
#
# Elastic Constant Matrix: (Units=GPa)
#
#
# Indices 1 2 3 4 5 6 
#
# 1 115.1411 28.7622 19.2893 0.0000 10.1460 0.0000
# 2 28.7622 99.9958 20.3585 0.0000 4.4958 0.0000
# 3 19.2893 20.3585 69.7944 0.0000 6.7709 0.0000
# 4 0.0000 0.0000 0.0000 25.8671 0.0000 0.9655
# 5 10.1460 4.4958 6.7709 0.0000 39.1725 0.0000
# 6 0.0000 0.0000 0.0000 0.9655 0.0000 3.4141
#
#
#
# Elastic Compliance Matrix: (Units=1/GPa)
#
#
# Indices 1 2 3 4 5 6 
#
# 1 0.009747 -0.002346 -0.001821 0.000000 -0.001941 0.000000
# 2 -0.002346 0.011215 -0.002601 0.000000 -0.000230 0.000000
# 3 -0.001821 -0.002601 0.015780 0.000000 -0.001957 0.000000
# 4 0.000000 0.000000 0.000000 0.039072 0.000000 -0.011049
# 5 -0.001941 -0.000230 -0.001957 0.000000 0.026395 0.000000
# 6 0.000000 0.000000 0.000000 -0.011049 0.000000 0.296026
#
#
# Mechanical properties :
#
#
# Convention : Reuss Voigt Hill
#
# Bulk Modulus (GPa) = 43.09171 46.86124 44.97648
# Shear Modulus (GPa) = 11.91879 28.12549 20.02214
#
# Velocity S-wave (km/s) = 2.36871 3.63870 3.07009
# Velocity P-wave (km/s) = 5.26940 6.30187 5.80862
#
# Compressibility (1/GPa) = 0.02320632
#
# Stress axis : x y z
#
# Youngs Moduli (GPa) = 102.59529 89.16696 63.37263
#
# Poissons Ratio (x) = 0.20914 0.11543
# Poissons Ratio (y) = 0.24064 0.16482
# Poissons Ratio (z) = 0.18687 0.23190
#
# Static dielectric constant tensor:
#      x y z
#    x 1.760660 0.000000 0.012070 
#    y 0.000000 1.845910 0.000000 
#    z 0.012070 0.000000 1.793310 
# 
# From -- ./inp_files/62635.got.cif
#   From: 2010.05.17/outbox.cif.g08.bks.cpg/sg12_32_cif.got.tgz:62635.got - 2010.06.03 13:09:07.
