data_PCOD9212676
_publ_section_title
;
Structure prediction by ZEFSAII (Michael W. Deem and Ramdas Pophale) SiO2 
 PCOD9212676
Probable space group: C 2/M
;
_chemical_formula_sum "Si O2"
_cell_formula_units_Z 42
_cell_length_a 23.446875
_cell_length_b 16.681673
_cell_length_c 18.850515
_cell_angle_alpha 90.000000
_cell_angle_beta 163.672500
_cell_angle_gamma 90.000000
_cell_volume 2072.768932
_symmetry_space_group_name_H-M "C 2/M"
_symmetry_group_IT_number 12
_symmetry_cell_setting 'monoclinic'
loop_
_space_group_symop_operation_xyz
x,y,z
-x,y,-z
-x,-y,-z
x,-y,z
1/2+x,1/2+y,z
1/2-x,1/2+y,-z
1/2-x,1/2-y,-z
1/2+x,1/2-y,z
loop_
_atom_site_type_symbol
_atom_site_label
_atom_site_fract_x
_atom_site_fract_y
_atom_site_fract_z
Si Si1 0.432920 0.242001 0.623072
Si Si2 0.987890 0.165722 0.907345
Si Si3 0.217682 0.410540 0.167844
Si Si4 0.000000 0.000000 0.000000
Si Si5 0.729034 0.258377 0.856142
Si Si6 0.263365 0.410545 0.391410
O O1 0.223192 0.194514 0.378607
O O2 0.596888 0.221879 0.878205
O O3 0.385933 0.336865 0.569635
O O4 0.537035 0.227031 0.670834
O O5 0.174091 0.195203 0.082401
O O6 0.000000 0.207243 0.000000
O O7 0.990642 0.071998 0.928329
O O8 0.273536 0.500000 0.209698
O O9 0.265484 0.404895 0.308366
O O10 0.311141 0.339913 0.233794
O O11 0.973208 0.402840 0.870199
O O12 0.333668 0.500000 0.495376
#
# Coordination Sequence:
#
# PCOD9212676 Si02
#       6
#     8   8   8   2   8   8
#     4  11  23  38  59  89 122 159 198 241 302 365
#     4  10  21  43  63  86 115 152 202 258 293 357
#     4   9  18  34  57  87 117 149 190 237 287 345
#     4   8  24  44  66  92 114 150 218 252 318 348
#     4  11  23  38  59  89 122 159 198 241 302 365
#     4   9  18  34  57  87 117 149 190 237 287 345
#
# _framework density 20.26275
#
# number of rings (size 3 to 8) (size 9 to 14) (size 15 to 20)
#    0.571    1.524    1.905    2.857    0.000    3.810 
#    3.429    3.810    0.000    0.000    0.000    0.000 
#    0.000    0.000    0.000    0.000    0.000    0.000 
#
# Total GULP energy -117068.371893 kJ/mol
# GULP energy per Si atom -5574.684376 kJ/mol
# Density = 2.021663 g / cm^3
# Si number density = 20.262750 Si / 1000 Ang^3
#
#
#
# Elastic Constant Matrix: (Units=GPa)
#
#
# Indices 1 2 3 4 5 6 
#
# 1 73.3293 40.5066 11.9776 -0.0087 16.0070 -0.0113
# 2 40.5066 139.5122 26.8178 -0.0017 6.6771 0.0012
# 3 11.9776 26.8178 64.9219 -0.0281 9.3046 -0.0491
# 4 -0.0087 -0.0017 -0.0281 -23.0640 -0.0030 -64.3975
# 5 16.0070 6.6771 9.3046 -0.0030 30.7860 -0.0055
# 6 -0.0113 0.0012 -0.0491 -64.3975 -0.0055 -112.0297
#
#
#
# Elastic Compliance Matrix: (Units=1/GPa)
#
#
# Indices 1 2 3 4 5 6 
#
# 1 0.018159 -0.004844 -0.000153 0.000002 -0.008345 -0.000003
# 2 -0.004844 0.009095 -0.003075 0.000001 0.001475 0.000001
# 3 -0.000153 -0.003075 0.017346 -0.000001 -0.004496 -0.000007
# 4 0.000002 0.000001 -0.000001 0.071667 -0.000002 -0.041196
# 5 -0.008345 0.001475 -0.004496 -0.000002 0.037860 0.000002
# 6 -0.000003 0.000001 -0.000007 -0.041196 0.000002 0.014754
#
#
# Mechanical properties :
#
#
# Convention : Reuss Voigt Hill
#
# Bulk Modulus (GPa) = 35.14143 48.48527 41.81335
# Shear Modulus (GPa) = 25.70562 -7.63076 9.03743
#
# Velocity S-wave (km/s) = 3.56563 -1.94270 2.11419
# Velocity P-wave (km/s) = 5.85936 4.35294 5.16141
#
# Compressibility (1/GPa) = 0.02845644
#
# Stress axis : x y z
#
# Youngs Moduli (GPa) = 55.06801 109.95594 57.65084
#
# Poissons Ratio (x) = 0.53258 0.00885
# Poissons Ratio (y) = 0.26673 0.17725
# Poissons Ratio (z) = 0.00845 0.33807
#
# Static dielectric constant tensor:
#      x y z
#    x 1.760420 0.000000 0.010780 
#    y 0.000000 1.687400 0.000000 
#    z 0.010780 0.000000 1.724740 
# 
# From -- ./inp_files/285135.got.cif
#   From: 2010.05.17/outbox.cif.g08.bks.cpg/sg12_143_cif.got.tgz:285135.got - 2010.06.03 13:09:07.
