data_PCOD9212768
_publ_section_title
;
Structure prediction by ZEFSAII (Michael W. Deem and Ramdas Pophale) SiO2 
 PCOD9212768
Probable space group: C 2/M
;
_chemical_formula_sum "Si O2"
_cell_formula_units_Z 48
_cell_length_a 12.083356
_cell_length_b 29.665813
_cell_length_c 14.709176
_cell_angle_alpha 90.000000
_cell_angle_beta 27.606871
_cell_angle_gamma 90.000000
_cell_volume 2443.376325
_symmetry_space_group_name_H-M "C 2/M"
_symmetry_group_IT_number 12
_symmetry_cell_setting 'monoclinic'
loop_
_space_group_symop_operation_xyz
x,y,z
-x,y,-z
-x,-y,-z
x,-y,z
1/2+x,1/2+y,z
1/2-x,1/2+y,-z
1/2-x,1/2-y,-z
1/2+x,1/2-y,z
loop_
_atom_site_type_symbol
_atom_site_label
_atom_site_fract_x
_atom_site_fract_y
_atom_site_fract_z
Si Si1 0.325254 0.818323 0.707461
Si Si2 0.890008 0.113587 0.838047
Si Si3 0.196616 0.797807 0.994691
Si Si4 0.271178 0.448878 0.763814
Si Si5 0.002157 0.448206 0.786370
Si Si6 0.569211 0.087253 0.540517
O O1 0.500000 0.802070 0.500000
O O2 0.380115 0.871562 0.679890
O O3 0.065146 0.805550 0.858935
O O4 0.361516 0.801393 0.784289
O O5 0.792909 0.163082 0.935639
O O6 0.872119 0.092262 0.749793
O O7 0.167912 0.108759 0.659140
O O8 0.723221 0.081330 0.020096
O O9 0.250000 0.750000 0.000000
O O10 0.375939 0.500000 0.699104
O O11 0.225954 0.438403 0.690486
O O12 0.000000 0.452315 0.000000
O O13 0.941993 0.500000 0.846114
O O14 0.060017 0.439675 0.640049
O O15 0.500000 0.060517 0.500000
#
# Coordination Sequence:
#
# PCOD9212768 Si02
#       6
#     8   8   8   8   8   8
#     4  10  21  44  65  87 127 169 198 258 328 381
#     4  11  20  38  65  91 125 164 210 263 318 377
#     4  11  23  40  68  95 120 163 219 264 321 387
#     4   8  17  36  60  85 120 164 203 255 324 373
#     4  10  22  40  62  90 127 169 213 266 320 377
#     4  11  22  38  65  87 123 173 213 249 319 388
#
# _framework density 19.644949
#
# number of rings (size 3 to 8) (size 9 to 14) (size 15 to 20)
#    0.000    1.833    5.000    1.500    0.000    3.667 
#    9.000    2.500    0.000    0.000    0.000    0.000 
#    0.000    0.000    0.000    0.000    0.000    0.000 
#
# Total GULP energy -133677.361988 kJ/mol
# GULP energy per Si atom -5569.890083 kJ/mol
# Density = 1.960024 g / cm^3
# Si number density = 19.644949 Si / 1000 Ang^3
#
#
#
# Elastic Constant Matrix: (Units=GPa)
#
#
# Indices 1 2 3 4 5 6 
#
# 1 149.6002 70.3431 21.9481 0.0000 31.8215 0.0000
# 2 70.3431 125.8026 25.5330 0.0000 7.7545 0.0000
# 3 21.9481 25.5330 42.4214 0.0000 17.7046 0.0000
# 4 0.0000 0.0000 0.0000 13.0045 0.0000 11.7652
# 5 31.8215 7.7545 17.7046 0.0000 42.1836 0.0000
# 6 0.0000 0.0000 0.0000 11.7652 0.0000 31.3579
#
#
#
# Elastic Compliance Matrix: (Units=1/GPa)
#
#
# Indices 1 2 3 4 5 6 
#
# 1 0.010885 -0.005830 0.001039 0.000000 -0.007575 0.000000
# 2 -0.005830 0.012198 -0.006335 0.000000 0.004814 0.000000
# 3 0.001039 -0.006335 0.032357 0.000000 -0.013200 0.000000
# 4 0.000000 0.000000 0.000000 0.116410 0.000000 -0.043676
# 5 -0.007575 0.004814 -0.013200 0.000000 0.034075 0.000000
# 6 0.000000 0.000000 0.000000 -0.043676 0.000000 0.048277
#
#
# Mechanical properties :
#
#
# Convention : Reuss Voigt Hill
#
# Bulk Modulus (GPa) = 30.13111 61.49695 45.81403
# Shear Modulus (GPa) = 17.39031 30.64256 24.01643
#
# Velocity S-wave (km/s) = 2.97851 3.95374 3.50026
# Velocity P-wave (km/s) = 5.21535 7.22599 6.30138
#
# Compressibility (1/GPa) = 0.03318829
#
# Stress axis : x y z
#
# Youngs Moduli (GPa) = 91.87111 81.98143 30.90522
#
# Poissons Ratio (x) = 0.47797 -0.03212
# Poissons Ratio (y) = 0.53563 0.19577
# Poissons Ratio (z) = -0.09547 0.51932
#
# Static dielectric constant tensor:
#      x y z
#    x 1.765260 0.000000 0.042930 
#    y 0.000000 1.667400 0.000000 
#    z 0.042930 0.000000 1.788760 
# 
# From -- ./inp_files/209780.got.cif
#   From: 2010.05.17/outbox.cif.g08.bks.cpg/sg12_105_cif.got.tgz:209780.got - 2010.06.03 13:09:07.
