data_PCOD9212418
_publ_section_title
;
Structure prediction by ZEFSAII (Michael W. Deem and Ramdas Pophale) SiO2 
 PCOD9212418
Probable space group: C 2/M
;
_chemical_formula_sum "Si O2"
_cell_formula_units_Z 40
_cell_length_a 7.880225
_cell_length_b 22.849309
_cell_length_c 13.587576
_cell_angle_alpha 90.000000
_cell_angle_beta 41.908674
_cell_angle_gamma 90.000000
_cell_volume 1634.159816
_symmetry_space_group_name_H-M "C 2/M"
_symmetry_group_IT_number 12
_symmetry_cell_setting 'monoclinic'
loop_
_space_group_symop_operation_xyz
x,y,z
-x,y,-z
-x,-y,-z
x,-y,z
1/2+x,1/2+y,z
1/2-x,1/2+y,-z
1/2-x,1/2-y,-z
1/2+x,1/2-y,z
loop_
_atom_site_type_symbol
_atom_site_label
_atom_site_fract_x
_atom_site_fract_y
_atom_site_fract_z
Si Si1 0.879176 0.611886 0.951710
Si Si2 0.707802 0.269688 0.340449
Si Si3 0.802759 0.324879 0.793278
Si Si4 0.418153 0.398725 0.645451
Si Si5 0.637950 0.564291 0.749651
O O1 0.759484 0.657211 0.925462
O O2 0.124716 0.583483 0.793401
O O3 0.649245 0.570367 0.082282
O O4 0.000000 0.637770 0.000000
O O5 0.500000 0.239990 0.500000
O O6 0.835098 0.225889 0.208379
O O7 0.588284 0.327637 0.341937
O O8 0.917738 0.297185 0.320995
O O9 0.788752 0.383908 0.736715
O O10 0.500000 0.413163 0.500000
O O11 0.598607 0.424603 0.650945
O O12 0.740185 0.500000 0.725080
#
# Coordination Sequence:
#
# PCOD9212418 Si02
#       5
#     8   8   8   8   8
#     4   9  21  41  63  93 133 179 221 271 336 399
#     4  10  21  41  70 100 137 175 212 275 348 412
#     4  11  22  39  67 100 129 173 230 272 325 404
#     4   9  20  42  70 102 134 173 223 277 341 404
#     4  11  24  43  66  96 138 183 227 276 334 398
#
# _framework density 24.477409000000002
#
# number of rings (size 3 to 8) (size 9 to 14) (size 15 to 20)
#    0.000    2.000    0.000    2.400    0.000    8.800 
#    0.000   39.000    0.000   20.400    0.000    0.000 
#    0.000    0.000    0.000    0.000    0.000    0.000 
#
# Total GULP energy -111769.906732 kJ/mol
# GULP energy per Si atom -5588.495337 kJ/mol
# Density = 2.442170 g / cm^3
# Si number density = 24.477409 Si / 1000 Ang^3
#
#
#
# Elastic Constant Matrix: (Units=GPa)
#
#
# Indices 1 2 3 4 5 6 
#
# 1 136.6893 62.5715 41.1092 0.0000 20.1546 0.0000
# 2 62.5715 130.3483 17.5609 0.0000 14.7644 0.0000
# 3 41.1092 17.5609 109.1037 0.0000 32.1996 0.0000
# 4 0.0000 0.0000 0.0000 -4.0077 0.0000 12.6293
# 5 20.1546 14.7644 32.1996 0.0000 27.6509 0.0000
# 6 0.0000 0.0000 0.0000 12.6293 0.0000 17.1271
#
#
#
# Elastic Compliance Matrix: (Units=1/GPa)
#
#
# Indices 1 2 3 4 5 6 
#
# 1 0.010437 -0.004408 -0.002548 0.000000 -0.002286 0.000000
# 2 -0.004408 0.010027 0.001034 0.000000 -0.003346 0.000000
# 3 -0.002548 0.001034 0.014588 0.000000 -0.015682 0.000000
# 4 0.000000 0.000000 0.000000 -0.075073 0.000000 0.055358
# 5 -0.002286 -0.003346 -0.015682 0.000000 0.057880 0.000000
# 6 0.000000 0.000000 0.000000 0.055358 0.000000 0.017567
#
#
# Mechanical properties :
#
#
# Convention : Reuss Voigt Hill
#
# Bulk Modulus (GPa) = 43.08833 68.73605 55.91219
# Shear Modulus (GPa) = 90.89998 25.14737 58.02368
#
# Velocity S-wave (km/s) = 6.10057 3.20874 4.87406
# Velocity P-wave (km/s) = 8.20147 6.47073 7.38696
#
# Compressibility (1/GPa) = 0.02320814
#
# Stress axis : x y z
#
# Youngs Moduli (GPa) = 95.81136 99.72765 68.55163
#
# Poissons Ratio (x) = 0.43959 0.17470
# Poissons Ratio (y) = 0.42233 -0.07090
# Poissons Ratio (z) = 0.24416 -0.10315
#
# Static dielectric constant tensor:
#      x y z
#    x 2.019750 0.000000 0.002900 
#    y 0.000000 1.938360 0.000000 
#    z 0.002900 0.000000 2.065660 
# 
# From -- ./inp_files/198183.got.cif
#   From: 2010.05.17/outbox.cif.g08.bks.cpg/sg12_100_cif.got.tgz:198183.got - 2010.06.03 13:09:07.
