data_PCOD9212256
_publ_section_title
;
Structure prediction by ZEFSAII (Michael W. Deem and Ramdas Pophale) SiO2 
 PCOD9212256
Probable space group: C 2/M
;
_chemical_formula_sum "Si O2"
_cell_formula_units_Z 48
_cell_length_a 20.849289
_cell_length_b 16.409091
_cell_length_c 15.389762
_cell_angle_alpha 90.000000
_cell_angle_beta 29.054510
_cell_angle_gamma 90.000000
_cell_volume 2556.957233
_symmetry_space_group_name_H-M "C 2/M"
_symmetry_group_IT_number 12
_symmetry_cell_setting 'monoclinic'
loop_
_space_group_symop_operation_xyz
x,y,z
-x,y,-z
-x,-y,-z
x,-y,z
1/2+x,1/2+y,z
1/2-x,1/2+y,-z
1/2-x,1/2-y,-z
1/2+x,1/2-y,z
loop_
_atom_site_type_symbol
_atom_site_label
_atom_site_fract_x
_atom_site_fract_y
_atom_site_fract_z
Si Si1 0.874617 0.840926 0.401044
Si Si2 0.119512 0.904014 0.418544
Si Si3 0.396929 0.822944 0.046786
Si Si4 0.065199 0.131989 0.013465
Si Si5 0.215703 0.500000 0.214673
Si Si6 0.038962 0.500000 0.597058
Si Si7 0.913600 0.651969 0.333462
O O1 0.913125 0.887425 0.442345
O O2 0.897733 0.744044 0.388789
O O3 0.721289 0.858158 0.561784
O O4 0.957544 0.865856 0.217929
O O5 0.255112 0.859783 0.233660
O O6 0.000000 0.874538 0.500000
O O7 0.136984 0.000000 0.383613
O O8 0.500000 0.847191 0.000000
O O9 0.390069 0.724872 0.055325
O O10 0.462291 0.849094 0.878597
O O11 0.187504 0.077335 0.897380
O O12 0.000000 0.102797 0.000000
O O13 0.130859 0.500000 0.403396
O O14 0.111955 0.500000 0.258533
O O15 0.070347 0.580760 0.615784
#
# Coordination Sequence:
#
# PCOD9212256 Si02
#       7
#     8   8   8   8   4   4   8
#     4  10  22  41  67  93 123 161 208 262 314 373
#     4  11  26  42  62  93 129 169 209 258 320 376
#     4  10  21  41  66  94 123 160 209 259 311 370
#     4  10  22  40  67  94 123 161 207 260 313 370
#     4  11  25  42  58  89 132 167 207 252 312 372
#     4  11  26  40  61  91 126 169 208 256 308 376
#     4  10  22  40  66  95 121 159 212 257 312 370
#
# _framework density 18.772311999999999
#
# number of rings (size 3 to 8) (size 9 to 14) (size 15 to 20)
#    0.000    1.667    1.667    1.250    8.167    3.000 
#    0.000    3.333    0.000    0.000    0.000    0.000 
#    0.000    0.000    0.000    0.000    0.000    0.000 
#
# Total GULP energy -134098.316617 kJ/mol
# GULP energy per Si atom -5587.429859 kJ/mol
# Density = 1.872959 g / cm^3
# Si number density = 18.772312 Si / 1000 Ang^3
#
#
#
# Elastic Constant Matrix: (Units=GPa)
#
#
# Indices 1 2 3 4 5 6 
#
# 1 99.3623 50.2508 54.7807 0.0000 -13.8607 0.0000
# 2 50.2508 60.2383 51.6667 0.0000 -5.8836 0.0000
# 3 54.7807 51.6667 101.4717 0.0000 -14.3127 0.0000
# 4 0.0000 0.0000 0.0000 25.4057 0.0000 -4.4487
# 5 -13.8607 -5.8836 -14.3127 0.0000 26.7957 0.0000
# 6 0.0000 0.0000 0.0000 -4.4487 0.0000 19.6935
#
#
#
# Elastic Compliance Matrix: (Units=1/GPa)
#
#
# Indices 1 2 3 4 5 6 
#
# 1 0.018854 -0.012646 -0.002980 0.000000 0.005384 0.000000
# 2 -0.012646 0.038023 -0.013279 0.000000 -0.005285 0.000000
# 3 -0.002980 -0.013279 0.019030 0.000000 0.005708 0.000000
# 4 0.000000 0.000000 0.000000 0.040982 0.000000 0.009258
# 5 0.005384 -0.005285 0.005708 0.000000 0.041993 0.000000
# 6 0.000000 0.000000 0.000000 0.009258 0.000000 0.052870
#
#
# Mechanical properties :
#
#
# Convention : Reuss Voigt Hill
#
# Bulk Modulus (GPa) = 55.25672 63.82985 59.54329
# Shear Modulus (GPa) = 18.14273 21.33726 19.73999
#
# Velocity S-wave (km/s) = 3.11217 3.37506 3.24628
# Velocity P-wave (km/s) = 6.51255 7.01883 6.77042
#
# Compressibility (1/GPa) = 0.01809734
#
# Stress axis : x y z
#
# Youngs Moduli (GPa) = 53.04033 26.29993 52.54870
#
# Poissons Ratio (x) = 0.33259 0.15659
# Poissons Ratio (y) = 0.67074 0.69778
# Poissons Ratio (z) = 0.15806 0.34923
#
# Static dielectric constant tensor:
#      x y z
#    x 1.635880 0.000000 0.009220 
#    y 0.000000 1.641740 0.000000 
#    z 0.009220 0.000000 1.624240 
# 
# From -- ./inp_files/226770.got.cif
#   From: 2010.05.17/outbox.cif.g08.bks.cpg/sg12_114_cif.got.tgz:226770.got - 2010.06.03 13:09:07.
