data_PCOD9212920
_publ_section_title
;
Structure prediction by ZEFSAII (Michael W. Deem and Ramdas Pophale) SiO2 
 PCOD9212920
Probable space group: C 2/M
;
_chemical_formula_sum "Si O2"
_cell_formula_units_Z 48
_cell_length_a 8.619266
_cell_length_b 24.171742
_cell_length_c 13.505641
_cell_angle_alpha 90.000000
_cell_angle_beta 108.608409
_cell_angle_gamma 90.000000
_cell_volume 2666.700293
_symmetry_space_group_name_H-M "C 2/M"
_symmetry_group_IT_number 12
_symmetry_cell_setting 'monoclinic'
loop_
_space_group_symop_operation_xyz
x,y,z
-x,y,-z
-x,-y,-z
x,-y,z
1/2+x,1/2+y,z
1/2-x,1/2+y,-z
1/2-x,1/2-y,-z
1/2+x,1/2-y,z
loop_
_atom_site_type_symbol
_atom_site_label
_atom_site_fract_x
_atom_site_fract_y
_atom_site_fract_z
Si Si1 0.752151 0.500000 0.377027
Si Si2 0.506155 0.810026 0.883333
Si Si3 0.877178 0.189974 0.883333
Si Si4 0.787090 0.383964 0.700778
Si Si5 0.375124 0.000000 0.622973
Si Si6 0.413688 0.616036 0.700778
Si Si7 0.313424 0.311727 0.500000
O O1 0.768281 0.500000 0.500000
O O2 0.659113 0.554841 0.322962
O O3 0.935803 0.500000 0.371607
O O4 0.692923 0.807916 0.885845
O O5 0.424148 0.750000 0.848297
O O6 0.407986 0.856703 0.804571
O O7 0.500000 0.819230 0.000000
O O8 0.896585 0.143297 0.804571
O O9 0.000000 0.180770 0.000000
O O10 0.836151 0.445159 0.677038
O O11 0.603287 0.384386 0.706574
O O12 0.786447 0.345430 0.602869
O O13 0.316423 0.654570 0.602869
O O14 0.500000 0.309489 0.500000
O O15 0.250000 0.250000 0.500000
#
# Coordination Sequence:
#
# PCOD9212920 Si02
#       7
#     4   8   8   8   4   8   8
#     4  11  23  39  60  87 118 159 203 246 294 352
#     4  11  22  39  62  90 121 158 199 245 298 356
#     4  11  22  39  62  90 121 158 199 245 298 356
#     4  11  22  39  60  86 118 158 200 245 296 353
#     4  11  23  39  60  87 118 159 203 246 294 352
#     4  11  22  39  60  86 118 158 200 245 296 353
#     4  10  22  35  54  83 117 152 190 236 293 350
#
# _framework density 17.999772
#
# number of rings (size 3 to 8) (size 9 to 14) (size 15 to 20)
#    0.000    1.167    1.667    6.500    0.000    6.000 
#    0.000    0.833    0.000    0.000    0.000    0.000 
#    0.000    0.000    0.000    0.000    0.000    0.000 
#
# Total GULP energy -134220.839468 kJ/mol
# GULP energy per Si atom -5592.534978 kJ/mol
# Density = 1.795880 g / cm^3
# Si number density = 17.999772 Si / 1000 Ang^3
#
#
#
# Elastic Constant Matrix: (Units=GPa)
#
#
# Indices 1 2 3 4 5 6 
#
# 1 114.2791 63.7472 52.5029 0.0000 -0.2664 0.0000
# 2 63.7472 194.0638 92.3948 0.0000 0.4603 0.0000
# 3 52.5029 92.3948 101.9203 0.0000 0.0679 0.0000
# 4 0.0000 0.0000 0.0000 23.3603 0.0000 -0.2298
# 5 -0.2664 0.4603 0.0679 0.0000 22.6025 0.0000
# 6 0.0000 0.0000 0.0000 -0.2298 0.0000 37.6721
#
#
#
# Elastic Compliance Matrix: (Units=1/GPa)
#
#
# Indices 1 2 3 4 5 6 
#
# 1 0.011784 -0.001726 -0.004506 0.000000 0.000188 0.000000
# 2 -0.001726 0.009319 -0.007559 0.000000 -0.000187 0.000000
# 3 -0.004506 -0.007559 0.018985 0.000000 0.000044 0.000000
# 4 0.000000 0.000000 0.000000 0.042810 0.000000 0.000261
# 5 0.000188 -0.000187 0.000044 0.000000 0.044249 0.000000
# 6 0.000000 0.000000 0.000000 0.000261 0.000000 0.026546
#
#
# Mechanical properties :
#
#
# Convention : Reuss Voigt Hill
#
# Bulk Modulus (GPa) = 79.95679 91.95033 85.95356
# Shear Modulus (GPa) = 26.96233 30.16820 28.56527
#
# Velocity S-wave (km/s) = 3.87450 4.09838 3.98801
# Velocity P-wave (km/s) = 8.03325 8.57850 8.31035
#
# Compressibility (1/GPa) = 0.01250675
#
# Stress axis : x y z
#
# Youngs Moduli (GPa) = 84.86229 107.30462 52.67293
#
# Poissons Ratio (x) = 0.18522 0.23732
# Poissons Ratio (y) = 0.14648 0.39815
# Poissons Ratio (z) = 0.38236 0.81111
#
# Static dielectric constant tensor:
#      x y z
#    x 1.603880 0.000000 -0.000030 
#    y 0.000000 1.580940 0.000000 
#    z -0.000030 0.000000 1.602250 
# 
# From -- ./inp_files/122617.got.cif
#   From: 2010.05.17/outbox.cif.g08.bks.cpg/sg12_62_cif.got.tgz:122617.got - 2010.06.03 13:09:07.
