data_PCOD9212246
_publ_section_title
;
Structure prediction by ZEFSAII (Michael W. Deem and Ramdas Pophale) SiO2 
 PCOD9212246
Probable space group: C 2/M
;
_chemical_formula_sum "Si O2"
_cell_formula_units_Z 58
_cell_length_a 26.333887
_cell_length_b 21.197143
_cell_length_c 15.007829
_cell_angle_alpha 90.000000
_cell_angle_beta 18.936055
_cell_angle_gamma 90.000000
_cell_volume 2718.578480
_symmetry_space_group_name_H-M "C 2/M"
_symmetry_group_IT_number 12
_symmetry_cell_setting 'monoclinic'
loop_
_space_group_symop_operation_xyz
x,y,z
-x,y,-z
-x,-y,-z
x,-y,z
1/2+x,1/2+y,z
1/2-x,1/2+y,-z
1/2-x,1/2-y,-z
1/2+x,1/2-y,z
loop_
_atom_site_type_symbol
_atom_site_label
_atom_site_fract_x
_atom_site_fract_y
_atom_site_fract_z
Si Si1 0.224760 0.068958 0.232758
Si Si2 0.941912 0.207104 0.816871
Si Si3 0.435907 0.248188 0.200408
Si Si4 0.565318 0.569297 0.162050
Si Si5 0.350311 0.295179 0.690879
Si Si6 0.552632 0.105153 0.770770
Si Si7 0.000000 0.500000 0.000000
Si Si8 0.142431 0.926926 0.826369
O O1 0.178056 0.129778 0.253666
O O2 0.113359 0.069385 0.505479
O O3 0.202975 0.000000 0.226258
O O4 0.401837 0.077555 0.970379
O O5 0.875485 0.137388 0.902974
O O6 0.999140 0.212739 0.823656
O O7 0.093188 0.217874 0.503928
O O8 0.805836 0.257592 0.027797
O O9 0.250000 0.250000 0.500000
O O10 0.485753 0.175444 0.133206
O O11 0.500000 0.270156 0.000000
O O12 0.629709 0.500000 0.083354
O O13 0.588381 0.573680 0.018198
O O14 0.500000 0.276458 0.500000
O O15 0.700883 0.109937 0.459062
O O16 0.581666 0.056179 0.802591
O O17 0.180206 0.000000 0.743451
O O18 0.000000 0.908342 0.000000
#
# Coordination Sequence:
#
# PCOD9212246 Si02
#       8
#     8   8   8   8   8   8   2   8
#     4  10  21  41  66  92 127 166 212 273 330 379
#     4  11  24  43  67  93 134 171 213 275 329 390
#     4  12  28  41  60  91 132 178 223 259 313 384
#     4   9  22  38  61  86 118 163 209 259 324 377
#     4  11  24  44  70 100 127 169 222 272 342 401
#     4  12  24  38  59  87 127 173 220 264 314 378
#     4  12  24  36  62  92 126 176 226 262 314 380
#     4  10  22  34  51  83 118 161 214 261 299 362
#
# _framework density 21.334679000000001
#
# number of rings (size 3 to 8) (size 9 to 14) (size 15 to 20)
#    0.000    1.241    3.448    1.241    9.655    0.276 
#    0.000    0.000    0.000    0.414    0.000    0.000 
#    0.000    0.000    0.000    0.000    0.000    0.000 
#
# Total GULP energy -161692.991544 kJ/mol
# GULP energy per Si atom -5575.620398 kJ/mol
# Density = 2.128612 g / cm^3
# Si number density = 21.334679 Si / 1000 Ang^3
#
#
#
# Elastic Constant Matrix: (Units=GPa)
#
#
# Indices 1 2 3 4 5 6 
#
# 1 30.0884 2.1402 4.5530 0.0008 -1.6627 -0.0022
# 2 2.1402 142.6506 13.6505 -0.0007 -0.3361 -0.0004
# 3 4.5530 13.6505 61.3044 -0.0006 -2.5493 0.0007
# 4 0.0008 -0.0007 -0.0006 29.7779 0.0009 5.6841
# 5 -1.6627 -0.3361 -2.5493 0.0009 22.9476 -0.0005
# 6 -0.0022 -0.0004 0.0007 5.6841 -0.0005 -4.1678
#
#
#
# Elastic Compliance Matrix: (Units=1/GPa)
#
#
# Indices 1 2 3 4 5 6 
#
# 1 0.033731 -0.000276 -0.002353 0.000002 0.002179 -0.000016
# 2 -0.000276 0.007165 -0.001579 0.000000 -0.000090 -0.000001
# 3 -0.002353 -0.001579 0.016908 0.000000 0.001685 0.000004
# 4 0.000002 0.000000 0.000000 0.026645 0.000000 0.036339
# 5 0.002179 -0.000090 0.001685 0.000000 0.043921 -0.000006
# 6 -0.000016 -0.000001 0.000004 0.036339 -0.000006 -0.190377
#
#
# Mechanical properties :
#
#
# Convention : Reuss Voigt Hill
#
# Bulk Modulus (GPa) = 20.24716 30.52564 25.38640
# Shear Modulus (GPa) = -134.67436 23.95820 -55.35808
#
# Velocity S-wave (km/s) = -7.95372 3.35471 -5.09939
# Velocity P-wave (km/s) = 8.65090 5.41706 4.76936
#
# Compressibility (1/GPa) = 0.04938965
#
# Stress axis : x y z
#
# Youngs Moduli (GPa) = 29.64592 139.56487 59.14227
#
# Poissons Ratio (x) = 0.03849 0.13917
# Poissons Ratio (y) = 0.00818 0.09337
# Poissons Ratio (z) = 0.06976 0.22033
#
# Static dielectric constant tensor:
#      x y z
#    x 1.773350 0.000000 0.010280 
#    y 0.000000 1.833170 0.000000 
#    z 0.010280 0.000000 1.751400 
# 
# From -- ./inp_files/247266.got.cif
#   From: 2010.05.17/outbox.cif.g08.bks.cpg/sg12_124_cif.got.tgz:247266.got - 2010.06.03 13:09:07.
