data_PCOD9212515
_publ_section_title
;
Structure prediction by ZEFSAII (Michael W. Deem and Ramdas Pophale) SiO2 
 PCOD9212515
Probable space group: C 2/M
;
_chemical_formula_sum "Si O2"
_cell_formula_units_Z 42
_cell_length_a 15.478431
_cell_length_b 7.747687
_cell_length_c 18.446009
_cell_angle_alpha 90.000000
_cell_angle_beta 61.446029
_cell_angle_gamma 90.000000
_cell_volume 1943.021271
_symmetry_space_group_name_H-M "C 2/M"
_symmetry_group_IT_number 12
_symmetry_cell_setting 'monoclinic'
loop_
_space_group_symop_operation_xyz
x,y,z
-x,y,-z
-x,-y,-z
x,-y,z
1/2+x,1/2+y,z
1/2-x,1/2+y,-z
1/2-x,1/2-y,-z
1/2+x,1/2-y,z
loop_
_atom_site_type_symbol
_atom_site_label
_atom_site_fract_x
_atom_site_fract_y
_atom_site_fract_z
Si Si1 0.580671 0.788834 0.908211
Si Si2 0.849976 0.198497 0.387143
Si Si3 0.499268 0.797917 0.787466
Si Si4 0.000000 0.500000 0.500000
Si Si5 0.140938 0.799560 0.448957
Si Si6 0.276956 0.706141 0.906200
O O1 0.548005 0.729772 0.842150
O O2 0.687805 0.731956 0.891294
O O3 0.579733 0.000000 0.907966
O O4 0.500000 0.735379 0.000000
O O5 0.864390 0.259419 0.463801
O O6 0.757579 0.290185 0.386174
O O7 0.948771 0.213515 0.301926
O O8 0.820427 0.000000 0.405570
O O9 0.382836 0.776328 0.841585
O O10 0.521693 0.000000 0.772954
O O11 0.925863 0.655429 0.561228
O O12 0.110609 0.000000 0.452743
O O13 0.281656 0.500000 0.898708
O O14 0.250000 0.750000 0.000000
#
# Coordination Sequence:
#
# PCOD9212515 Si02
#       6
#     8   8   8   2   8   8
#     4   9  18  36  58  81 114 157 202 249 312 385
#     4  10  21  42  65  91 125 172 216 261 319 392
#     4  11  22  38  62  88 119 164 212 260 320 385
#     4  12  22  40  68 106 128 162 214 272 310 382
#     4  10  22  41  68  95 133 173 213 260 325 384
#     4  11  21  37  59  83 116 155 205 259 319 384
#
# _framework density 21.615822000000001
#
# number of rings (size 3 to 8) (size 9 to 14) (size 15 to 20)
#    0.000    1.714    2.857    2.000    2.667    0.000 
#    3.429    4.762    0.000    0.000    0.000    0.000 
#    0.000    0.000    0.000    0.000    0.000    0.000 
#
# Total GULP energy -117066.443549 kJ/mol
# GULP energy per Si atom -5574.592550 kJ/mol
# Density = 2.156662 g / cm^3
# Si number density = 21.615822 Si / 1000 Ang^3
#
#
#
# Elastic Constant Matrix: (Units=GPa)
#
#
# Indices 1 2 3 4 5 6 
#
# 1 125.3445 7.2454 22.1908 0.0000 -20.0082 0.0000
# 2 7.2454 83.1777 -6.0873 0.0000 -1.1595 0.0000
# 3 22.1908 -6.0873 80.9478 0.0000 -25.1377 0.0000
# 4 0.0000 0.0000 0.0000 21.0102 0.0000 -12.4657
# 5 -20.0082 -1.1595 -25.1377 0.0000 28.6716 0.0000
# 6 0.0000 0.0000 0.0000 -12.4657 0.0000 20.5854
#
#
#
# Elastic Compliance Matrix: (Units=1/GPa)
#
#
# Indices 1 2 3 4 5 6 
#
# 1 0.009056 -0.000770 -0.000808 0.000000 0.005581 0.000000
# 2 -0.000770 0.012220 0.001534 0.000000 0.001302 0.000000
# 3 -0.000808 0.001534 0.017224 0.000000 0.014600 0.000000
# 4 0.000000 0.000000 0.000000 0.074286 0.000000 0.044985
# 5 0.005581 0.001302 0.014600 0.000000 0.051625 0.000000
# 6 0.000000 0.000000 0.000000 0.044985 0.000000 0.075819
#
#
# Mechanical properties :
#
#
# Convention : Reuss Voigt Hill
#
# Bulk Modulus (GPa) = 26.03223 37.35197 31.69210
# Shear Modulus (GPa) = 19.75334 31.79485 25.77409
#
# Velocity S-wave (km/s) = 3.02625 3.83940 3.45682
# Velocity P-wave (km/s) = 4.92750 6.08047 5.53409
#
# Compressibility (1/GPa) = 0.03841391
#
# Stress axis : x y z
#
# Youngs Moduli (GPa) = 110.42008 81.83315 58.05772
#
# Poissons Ratio (x) = 0.06303 0.04688
# Poissons Ratio (y) = 0.08504 -0.08908
# Poissons Ratio (z) = 0.08917 -0.12557
#
# Static dielectric constant tensor:
#      x y z
#    x 1.735820 0.000000 -0.086180 
#    y 0.000000 1.848210 0.000000 
#    z -0.086180 0.000000 1.602770 
# 
# From -- ./inp_files/267066.got.cif
#   From: 2010.05.17/outbox.cif.g08.bks.cpg/sg12_134_cif.got.tgz:267066.got - 2010.06.03 13:09:07.
