data_PCOD9212401
_publ_section_title
;
Structure prediction by ZEFSAII (Michael W. Deem and Ramdas Pophale) SiO2 
 PCOD9212401
Probable space group: C 2/M
;
_chemical_formula_sum "Si O2"
_cell_formula_units_Z 42
_cell_length_a 17.790925
_cell_length_b 13.639486
_cell_length_c 7.995362
_cell_angle_alpha 90.000000
_cell_angle_beta 115.303902
_cell_angle_gamma 90.000000
_cell_volume 1753.996691
_symmetry_space_group_name_H-M "C 2/M"
_symmetry_group_IT_number 12
_symmetry_cell_setting 'monoclinic'
loop_
_space_group_symop_operation_xyz
x,y,z
-x,y,-z
-x,-y,-z
x,-y,z
1/2+x,1/2+y,z
1/2-x,1/2+y,-z
1/2-x,1/2-y,-z
1/2+x,1/2-y,z
loop_
_atom_site_type_symbol
_atom_site_label
_atom_site_fract_x
_atom_site_fract_y
_atom_site_fract_z
Si Si1 0.957811 0.186190 0.694520
Si Si2 0.427164 0.159741 0.052416
Si Si3 0.360800 0.203881 0.316486
Si Si4 0.000000 0.000000 0.500000
Si Si5 0.258361 0.387977 0.227430
Si Si6 0.797638 0.889472 0.661396
O O1 0.921848 0.262329 0.522288
O O2 0.882583 0.169593 0.750796
O O3 0.034428 0.234793 0.860454
O O4 0.977860 0.086469 0.617151
O O5 0.403794 0.132482 0.223267
O O6 0.500000 0.117601 0.000000
O O7 0.337569 0.141059 0.885740
O O8 0.320094 0.306795 0.208182
O O9 0.279893 0.153476 0.316206
O O10 0.274359 0.500000 0.183789
O O11 0.277007 0.387341 0.443292
O O12 0.812163 0.000000 0.728689
#
# Coordination Sequence:
#
# PCOD9212401 Si02
#       6
#     8   8   8   2   8   8
#     4  11  22  40  68  96 131 165 211 261 318 381
#     4  12  24  40  61  93 135 168 203 261 330 376
#     4  11  22  41  67  94 123 171 216 265 313 372
#     4  12  20  40  70 100 126 168 212 258 324 372
#     4  10  23  41  66  93 128 169 209 257 322 384
#     4  10  21  41  69  96 123 164 221 269 308 377
#
# _framework density 23.945312999999999
#
# number of rings (size 3 to 8) (size 9 to 14) (size 15 to 20)
#    0.000    1.143    2.857    5.143    1.333    1.143 
#    0.000    1.429    2.095    4.571    0.000    0.000 
#    0.000    0.000    0.000    0.000    0.000    0.000 
#
# Total GULP energy -116996.377742 kJ/mol
# GULP energy per Si atom -5571.256083 kJ/mol
# Density = 2.389081 g / cm^3
# Si number density = 23.945313 Si / 1000 Ang^3
#
#
#
# Elastic Constant Matrix: (Units=GPa)
#
#
# Indices 1 2 3 4 5 6 
#
# 1 148.6798 24.5937 21.4655 0.0000 -9.0511 0.0000
# 2 24.5937 57.6031 20.5714 0.0000 -8.5561 0.0000
# 3 21.4655 20.5714 81.5464 0.0000 22.9611 0.0000
# 4 0.0000 0.0000 0.0000 -0.1035 0.0000 0.2174
# 5 -9.0511 -8.5561 22.9611 0.0000 36.8030 0.0000
# 6 0.0000 0.0000 0.0000 0.2174 0.0000 9.0842
#
#
#
# Elastic Compliance Matrix: (Units=1/GPa)
#
#
# Indices 1 2 3 4 5 6 
#
# 1 0.007556 -0.001994 -0.002279 0.000000 0.002817 0.000000
# 2 -0.001994 0.022443 -0.007846 0.000000 0.009622 0.000000
# 3 -0.002279 -0.007846 0.018820 0.000000 -0.014126 0.000000
# 4 0.000000 0.000000 0.000000 -9.202350 0.000000 0.220195
# 5 0.002817 0.009622 -0.014126 0.000000 0.038915 0.000000
# 6 0.000000 0.000000 0.000000 0.220195 0.000000 0.104812
#
#
# Mechanical properties :
#
#
# Convention : Reuss Voigt Hill
#
# Bulk Modulus (GPa) = 40.68262 46.78782 43.73522
# Shear Modulus (GPa) = -0.55696 23.90333 11.67319
#
# Velocity S-wave (km/s) = -0.48280 3.16293 2.21032
# Velocity P-wave (km/s) = 4.08851 5.73766 4.98180
#
# Compressibility (1/GPa) = 0.02458052
#
# Stress axis : x y z
#
# Youngs Moduli (GPa) = 132.34181 44.55791 53.13588
#
# Poissons Ratio (x) = 0.08884 0.12111
# Poissons Ratio (y) = 0.26386 0.41691
# Poissons Ratio (z) = 0.30163 0.34960
#
# Static dielectric constant tensor:
#      x y z
#    x 1.967190 0.000000 -0.046310 
#    y 0.000000 1.911530 0.000000 
#    z -0.046310 0.000000 1.941280 
# 
# From -- ./inp_files/73730.got.cif
#   From: 2010.05.17/outbox.cif.g08.bks.cpg/sg12_37_cif.got.tgz:73730.got - 2010.06.03 13:09:07.
