data_PCOD9212643
_publ_section_title
;
Structure prediction by ZEFSAII (Michael W. Deem and Ramdas Pophale) SiO2 
 PCOD9212643
Probable space group: C 2/M
;
_chemical_formula_sum "Si O2"
_cell_formula_units_Z 38
_cell_length_a 10.911333
_cell_length_b 20.908566
_cell_length_c 13.241829
_cell_angle_alpha 90.000000
_cell_angle_beta 146.787205
_cell_angle_gamma 90.000000
_cell_volume 1654.750331
_symmetry_space_group_name_H-M "C 2/M"
_symmetry_group_IT_number 12
_symmetry_cell_setting 'monoclinic'
loop_
_space_group_symop_operation_xyz
x,y,z
-x,y,-z
-x,-y,-z
x,-y,z
1/2+x,1/2+y,z
1/2-x,1/2+y,-z
1/2-x,1/2-y,-z
1/2+x,1/2-y,z
loop_
_atom_site_type_symbol
_atom_site_label
_atom_site_fract_x
_atom_site_fract_y
_atom_site_fract_z
Si Si1 0.500000 0.314114 0.500000
Si Si2 0.424016 0.136990 0.685412
Si Si3 0.759877 0.611061 0.358141
Si Si4 0.000000 0.000000 0.500000
Si Si5 0.248415 0.780054 0.182817
Si Si6 0.536051 0.500000 0.766740
Si Si7 0.492972 0.000000 0.183142
O O1 0.283211 0.354945 0.381247
O O2 0.586202 0.270030 0.650414
O O3 0.310089 0.146934 0.497702
O O4 0.623537 0.189007 0.824948
O O5 0.520996 0.065798 0.762920
O O6 0.713607 0.661008 0.237497
O O7 0.568352 0.561218 0.248921
O O8 0.000000 0.579026 0.500000
O O9 0.266535 0.000000 0.702331
O O10 0.957781 0.000000 0.596829
O O11 0.000000 0.752136 0.000000
O O12 0.797695 0.500000 0.966810
#
# Coordination Sequence:
#
# PCOD9212643 Si02
#       7
#     4   8   8   2   8   4   4
#     4  12  25  45  68  93 140 186 217 282 338 404
#     4  11  23  45  72  97 138 180 222 279 345 396
#     4  10  21  42  70  97 137 177 218 281 344 397
#     4  12  24  42  60  92 148 174 216 266 324 412
#     4  11  24  44  69 104 131 173 235 281 333 402
#     4  12  24  42  72 100 137 179 223 274 343 406
#     4  12  25  45  69 103 131 181 227 276 332 408
#
# _framework density 22.964189000000001
#
# number of rings (size 3 to 8) (size 9 to 14) (size 15 to 20)
#    0.000    0.842    5.263    3.158    0.000    3.368 
#    3.789    5.263    0.000    0.000    0.000    0.000 
#    0.000    0.000    0.000    0.000    0.000    0.000 
#
# Total GULP energy -105956.155433 kJ/mol
# GULP energy per Si atom -5576.639760 kJ/mol
# Density = 2.291192 g / cm^3
# Si number density = 22.964189 Si / 1000 Ang^3
#
#
#
# Elastic Constant Matrix: (Units=GPa)
#
#
# Indices 1 2 3 4 5 6 
#
# 1 89.8705 18.9107 19.9451 0.0008 12.6522 -0.0010
# 2 18.9107 83.3626 26.0317 0.0013 4.4166 -0.0011
# 3 19.9451 26.0317 125.9145 0.0040 29.3518 -0.0034
# 4 0.0008 0.0013 0.0040 -11.4554 0.0012 53.3395
# 5 12.6522 4.4166 29.3518 0.0012 36.7076 -0.0012
# 6 -0.0010 -0.0011 -0.0034 53.3395 -0.0012 -13.8271
#
#
#
# Elastic Compliance Matrix: (Units=1/GPa)
#
#
# Indices 1 2 3 4 5 6 
#
# 1 0.012257 -0.002397 -0.000650 0.000000 -0.003417 0.000000
# 2 -0.002397 0.013307 -0.002693 0.000000 0.001378 0.000000
# 3 -0.000650 -0.002693 0.010415 0.000000 -0.007780 0.000000
# 4 0.000000 0.000000 0.000000 0.005146 0.000000 0.019853
# 5 -0.003417 0.001378 -0.007780 0.000000 0.034475 0.000000
# 6 0.000000 0.000000 0.000000 0.019853 0.000000 0.004264
#
#
# Mechanical properties :
#
#
# Convention : Reuss Voigt Hill
#
# Bulk Modulus (GPa) = 40.81413 47.65806 44.23610
# Shear Modulus (GPa) = 50.24652 17.90236 34.07444
#
# Velocity S-wave (km/s) = 4.68272 2.79512 3.85620
# Velocity P-wave (km/s) = 6.85921 5.58706 6.25555
#
# Compressibility (1/GPa) = 0.02450132
#
# Stress axis : x y z
#
# Youngs Moduli (GPa) = 81.58874 75.14662 96.01423
#
# Poissons Ratio (x) = 0.18009 0.06236
# Poissons Ratio (y) = 0.19553 0.25855
# Poissons Ratio (z) = 0.05299 0.20236
#
# Static dielectric constant tensor:
#      x y z
#    x 1.895690 0.000000 0.020120 
#    y 0.000000 1.870560 0.000000 
#    z 0.020120 0.000000 1.856490 
# 
# From -- ./inp_files/208745.got.cif
#   From: 2010.05.17/outbox.cif.g08.bks.cpg/sg12_105_cif.got.tgz:208745.got - 2010.06.03 13:09:07.
