data_PCOD9212747
_publ_section_title
;
Structure prediction by ZEFSAII (Michael W. Deem and Ramdas Pophale) SiO2 
 PCOD9212747
Probable space group: C 2/M
;
_chemical_formula_sum "Si O2"
_cell_formula_units_Z 40
_cell_length_a 19.412628
_cell_length_b 13.767221
_cell_length_c 8.241187
_cell_angle_alpha 90.000000
_cell_angle_beta 41.181481
_cell_angle_gamma 90.000000
_cell_volume 1450.242746
_symmetry_space_group_name_H-M "C 2/M"
_symmetry_group_IT_number 12
_symmetry_cell_setting 'monoclinic'
loop_
_space_group_symop_operation_xyz
x,y,z
-x,y,-z
-x,-y,-z
x,-y,z
1/2+x,1/2+y,z
1/2-x,1/2+y,-z
1/2-x,1/2-y,-z
1/2+x,1/2-y,z
loop_
_atom_site_type_symbol
_atom_site_label
_atom_site_fract_x
_atom_site_fract_y
_atom_site_fract_z
Si Si1 0.113378 0.172586 0.881726
Si Si2 0.577261 0.894101 0.012934
Si Si3 0.723417 0.608954 0.998198
Si Si4 0.650298 0.610112 0.502471
Si Si5 0.073123 0.293690 0.496948
O O1 0.133075 0.128390 0.025450
O O2 0.194233 0.122816 0.609777
O O3 0.129591 0.288420 0.887310
O O4 0.000000 0.146113 0.000000
O O5 0.501442 0.877899 0.301472
O O6 0.633638 0.000000 0.922628
O O7 0.500000 0.901925 0.000000
O O8 0.758960 0.500000 0.907308
O O9 0.821359 0.674034 0.774504
O O10 0.698544 0.616661 0.233727
O O11 0.605535 0.500000 0.580383
O O12 0.596208 0.716914 0.594348
O O13 0.000000 0.239203 0.500000
#
# Coordination Sequence:
#
# PCOD9212747 Si02
#       5
#     8   8   8   8   8
#     4  11  23  49  75 108 148 194 241 300 368 433
#     4  10  21  43  72 103 141 188 241 298 362 428
#     4  11  27  48  74 110 150 190 244 308 363 435
#     4  11  25  46  74 109 148 195 246 299 367 438
#     4  12  25  49  74 104 147 195 243 305 368 433
#
# _framework density 27.581589999999998
#
# number of rings (size 3 to 8) (size 9 to 14) (size 15 to 20)
#    0.000    1.000    4.000    3.000    0.000    4.400 
#    3.600    3.000    0.000    0.000    0.000    0.000 
#    0.000    0.000    0.000    0.000    0.000    0.000 
#
# Total GULP energy -111547.762510 kJ/mol
# GULP energy per Si atom -5577.388126 kJ/mol
# Density = 2.751881 g / cm^3
# Si number density = 27.581590 Si / 1000 Ang^3
#
#
#
# Elastic Constant Matrix: (Units=GPa)
#
#
# Indices 1 2 3 4 5 6 
#
# 1 139.4954 21.7313 43.0380 0.0000 21.9184 0.0000
# 2 21.7313 204.3618 38.2520 0.0000 12.6763 0.0000
# 3 43.0380 38.2520 149.8669 0.0000 37.5796 0.0000
# 4 0.0000 0.0000 0.0000 47.7956 0.0000 15.0309
# 5 21.9184 12.6763 37.5796 0.0000 46.6001 0.0000
# 6 0.0000 0.0000 0.0000 15.0309 0.0000 29.8942
#
#
#
# Elastic Compliance Matrix: (Units=1/GPa)
#
#
# Indices 1 2 3 4 5 6 
#
# 1 0.008110 -0.000410 -0.001624 0.000000 -0.002393 0.000000
# 2 -0.000410 0.005166 -0.001124 0.000000 -0.000306 0.000000
# 3 -0.001624 -0.001124 0.008972 0.000000 -0.006166 0.000000
# 4 0.000000 0.000000 0.000000 0.024852 0.000000 -0.012496
# 5 -0.002393 -0.000306 -0.006166 0.000000 0.027640 0.000000
# 6 0.000000 0.000000 0.000000 -0.012496 0.000000 0.039734
#
#
# Mechanical properties :
#
#
# Convention : Reuss Voigt Hill
#
# Bulk Modulus (GPa) = 62.76946 77.75185 70.26065
# Shear Modulus (GPa) = 39.65061 50.90482 45.27771
#
# Velocity S-wave (km/s) = 3.79565 4.30072 4.05605
# Velocity P-wave (km/s) = 6.48201 7.27410 6.88945
#
# Compressibility (1/GPa) = 0.01593132
#
# Stress axis : x y z
#
# Youngs Moduli (GPa) = 123.30941 193.56305 111.45815
#
# Poissons Ratio (x) = 0.07934 0.18103
# Poissons Ratio (y) = 0.05055 0.12530
# Poissons Ratio (z) = 0.20028 0.21760
#
# Static dielectric constant tensor:
#      x y z
#    x 2.346810 0.000000 0.061860 
#    y 0.000000 2.064830 0.000000 
#    z 0.061860 0.000000 2.513660 
# 
# From -- ./inp_files/96065.got.cif
#   From: 2010.05.17/outbox.cif.g08.bks.cpg/sg12_49_cif.got.tgz:96065.got - 2010.06.03 13:09:07.
