data_PCOD9212053
_publ_section_title
;
Structure prediction by ZEFSAII (Michael W. Deem and Ramdas Pophale) SiO2 
 PCOD9212053
Probable space group: C 2/M
;
_chemical_formula_sum "Si O2"
_cell_formula_units_Z 48
_cell_length_a 20.239722
_cell_length_b 18.799138
_cell_length_c 9.898238
_cell_angle_alpha 90.000000
_cell_angle_beta 40.085908
_cell_angle_gamma 90.000000
_cell_volume 2425.172994
_symmetry_space_group_name_H-M "C 2/M"
_symmetry_group_IT_number 12
_symmetry_cell_setting 'monoclinic'
loop_
_space_group_symop_operation_xyz
x,y,z
-x,y,-z
-x,-y,-z
x,-y,z
1/2+x,1/2+y,z
1/2-x,1/2+y,-z
1/2-x,1/2-y,-z
1/2+x,1/2-y,z
loop_
_atom_site_type_symbol
_atom_site_label
_atom_site_fract_x
_atom_site_fract_y
_atom_site_fract_z
Si Si1 0.153797 0.204363 0.089404
Si Si2 0.067714 0.422396 0.759186
Si Si3 0.120558 0.219837 0.830206
Si Si4 0.457187 0.844299 0.711091
Si Si5 0.757680 0.861177 0.578547
Si Si6 0.737061 0.584945 0.130888
O O1 0.062501 0.259804 0.259911
O O2 0.161078 0.129371 0.153087
O O3 0.250000 0.250000 0.000000
O O4 0.152388 0.193769 0.930309
O O5 0.043069 0.500000 0.739019
O O6 0.185072 0.417237 0.617561
O O7 0.038526 0.362895 0.698488
O O8 0.000000 0.414682 0.000000
O O9 0.155393 0.166368 0.657738
O O10 0.182919 0.293333 0.718389
O O11 0.000000 0.232181 0.000000
O O12 0.500000 0.867486 0.500000
O O13 0.352151 0.885564 0.915879
O O14 0.787286 0.891681 0.677526
O O15 0.733593 0.500000 0.121527
#
# Coordination Sequence:
#
# PCOD9212053 Si02
#       6
#     8   8   8   8   8   8
#     4  10  21  41  61  92 127 171 215 270 322 388
#     4  11  21  36  60  94 131 166 205 264 340 404
#     4  11  23  41  66  96 126 167 232 277 322 380
#     4  11  23  37  62  94 133 167 214 270 330 392
#     4  11  22  38  67  93 127 171 216 274 329 392
#     4  11  23  42  62  93 136 174 215 267 339 406
#
# _framework density 19.792403
#
# number of rings (size 3 to 8) (size 9 to 14) (size 15 to 20)
#    0.000    1.167    5.000    2.500    4.667    2.667 
#    0.000    0.833    0.000    8.000    0.000    0.000 
#    0.000    0.000    0.000    0.000    0.000    0.000 
#
# Total GULP energy -134030.440886 kJ/mol
# GULP energy per Si atom -5584.601704 kJ/mol
# Density = 1.974735 g / cm^3
# Si number density = 19.792403 Si / 1000 Ang^3
#
#
#
# Elastic Constant Matrix: (Units=GPa)
#
#
# Indices 1 2 3 4 5 6 
#
# 1 91.2038 37.4943 41.0566 0.0000 32.8334 0.0000
# 2 37.4943 122.3941 41.5860 0.0000 20.2634 0.0000
# 3 41.0566 41.5860 92.0895 0.0000 25.5912 0.0000
# 4 0.0000 0.0000 0.0000 -5.3964 0.0000 1.9755
# 5 32.8334 20.2634 25.5912 0.0000 26.9454 0.0000
# 6 0.0000 0.0000 0.0000 1.9755 0.0000 33.1415
#
#
#
# Elastic Compliance Matrix: (Units=1/GPa)
#
#
# Indices 1 2 3 4 5 6 
#
# 1 0.020473 -0.001959 -0.002336 0.000000 -0.021255 0.000000
# 2 -0.001959 0.010208 -0.003079 0.000000 -0.002365 0.000000
# 3 -0.002336 -0.003079 0.016108 0.000000 -0.010136 0.000000
# 4 0.000000 0.000000 0.000000 -0.181350 0.000000 0.010810
# 5 -0.021255 -0.002365 -0.010136 0.000000 0.074417 0.000000
# 6 0.000000 0.000000 0.000000 0.010810 0.000000 0.029529
#
#
# Mechanical properties :
#
#
# Convention : Reuss Voigt Hill
#
# Bulk Modulus (GPa) = 31.21080 60.66233 45.93657
# Shear Modulus (GPa) = -964.18064 23.30813 -470.43626
#
# Velocity S-wave (km/s) = -22.09535 3.43538 -15.43377
# Velocity P-wave (km/s) = 25.20190 6.81555 17.15640
#
# Compressibility (1/GPa) = 0.03204019
#
# Stress axis : x y z
#
# Youngs Moduli (GPa) = 48.84384 97.95984 62.08166
#
# Poissons Ratio (x) = 0.19191 0.14505
# Poissons Ratio (y) = 0.09569 0.19116
# Poissons Ratio (z) = 0.11412 0.30164
#
# Static dielectric constant tensor:
#      x y z
#    x 1.795750 0.000000 0.002070 
#    y 0.000000 1.717780 0.000000 
#    z 0.002070 0.000000 1.763130 
# 
# From -- ./inp_files/87715.got.cif
#   From: 2010.05.17/outbox.cif.g08.bks.cpg/sg12_44_cif.got.tgz:87715.got - 2010.06.03 13:09:07.
