data_PCOD9212467
_publ_section_title
;
Structure prediction by ZEFSAII (Michael W. Deem and Ramdas Pophale) SiO2 
 PCOD9212467
Probable space group: C 2/M
;
_chemical_formula_sum "Si O2"
_cell_formula_units_Z 64
_cell_length_a 15.156206
_cell_length_b 26.120760
_cell_length_c 8.931697
_cell_angle_alpha 90.000000
_cell_angle_beta 63.636184
_cell_angle_gamma 90.000000
_cell_volume 3168.214718
_symmetry_space_group_name_H-M "C 2/M"
_symmetry_group_IT_number 12
_symmetry_cell_setting 'monoclinic'
loop_
_space_group_symop_operation_xyz
x,y,z
-x,y,-z
-x,-y,-z
x,-y,z
1/2+x,1/2+y,z
1/2-x,1/2+y,-z
1/2-x,1/2-y,-z
1/2+x,1/2-y,z
loop_
_atom_site_type_symbol
_atom_site_label
_atom_site_fract_x
_atom_site_fract_y
_atom_site_fract_z
Si Si1 0.468697 0.907778 0.677001
Si Si2 0.169887 0.444379 0.591034
Si Si3 0.385430 0.323891 0.547467
Si Si4 0.307047 0.767739 0.803963
Si Si5 0.242187 0.395168 0.822389
Si Si6 0.260203 0.559468 0.128095
Si Si7 0.070558 0.675788 0.070683
Si Si8 0.289277 0.358159 0.323023
O O1 0.500000 0.879583 0.500000
O O2 0.556391 0.947346 0.630267
O O3 0.357195 0.928385 0.754438
O O4 0.479508 0.872687 0.814088
O O5 0.215822 0.500000 0.518707
O O6 0.185066 0.433032 0.754381
O O7 0.214517 0.393289 0.479143
O O8 0.500000 0.320467 0.500000
O O9 0.330468 0.275560 0.665049
O O10 0.336033 0.372300 0.667325
O O11 0.360706 0.331498 0.390000
O O12 0.405750 0.788036 0.808396
O O13 0.257338 0.814930 0.751128
O O14 0.250000 0.750000 0.000000
O O15 0.273633 0.424051 0.947491
O O16 0.169380 0.348288 0.923678
O O17 0.278660 0.500000 0.137436
O O18 0.324314 0.597335 0.183254
O O19 0.000000 0.699229 0.000000
#
# Coordination Sequence:
#
# PCOD9212467 Si02
#       8
#     8   8   8   8   8   8   8   8
#     4  11  20  32  52  88 136 173 208 244 290 378
#     4  11  21  34  58  90 131 176 208 245 302 375
#     4  11  26  46  69  91 118 163 220 274 328 375
#     4  12  23  44  67  91 128 165 213 262 321 379
#     4  10  21  42  61  89 130 168 210 263 304 369
#     4  11  21  36  62  94 130 174 208 248 317 381
#     4  11  21  37  61  90 130 172 204 249 309 370
#     4  11  23  40  64  91 128 162 205 269 317 373
#
# _framework density 20.20065
#
# number of rings (size 3 to 8) (size 9 to 14) (size 15 to 20)
#    0.000    1.000    6.250    1.500    0.000    3.000 
#    0.000    3.750    0.000   14.250    0.000    0.000 
#    0.000    0.000    0.000    0.000    0.000    0.000 
#
# Total GULP energy -178308.789382 kJ/mol
# GULP energy per Si atom -5572.149668 kJ/mol
# Density = 2.015467 g / cm^3
# Si number density = 20.200650 Si / 1000 Ang^3
#
#
#
# Elastic Constant Matrix: (Units=GPa)
#
#
# Indices 1 2 3 4 5 6 
#
# 1 71.2144 47.1121 34.3314 0.0000 35.3339 0.0000
# 2 47.1121 102.9007 33.6838 0.0000 20.2659 0.0000
# 3 34.3314 33.6838 98.1768 0.0000 32.6180 0.0000
# 4 0.0000 0.0000 0.0000 -39.0763 0.0000 -27.5062
# 5 35.3339 20.2659 32.6180 0.0000 42.8080 0.0000
# 6 0.0000 0.0000 0.0000 -27.5062 0.0000 -5.2297
#
#
#
# Elastic Compliance Matrix: (Units=1/GPa)
#
#
# Indices 1 2 3 4 5 6 
#
# 1 0.031129 -0.010009 -0.000655 0.000000 -0.020457 0.000000
# 2 -0.010009 0.014483 -0.002592 0.000000 0.003380 0.000000
# 3 -0.000655 -0.002592 0.014349 0.000000 -0.009166 0.000000
# 4 0.000000 0.000000 0.000000 0.009470 0.000000 -0.049809
# 5 -0.020457 0.003380 -0.009166 0.000000 0.045629 0.000000
# 6 0.000000 0.000000 0.000000 -0.049809 0.000000 0.070760
#
#
# Mechanical properties :
#
#
# Convention : Reuss Voigt Hill
#
# Bulk Modulus (GPa) = 29.89556 55.83849 42.86702
# Shear Modulus (GPa) = 22.37306 10.17805 16.27555
#
# Velocity S-wave (km/s) = 3.33159 2.24709 2.84156
# Velocity P-wave (km/s) = 5.44341 5.86809 5.65973
#
# Compressibility (1/GPa) = 0.03344979
#
# Stress axis : x y z
#
# Youngs Moduli (GPa) = 32.12421 69.04435 69.68975
#
# Poissons Ratio (x) = 0.69106 0.04566
# Poissons Ratio (y) = 0.32153 0.18064
# Poissons Ratio (z) = 0.02105 0.17897
#
# Static dielectric constant tensor:
#      x y z
#    x 1.739650 0.000000 0.007350 
#    y 0.000000 1.771310 0.000000 
#    z 0.007350 0.000000 1.766350 
# 
# From -- ./inp_files/66888.got.cif
#   From: 2010.05.17/outbox.cif.g08.bks.cpg/sg12_34_cif.got.tgz:66888.got - 2010.06.03 13:09:07.
