data_PCOD9212907
_publ_section_title
;
Structure prediction by ZEFSAII (Michael W. Deem and Ramdas Pophale) SiO2 
 PCOD9212907
Probable space group: C 2/M
;
_chemical_formula_sum "Si O2"
_cell_formula_units_Z 56
_cell_length_a 19.170180
_cell_length_b 30.315911
_cell_length_c 7.889885
_cell_angle_alpha 90.000000
_cell_angle_beta 45.616999
_cell_angle_gamma 90.000000
_cell_volume 3277.021238
_symmetry_space_group_name_H-M "C 2/M"
_symmetry_group_IT_number 12
_symmetry_cell_setting 'monoclinic'
loop_
_space_group_symop_operation_xyz
x,y,z
-x,y,-z
-x,-y,-z
x,-y,z
1/2+x,1/2+y,z
1/2-x,1/2+y,-z
1/2-x,1/2-y,-z
1/2+x,1/2-y,z
loop_
_atom_site_type_symbol
_atom_site_label
_atom_site_fract_x
_atom_site_fract_y
_atom_site_fract_z
Si Si1 0.930096 0.452771 0.365895
Si Si2 0.620307 0.766008 0.001410
Si Si3 0.885631 0.269972 0.381918
Si Si4 0.117273 0.204995 0.309541
Si Si5 0.720614 0.143192 0.883167
Si Si6 0.109816 0.362151 0.733512
Si Si7 0.853746 0.548792 0.880832
O O1 0.903905 0.500000 0.331934
O O2 0.892041 0.409932 0.341171
O O3 0.890132 0.452347 0.625089
O O4 0.047240 0.449420 0.176757
O O5 0.502919 0.765494 0.192152
O O6 0.649636 0.726994 0.077770
O O7 0.648600 0.760745 0.754370
O O8 0.654008 0.812571 0.028762
O O9 0.851635 0.237561 0.588139
O O10 0.868381 0.322274 0.432208
O O11 0.172049 0.159611 0.253320
O O12 0.000000 0.200886 0.500000
O O13 0.693084 0.137999 0.733390
O O14 0.698365 0.095625 0.001808
O O15 0.000000 0.354117 0.000000
O O16 0.807255 0.500000 0.992780
#
# Coordination Sequence:
#
# PCOD9212907 Si02
#       7
#     8   8   8   8   8   8   8
#     4   9  18  31  48  74 104 135 161 190 248 306
#     4   9  17  32  50  72  98 131 165 205 247 294
#     4   9  17  33  48  69 103 130 168 203 243 296
#     4  10  22  35  51  70  98 138 170 214 252 283
#     4  11  20  33  49  75  98 126 175 200 245 304
#     4  11  18  30  47  73 103 135 161 204 243 289
#     4   9  18  32  50  72 102 133 162 200 243 302
#
# _framework density 17.088691000000001
#
# number of rings (size 3 to 8) (size 9 to 14) (size 15 to 20)
#    0.000    2.286    4.286    1.286    2.000    3.143 
#    2.571    0.000    0.000    0.429    0.000    0.000 
#    0.000    2.286    0.000    0.000    0.000    0.000 
#
# Total GULP energy -155882.743946 kJ/mol
# GULP energy per Si atom -5567.240855 kJ/mol
# Density = 1.704980 g / cm^3
# Si number density = 17.088691 Si / 1000 Ang^3
#
#
#
# Elastic Constant Matrix: (Units=GPa)
#
#
# Indices 1 2 3 4 5 6 
#
# 1 86.6892 52.5611 20.1793 0.0000 0.8387 0.0000
# 2 52.5611 160.4839 40.0866 0.0000 6.5614 0.0000
# 3 20.1793 40.0866 34.7965 0.0000 -1.5051 0.0000
# 4 0.0000 0.0000 0.0000 30.0769 0.0000 2.6204
# 5 0.8387 6.5614 -1.5051 0.0000 14.5511 0.0000
# 6 0.0000 0.0000 0.0000 2.6204 0.0000 30.2619
#
#
#
# Elastic Compliance Matrix: (Units=1/GPa)
#
#
# Indices 1 2 3 4 5 6 
#
# 1 0.014824 -0.003834 -0.004161 0.000000 0.000444 0.000000
# 2 -0.003834 0.010120 -0.009666 0.000000 -0.005342 0.000000
# 3 -0.004161 -0.009666 0.042677 0.000000 0.009013 0.000000
# 4 0.000000 0.000000 0.000000 0.033501 0.000000 -0.002901
# 5 0.000444 -0.005342 0.009013 0.000000 0.072039 0.000000
# 6 0.000000 0.000000 0.000000 -0.002901 0.000000 0.033296
#
#
# Mechanical properties :
#
#
# Convention : Reuss Voigt Hill
#
# Bulk Modulus (GPa) = 30.96042 56.40263 43.68153
# Shear Modulus (GPa) = 19.79855 26.25415 23.02635
#
# Velocity S-wave (km/s) = 3.40748 3.92388 3.67476
# Velocity P-wave (km/s) = 5.79983 7.32165 6.60472
#
# Compressibility (1/GPa) = 0.03229930
#
# Stress axis : x y z
#
# Youngs Moduli (GPa) = 67.45649 98.81773 23.43207
#
# Poissons Ratio (x) = 0.37887 0.09750
# Poissons Ratio (y) = 0.25863 0.22649
# Poissons Ratio (z) = 0.28068 0.95515
#
# Static dielectric constant tensor:
#      x y z
#    x 1.592630 0.000000 0.012960 
#    y 0.000000 1.596780 0.000000 
#    z 0.012960 0.000000 1.626710 
# 
# From -- ./inp_files/90339.got.cif
#   From: 2010.05.17/outbox.cif.g08.bks.cpg/sg12_46_cif.got.tgz:90339.got - 2010.06.03 13:09:07.
