data_PCOD9212746
_publ_section_title
;
Structure prediction by ZEFSAII (Michael W. Deem and Ramdas Pophale) SiO2 
 PCOD9212746
Probable space group: C 2/M
;
_chemical_formula_sum "Si O2"
_cell_formula_units_Z 48
_cell_length_a 8.637938
_cell_length_b 19.782468
_cell_length_c 24.509729
_cell_angle_alpha 90.000000
_cell_angle_beta 146.566728
_cell_angle_gamma 90.000000
_cell_volume 2307.562265
_symmetry_space_group_name_H-M "C 2/M"
_symmetry_group_IT_number 12
_symmetry_cell_setting 'monoclinic'
loop_
_space_group_symop_operation_xyz
x,y,z
-x,y,-z
-x,-y,-z
x,-y,z
1/2+x,1/2+y,z
1/2-x,1/2+y,-z
1/2-x,1/2-y,-z
1/2+x,1/2-y,z
loop_
_atom_site_type_symbol
_atom_site_label
_atom_site_fract_x
_atom_site_fract_y
_atom_site_fract_z
Si Si1 0.282517 0.804146 0.237602
Si Si2 0.262359 0.424864 0.692204
Si Si3 0.598625 0.077476 0.159580
Si Si4 0.244120 0.332952 0.293371
Si Si5 0.126485 0.923005 0.475237
Si Si6 0.647018 0.324688 0.983830
O O1 0.260430 0.859621 0.277331
O O2 0.246048 0.728949 0.250999
O O3 0.582968 0.804704 0.297901
O O4 0.071236 0.832134 0.129397
O O5 0.265232 0.500000 0.720136
O O6 0.565592 0.418966 0.752592
O O7 0.965196 0.423398 0.573453
O O8 0.571945 0.108263 0.211998
O O9 0.509718 0.000000 0.129705
O O10 0.407060 0.123308 0.063633
O O11 0.515399 0.368966 0.398840
O O12 0.000000 0.910314 0.500000
O O13 0.031771 0.000000 0.433677
O O14 0.500000 0.326113 0.000000
O O15 0.750000 0.250000 0.000000
#
# Coordination Sequence:
#
# PCOD9212746 Si02
#       6
#     8   8   8   8   8   8
#     4  12  24  42  69  99 135 181 225 278 344 398
#     4  10  24  45  69 100 138 177 223 279 340 402
#     4  11  25  44  68 102 137 175 229 283 333 399
#     4  12  24  43  68 100 136 182 226 281 335 404
#     4  10  21  43  72 100 135 180 226 275 338 403
#     4  12  25  45  70  96 132 182 225 275 339 405
#
# _framework density 20.801174
#
# number of rings (size 3 to 8) (size 9 to 14) (size 15 to 20)
#    0.000    0.833    5.000    1.500    2.333    3.000 
#    0.000    4.167    0.000    0.000    0.000    0.000 
#    0.000    0.000    0.000    0.000    0.000    0.000 
#
# Total GULP energy -133803.499137 kJ/mol
# GULP energy per Si atom -5575.145797 kJ/mol
# Density = 2.075383 g / cm^3
# Si number density = 20.801174 Si / 1000 Ang^3
#
#
#
# Elastic Constant Matrix: (Units=GPa)
#
#
# Indices 1 2 3 4 5 6 
#
# 1 49.8417 41.0895 17.8265 0.0008 7.2225 -0.0003
# 2 41.0895 144.3375 63.6287 0.0006 -3.5798 0.0011
# 3 17.8265 63.6287 105.3343 0.0049 2.1054 0.0000
# 4 0.0008 0.0006 0.0049 43.0172 0.0025 0.1887
# 5 7.2225 -3.5798 2.1054 0.0025 29.7392 0.0001
# 6 -0.0003 0.0011 0.0000 0.1887 0.0001 20.2504
#
#
#
# Elastic Compliance Matrix: (Units=1/GPa)
#
#
# Indices 1 2 3 4 5 6 
#
# 1 0.027909 -0.008349 0.000476 0.000000 -0.007817 0.000001
# 2 -0.008349 0.012011 -0.005921 0.000000 0.003893 -0.000001
# 3 0.000476 -0.005921 0.013024 -0.000001 -0.001750 0.000000
# 4 0.000000 0.000000 -0.000001 0.023247 -0.000002 -0.000217
# 5 -0.007817 0.003893 -0.001750 -0.000002 0.036116 0.000000
# 6 0.000001 -0.000001 0.000000 -0.000217 0.000000 0.049384
#
#
# Mechanical properties :
#
#
# Convention : Reuss Voigt Hill
#
# Bulk Modulus (GPa) = 39.43483 60.51144 49.97313
# Shear Modulus (GPa) = 25.28689 30.39929 27.84309
#
# Velocity S-wave (km/s) = 3.49040 3.82700 3.66257
# Velocity P-wave (km/s) = 5.93658 6.97721 6.47782
#
# Compressibility (1/GPa) = 0.02535830
#
# Stress axis : x y z
#
# Youngs Moduli (GPa) = 35.83121 83.25404 76.77914
#
# Poissons Ratio (x) = 0.69507 -0.03657
# Poissons Ratio (y) = 0.29915 0.45458
# Poissons Ratio (z) = -0.01706 0.49291
#
# Static dielectric constant tensor:
#      x y z
#    x 1.781000 0.000000 -0.026290 
#    y 0.000000 1.733180 0.000000 
#    z -0.026290 0.000000 1.926600 
# 
# From -- ./inp_files/356969.got.cif
#   From: 2010.05.17/outbox.cif.g08.bks.cpg/sg12_179_cif.got.tgz:356969.got - 2010.06.03 13:09:07.
