data_PCOD9212881
_publ_section_title
;
Structure prediction by ZEFSAII (Michael W. Deem and Ramdas Pophale) SiO2 
 PCOD9212881
Probable space group: C 2/M
;
_chemical_formula_sum "Si O2"
_cell_formula_units_Z 28
_cell_length_a 5.251931
_cell_length_b 18.065467
_cell_length_c 14.561186
_cell_angle_alpha 90.000000
_cell_angle_beta 71.110156
_cell_angle_gamma 90.000000
_cell_volume 1307.138554
_symmetry_space_group_name_H-M "C 2/M"
_symmetry_group_IT_number 12
_symmetry_cell_setting 'monoclinic'
loop_
_space_group_symop_operation_xyz
x,y,z
-x,y,-z
-x,-y,-z
x,-y,z
1/2+x,1/2+y,z
1/2-x,1/2+y,-z
1/2-x,1/2-y,-z
1/2+x,1/2-y,z
loop_
_atom_site_type_symbol
_atom_site_label
_atom_site_fract_x
_atom_site_fract_y
_atom_site_fract_z
Si Si1 0.989397 0.700577 0.603941
Si Si2 0.675328 0.416356 0.736577
Si Si3 0.202326 0.089884 0.056331
Si Si4 0.684286 0.500000 0.564477
O O1 0.762850 0.762212 0.607493
O O2 0.898274 0.645174 0.695192
O O3 0.000000 0.664161 0.500000
O O4 0.769749 0.500000 0.756989
O O5 0.435718 0.392172 0.830529
O O6 0.597448 0.432367 0.640564
O O7 0.216451 0.000000 0.052701
O O8 0.500000 0.118121 0.000000
O O9 0.000000 0.113458 0.000000
O O10 0.500000 0.500000 0.500000
O O11 0.000000 0.500000 0.500000
#
# Coordination Sequence:
#
# PCOD9212881 Si02
#       4
#     8   8   8   4
#     4  10  22  39  58  82 117 157 191 229 286 351
#     4   9  21  39  60  90 112 157 192 244 286 336
#     4   9  18  33  54  82 113 143 187 239 288 336
#     4  10  22  34  52  84 116 140 182 236 278 324
#
# _framework density 21.420836000000001
#
# number of rings (size 3 to 8) (size 9 to 14) (size 15 to 20)
#    0.857    1.714    0.000    0.857    0.000   10.286 
#    0.000    0.000    0.000    5.143    0.000    0.000 
#    0.000    0.000    0.000    0.000    0.000    0.000 
#
# Total GULP energy -77938.452298 kJ/mol
# GULP energy per Si atom -5567.032307 kJ/mol
# Density = 2.137208 g / cm^3
# Si number density = 21.420836 Si / 1000 Ang^3
#
#
#
# Elastic Constant Matrix: (Units=GPa)
#
#
# Indices 1 2 3 4 5 6 
#
# 1 119.3421 6.6433 72.7336 0.0000 -12.9650 0.0000
# 2 6.6433 37.4765 27.4546 0.0000 -17.9475 0.0000
# 3 72.7336 27.4546 202.1431 0.0000 -32.7134 0.0000
# 4 0.0000 0.0000 0.0000 24.5613 0.0000 -15.7473
# 5 -12.9650 -17.9475 -32.7134 0.0000 28.7995 0.0000
# 6 0.0000 0.0000 0.0000 -15.7473 0.0000 9.2612
#
#
#
# Elastic Compliance Matrix: (Units=1/GPa)
#
#
# Indices 1 2 3 4 5 6 
#
# 1 0.010809 0.001631 -0.003870 0.000000 0.001486 0.000000
# 2 0.001631 0.038724 -0.002232 0.000000 0.022331 0.000000
# 3 -0.003870 -0.002232 0.007517 0.000000 0.005406 0.000000
# 4 0.000000 0.000000 0.000000 -0.451576 0.000000 -0.767835
# 5 0.001486 0.022331 0.005406 0.000000 0.055448 0.000000
# 6 0.000000 0.000000 0.000000 -0.767835 0.000000 -1.197608
#
#
# Mechanical properties :
#
#
# Convention : Reuss Voigt Hill
#
# Bulk Modulus (GPa) = 20.78712 63.62499 42.20605
# Shear Modulus (GPa) = -3.30752 29.33309 13.01278
#
# Velocity S-wave (km/s) = -1.24395 3.70452 2.46739
# Velocity P-wave (km/s) = 2.76803 6.93288 5.27858
#
# Compressibility (1/GPa) = 0.04810670
#
# Stress axis : x y z
#
# Youngs Moduli (GPa) = 92.51929 25.82394 133.02299
#
# Poissons Ratio (x) = -0.04211 0.51480
# Poissons Ratio (y) = -0.15088 0.29695
# Poissons Ratio (z) = 0.35805 0.05765
#
# Static dielectric constant tensor:
#      x y z
#    x 1.748900 0.000000 -0.042300 
#    y 0.000000 1.899770 0.000000 
#    z -0.042300 0.000000 1.760890 
# 
# From -- ./inp_files/190937.got.cif
#   From: 2010.05.17/outbox.cif.g08.bks.cpg/sg12_96_cif.got.tgz:190937.got - 2010.06.03 13:09:07.
