data_PCOD9212100
_publ_section_title
;
Structure prediction by ZEFSAII (Michael W. Deem and Ramdas Pophale) SiO2 
 PCOD9212100
Probable space group: C 2/M
;
_chemical_formula_sum "Si O2"
_cell_formula_units_Z 36
_cell_length_a 12.815999
_cell_length_b 15.440154
_cell_length_c 15.268295
_cell_angle_alpha 90.000000
_cell_angle_beta 151.938509
_cell_angle_gamma 90.000000
_cell_volume 1421.279158
_symmetry_space_group_name_H-M "C 2/M"
_symmetry_group_IT_number 12
_symmetry_cell_setting 'monoclinic'
loop_
_space_group_symop_operation_xyz
x,y,z
-x,y,-z
-x,-y,-z
x,-y,z
1/2+x,1/2+y,z
1/2-x,1/2+y,-z
1/2-x,1/2-y,-z
1/2+x,1/2-y,z
loop_
_atom_site_type_symbol
_atom_site_label
_atom_site_fract_x
_atom_site_fract_y
_atom_site_fract_z
Si Si1 0.595256 0.168616 0.378921
Si Si2 0.368454 0.692802 0.012183
Si Si3 0.185893 0.500000 0.446235
Si Si4 0.813755 0.000000 0.231166
Si Si5 0.741004 0.830611 0.291928
Si Si6 0.290603 0.500000 0.005765
O O1 0.750000 0.250000 0.500000
O O2 0.341666 0.188099 0.208711
O O3 0.639947 0.140104 0.310794
O O4 0.685487 0.088472 0.500395
O O5 0.404040 0.592210 0.064851
O O6 0.250000 0.750000 0.000000
O O7 0.583315 0.749850 0.151490
O O8 0.417716 0.500000 0.565406
O O9 0.940439 0.500000 0.220053
O O10 0.735668 0.088120 0.221219
O O11 0.244605 0.000000 0.915114
O O12 0.000000 0.808262 0.500000
#
# Coordination Sequence:
#
# PCOD9212100 Si02
#       6
#     8   8   4   4   8   4
#     4  10  21  41  63  90 134 184 218 270 336 407
#     4   9  22  42  64  94 135 183 229 270 328 425
#     4  10  21  42  68 100 137 167 231 281 323 413
#     4  12  24  42  73 109 140 174 214 301 362 377
#     4  11  22  40  62 100 143 167 224 288 337 404
#     4  10  24  47  72  98 138 187 232 271 342 412
#
# _framework density 25.329294999999998
#
# number of rings (size 3 to 8) (size 9 to 14) (size 15 to 20)
#    0.000    1.778    2.222    1.000    6.222    2.667 
#    4.000   22.778    0.000    0.000    0.000   12.444 
#    0.000    0.000    0.000    0.000    0.000    0.000 
#
# Total GULP energy -100498.271772 kJ/mol
# GULP energy per Si atom -5583.237321 kJ/mol
# Density = 2.527164 g / cm^3
# Si number density = 25.329295 Si / 1000 Ang^3
#
#
#
# Elastic Constant Matrix: (Units=GPa)
#
#
# Indices 1 2 3 4 5 6 
#
# 1 56.3535 18.6341 35.8081 -0.0011 21.0610 -0.0008
# 2 18.6341 277.5880 107.9555 -0.0005 23.4317 0.0003
# 3 35.8081 107.9555 184.8417 0.0128 23.5140 0.0032
# 4 -0.0011 -0.0005 0.0128 55.6999 0.0001 16.8721
# 5 21.0610 23.4317 23.5140 0.0001 40.7287 -0.0006
# 6 -0.0008 0.0003 0.0032 16.8721 -0.0006 28.9062
#
#
#
# Elastic Compliance Matrix: (Units=1/GPa)
#
#
# Indices 1 2 3 4 5 6 
#
# 1 0.023811 0.000732 -0.003692 0.000001 -0.010603 0.000000
# 2 0.000732 0.004739 -0.002714 0.000001 -0.001538 0.000000
# 3 -0.003692 -0.002714 0.007845 -0.000002 -0.001059 0.000000
# 4 0.000001 0.000001 -0.000002 0.021809 0.000000 -0.012730
# 5 -0.010603 -0.001538 -0.001059 0.000000 0.031532 0.000001
# 6 0.000000 0.000000 0.000000 -0.012730 0.000001 0.042025
#
#
# Mechanical properties :
#
#
# Convention : Reuss Voigt Hill
#
# Bulk Modulus (GPa) = 39.92251 93.73099 66.82675
# Shear Modulus (GPa) = 33.01281 48.82599 40.91940
#
# Velocity S-wave (km/s) = 3.61410 4.39526 4.02368
# Velocity P-wave (km/s) = 5.76292 7.92736 6.93016
#
# Compressibility (1/GPa) = 0.02504853
#
# Stress axis : x y z
#
# Youngs Moduli (GPa) = 41.99672 211.03699 127.47271
#
# Poissons Ratio (x) = -0.15454 0.47059
# Poissons Ratio (y) = -0.03075 0.34592
# Poissons Ratio (z) = 0.15504 0.57269
#
# Static dielectric constant tensor:
#      x y z
#    x 2.045750 0.000000 -0.003720 
#    y 0.000000 2.239170 -0.000020 
#    z -0.003720 -0.000020 1.787200 
# 
# From -- ./inp_files/72296.got.cif
#   From: 2010.05.17/outbox.cif.g08.bks.cpg/sg12_37_cif.got.tgz:72296.got - 2010.06.03 13:09:07.
