data_PCOD9212098
_publ_section_title
;
Structure prediction by ZEFSAII (Michael W. Deem and Ramdas Pophale) SiO2 
 PCOD9212098
Probable space group: C 2/M
;
_chemical_formula_sum "Si O2"
_cell_formula_units_Z 52
_cell_length_a 22.644332
_cell_length_b 17.220933
_cell_length_c 8.870815
_cell_angle_alpha 90.000000
_cell_angle_beta 50.932214
_cell_angle_gamma 90.000000
_cell_volume 2685.750897
_symmetry_space_group_name_H-M "C 2/M"
_symmetry_group_IT_number 12
_symmetry_cell_setting 'monoclinic'
loop_
_space_group_symop_operation_xyz
x,y,z
-x,y,-z
-x,-y,-z
x,-y,z
1/2+x,1/2+y,z
1/2-x,1/2+y,-z
1/2-x,1/2-y,-z
1/2+x,1/2-y,z
loop_
_atom_site_type_symbol
_atom_site_label
_atom_site_fract_x
_atom_site_fract_y
_atom_site_fract_z
Si Si1 0.500000 0.701579 0.000000
Si Si2 0.976650 0.291716 0.711857
Si Si3 0.142368 0.091240 0.777960
Si Si4 0.245399 0.589837 0.166418
Si Si5 0.395516 0.906136 0.402526
Si Si6 0.797153 0.315434 0.012862
Si Si7 0.276503 0.832965 0.393393
O O1 0.510075 0.744973 0.148248
O O2 0.427343 0.646519 0.143335
O O3 0.000000 0.264223 0.500000
O O4 0.026584 0.369028 0.664741
O O5 0.886810 0.305672 0.848069
O O6 0.178099 0.120246 0.880271
O O7 0.213086 0.105778 0.551491
O O8 0.121655 0.000000 0.814042
O O9 0.248347 0.500000 0.196293
O O10 0.169994 0.618370 0.372404
O O11 0.233361 0.606210 0.013736
O O12 0.359218 0.864544 0.313791
O O13 0.399444 0.000000 0.381229
O O14 0.777668 0.319060 0.216474
O O15 0.750000 0.250000 0.000000
O O16 0.250000 0.750000 0.500000
#
# Coordination Sequence:
#
# PCOD9212098 Si02
#       7
#     4   8   8   8   8   8   8
#     4  12  25  44  67  94 128 170 230 288 331 388
#     4  12  25  41  66  99 131 174 225 270 336 397
#     4  10  22  43  68  92 125 172 218 272 339 391
#     4   9  19  37  60  88 121 161 203 248 314 393
#     4  10  21  41  63  90 131 171 210 265 329 398
#     4  12  24  38  61  92 128 166 212 263 324 385
#     4  11  22  39  66  94 128 169 220 268 326 395
#
# _framework density 19.361439000000001
#
# number of rings (size 3 to 8) (size 9 to 14) (size 15 to 20)
#    0.000    1.231    1.538    7.154    2.154    2.154 
#    0.000    2.692    0.000    0.923    0.000    0.000 
#    0.000    0.000    0.000    0.000    0.000    0.000 
#
# Total GULP energy -144823.773815 kJ/mol
# GULP energy per Si atom -5570.145147 kJ/mol
# Density = 1.931737 g / cm^3
# Si number density = 19.361439 Si / 1000 Ang^3
#
#
#
# Elastic Constant Matrix: (Units=GPa)
#
#
# Indices 1 2 3 4 5 6 
#
# 1 154.9292 47.3609 49.5513 0.0000 1.2237 0.0000
# 2 47.3609 68.9538 6.5170 0.0000 0.7992 0.0000
# 3 49.5513 6.5170 67.2598 0.0000 23.5611 0.0000
# 4 0.0000 0.0000 0.0000 25.3831 0.0000 -1.5963
# 5 1.2237 0.7992 23.5611 0.0000 51.2713 0.0000
# 6 0.0000 0.0000 0.0000 -1.5963 0.0000 32.8578
#
#
#
# Elastic Compliance Matrix: (Units=1/GPa)
#
#
# Indices 1 2 3 4 5 6 
#
# 1 0.011557 -0.007110 -0.009257 0.000000 0.004089 0.000000
# 2 -0.007110 0.019022 0.004099 0.000000 -0.002011 0.000000
# 3 -0.009257 0.004099 0.025310 0.000000 -0.011474 0.000000
# 4 0.000000 0.000000 0.000000 0.039517 0.000000 0.001920
# 5 0.004089 -0.002011 -0.011474 0.000000 0.024710 0.000000
# 6 0.000000 0.000000 0.000000 0.001920 0.000000 0.030527
#
#
# Mechanical properties :
#
#
# Convention : Reuss Voigt Hill
#
# Bulk Modulus (GPa) = 31.89589 55.33347 43.61468
# Shear Modulus (GPa) = 26.93525 34.41667 30.67596
#
# Velocity S-wave (km/s) = 3.73390 4.22072 3.98475
# Velocity P-wave (km/s) = 5.92444 7.23836 6.61411
#
# Compressibility (1/GPa) = 0.03135200
#
# Stress axis : x y z
#
# Youngs Moduli (GPa) = 86.53069 52.57099 39.51025
#
# Poissons Ratio (x) = 0.37378 0.36576
# Poissons Ratio (y) = 0.61524 -0.16197
# Poissons Ratio (z) = 0.80105 -0.21551
#
# Static dielectric constant tensor:
#      x y z
#    x 1.697550 0.000000 0.012590 
#    y 0.000000 1.764440 0.000000 
#    z 0.012590 0.000000 1.679380 
# 
# From -- ./inp_files/88366.got.cif
#   From: 2010.05.17/outbox.cif.g08.bks.cpg/sg12_45_cif.got.tgz:88366.got - 2010.06.03 13:09:07.
