data_PCOD9212236
_publ_section_title
;
Structure prediction by ZEFSAII (Michael W. Deem and Ramdas Pophale) SiO2 
 PCOD9212236
Probable space group: C 2/M
;
_chemical_formula_sum "Si O2"
_cell_formula_units_Z 28
_cell_length_a 4.935241
_cell_length_b 13.158749
_cell_length_c 17.981816
_cell_angle_alpha 90.000000
_cell_angle_beta 79.683752
_cell_angle_gamma 90.000000
_cell_volume 1148.890066
_symmetry_space_group_name_H-M "C 2/M"
_symmetry_group_IT_number 12
_symmetry_cell_setting 'monoclinic'
loop_
_space_group_symop_operation_xyz
x,y,z
-x,y,-z
-x,-y,-z
x,-y,z
1/2+x,1/2+y,z
1/2-x,1/2+y,-z
1/2-x,1/2-y,-z
1/2+x,1/2-y,z
loop_
_atom_site_type_symbol
_atom_site_label
_atom_site_fract_x
_atom_site_fract_y
_atom_site_fract_z
Si Si1 0.851714 0.000000 0.813415
Si Si2 0.477374 0.180797 0.088143
Si Si3 0.316441 0.685764 0.278881
Si Si4 0.797766 0.116283 0.448409
O O1 0.655513 0.089009 0.860919
O O2 0.049666 0.089004 0.766107
O O3 0.775061 0.220916 0.099134
O O4 0.500000 0.151258 0.000000
O O5 0.519913 0.782189 0.263082
O O6 0.292937 0.666114 0.368384
O O7 0.500000 0.111083 0.500000
O O8 0.000000 0.163422 0.500000
O O9 0.897569 0.000000 0.430578
#
# Coordination Sequence:
#
# PCOD9212236 Si02
#       4
#     4   8   8   8
#     4  12  25  46  66  98 138 180 204 276 322 388
#     4  10  23  44  71 102 132 170 221 265 315 386
#     4  12  27  43  65  97 130 174 222 266 327 394
#     4  10  21  41  66  91 122 166 219 273 326 383
#
# _framework density 24.371347
#
# number of rings (size 3 to 8) (size 9 to 14) (size 15 to 20)
#    0.000    1.143    1.429    3.857    0.000    8.000 
#    0.000    4.286    0.000    0.000    0.000    0.000 
#    0.000    0.000    0.000    0.000    0.000    0.000 
#
# Total GULP energy -77988.686964 kJ/mol
# GULP energy per Si atom -5570.620497 kJ/mol
# Density = 2.431588 g / cm^3
# Si number density = 24.371347 Si / 1000 Ang^3
#
#
#
# Elastic Constant Matrix: (Units=GPa)
#
#
# Indices 1 2 3 4 5 6 
#
# 1 98.5378 13.7209 9.3061 0.0000 -2.1516 0.0000
# 2 13.7209 145.5642 52.7643 0.0000 -3.8188 0.0000
# 3 9.3061 52.7643 142.3984 0.0000 -22.5471 0.0000
# 4 0.0000 0.0000 0.0000 94.8979 0.0000 -40.6054
# 5 -2.1516 -3.8188 -22.5471 0.0000 31.8637 0.0000
# 6 0.0000 0.0000 0.0000 -40.6054 0.0000 20.5333
#
#
#
# Elastic Compliance Matrix: (Units=1/GPa)
#
#
# Indices 1 2 3 4 5 6 
#
# 1 0.010304 -0.000854 -0.000296 0.000000 0.000384 0.000000
# 2 -0.000854 0.008052 -0.003136 0.000000 -0.001311 0.000000
# 3 -0.000296 -0.003136 0.009168 0.000000 0.006092 0.000000
# 4 0.000000 0.000000 0.000000 0.068496 0.000000 0.135453
# 5 0.000384 -0.001311 0.006092 0.000000 0.035563 0.000000
# 6 0.000000 0.000000 0.000000 0.135453 0.000000 0.316565
#
#
# Mechanical properties :
#
#
# Convention : Reuss Voigt Hill
#
# Bulk Modulus (GPa) = 52.76147 59.78699 56.27423
# Shear Modulus (GPa) = 10.79826 50.17294 30.48560
#
# Velocity S-wave (km/s) = 2.10721 4.54220 3.54061
# Velocity P-wave (km/s) = 5.25513 7.21759 6.31308
#
# Compressibility (1/GPa) = 0.01895322
#
# Stress axis : x y z
#
# Youngs Moduli (GPa) = 97.05317 124.18514 109.07090
#
# Poissons Ratio (x) = 0.10603 0.03231
# Poissons Ratio (y) = 0.08286 0.34200
# Poissons Ratio (z) = 0.02875 0.38940
#
# Static dielectric constant tensor:
#      x y z
#    x 1.973760 0.000000 0.047310 
#    y 0.000000 1.926000 0.000000 
#    z 0.047310 0.000000 1.949580 
# 
# From -- ./inp_files/297335.got.cif
#   From: 2010.05.17/outbox.cif.g08.bks.cpg/sg12_149_cif.got.tgz:297335.got - 2010.06.03 13:09:07.
