data_PCOD9212987
_publ_section_title
;
Structure prediction by ZEFSAII (Michael W. Deem and Ramdas Pophale) SiO2 
 PCOD9212987
Probable space group: C 2/M
;
_chemical_formula_sum "Si O2"
_cell_formula_units_Z 48
_cell_length_a 22.890989
_cell_length_b 18.392206
_cell_length_c 6.715550
_cell_angle_alpha 90.000000
_cell_angle_beta 68.546174
_cell_angle_gamma 90.000000
_cell_volume 2631.452719
_symmetry_space_group_name_H-M "C 2/M"
_symmetry_group_IT_number 12
_symmetry_cell_setting 'monoclinic'
loop_
_space_group_symop_operation_xyz
x,y,z
-x,y,-z
-x,-y,-z
x,-y,z
1/2+x,1/2+y,z
1/2-x,1/2+y,-z
1/2-x,1/2-y,-z
1/2+x,1/2-y,z
loop_
_atom_site_type_symbol
_atom_site_label
_atom_site_fract_x
_atom_site_fract_y
_atom_site_fract_z
Si Si1 0.856856 0.301249 0.928729
Si Si2 0.650962 0.584608 0.009531
Si Si3 0.927968 0.201113 0.127969
Si Si4 0.865557 0.829342 0.608140
Si Si5 0.236908 0.329549 0.601144
Si Si6 0.201731 0.413903 0.261239
O O1 0.847358 0.236726 0.780264
O O2 0.851821 0.373921 0.801960
O O3 0.911082 0.271688 0.011316
O O4 0.801528 0.314935 0.153009
O O5 0.642802 0.500000 0.974664
O O6 0.617348 0.637816 0.896973
O O7 0.726664 0.599225 0.912007
O O8 0.617873 0.606644 0.259553
O O9 0.912070 0.202963 0.383402
O O10 0.000000 0.183401 0.000000
O O11 0.804520 0.859758 0.572785
O O12 0.250000 0.250000 0.500000
O O13 0.203164 0.378479 0.479076
O O14 0.192488 0.500000 0.278670
#
# Coordination Sequence:
#
# PCOD9212987 Si02
#       6
#     8   8   8   8   8   8
#     4  11  21  35  58  84 113 143 183 233 283 330
#     4  10  22  36  54  82 117 153 188 228 278 329
#     4  11  24  39  57  80 109 152 200 234 270 324
#     4  11  20  35  58  83 113 147 187 234 277 325
#     4  12  18  32  58  86 113 146 179 229 285 335
#     4  11  22  34  54  89 120 144 178 224 287 345
#
# _framework density 18.240877000000001
#
# number of rings (size 3 to 8) (size 9 to 14) (size 15 to 20)
#    0.000    1.000    6.667    1.500    0.000    5.000 
#    0.000    0.833    0.000    0.500    0.000    4.667 
#    0.000    0.000    0.000    0.000    0.000    0.000 
#
# Total GULP energy -133628.125740 kJ/mol
# GULP energy per Si atom -5567.838572 kJ/mol
# Density = 1.819936 g / cm^3
# Si number density = 18.240877 Si / 1000 Ang^3
#
#
#
# Elastic Constant Matrix: (Units=GPa)
#
#
# Indices 1 2 3 4 5 6 
#
# 1 22.6850 12.0570 16.0369 0.0000 -2.8964 0.0000
# 2 12.0570 99.8568 26.2930 0.0000 6.7468 0.0000
# 3 16.0369 26.2930 125.9071 0.0000 10.4462 0.0000
# 4 0.0000 0.0000 0.0000 15.1613 0.0000 4.7637
# 5 -2.8964 6.7468 10.4462 0.0000 14.1460 0.0000
# 6 0.0000 0.0000 0.0000 4.7637 0.0000 9.8235
#
#
#
# Elastic Compliance Matrix: (Units=1/GPa)
#
#
# Indices 1 2 3 4 5 6 
#
# 1 0.054993 -0.006022 -0.007371 0.000000 0.019575 0.000000
# 2 -0.006022 0.011436 -0.001136 0.000000 -0.005848 0.000000
# 3 -0.007371 -0.001136 0.009799 0.000000 -0.008204 0.000000
# 4 0.000000 0.000000 0.000000 0.077813 0.000000 -0.037734
# 5 0.019575 -0.005848 -0.008204 0.000000 0.083547 0.000000
# 6 0.000000 0.000000 0.000000 -0.037734 0.000000 0.120094
#
#
# Mechanical properties :
#
#
# Convention : Reuss Voigt Hill
#
# Bulk Modulus (GPa) = 21.19988 39.69141 30.44565
# Shear Modulus (GPa) = 12.42352 20.76363 16.59358
#
# Velocity S-wave (km/s) = 2.61259 3.37753 3.01938
# Velocity P-wave (km/s) = 4.55502 6.08417 5.37426
#
# Compressibility (1/GPa) = 0.04717007
#
# Stress axis : x y z
#
# Youngs Moduli (GPa) = 18.18429 87.44599 102.05065
#
# Poissons Ratio (x) = 0.52657 0.75222
# Poissons Ratio (y) = 0.10950 0.11592
# Poissons Ratio (z) = 0.13404 0.09933
#
# Static dielectric constant tensor:
#      x y z
#    x 1.611380 0.000000 0.018090 
#    y 0.000000 1.626580 0.000000 
#    z 0.018090 0.000000 1.683260 
# 
# From -- ./inp_files/24962.got.cif
#   From: 2010.05.17/outbox.cif.g08.bks.cpg/sg12_13_cif.got.tgz:24962.got - 2010.06.03 13:09:07.
