data_PCOD9212082
_publ_section_title
;
Structure prediction by ZEFSAII (Michael W. Deem and Ramdas Pophale) SiO2 
 PCOD9212082
Probable space group: C 2/M
;
_chemical_formula_sum "Si O2"
_cell_formula_units_Z 56
_cell_length_a 9.314893
_cell_length_b 17.994411
_cell_length_c 18.213850
_cell_angle_alpha 90.000000
_cell_angle_beta 111.763316
_cell_angle_gamma 90.000000
_cell_volume 2835.330263
_symmetry_space_group_name_H-M "C 2/M"
_symmetry_group_IT_number 12
_symmetry_cell_setting 'monoclinic'
loop_
_space_group_symop_operation_xyz
x,y,z
-x,y,-z
-x,-y,-z
x,-y,z
1/2+x,1/2+y,z
1/2-x,1/2+y,-z
1/2-x,1/2-y,-z
1/2+x,1/2-y,z
loop_
_atom_site_type_symbol
_atom_site_label
_atom_site_fract_x
_atom_site_fract_y
_atom_site_fract_z
Si Si1 0.181268 0.676953 0.022452
Si Si2 0.605063 0.416084 0.217412
Si Si3 0.921677 0.585754 0.367254
Si Si4 0.660785 0.315882 0.789646
Si Si5 0.666524 0.583983 0.070320
Si Si6 0.902863 0.306521 0.707794
Si Si7 0.337677 0.226917 0.444161
O O1 0.269847 0.671402 0.116279
O O2 0.250000 0.750000 0.000000
O O3 0.218092 0.616089 0.967707
O O4 0.000000 0.682892 0.000000
O O5 0.549213 0.500000 0.191757
O O6 0.764721 0.418517 0.290526
O O7 0.475874 0.376128 0.240860
O O8 0.640209 0.378190 0.144772
O O9 0.963998 0.500000 0.394919
O O10 0.879922 0.643232 0.425136
O O11 0.045288 0.626974 0.337088
O O12 0.804956 0.326084 0.761981
O O13 0.559654 0.240150 0.756915
O O14 0.717090 0.500000 0.095978
O O15 0.500000 0.584483 0.000000
O O16 0.773484 0.258281 0.640289
O O17 0.500000 0.262212 0.500000
O O18 0.250000 0.250000 0.500000
#
# Coordination Sequence:
#
# PCOD9212082 Si02
#       7
#     8   8   8   8   8   8   8
#     4  12  27  38  57  92 127 165 220 285 336 378
#     4  10  22  41  66  93 127 172 219 272 332 394
#     4  11  25  45  70 102 136 175 222 269 323 392
#     4  12  23  40  66  89 130 175 225 274 327 400
#     4  10  21  41  63  85 121 168 216 268 335 396
#     4  12  24  43  68  97 131 176 222 263 329 401
#     4  12  23  43  72 103 131 171 212 263 325 396
#
# _framework density 19.750785
#
# number of rings (size 3 to 8) (size 9 to 14) (size 15 to 20)
#    0.000    0.714    5.714    1.286    6.000    1.143 
#    0.000    0.000    0.000    0.857    0.000    0.000 
#    0.000    0.000    0.000    0.000    0.000    0.000 
#
# Total GULP energy -155993.863646 kJ/mol
# GULP energy per Si atom -5571.209416 kJ/mol
# Density = 1.970583 g / cm^3
# Si number density = 19.750785 Si / 1000 Ang^3
#
#
#
# Elastic Constant Matrix: (Units=GPa)
#
#
# Indices 1 2 3 4 5 6 
#
# 1 162.8535 49.1161 12.3339 0.0000 -21.4361 0.0000
# 2 49.1161 80.7207 2.4959 0.0000 -25.4811 0.0000
# 3 12.3339 2.4959 48.8430 0.0000 -13.9549 0.0000
# 4 0.0000 0.0000 0.0000 92.6285 0.0000 7.1602
# 5 -21.4361 -25.4811 -13.9549 0.0000 50.1753 0.0000
# 6 0.0000 0.0000 0.0000 7.1602 0.0000 25.3943
#
#
#
# Elastic Compliance Matrix: (Units=1/GPa)
#
#
# Indices 1 2 3 4 5 6 
#
# 1 0.007673 -0.004432 -0.001540 0.000000 0.000599 0.000000
# 2 -0.004432 0.017416 0.002406 0.000000 0.007621 0.000000
# 3 -0.001540 0.002406 0.022705 0.000000 0.006879 0.000000
# 4 0.000000 0.000000 0.000000 0.011036 0.000000 -0.003112
# 5 0.000599 0.007621 0.006879 0.000000 0.025969 0.000000
# 6 0.000000 0.000000 0.000000 -0.003112 0.000000 0.040256
#
#
# Mechanical properties :
#
#
# Convention : Reuss Voigt Hill
#
# Bulk Modulus (GPa) = 24.59228 46.70100 35.64664
# Shear Modulus (GPa) = 34.30747 48.87104 41.58926
#
# Velocity S-wave (km/s) = 4.17228 4.97972 4.59377
# Velocity P-wave (km/s) = 5.97401 7.53392 6.79885
#
# Compressibility (1/GPa) = 0.04066316
#
# Stress axis : x y z
#
# Youngs Moduli (GPa) = 130.33422 57.41777 44.04316
#
# Poissons Ratio (x) = 0.25447 0.06782
# Poissons Ratio (y) = 0.57762 -0.10599
# Poissons Ratio (z) = 0.20070 -0.13817
#
# Static dielectric constant tensor:
#      x y z
#    x 1.489290 0.000000 0.672090 
#    y 0.000000 1.749300 0.000000 
#    z 0.672090 0.000000 -0.613020 
# 
# From -- ./inp_files/257150.got.cif
#   From: 2010.05.17/outbox.cif.g08.bks.cpg/sg12_129_cif.got.tgz:257150.got - 2010.06.03 13:09:07.
