data_PCOD9212386
_publ_section_title
;
Structure prediction by ZEFSAII (Michael W. Deem and Ramdas Pophale) SiO2 
 PCOD9212386
Probable space group: C 2/M
;
_chemical_formula_sum "Si O2"
_cell_formula_units_Z 44
_cell_length_a 10.779925
_cell_length_b 28.501989
_cell_length_c 9.140999
_cell_angle_alpha 90.000000
_cell_angle_beta 134.907366
_cell_angle_gamma 90.000000
_cell_volume 1989.163999
_symmetry_space_group_name_H-M "C 2/M"
_symmetry_group_IT_number 12
_symmetry_cell_setting 'monoclinic'
loop_
_space_group_symop_operation_xyz
x,y,z
-x,y,-z
-x,-y,-z
x,-y,z
1/2+x,1/2+y,z
1/2-x,1/2+y,-z
1/2-x,1/2-y,-z
1/2+x,1/2-y,z
loop_
_atom_site_type_symbol
_atom_site_label
_atom_site_fract_x
_atom_site_fract_y
_atom_site_fract_z
Si Si1 0.671218 0.101527 0.229755
Si Si2 0.700141 0.000000 0.610967
Si Si3 0.911729 0.159478 0.233227
Si Si4 0.285751 0.602097 0.650257
Si Si5 0.000000 0.237478 0.500000
Si Si6 0.709146 0.500000 0.657955
Si Si7 0.710488 0.691035 0.155011
O O1 0.818501 0.136130 0.292944
O O2 0.669486 0.102282 0.404698
O O3 0.719172 0.048546 0.220294
O O4 0.500000 0.115189 0.000000
O O5 0.500000 0.000000 0.500000
O O6 0.780674 0.949275 0.718790
O O7 0.730505 0.000000 0.460973
O O8 0.023232 0.118840 0.246854
O O9 0.027973 0.203118 0.384621
O O10 0.773579 0.181011 0.003981
O O11 0.235533 0.643188 0.718204
O O12 0.167611 0.268546 0.680127
O O13 0.500000 0.500000 0.500000
O O14 0.500000 0.699160 0.000000
#
# Coordination Sequence:
#
# PCOD9212386 Si02
#       7
#     8   4   8   8   4   4   8
#     4  11  22  37  67 100 138 175 235 289 352 423
#     4  10  22  37  71 105 138 183 237 282 359 429
#     4  11  23  46  64 101 133 182 238 285 359 431
#     4  10  22  45  65  96 140 183 222 290 353 425
#     4  12  24  44  74  92 140 184 238 298 364 414
#     4  10  21  41  68  99 140 195 234 288 355 434
#     4  10  26  43  68  99 137 178 238 291 362 432
#
# _framework density 22.119845999999999
#
# number of rings (size 3 to 8) (size 9 to 14) (size 15 to 20)
#    0.000    1.455    1.818    3.000    3.818    5.091 
#    0.000    5.000    0.000    0.000    0.000    0.000 
#    0.000    0.000    0.000    0.000    0.000    0.000 
#
# Total GULP energy -122815.527035 kJ/mol
# GULP energy per Si atom -5582.523956 kJ/mol
# Density = 2.206950 g / cm^3
# Si number density = 22.119846 Si / 1000 Ang^3
#
#
#
# Elastic Constant Matrix: (Units=GPa)
#
#
# Indices 1 2 3 4 5 6 
#
# 1 64.5940 43.2476 20.6749 0.0000 8.5181 0.0000
# 2 43.2476 171.0591 56.9190 0.0000 10.6739 0.0000
# 3 20.6749 56.9190 113.6471 0.0000 9.4959 0.0000
# 4 0.0000 0.0000 0.0000 40.6218 0.0000 21.6370
# 5 8.5181 10.6739 9.4959 0.0000 34.6771 0.0000
# 6 0.0000 0.0000 0.0000 21.6370 0.0000 45.4693
#
#
#
# Elastic Compliance Matrix: (Units=1/GPa)
#
#
# Indices 1 2 3 4 5 6 
#
# 1 0.019096 -0.004278 -0.001074 0.000000 -0.003080 0.000000
# 2 -0.004278 0.008025 -0.003195 0.000000 -0.000544 0.000000
# 3 -0.001074 -0.003195 0.010736 0.000000 -0.001693 0.000000
# 4 0.000000 0.000000 0.000000 0.032975 0.000000 -0.015692
# 5 -0.003080 -0.000544 -0.001693 0.000000 0.030225 0.000000
# 6 0.000000 0.000000 0.000000 -0.015692 0.000000 0.029460
#
#
# Mechanical properties :
#
#
# Convention : Reuss Voigt Hill
#
# Bulk Modulus (GPa) = 48.16561 65.66480 56.91521
# Shear Modulus (GPa) = 32.35564 39.38421 35.86992
#
# Velocity S-wave (km/s) = 3.82873 4.22417 4.03130
# Velocity P-wave (km/s) = 6.43177 7.31723 6.88874
#
# Compressibility (1/GPa) = 0.02076170
#
# Stress axis : x y z
#
# Youngs Moduli (GPa) = 52.36809 124.61405 93.14188
#
# Poissons Ratio (x) = 0.53314 0.10002
# Poissons Ratio (y) = 0.22405 0.29762
# Poissons Ratio (z) = 0.05623 0.39818
#
# Static dielectric constant tensor:
#      x y z
#    x 1.812610 0.000000 0.006160 
#    y 0.000000 1.821810 0.000000 
#    z 0.006160 0.000000 1.867430 
# 
# From -- ./inp_files/54420.got.cif
#   From: 2010.05.17/outbox.cif.g08.bks.cpg/sg12_28_cif.got.tgz:54420.got - 2010.06.03 13:09:07.
