data_PCOD9212456
_publ_section_title
;
Structure prediction by ZEFSAII (Michael W. Deem and Ramdas Pophale) SiO2 
 PCOD9212456
Probable space group: C 2/M
;
_chemical_formula_sum "Si O2"
_cell_formula_units_Z 64
_cell_length_a 16.146359
_cell_length_b 30.230865
_cell_length_c 8.558308
_cell_angle_alpha 90.000000
_cell_angle_beta 137.887251
_cell_angle_gamma 90.000000
_cell_volume 2801.375104
_symmetry_space_group_name_H-M "C 2/M"
_symmetry_group_IT_number 12
_symmetry_cell_setting 'monoclinic'
loop_
_space_group_symop_operation_xyz
x,y,z
-x,y,-z
-x,-y,-z
x,-y,z
1/2+x,1/2+y,z
1/2-x,1/2+y,-z
1/2-x,1/2-y,-z
1/2+x,1/2-y,z
loop_
_atom_site_type_symbol
_atom_site_label
_atom_site_fract_x
_atom_site_fract_y
_atom_site_fract_z
Si Si1 0.196963 0.049013 0.241224
Si Si2 0.702706 0.118196 0.107414
Si Si3 0.047438 0.220195 0.240191
Si Si4 0.293577 0.299927 0.037846
Si Si5 0.452460 0.099082 0.612264
Si Si6 0.925440 0.929668 0.251649
Si Si7 0.364271 0.375501 0.614941
Si Si8 0.891460 0.304758 0.479912
O O1 0.341500 0.063805 0.449650
O O2 0.136257 0.089886 0.246120
O O3 0.183277 0.000000 0.294243
O O4 0.128618 0.047228 0.978139
O O5 0.803604 0.090599 0.154967
O O6 0.742287 0.116996 0.341431
O O7 0.732504 0.167902 0.082083
O O8 0.572590 0.095335 0.889010
O O9 0.125892 0.175698 0.329872
O O10 0.110218 0.261969 0.412537
O O11 0.000000 0.232843 0.000000
O O12 0.938336 0.204539 0.206601
O O13 0.231758 0.313819 0.789430
O O14 0.250000 0.250000 0.000000
O O15 0.500000 0.101246 0.500000
O O16 0.413184 0.149335 0.596894
O O17 0.000000 0.952016 0.500000
O O18 0.018904 0.891183 0.325630
O O19 0.000000 0.298388 0.500000
#
# Coordination Sequence:
#
# PCOD9212456 Si02
#       8
#     8   8   8   8   8   8   8   8
#     4  12  27  49  74 101 140 187 234 298 373 430
#     4  11  21  42  70 103 134 185 237 292 348 417
#     4  12  26  40  63 106 146 188 238 289 349 425
#     4  12  21  37  66  96 136 185 240 288 338 415
#     4  11  22  45  73  98 137 183 240 294 355 415
#     4  10  21  41  73 106 136 175 226 288 356 427
#     4  11  26  42  69 104 145 187 231 290 363 426
#     4  11  22  40  65  96 134 184 231 280 341 417
#
# _framework density 22.845922000000002
#
# number of rings (size 3 to 8) (size 9 to 14) (size 15 to 20)
#    0.000    0.750    6.250    1.875    1.750    2.500 
#    4.500    3.125    0.000    0.000    0.000    0.000 
#    0.000    0.000    0.000    0.000    0.000    0.000 
#
# Total GULP energy -178691.844293 kJ/mol
# GULP energy per Si atom -5584.120134 kJ/mol
# Density = 2.279392 g / cm^3
# Si number density = 22.845922 Si / 1000 Ang^3
#
#
#
# Elastic Constant Matrix: (Units=GPa)
#
#
# Indices 1 2 3 4 5 6 
#
# 1 55.4784 9.5747 12.0981 0.0000 -4.4091 0.0000
# 2 9.5747 107.4497 34.2788 0.0000 -13.5436 0.0000
# 3 12.0981 34.2788 132.7424 0.0000 -1.7923 0.0000
# 4 0.0000 0.0000 0.0000 44.6586 0.0000 97.3541
# 5 -4.4091 -13.5436 -1.7923 0.0000 38.7511 0.0000
# 6 0.0000 0.0000 0.0000 97.3541 0.0000 327.7053
#
#
#
# Elastic Compliance Matrix: (Units=1/GPa)
#
#
# Indices 1 2 3 4 5 6 
#
# 1 0.018642 -0.000993 -0.001420 0.000000 0.001708 0.000000
# 2 -0.000993 0.010671 -0.002618 0.000000 0.003495 0.000000
# 3 -0.001420 -0.002618 0.008329 0.000000 -0.000691 0.000000
# 4 0.000000 0.000000 0.000000 0.063545 0.000000 -0.018878
# 5 0.001708 0.003495 -0.000691 0.000000 0.027190 0.000000
# 6 0.000000 0.000000 0.000000 -0.018878 0.000000 0.008660
#
#
# Mechanical properties :
#
#
# Convention : Reuss Voigt Hill
#
# Bulk Modulus (GPa) = 36.25638 45.28595 40.77117
# Shear Modulus (GPa) = 31.99154 98.20427 65.09790
#
# Velocity S-wave (km/s) = 3.74614 6.56344 5.34380
# Velocity P-wave (km/s) = 5.88352 8.79226 7.48063
#
# Compressibility (1/GPa) = 0.02758135
#
# Stress axis : x y z
#
# Youngs Moduli (GPa) = 53.64313 93.71270 120.05572
#
# Poissons Ratio (x) = 0.09305 0.17042
# Poissons Ratio (y) = 0.05326 0.31430
# Poissons Ratio (z) = 0.07615 0.24533
#
# Static dielectric constant tensor:
#      x y z
#    x 1.956850 0.000000 0.143400 
#    y 0.000000 1.934580 0.000000 
#    z 0.143400 0.000000 1.948190 
# 
# From -- ./inp_files/80778.got.cif
#   From: 2010.05.17/outbox.cif.g08.bks.cpg/sg12_41_cif.got.tgz:80778.got - 2010.06.03 13:09:07.
