data_PCOD9212453
_publ_section_title
;
Structure prediction by ZEFSAII (Michael W. Deem and Ramdas Pophale) SiO2 
 PCOD9212453
Probable space group: C 2/M
;
_chemical_formula_sum "Si O2"
_cell_formula_units_Z 44
_cell_length_a 16.954038
_cell_length_b 26.927812
_cell_length_c 8.265535
_cell_angle_alpha 90.000000
_cell_angle_beta 33.268989
_cell_angle_gamma 90.000000
_cell_volume 2070.034234
_symmetry_space_group_name_H-M "C 2/M"
_symmetry_group_IT_number 12
_symmetry_cell_setting 'monoclinic'
loop_
_space_group_symop_operation_xyz
x,y,z
-x,y,-z
-x,-y,-z
x,-y,z
1/2+x,1/2+y,z
1/2-x,1/2+y,-z
1/2-x,1/2-y,-z
1/2+x,1/2-y,z
loop_
_atom_site_type_symbol
_atom_site_label
_atom_site_fract_x
_atom_site_fract_y
_atom_site_fract_z
Si Si1 0.145128 0.360994 0.804013
Si Si2 0.048426 0.116545 0.749608
Si Si3 0.000000 0.732016 0.000000
Si Si4 0.161371 0.350684 0.155881
Si Si5 0.368169 0.443798 0.854854
Si Si6 0.434531 0.709657 0.779619
O O1 0.284000 0.392376 0.528096
O O2 0.130849 0.307300 0.739984
O O3 0.146828 0.347380 0.988475
O O4 0.000000 0.387903 0.000000
O O5 0.949188 0.070032 0.881781
O O6 0.020551 0.157924 0.661066
O O7 0.000000 0.139866 0.000000
O O8 0.962276 0.760106 0.897811
O O9 0.000000 0.349969 0.500000
O O10 0.244598 0.402837 0.044615
O O11 0.269354 0.307921 0.037063
O O12 0.500000 0.438947 0.500000
O O13 0.314905 0.500000 0.939113
O O14 0.500000 0.731210 0.500000
#
# Coordination Sequence:
#
# PCOD9212453 Si02
#       6
#     8   8   4   8   8   8
#     4  10  24  43  59  93 132 172 222 273 331 381
#     4  11  21  41  68  92 130 171 217 269 331 391
#     4  10  26  40  68  92 132 174 238 276 320 384
#     4  11  23  42  67  94 132 175 212 267 344 388
#     4  10  21  41  72  98 123 168 220 266 321 402
#     4  11  22  44  66  91 128 181 231 272 324 384
#
# _framework density 21.255687999999999
#
# number of rings (size 3 to 8) (size 9 to 14) (size 15 to 20)
#    0.545    0.909    4.545    1.091    5.091    2.909 
#    3.273    0.000    0.000    1.091    0.000    0.000 
#    0.000    0.000    0.000    0.000    0.000    0.000 
#
# Total GULP energy -122701.017741 kJ/mol
# GULP energy per Si atom -5577.318988 kJ/mol
# Density = 2.120731 g / cm^3
# Si number density = 21.255688 Si / 1000 Ang^3
#
#
#
# Elastic Constant Matrix: (Units=GPa)
#
#
# Indices 1 2 3 4 5 6 
#
# 1 143.3816 37.1180 61.3461 0.0000 -15.5686 0.0000
# 2 37.1180 102.1190 29.8328 0.0000 -12.6774 0.0000
# 3 61.3461 29.8328 123.8610 0.0000 -24.4750 0.0001
# 4 0.0000 0.0000 0.0000 -18.8198 0.0000 59.8370
# 5 -15.5686 -12.6774 -24.4750 0.0000 43.4715 0.0000
# 6 0.0000 0.0000 0.0001 59.8370 0.0000 -92.4751
#
#
#
# Elastic Compliance Matrix: (Units=1/GPa)
#
#
# Indices 1 2 3 4 5 6 
#
# 1 0.009289 -0.002154 -0.003993 0.000000 0.000451 0.000000
# 2 -0.002154 0.011167 -0.001273 0.000000 0.001768 0.000000
# 3 -0.003993 -0.001273 0.011254 0.000000 0.004535 0.000000
# 4 0.000000 0.000000 0.000000 0.050255 0.000000 0.032518
# 5 0.000451 0.001768 0.004535 0.000000 0.026234 0.000000
# 6 0.000000 0.000000 0.000000 0.032518 0.000000 0.010228
#
#
# Mechanical properties :
#
#
# Convention : Reuss Voigt Hill
#
# Bulk Modulus (GPa) = 59.27871 69.55061 64.41466
# Shear Modulus (GPa) = 35.99947 2.50630 19.25289
#
# Velocity S-wave (km/s) = 4.11985 1.08705 3.01288
# Velocity P-wave (km/s) = 7.11195 5.86238 6.51718
#
# Compressibility (1/GPa) = 0.01686946
#
# Stress axis : x y z
#
# Youngs Moduli (GPa) = 107.65004 89.54991 88.85724
#
# Poissons Ratio (x) = 0.19289 0.35481
# Poissons Ratio (y) = 0.23188 0.11315
# Poissons Ratio (z) = 0.42985 0.11403
#
# Static dielectric constant tensor:
#      x y z
#    x 1.818180 0.000000 0.014770 
#    y 0.000000 1.779170 0.000000 
#    z 0.014770 0.000000 1.791660 
# 
# From -- ./inp_files/80396.got.cif
#   From: 2010.05.17/outbox.cif.g08.bks.cpg/sg12_41_cif.got.tgz:80396.got - 2010.06.03 13:09:07.
