data_PCOD9212577
_publ_section_title
;
Structure prediction by ZEFSAII (Michael W. Deem and Ramdas Pophale) SiO2 
 PCOD9212577
Probable space group: C 2/M
;
_chemical_formula_sum "Si O2"
_cell_formula_units_Z 40
_cell_length_a 11.580279
_cell_length_b 28.464952
_cell_length_c 6.467940
_cell_angle_alpha 90.000000
_cell_angle_beta 113.405410
_cell_angle_gamma 90.000000
_cell_volume 1956.610121
_symmetry_space_group_name_H-M "C 2/M"
_symmetry_group_IT_number 12
_symmetry_cell_setting 'monoclinic'
loop_
_space_group_symop_operation_xyz
x,y,z
-x,y,-z
-x,-y,-z
x,-y,z
1/2+x,1/2+y,z
1/2-x,1/2+y,-z
1/2-x,1/2-y,-z
1/2+x,1/2-y,z
loop_
_atom_site_type_symbol
_atom_site_label
_atom_site_fract_x
_atom_site_fract_y
_atom_site_fract_z
Si Si1 0.000000 0.302042 0.000000
Si Si2 0.000000 0.576040 0.500000
Si Si3 0.763133 0.553140 0.592231
Si Si4 0.375963 0.374244 0.790474
Si Si5 0.839693 0.616868 0.028769
Si Si6 0.896164 0.229309 0.609026
O O1 0.030020 0.268352 0.208628
O O2 0.880898 0.335879 0.945260
O O3 0.121047 0.550623 0.489795
O O4 0.047978 0.604569 0.732975
O O5 0.717012 0.500000 0.592958
O O6 0.665271 0.589001 0.416160
O O7 0.810451 0.576492 0.840642
O O8 0.273467 0.374228 0.898176
O O9 0.385859 0.321899 0.706604
O O10 0.500000 0.388931 0.000000
O O11 0.750000 0.250000 0.500000
O O12 0.000000 0.221939 0.500000
#
# Coordination Sequence:
#
# PCOD9212577 Si02
#       6
#     4   4   8   8   8   8
#     4  12  24  42  71 106 135 180 226 286 346 418
#     4  10  21  42  68 106 144 176 226 290 355 418
#     4  11  24  43  71 101 139 184 231 289 353 414
#     4  11  27  46  67  99 141 184 235 285 340 419
#     4  11  24  42  71 102 144 179 228 288 351 413
#     4  12  28  45  74 104 142 186 236 288 355 420
#
# _framework density 20.443522999999999
#
# number of rings (size 3 to 8) (size 9 to 14) (size 15 to 20)
#    0.000    0.800    3.000    2.700    9.800    6.800 
#    0.000    1.000    0.000    0.000    0.000    0.000 
#    0.000    0.000    0.000    0.000    0.000    0.000 
#
# Total GULP energy -111515.538977 kJ/mol
# GULP energy per Si atom -5575.776949 kJ/mol
# Density = 2.039699 g / cm^3
# Si number density = 20.443523 Si / 1000 Ang^3
#
#
#
# Elastic Constant Matrix: (Units=GPa)
#
#
# Indices 1 2 3 4 5 6 
#
# 1 91.2624 29.2837 27.6531 0.0000 -6.0004 0.0000
# 2 29.2837 165.7371 64.8616 0.0000 -9.8317 0.0000
# 3 27.6531 64.8616 108.9054 0.0000 -5.6186 0.0000
# 4 0.0000 0.0000 0.0000 -42.0111 0.0000 7.8159
# 5 -6.0004 -9.8317 -5.6186 0.0000 39.0335 0.0000
# 6 0.0000 0.0000 0.0000 7.8159 0.0000 1.5808
#
#
#
# Elastic Compliance Matrix: (Units=1/GPa)
#
#
# Indices 1 2 3 4 5 6 
#
# 1 0.012114 -0.001158 -0.002322 0.000000 0.001236 0.000000
# 2 -0.001158 0.008046 -0.004435 0.000000 0.001210 0.000000
# 3 -0.002322 -0.004435 0.012430 0.000000 0.000315 0.000000
# 4 0.000000 0.000000 0.000000 -0.012398 0.000000 0.061302
# 5 0.001236 0.001210 0.000315 0.000000 0.026159 0.000000
# 6 0.000000 0.000000 0.000000 0.061302 0.000000 0.329505
#
#
# Mechanical properties :
#
#
# Convention : Reuss Voigt Hill
#
# Bulk Modulus (GPa) = 59.67395 67.72243 63.69819
# Shear Modulus (GPa) = 12.58578 15.99441 14.29009
#
# Velocity S-wave (km/s) = 2.48389 2.80012 2.64674
# Velocity P-wave (km/s) = 6.12204 6.60702 6.36915
#
# Compressibility (1/GPa) = 0.01675773
#
# Stress axis : x y z
#
# Youngs Moduli (GPa) = 82.54894 124.28712 80.45136
#
# Poissons Ratio (x) = 0.14395 0.18684
# Poissons Ratio (y) = 0.09561 0.35684
# Poissons Ratio (z) = 0.19171 0.55127
#
# Static dielectric constant tensor:
#      x y z
#    x 1.874480 0.000000 -0.057460 
#    y 0.000000 1.698010 0.000000 
#    z -0.057460 0.000000 1.688690 
# 
# From -- ./inp_files/8546.got.cif
#   From: 2010.05.17/outbox.cif.g08.bks.cpg/sg12_5_cif.got.tgz:8546.got - 2010.06.03 13:09:07.
