data_PCOD9212795
_publ_section_title
;
Structure prediction by ZEFSAII (Michael W. Deem and Ramdas Pophale) SiO2 
 PCOD9212795
Probable space group: C 2/M
;
_chemical_formula_sum "Si O2"
_cell_formula_units_Z 44
_cell_length_a 14.075569
_cell_length_b 22.952339
_cell_length_c 16.382176
_cell_angle_alpha 90.000000
_cell_angle_beta 23.864102
_cell_angle_gamma 90.000000
_cell_volume 2141.197703
_symmetry_space_group_name_H-M "C 2/M"
_symmetry_group_IT_number 12
_symmetry_cell_setting 'monoclinic'
loop_
_space_group_symop_operation_xyz
x,y,z
-x,y,-z
-x,-y,-z
x,-y,z
1/2+x,1/2+y,z
1/2-x,1/2+y,-z
1/2-x,1/2-y,-z
1/2+x,1/2-y,z
loop_
_atom_site_type_symbol
_atom_site_label
_atom_site_fract_x
_atom_site_fract_y
_atom_site_fract_z
Si Si1 0.000000 0.847315 0.500000
Si Si2 0.755828 0.146184 0.145892
Si Si3 0.355029 0.364356 0.876731
Si Si4 0.395019 0.933233 0.213341
Si Si5 0.823706 0.432774 0.465518
Si Si6 0.006496 0.765144 0.646987
O O1 0.215973 0.889888 0.310216
O O2 0.060488 0.805781 0.527545
O O3 0.565948 0.094993 0.307117
O O4 0.631252 0.206736 0.268139
O O5 0.806805 0.148080 0.009171
O O6 0.000000 0.137418 0.000000
O O7 0.607284 0.394154 0.665828
O O8 0.352369 0.304466 0.828961
O O9 0.156578 0.408571 0.001053
O O10 0.331996 0.930728 0.359864
O O11 0.373881 0.000000 0.202908
O O12 0.797616 0.500000 0.510351
O O13 0.250000 0.750000 0.500000
#
# Coordination Sequence:
#
# PCOD9212795 Si02
#       6
#     4   8   8   8   8   8
#     4  12  25  42  70 100 135 178 224 270 334 392
#     4  11  26  41  66  98 131 176 225 280 329 389
#     4  11  22  44  67  96 131 179 223 267 341 387
#     4  10  22  42  67 101 137 172 216 271 331 401
#     4  10  21  44  69  95 134 174 219 276 335 393
#     4  12  25  44  66  96 137 180 221 275 328 395
#
# _framework density 20.549247999999999
#
# number of rings (size 3 to 8) (size 9 to 14) (size 15 to 20)
#    0.000    1.091    3.636    2.455    5.091    1.818 
#    0.000    1.818    0.000    0.000    0.000    0.000 
#    0.000    0.000    0.000    0.000    0.000    0.000 
#
# Total GULP energy -123099.052249 kJ/mol
# GULP energy per Si atom -5595.411466 kJ/mol
# Density = 2.050248 g / cm^3
# Si number density = 20.549248 Si / 1000 Ang^3
#
#
#
# Elastic Constant Matrix: (Units=GPa)
#
#
# Indices 1 2 3 4 5 6 
#
# 1 59.8640 26.3342 11.0315 0.0143 -19.4794 -0.0535
# 2 26.3342 108.2161 8.2168 -0.2530 -12.8099 -0.4252
# 3 11.0315 8.2168 69.7827 -0.0768 -19.3276 -0.1306
# 4 0.0143 -0.2530 -0.0768 34.7931 -0.0677 2.0341
# 5 -19.4794 -12.8099 -19.3276 -0.0677 33.9816 -0.0129
# 6 -0.0535 -0.4252 -0.1306 2.0341 -0.0129 7.4329
#
#
#
# Elastic Compliance Matrix: (Units=1/GPa)
#
#
# Indices 1 2 3 4 5 6 
#
# 1 0.022120 -0.004064 0.000082 -0.000014 0.011194 -0.000049
# 2 -0.004064 0.010423 -0.000167 0.000048 0.001505 0.000554
# 3 0.000082 -0.000167 0.017013 0.000038 0.009661 0.000296
# 4 -0.000014 0.000048 0.000038 0.029209 0.000087 -0.007990
# 5 0.011194 0.001505 0.009661 0.000087 0.041907 0.000385
# 6 -0.000049 0.000554 0.000296 -0.007990 0.000385 0.136760
#
#
# Mechanical properties :
#
#
# Convention : Reuss Voigt Hill
#
# Bulk Modulus (GPa) = 24.23772 36.55865 30.39818
# Shear Modulus (GPa) = 17.89019 28.06023 22.97521
#
# Velocity S-wave (km/s) = 2.95380 3.69929 3.34736
# Velocity P-wave (km/s) = 4.84291 6.00631 5.45571
#
# Compressibility (1/GPa) = 0.04125801
#
# Stress axis : x y z
#
# Youngs Moduli (GPa) = 45.20841 95.94300 58.77780
#
# Poissons Ratio (x) = 0.38993 -0.00483
# Poissons Ratio (y) = 0.18373 0.00981
# Poissons Ratio (z) = -0.00372 0.01602
#
# Static dielectric constant tensor:
#      x y z
#    x 1.726310 -0.000010 0.013440 
#    y -0.000010 1.702830 0.000190 
#    z 0.013440 0.000190 1.706440 
# 
# From -- ./inp_files/228222.got.cif
#   From: 2010.05.17/outbox.cif.g08.bks.cpg/sg12_115_cif.got.tgz:228222.got - 2010.06.03 13:09:07.
