data_PCOD9212750
_publ_section_title
;
Structure prediction by ZEFSAII (Michael W. Deem and Ramdas Pophale) SiO2 
 PCOD9212750
Probable space group: C 2/M
;
_chemical_formula_sum "Si O2"
_cell_formula_units_Z 52
_cell_length_a 18.337216
_cell_length_b 12.384348
_cell_length_c 13.124429
_cell_angle_alpha 90.000000
_cell_angle_beta 128.296249
_cell_angle_gamma 90.000000
_cell_volume 2339.135265
_symmetry_space_group_name_H-M "C 2/M"
_symmetry_group_IT_number 12
_symmetry_cell_setting 'monoclinic'
loop_
_space_group_symop_operation_xyz
x,y,z
-x,y,-z
-x,-y,-z
x,-y,z
1/2+x,1/2+y,z
1/2-x,1/2+y,-z
1/2-x,1/2-y,-z
1/2+x,1/2-y,z
loop_
_atom_site_type_symbol
_atom_site_label
_atom_site_fract_x
_atom_site_fract_y
_atom_site_fract_z
Si Si1 0.115968 0.500000 0.350988
Si Si2 0.166336 0.877299 0.328611
Si Si3 0.115693 0.277913 0.840838
Si Si4 0.208698 0.236520 0.716570
Si Si5 0.460214 0.621540 0.067502
Si Si6 0.908272 0.271858 0.569550
Si Si7 0.587412 0.000000 0.925250
Si Si8 0.709986 0.000000 0.224062
O O1 0.118947 0.392751 0.420599
O O2 0.190300 0.500000 0.326699
O O3 0.020603 0.500000 0.201086
O O4 0.216430 0.807929 0.282783
O O5 0.057063 0.888130 0.210202
O O6 0.158849 0.809845 0.426333
O O7 0.202773 0.000000 0.366490
O O8 0.189782 0.271627 0.815298
O O9 0.124541 0.391672 0.904892
O O10 0.110553 0.187282 0.924538
O O11 0.014976 0.264933 0.697562
O O12 0.115723 0.251645 0.568274
O O13 0.236811 0.111595 0.748449
O O14 0.425796 0.500000 0.012362
O O15 0.500000 0.678311 0.000000
O O16 0.620307 0.000000 0.070940
#
# Coordination Sequence:
#
# PCOD9212750 Si02
#       8
#     4   8   8   8   8   8   4   4
#     4  10  21  43  72  98 122 174 225 264 316 377
#     4  10  22  38  62  93 125 172 212 263 323 376
#     4  10  24  43  66  92 127 171 216 262 325 383
#     4  12  26  40  62  97 135 167 209 271 330 386
#     4   9  20  41  65  89 118 164 220 263 309 384
#     4  10  22  42  66  93 129 171 218 265 315 389
#     4  10  25  45  66  92 129 172 218 271 315 394
#     4  12  27  42  63 100 130 171 217 268 334 369
#
# _framework density 22.230437999999999
#
# number of rings (size 3 to 8) (size 9 to 14) (size 15 to 20)
#    0.000    1.692    1.538    1.154    6.462    0.615 
#    0.000    3.077    0.000    0.000    0.000    0.000 
#    0.000    0.000    0.000    0.000    0.000    0.000 
#
# Total GULP energy -145175.443589 kJ/mol
# GULP energy per Si atom -5583.670907 kJ/mol
# Density = 2.217984 g / cm^3
# Si number density = 22.230438 Si / 1000 Ang^3
#
#
#
# Elastic Constant Matrix: (Units=GPa)
#
#
# Indices 1 2 3 4 5 6 
#
# 1 89.4256 48.4762 28.8473 0.0000 -27.8496 0.0000
# 2 48.4762 148.2096 37.5533 0.0000 -17.3267 0.0000
# 3 28.8473 37.5533 90.8749 0.0000 -8.5783 0.0000
# 4 0.0000 0.0000 0.0000 28.4531 0.0000 -28.0605
# 5 -27.8496 -17.3267 -8.5783 0.0000 52.5869 0.0000
# 6 0.0000 0.0000 0.0000 -28.0605 0.0000 -7.7155
#
#
#
# Elastic Compliance Matrix: (Units=1/GPa)
#
#
# Indices 1 2 3 4 5 6 
#
# 1 0.016350 -0.003785 -0.002972 0.000000 0.006927 0.000000
# 2 -0.003785 0.008627 -0.002320 0.000000 0.000459 0.000000
# 3 -0.002972 -0.002320 0.012884 0.000000 -0.000237 0.000000
# 4 0.000000 0.000000 0.000000 0.007662 0.000000 -0.027868
# 5 0.006927 0.000459 -0.000237 0.000000 0.022797 0.000000
# 6 0.000000 0.000000 0.000000 -0.027868 0.000000 -0.028258
#
#
# Mechanical properties :
#
#
# Convention : Reuss Voigt Hill
#
# Bulk Modulus (GPa) = 50.74441 62.02930 56.38686
# Shear Modulus (GPa) = 77.17624 28.90713 53.04169
#
# Velocity S-wave (km/s) = 5.89846 3.60993 4.88996
# Velocity P-wave (km/s) = 8.32257 6.73342 7.56981
#
# Compressibility (1/GPa) = 0.01970660
#
# Stress axis : x y z
#
# Youngs Moduli (GPa) = 61.16092 115.91869 77.61538
#
# Poissons Ratio (x) = 0.43874 0.23069
# Poissons Ratio (y) = 0.23149 0.18007
# Poissons Ratio (z) = 0.18179 0.26894
#
# Static dielectric constant tensor:
#      x y z
#    x 1.820030 0.000000 0.065540 
#    y 0.000000 1.838300 0.000000 
#    z 0.065540 0.000000 1.873530 
# 
# From -- ./inp_files/165801.got.cif
#   From: 2010.05.17/outbox.cif.g08.bks.cpg/sg12_83_cif.got.tgz:165801.got - 2010.06.03 13:09:07.
