data_PCOD9212917
_publ_section_title
;
Structure prediction by ZEFSAII (Michael W. Deem and Ramdas Pophale) SiO2 
 PCOD9212917
Probable space group: C 2/M
;
_chemical_formula_sum "Si O2"
_cell_formula_units_Z 36
_cell_length_a 15.715082
_cell_length_b 21.604251
_cell_length_c 4.823345
_cell_angle_alpha 90.000000
_cell_angle_beta 97.353573
_cell_angle_gamma 90.000000
_cell_volume 1624.117467
_symmetry_space_group_name_H-M "C 2/M"
_symmetry_group_IT_number 12
_symmetry_cell_setting 'monoclinic'
loop_
_space_group_symop_operation_xyz
x,y,z
-x,y,-z
-x,-y,-z
x,-y,z
1/2+x,1/2+y,z
1/2-x,1/2+y,-z
1/2-x,1/2-y,-z
1/2+x,1/2-y,z
loop_
_atom_site_type_symbol
_atom_site_label
_atom_site_fract_x
_atom_site_fract_y
_atom_site_fract_z
Si Si1 0.560428 0.430715 0.288973
Si Si2 0.000000 0.654557 0.500000
Si Si3 0.411175 0.252677 0.051908
Si Si4 0.830701 0.650525 0.638525
Si Si5 0.213209 0.142600 0.067674
O O1 0.500000 0.400330 0.500000
O O2 0.583651 0.500000 0.403122
O O3 0.644833 0.397977 0.207899
O O4 0.500000 0.436562 0.000000
O O5 0.949423 0.700528 0.270504
O O6 0.922039 0.618248 0.609374
O O7 0.500000 0.285946 0.000000
O O8 0.362835 0.214780 0.790238
O O9 0.342117 0.303577 0.105496
O O10 0.777641 0.663189 0.338041
O O11 0.772126 0.616774 0.843817
#
# Coordination Sequence:
#
# PCOD9212917 Si02
#       5
#     8   4   8   8   8
#     4  10  22  43  64  87 121 152 186 238 296 349
#     4  10  22  40  52  78 122 166 196 230 296 330
#     4  10  22  35  54  79 123 159 190 236 282 345
#     4  11  23  37  54  82 118 156 195 242 279 343
#     4  12  23  35  59  88 111 152 201 238 282 342
#
# _framework density 22.165887000000001
#
# number of rings (size 3 to 8) (size 9 to 14) (size 15 to 20)
#    0.000    1.333    2.222    3.333    6.222    0.000 
#    4.000    0.000    0.000    0.000    0.000    4.667 
#    0.000    0.000    0.000    0.000    0.000    0.000 
#
# Total GULP energy -100367.480682 kJ/mol
# GULP energy per Si atom -5575.971149 kJ/mol
# Density = 2.211544 g / cm^3
# Si number density = 22.165887 Si / 1000 Ang^3
#
#
#
# Elastic Constant Matrix: (Units=GPa)
#
#
# Indices 1 2 3 4 5 6 
#
# 1 221.9520 32.8123 51.2072 0.0000 -23.4988 0.0000
# 2 32.8123 18.5917 -0.5407 0.0000 0.5547 0.0000
# 3 51.2072 -0.5407 116.0377 0.0000 1.7481 0.0000
# 4 0.0000 0.0000 0.0000 29.6030 0.0000 47.3009
# 5 -23.4988 0.5547 1.7481 0.0000 57.4538 0.0000
# 6 0.0000 0.0000 0.0000 47.3009 0.0000 190.4709
#
#
#
# Elastic Compliance Matrix: (Units=1/GPa)
#
#
# Indices 1 2 3 4 5 6 
#
# 1 0.007724 -0.013836 -0.003524 0.000000 0.003400 0.000000
# 2 -0.013836 0.078595 0.006572 0.000000 -0.006618 0.000000
# 3 -0.003524 0.006572 0.010231 0.000000 -0.001816 0.000000
# 4 0.000000 0.000000 0.000000 0.056002 0.000000 -0.013907
# 5 0.003400 -0.006618 -0.001816 0.000000 0.018915 0.000000
# 6 0.000000 0.000000 0.000000 -0.013907 0.000000 0.008704
#
#
# Mechanical properties :
#
#
# Convention : Reuss Voigt Hill
#
# Bulk Modulus (GPa) = 13.33818 58.17102 35.75460
# Shear Modulus (GPa) = 22.05182 73.71238 47.88210
#
# Velocity S-wave (km/s) = 3.15755 5.77296 4.65281
# Velocity P-wave (km/s) = 4.39591 8.41050 6.71046
#
# Compressibility (1/GPa) = 0.07497274
#
# Stress axis : x y z
#
# Youngs Moduli (GPa) = 129.46733 12.72352 97.74101
#
# Poissons Ratio (x) = 0.17604 0.34446
# Poissons Ratio (y) = 1.79129 -0.64232
# Poissons Ratio (z) = 0.45628 -0.08361
#
# Static dielectric constant tensor:
#      x y z
#    x 1.955880 0.000000 -0.121290 
#    y 0.000000 1.815360 0.000000 
#    z -0.121290 0.000000 1.877560 
# 
# From -- ./inp_files/11164.got.cif
#   From: 2010.05.17/outbox.cif.g08.bks.cpg/sg12_6_cif.got.tgz:11164.got - 2010.06.03 13:09:07.
