data_PCOD9212650
_publ_section_title
;
Structure prediction by ZEFSAII (Michael W. Deem and Ramdas Pophale) SiO2 
 PCOD9212650
Probable space group: C 2/M
;
_chemical_formula_sum "Si O2"
_cell_formula_units_Z 56
_cell_length_a 14.403873
_cell_length_b 29.888109
_cell_length_c 11.119992
_cell_angle_alpha 90.000000
_cell_angle_beta 31.244842
_cell_angle_gamma 90.000000
_cell_volume 2483.106468
_symmetry_space_group_name_H-M "C 2/M"
_symmetry_group_IT_number 12
_symmetry_cell_setting 'monoclinic'
loop_
_space_group_symop_operation_xyz
x,y,z
-x,y,-z
-x,-y,-z
x,-y,z
1/2+x,1/2+y,z
1/2-x,1/2+y,-z
1/2-x,1/2-y,-z
1/2+x,1/2-y,z
loop_
_atom_site_type_symbol
_atom_site_label
_atom_site_fract_x
_atom_site_fract_y
_atom_site_fract_z
Si Si1 0.710555 0.588750 0.260474
Si Si2 0.302050 0.858289 0.700661
Si Si3 0.819558 0.799213 0.388608
Si Si4 0.564271 0.052938 0.763280
Si Si5 0.782638 0.315938 0.238152
Si Si6 0.784734 0.228709 0.089505
Si Si7 0.192496 0.549408 0.350112
O O1 0.500000 0.574712 0.500000
O O2 0.813154 0.577685 0.272799
O O3 0.717395 0.642275 0.232311
O O4 0.855017 0.567632 0.007054
O O5 0.500000 0.874478 0.500000
O O6 0.265965 0.830626 0.618317
O O7 0.300772 0.819425 0.801563
O O8 0.203936 0.906350 0.814133
O O9 0.750000 0.750000 0.500000
O O10 0.802182 0.822777 0.536596
O O11 0.011140 0.785937 0.126010
O O12 0.645562 0.060049 0.541514
O O13 0.571592 0.000000 0.781009
O O14 0.732135 0.267193 0.242161
O O15 0.000000 0.317129 0.000000
O O16 0.750000 0.250000 0.000000
O O17 0.280458 0.500000 0.244449
O O18 0.000000 0.543124 0.500000
#
# Coordination Sequence:
#
# PCOD9212650 Si02
#       7
#     8   8   8   8   8   8   8
#     4  11  24  39  63  99 137 176 220 277 341 409
#     4  11  23  40  67  97 125 171 216 271 331 393
#     4  12  23  42  63  88 128 172 216 271 326 392
#     4  10  21  42  71 101 133 172 222 282 345 404
#     4  12  24  42  63  88 132 177 219 268 333 397
#     4  12  27  41  63  94 131 172 221 273 329 399
#     4   9  20  41  71  98 127 172 225 273 331 404
#
# _framework density 22.552395000000001
#
# number of rings (size 3 to 8) (size 9 to 14) (size 15 to 20)
#    0.000    1.000    4.286    3.000    2.000    2.286 
#    0.000    0.000    0.000    1.714    0.000    0.000 
#    0.000    0.000    0.000    0.000    0.000    0.000 
#
# Total GULP energy -156034.991598 kJ/mol
# GULP energy per Si atom -5572.678271 kJ/mol
# Density = 2.250106 g / cm^3
# Si number density = 22.552395 Si / 1000 Ang^3
#
#
#
# Elastic Constant Matrix: (Units=GPa)
#
#
# Indices 1 2 3 4 5 6 
#
# 1 76.2645 19.9343 11.1110 0.0000 2.6846 0.0000
# 2 19.9343 197.0006 14.8013 0.0000 -0.1123 0.0000
# 3 11.1110 14.8013 42.2648 0.0000 -22.5414 0.0000
# 4 0.0000 0.0000 0.0000 20.4092 0.0000 2.4024
# 5 2.6846 -0.1123 -22.5414 0.0000 40.0463 0.0000
# 6 0.0000 0.0000 0.0000 2.4024 0.0000 14.5384
#
#
#
# Elastic Compliance Matrix: (Units=1/GPa)
#
#
# Indices 1 2 3 4 5 6 
#
# 1 0.014344 -0.001033 -0.005607 0.000000 -0.004121 0.000000
# 2 -0.001033 0.005347 -0.002224 0.000000 -0.001168 0.000000
# 3 -0.005607 -0.002224 0.037311 0.000000 0.021372 0.000000
# 4 0.000000 0.000000 0.000000 0.049970 0.000000 -0.008257
# 5 -0.004121 -0.001168 0.021372 0.000000 0.037274 0.000000
# 6 0.000000 0.000000 0.000000 -0.008257 0.000000 0.070148
#
#
# Mechanical properties :
#
#
# Convention : Reuss Voigt Hill
#
# Bulk Modulus (GPa) = 25.46090 45.24703 35.35396
# Shear Modulus (GPa) = 20.39050 32.97766 26.68408
#
# Velocity S-wave (km/s) = 3.01015 3.82811 3.44350
# Velocity P-wave (km/s) = 4.83689 6.29650 5.61433
#
# Compressibility (1/GPa) = 0.03927591
#
# Stress axis : x y z
#
# Youngs Moduli (GPa) = 69.71519 187.01994 26.80147
#
# Poissons Ratio (x) = 0.19311 0.15027
# Poissons Ratio (y) = 0.07198 0.05960
# Poissons Ratio (z) = 0.39089 0.41589
#
# Static dielectric constant tensor:
#      x y z
#    x 1.887820 0.000000 0.007500 
#    y 0.000000 1.969240 0.000000 
#    z 0.007500 0.000000 1.867210 
# 
# From -- ./inp_files/150424.got.cif
#   From: 2010.05.17/outbox.cif.g08.bks.cpg/sg12_76_cif.got.tgz:150424.got - 2010.06.03 13:09:07.
