data_PCOD9212617
_publ_section_title
;
Structure prediction by ZEFSAII (Michael W. Deem and Ramdas Pophale) SiO2 
 PCOD9212617
Probable space group: C 2/M
;
_chemical_formula_sum "Si O2"
_cell_formula_units_Z 42
_cell_length_a 18.351234
_cell_length_b 7.665052
_cell_length_c 14.427731
_cell_angle_alpha 90.000000
_cell_angle_beta 118.367638
_cell_angle_gamma 90.000000
_cell_volume 1785.747953
_symmetry_space_group_name_H-M "C 2/M"
_symmetry_group_IT_number 12
_symmetry_cell_setting 'monoclinic'
loop_
_space_group_symop_operation_xyz
x,y,z
-x,y,-z
-x,-y,-z
x,-y,z
1/2+x,1/2+y,z
1/2-x,1/2+y,-z
1/2-x,1/2-y,-z
1/2+x,1/2-y,z
loop_
_atom_site_type_symbol
_atom_site_label
_atom_site_fract_x
_atom_site_fract_y
_atom_site_fract_z
Si Si1 0.504053 0.191655 0.634987
Si Si2 0.177205 0.789935 0.527189
Si Si3 0.743967 0.708528 0.765550
Si Si4 0.623038 0.289382 0.854545
Si Si5 0.406585 0.709719 0.959118
Si Si6 0.500000 0.500000 0.500000
O O1 0.594129 0.204686 0.437757
O O2 0.536081 0.231244 0.757057
O O3 0.537028 0.346540 0.590726
O O4 0.532719 0.000000 0.624422
O O5 0.250000 0.750000 0.500000
O O6 0.208276 0.727448 0.646267
O O7 0.157093 0.000000 0.519289
O O8 0.735840 0.500000 0.758446
O O9 0.691961 0.774508 0.823033
O O10 0.840210 0.748011 0.840237
O O11 0.626560 0.500000 0.858063
O O12 0.628560 0.225715 0.963027
O O13 0.411375 0.500000 0.967592
O O14 0.500000 0.774696 0.000000
#
# Coordination Sequence:
#
# PCOD9212617 Si02
#       6
#     8   8   8   8   8   2
#     4  12  25  41  70 104 137 186 232 275 352 414
#     4  11  24  43  66  97 143 183 230 292 349 415
#     4  10  23  41  66  94 129 177 224 282 345 400
#     4  10  21  42  69  95 137 181 222 285 346 400
#     4  10  23  41  65  97 132 174 224 279 346 411
#     4  12  22  44  64  98 146 172 224 294 324 404
#
# _framework density 23.519556999999999
#
# number of rings (size 3 to 8) (size 9 to 14) (size 15 to 20)
#    0.000    1.333    1.905    2.571    5.333    3.429 
#    0.000    0.000    0.000    0.000    0.000    0.000 
#    0.000    0.000    0.000    0.000    0.000    0.000 
#
# Total GULP energy -117294.301803 kJ/mol
# GULP energy per Si atom -5585.442943 kJ/mol
# Density = 2.346602 g / cm^3
# Si number density = 23.519557 Si / 1000 Ang^3
#
#
#
# Elastic Constant Matrix: (Units=GPa)
#
#
# Indices 1 2 3 4 5 6 
#
# 1 125.0510 -2.0121 45.8384 0.0000 19.9741 0.0000
# 2 -2.0121 109.7817 -7.8277 0.0000 -5.4415 0.0000
# 3 45.8384 -7.8277 120.4324 0.0000 25.3858 0.0000
# 4 0.0000 0.0000 0.0000 13.1351 0.0000 2.3473
# 5 19.9741 -5.4415 25.3858 0.0000 41.6588 0.0000
# 6 0.0000 0.0000 0.0000 2.3473 0.0000 11.6491
#
#
#
# Elastic Compliance Matrix: (Units=1/GPa)
#
#
# Indices 1 2 3 4 5 6 
#
# 1 0.009557 -0.000179 -0.003073 0.000000 -0.002733 0.000000
# 2 -0.000179 0.009188 0.000452 0.000000 0.001010 0.000000
# 3 -0.003073 0.000452 0.010532 0.000000 -0.004886 0.000000
# 4 0.000000 0.000000 0.000000 0.078976 0.000000 -0.015914
# 5 -0.002733 0.001010 -0.004886 0.000000 0.028424 0.000000
# 6 0.000000 0.000000 0.000000 -0.015914 0.000000 0.089050
#
#
# Mechanical properties :
#
#
# Convention : Reuss Voigt Hill
#
# Bulk Modulus (GPa) = 42.23469 47.47357 44.85413
# Shear Modulus (GPa) = 20.90130 34.57304 27.73717
#
# Velocity S-wave (km/s) = 2.98430 3.83818 3.43785
# Velocity P-wave (km/s) = 5.46544 6.31432 5.90515
#
# Compressibility (1/GPa) = 0.02367722
#
# Stress axis : x y z
#
# Youngs Moduli (GPa) = 104.63718 108.83710 94.94603
#
# Poissons Ratio (x) = 0.01953 0.29177
# Poissons Ratio (y) = 0.01877 -0.04296
# Poissons Ratio (z) = 0.32156 -0.04925
#
# Static dielectric constant tensor:
#      x y z
#    x 1.891430 0.000000 -0.014780 
#    y 0.000000 1.882500 0.000000 
#    z -0.014780 0.000000 1.900880 
# 
# From -- ./inp_files/221172.got.cif
#   From: 2010.05.17/outbox.cif.g08.bks.cpg/sg12_111_cif.got.tgz:221172.got - 2010.06.03 13:09:07.
