data_PCOD9212393
_publ_section_title
;
Structure prediction by ZEFSAII (Michael W. Deem and Ramdas Pophale) SiO2 
 PCOD9212393
Probable space group: C 2/M
;
_chemical_formula_sum "Si O2"
_cell_formula_units_Z 46
_cell_length_a 13.048555
_cell_length_b 28.600785
_cell_length_c 7.296510
_cell_angle_alpha 90.000000
_cell_angle_beta 44.604879
_cell_angle_gamma 90.000000
_cell_volume 1912.162704
_symmetry_space_group_name_H-M "C 2/M"
_symmetry_group_IT_number 12
_symmetry_cell_setting 'monoclinic'
loop_
_space_group_symop_operation_xyz
x,y,z
-x,y,-z
-x,-y,-z
x,-y,z
1/2+x,1/2+y,z
1/2-x,1/2+y,-z
1/2-x,1/2-y,-z
1/2+x,1/2-y,z
loop_
_atom_site_type_symbol
_atom_site_label
_atom_site_fract_x
_atom_site_fract_y
_atom_site_fract_z
Si Si1 0.213609 0.424434 0.184908
Si Si2 0.827641 0.449483 0.176966
Si Si3 0.000000 0.500000 0.500000
Si Si4 0.000000 0.112959 0.000000
Si Si5 0.155146 0.678257 0.334785
Si Si6 0.279545 0.648077 0.549666
Si Si7 0.326020 0.238117 0.206885
O O1 0.163793 0.370766 0.218681
O O2 0.109967 0.457861 0.435861
O O3 0.201131 0.449158 0.004788
O O4 0.371355 0.417723 0.075851
O O5 0.776312 0.500000 0.311482
O O6 0.747350 0.403983 0.350618
O O7 0.000000 0.445459 0.000000
O O8 0.932039 0.145709 0.245949
O O9 0.166566 0.659942 0.529844
O O10 0.276911 0.717536 0.149625
O O11 0.000000 0.701420 0.500000
O O12 0.247853 0.687858 0.739509
O O13 0.250000 0.250000 0.500000
O O14 0.500000 0.234560 0.000000
#
# Coordination Sequence:
#
# PCOD9212393 Si02
#       7
#     8   8   2   4   8   8   8
#     4  11  24  44  73 103 142 186 248 288 372 428
#     4  11  24  42  69 104 141 185 235 302 362 430
#     4  12  24  46  74 102 142 196 242 306 348 466
#     4  10  26  47  76 102 142 196 236 309 358 450
#     4  10  21  41  69 104 138 185 246 300 352 443
#     4  10  23  46  70  96 147 184 240 295 373 428
#     4  10  23  42  72 101 143 189 240 302 370 433
#
# _framework density 24.056529999999999
#
# number of rings (size 3 to 8) (size 9 to 14) (size 15 to 20)
#    0.000    1.565    1.739    1.565   13.391    2.435 
#    4.696    5.217    0.000    0.000    0.000    0.000 
#    0.000    0.000    0.000    0.000    0.000    0.000 
#
# Total GULP energy -128210.363514 kJ/mol
# GULP energy per Si atom -5574.363631 kJ/mol
# Density = 2.400178 g / cm^3
# Si number density = 24.056530 Si / 1000 Ang^3
#
#
#
# Elastic Constant Matrix: (Units=GPa)
#
#
# Indices 1 2 3 4 5 6 
#
# 1 89.7362 22.9095 28.4390 0.0000 -24.4704 0.0000
# 2 22.9095 237.4274 68.0807 0.0000 -16.7675 0.0000
# 3 28.4390 68.0807 96.9037 0.0000 -28.4521 0.0000
# 4 0.0000 0.0000 0.0000 -29.9220 0.0000 23.9926
# 5 -24.4704 -16.7675 -28.4521 0.0000 50.5123 0.0000
# 6 0.0000 0.0000 0.0000 23.9926 0.0000 18.2347
#
#
#
# Elastic Compliance Matrix: (Units=1/GPa)
#
#
# Indices 1 2 3 4 5 6 
#
# 1 0.013309 -0.000293 -0.002200 0.000000 0.005112 0.000000
# 2 -0.000293 0.005288 -0.003781 0.000000 -0.000516 0.000000
# 3 -0.002200 -0.003781 0.015504 0.000000 0.006412 0.000000
# 4 0.000000 0.000000 0.000000 -0.016263 0.000000 0.021398
# 5 0.005112 -0.000516 0.006412 0.000000 0.025714 0.000000
# 6 0.000000 0.000000 0.000000 0.021398 0.000000 0.026686
#
#
# Mechanical properties :
#
#
# Convention : Reuss Voigt Hill
#
# Bulk Modulus (GPa) = 46.39188 73.65844 60.02516
# Shear Modulus (GPa) = 55.57466 28.07419 41.82442
#
# Velocity S-wave (km/s) = 4.81164 3.41986 4.17416
# Velocity P-wave (km/s) = 7.08488 6.80289 6.94531
#
# Compressibility (1/GPa) = 0.02155550
#
# Stress axis : x y z
#
# Youngs Moduli (GPa) = 75.13451 189.12012 64.50001
#
# Poissons Ratio (x) = 0.05532 0.14188
# Poissons Ratio (y) = 0.02198 0.24384
# Poissons Ratio (z) = 0.16527 0.71498
#
# Static dielectric constant tensor:
#      x y z
#    x 1.942210 0.000000 0.092800 
#    y 0.000000 2.051150 0.000000 
#    z 0.092800 0.000000 2.105280 
# 
# From -- ./inp_files/67373.got.cif
#   From: 2010.05.17/outbox.cif.g08.bks.cpg/sg12_34_cif.got.tgz:67373.got - 2010.06.03 13:09:07.
