data_PCOD9212860
_publ_section_title
;
Structure prediction by ZEFSAII (Michael W. Deem and Ramdas Pophale) SiO2 
 PCOD9212860
Probable space group: C 2/M
;
_chemical_formula_sum "Si O2"
_cell_formula_units_Z 44
_cell_length_a 11.273308
_cell_length_b 14.973256
_cell_length_c 26.934579
_cell_angle_alpha 90.000000
_cell_angle_beta 31.219509
_cell_angle_gamma 90.000000
_cell_volume 2356.537180
_symmetry_space_group_name_H-M "C 2/M"
_symmetry_group_IT_number 12
_symmetry_cell_setting 'monoclinic'
loop_
_space_group_symop_operation_xyz
x,y,z
-x,y,-z
-x,-y,-z
x,-y,z
1/2+x,1/2+y,z
1/2-x,1/2+y,-z
1/2-x,1/2-y,-z
1/2+x,1/2-y,z
loop_
_atom_site_type_symbol
_atom_site_label
_atom_site_fract_x
_atom_site_fract_y
_atom_site_fract_z
Si Si1 0.249545 0.000000 0.615742
Si Si2 0.375964 0.148375 0.268986
Si Si3 0.398196 0.695520 0.486611
Si Si4 0.598155 0.648163 0.749251
Si Si5 0.259216 0.000000 0.234912
Si Si6 0.769596 0.500000 0.113359
Si Si7 0.022717 0.597695 0.319644
O O1 0.500000 0.000000 0.500000
O O2 0.212435 0.910538 0.663398
O O3 0.021768 0.000000 0.662142
O O4 0.467513 0.250047 0.237869
O O5 0.510991 0.100981 0.265019
O O6 0.113288 0.156191 0.381074
O O7 0.362801 0.087474 0.224910
O O8 0.500000 0.743563 0.500000
O O9 0.250000 0.750000 0.500000
O O10 0.225259 0.622930 0.570732
O O11 0.386789 0.586895 0.841275
O O12 0.788956 0.660021 0.723458
O O13 0.311499 0.000000 0.157692
O O14 0.000000 0.500000 0.000000
O O15 0.088141 0.500000 0.313854
#
# Coordination Sequence:
#
# PCOD9212860 Si02
#       7
#     4   8   8   8   4   4   8
#     4  10  24  37  55  83 127 168 218 258 295 357
#     4  11  23  36  59  89 128 162 208 255 300 360
#     4  10  22  33  52  81 126 179 219 250 292 348
#     4  10  22  39  63  90 115 167 203 249 314 367
#     4  10  24  38  61  90 120 161 201 254 312 365
#     4  10  24  49  71  92 119 151 197 258 326 393
#     4  11  21  37  55  83 128 171 215 245 298 351
#
# _framework density 18.671464
#
# number of rings (size 3 to 8) (size 9 to 14) (size 15 to 20)
#    0.000    1.818    4.545    0.000    8.909    3.273 
#    0.000    0.909    0.000    1.091    0.000    0.000 
#    0.000    0.000    0.000    0.000    0.000    0.000 
#
# Total GULP energy -122580.613614 kJ/mol
# GULP energy per Si atom -5571.846073 kJ/mol
# Density = 1.862897 g / cm^3
# Si number density = 18.671464 Si / 1000 Ang^3
#
#
#
# Elastic Constant Matrix: (Units=GPa)
#
#
# Indices 1 2 3 4 5 6 
#
# 1 79.1657 19.0266 1.1281 -0.0007 1.2814 0.0010
# 2 19.0266 102.8251 22.1965 -0.0001 1.9874 -0.0001
# 3 1.1281 22.1965 101.5744 0.0038 1.2248 -0.0027
# 4 -0.0007 -0.0001 0.0038 12.6147 -0.0008 -4.8138
# 5 1.2814 1.9874 1.2248 -0.0008 12.3161 0.0004
# 6 0.0010 -0.0001 -0.0027 -4.8138 0.0004 26.2940
#
#
#
# Elastic Compliance Matrix: (Units=1/GPa)
#
#
# Indices 1 2 3 4 5 6 
#
# 1 0.013248 -0.002522 0.000416 0.000000 -0.001013 0.000000
# 2 -0.002522 0.010712 -0.002298 0.000001 -0.001238 0.000000
# 3 0.000416 -0.002298 0.010351 -0.000003 -0.000702 0.000001
# 4 0.000000 0.000001 -0.000003 0.085227 0.000005 0.015603
# 5 -0.001013 -0.001238 -0.000702 0.000005 0.081569 0.000000
# 6 0.000000 0.000000 0.000001 0.015603 0.000000 0.040888
#
#
# Mechanical properties :
#
#
# Convention : Reuss Voigt Hill
#
# Bulk Modulus (GPa) = 39.20922 40.91863 40.06393
# Shear Modulus (GPa) = 19.28245 26.32590 22.80417
#
# Velocity S-wave (km/s) = 3.21709 3.75901 3.49856
# Velocity P-wave (km/s) = 5.90294 6.38771 6.15010
#
# Compressibility (1/GPa) = 0.02550420
#
# Stress axis : x y z
#
# Youngs Moduli (GPa) = 75.48155 93.35480 96.60915
#
# Poissons Ratio (x) = 0.23541 -0.04020
# Poissons Ratio (y) = 0.19034 0.22200
# Poissons Ratio (z) = -0.03141 0.21452
#
# Static dielectric constant tensor:
#      x y z
#    x 1.673690 -0.000010 0.009200 
#    y -0.000010 1.779730 0.000010 
#    z 0.009200 0.000010 1.607850 
# 
# From -- ./inp_files/203926.got.cif
#   From: 2010.05.17/outbox.cif.g08.bks.cpg/sg12_102_cif.got.tgz:203926.got - 2010.06.03 13:09:07.
