data_PCOD9212815
_publ_section_title
;
Structure prediction by ZEFSAII (Michael W. Deem and Ramdas Pophale) SiO2 
 PCOD9212815
Probable space group: C 2/M
;
_chemical_formula_sum "Si O2"
_cell_formula_units_Z 44
_cell_length_a 21.120431
_cell_length_b 9.845954
_cell_length_c 11.417478
_cell_angle_alpha 90.000000
_cell_angle_beta 119.805387
_cell_angle_gamma 90.000000
_cell_volume 2060.201652
_symmetry_space_group_name_H-M "C 2/M"
_symmetry_group_IT_number 12
_symmetry_cell_setting 'monoclinic'
loop_
_space_group_symop_operation_xyz
x,y,z
-x,y,-z
-x,-y,-z
x,-y,z
1/2+x,1/2+y,z
1/2-x,1/2+y,-z
1/2-x,1/2-y,-z
1/2+x,1/2-y,z
loop_
_atom_site_type_symbol
_atom_site_label
_atom_site_fract_x
_atom_site_fract_y
_atom_site_fract_z
Si Si1 0.787374 0.000000 0.339751
Si Si2 0.658358 0.797371 0.622944
Si Si3 0.381252 0.000000 0.844607
Si Si4 0.313791 0.846460 0.101468
Si Si5 0.691305 0.000000 0.459095
Si Si6 0.953984 0.155490 0.203129
Si Si7 0.500000 0.227102 0.000000
Si Si8 0.000000 0.244348 0.500000
O O1 0.831410 0.135862 0.356431
O O2 0.705912 0.000000 0.207245
O O3 0.765856 0.000000 0.456042
O O4 0.698557 0.856021 0.771213
O O5 0.573390 0.829593 0.556588
O O6 0.686875 0.865957 0.532759
O O7 0.374085 0.000000 0.695997
O O8 0.428235 0.129975 0.927348
O O9 0.388623 0.764489 0.149872
O O10 0.317211 0.000000 0.058733
O O11 0.250000 0.750000 0.000000
O O12 0.996007 0.190748 0.119780
O O13 0.994240 0.168505 0.367603
O O14 0.927386 0.000000 0.170229
#
# Coordination Sequence:
#
# PCOD9212815 Si02
#       8
#     4   8   4   8   4   8   4   4
#     4  10  25  39  70  96 138 182 216 288 349 415
#     4  11  23  43  67  98 137 175 234 290 346 415
#     4   9  24  40  67  97 134 181 222 281 345 422
#     4  11  26  43  68  98 133 182 229 288 346 416
#     4  10  21  45  63 102 128 175 239 280 350 410
#     4  11  25  44  70 102 140 180 235 288 350 418
#     4  11  23  44  68 102 138 180 232 290 352 414
#     4  10  25  43  70 100 137 187 230 286 355 409
#
# _framework density 21.357133000000001
#
# number of rings (size 3 to 8) (size 9 to 14) (size 15 to 20)
#    0.545    0.909    0.909    2.727   12.727    0.364 
#    1.636    0.000    0.000    0.000    0.000    0.000 
#    0.000    0.000    0.000    0.000    0.000    0.000 
#
# Total GULP energy -122668.094679 kJ/mol
# GULP energy per Si atom -5575.822485 kJ/mol
# Density = 2.130852 g / cm^3
# Si number density = 21.357133 Si / 1000 Ang^3
#
#
#
# Elastic Constant Matrix: (Units=GPa)
#
#
# Indices 1 2 3 4 5 6 
#
# 1 50.8596 17.4823 35.6419 0.0000 -3.2192 0.0000
# 2 17.4823 160.8284 50.3034 0.0000 0.7030 0.0000
# 3 35.6419 50.3034 146.5162 0.0000 -16.9238 0.0000
# 4 0.0000 0.0000 0.0000-1482.4271 0.0000 -925.4859
# 5 -3.2192 0.7030 -16.9238 0.0000 47.9191 0.0000
# 6 0.0000 0.0000 0.0000 -925.4859 0.0000 -565.0912
#
#
#
# Elastic Compliance Matrix: (Units=1/GPa)
#
#
# Indices 1 2 3 4 5 6 
#
# 1 0.023816 -0.000855 -0.005540 0.000000 -0.000344 0.000000
# 2 -0.000855 0.007042 -0.002323 0.000000 -0.000981 0.000000
# 3 -0.005540 -0.002323 0.009311 0.000000 0.002950 0.000000
# 4 0.000000 0.000000 0.000000 0.030030 0.000000 -0.049182
# 5 -0.000344 -0.000981 0.002950 0.000000 0.021902 0.000000
# 6 0.000000 0.000000 0.000000 -0.049182 0.000000 0.078779
#
#
# Mechanical properties :
#
#
# Convention : Reuss Voigt Hill
#
# Bulk Modulus (GPa) = 43.98711 62.78439 53.38575
# Shear Modulus (GPa) = 25.52419 -382.93475 -178.70528
#
# Velocity S-wave (km/s) = 3.46079 -13.40485 -9.15731
# Velocity P-wave (km/s) = 6.05063 14.49570 9.31438
#
# Compressibility (1/GPa) = 0.02273393
#
# Stress axis : x y z
#
# Youngs Moduli (GPa) = 41.98808 142.01362 107.39760
#
# Poissons Ratio (x) = 0.12137 0.59498
# Poissons Ratio (y) = 0.03588 0.24949
# Poissons Ratio (z) = 0.23261 0.32990
#
# Static dielectric constant tensor:
#      x y z
#    x 1.766270 0.000000 -0.043410 
#    y 0.000000 2.057090 0.000000 
#    z -0.043410 0.000000 1.815220 
# 
# From -- ./inp_files/173233.got.cif
#   From: 2010.05.17/outbox.cif.g08.bks.cpg/sg12_87_cif.got.tgz:173233.got - 2010.06.03 13:09:07.
