data_PCOD9212118
_publ_section_title
;
Structure prediction by ZEFSAII (Michael W. Deem and Ramdas Pophale) SiO2 
 PCOD9212118
Probable space group: C 2/M
;
_chemical_formula_sum "Si O2"
_cell_formula_units_Z 56
_cell_length_a 17.470399
_cell_length_b 22.268534
_cell_length_c 16.171635
_cell_angle_alpha 90.000000
_cell_angle_beta 159.057993
_cell_angle_gamma 90.000000
_cell_volume 2248.695572
_symmetry_space_group_name_H-M "C 2/M"
_symmetry_group_IT_number 12
_symmetry_cell_setting 'monoclinic'
loop_
_space_group_symop_operation_xyz
x,y,z
-x,y,-z
-x,-y,-z
x,-y,z
1/2+x,1/2+y,z
1/2-x,1/2+y,-z
1/2-x,1/2-y,-z
1/2+x,1/2-y,z
loop_
_atom_site_type_symbol
_atom_site_label
_atom_site_fract_x
_atom_site_fract_y
_atom_site_fract_z
Si Si1 0.159278 0.190856 0.775067
Si Si2 0.755510 0.314293 0.220232
Si Si3 0.277453 0.432024 0.517806
Si Si4 0.021732 0.319190 0.780160
Si Si5 0.422579 0.567110 0.018298
Si Si6 0.613227 0.564929 0.703010
Si Si7 0.260748 0.757146 0.381511
O O1 0.261820 0.248371 0.836268
O O2 0.244054 0.126602 0.830672
O O3 0.908785 0.200898 0.501595
O O4 0.230716 0.186419 0.943723
O O5 0.718128 0.372733 0.126818
O O6 0.652189 0.303162 0.208063
O O7 0.000000 0.320140 0.500000
O O8 0.194087 0.500000 0.431406
O O9 0.087748 0.383971 0.320526
O O10 0.445995 0.426602 0.611158
O O11 0.403521 0.425222 0.732878
O O12 0.901957 0.273509 0.721114
O O13 0.941817 0.294679 0.612693
O O14 0.325368 0.500000 0.934926
O O15 0.500000 0.565465 0.000000
O O16 0.500000 0.561650 0.500000
O O17 0.721469 0.500000 0.825850
#
# Coordination Sequence:
#
# PCOD9212118 Si02
#       7
#     8   8   8   8   8   8   8
#     4  11  23  38  61  93 124 161 210 263 317 383
#     4  10  23  39  60  89 128 163 203 267 311 374
#     4  10  22  41  64  92 127 167 218 267 317 386
#     4  11  23  36  63  89 119 169 202 261 314 373
#     4  10  22  40  64  91 126 171 211 259 320 380
#     4  10  21  41  64  85 125 171 206 265 330 377
#     4  10  22  40  55  90 129 157 206 255 317 376
#
# _framework density 24.903327000000001
#
# number of rings (size 3 to 8) (size 9 to 14) (size 15 to 20)
#    0.000    1.714    1.429    2.571    6.000    3.143 
#    0.000    0.000    0.000    8.571    0.000    0.000 
#    0.000    0.000    0.000    0.000    0.000    0.000 
#
# Total GULP energy -156143.452679 kJ/mol
# GULP energy per Si atom -5576.551881 kJ/mol
# Density = 2.484665 g / cm^3
# Si number density = 24.903327 Si / 1000 Ang^3
#
#
#
# Elastic Constant Matrix: (Units=GPa)
#
#
# Indices 1 2 3 4 5 6 
#
# 1 78.6905 15.3129 12.0022 0.0000 -22.8863 -0.0001
# 2 15.3129 226.8403 54.2572 -0.0002 -12.8789 0.0000
# 3 12.0022 54.2572 94.2430 -0.0018 -42.8381 -0.0005
# 4 0.0000 -0.0002 -0.0018 34.3413 -0.0007 -2.3363
# 5 -22.8863 -12.8789 -42.8381 -0.0007 41.5187 -0.0003
# 6 -0.0001 0.0000 -0.0005 -2.3363 -0.0003 34.6502
#
#
#
# Elastic Compliance Matrix: (Units=1/GPa)
#
#
# Indices 1 2 3 4 5 6 
#
# 1 0.016202 -0.001517 0.005001 0.000001 0.013620 0.000000
# 2 -0.001517 0.005424 -0.004793 0.000000 -0.004098 0.000000
# 3 0.005001 -0.004793 0.025066 0.000002 0.027133 0.000001
# 4 0.000001 0.000000 0.000002 0.029254 0.000003 0.001972
# 5 0.013620 -0.004098 0.027133 0.000003 0.058317 0.000001
# 6 0.000000 0.000000 0.000001 0.001972 0.000001 0.028993
#
#
# Mechanical properties :
#
#
# Convention : Reuss Voigt Hill
#
# Bulk Modulus (GPa) = 22.68828 62.54647 42.61737
# Shear Modulus (GPa) = 27.69088 43.31550 35.50319
#
# Velocity S-wave (km/s) = 3.33819 4.17507 3.77986
# Velocity P-wave (km/s) = 4.89779 6.95786 6.01665
#
# Compressibility (1/GPa) = 0.04407562
#
# Stress axis : x y z
#
# Youngs Moduli (GPa) = 61.72217 184.35153 39.89390
#
# Poissons Ratio (x) = 0.27957 -0.19950
# Poissons Ratio (y) = 0.09360 0.19120
# Poissons Ratio (z) = -0.30865 0.88353
#
# Static dielectric constant tensor:
#      x y z
#    x 2.159630 0.000000 0.043050 
#    y 0.000000 2.018160 0.000000 
#    z 0.043050 0.000000 2.022630 
# 
# From -- ./inp_files/286353.got.cif
#   From: 2010.05.17/outbox.cif.g08.bks.cpg/sg12_144_cif.got.tgz:286353.got - 2010.06.03 13:09:07.
