data_PCOD9212463
_publ_section_title
;
Structure prediction by ZEFSAII (Michael W. Deem and Ramdas Pophale) SiO2 
 PCOD9212463
Probable space group: C 2/M
;
_chemical_formula_sum "Si O2"
_cell_formula_units_Z 52
_cell_length_a 12.785164
_cell_length_b 32.857801
_cell_length_c 8.732503
_cell_angle_alpha 90.000000
_cell_angle_beta 132.547895
_cell_angle_gamma 90.000000
_cell_volume 2702.598205
_symmetry_space_group_name_H-M "C 2/M"
_symmetry_group_IT_number 12
_symmetry_cell_setting 'monoclinic'
loop_
_space_group_symop_operation_xyz
x,y,z
-x,y,-z
-x,-y,-z
x,-y,z
1/2+x,1/2+y,z
1/2-x,1/2+y,-z
1/2-x,1/2-y,-z
1/2+x,1/2-y,z
loop_
_atom_site_type_symbol
_atom_site_label
_atom_site_fract_x
_atom_site_fract_y
_atom_site_fract_z
Si Si1 0.029245 0.596701 0.359787
Si Si2 0.192686 0.096668 0.548709
Si Si3 0.040526 0.313021 0.797063
Si Si4 0.000000 0.247684 0.500000
Si Si5 0.684933 0.952875 0.044635
Si Si6 0.968169 0.047156 0.146060
Si Si7 0.254966 0.186264 0.714544
O O1 0.968924 0.642532 0.288784
O O2 0.000000 0.580347 0.500000
O O3 0.193427 0.597184 0.476598
O O4 0.950666 0.570652 0.152444
O O5 0.251577 0.068452 0.742916
O O6 0.188043 0.142309 0.609514
O O7 0.050955 0.077560 0.339740
O O8 0.051979 0.277160 0.686849
O O9 0.890028 0.307530 0.736225
O O10 0.170364 0.313408 0.045075
O O11 0.132250 0.219656 0.581040
O O12 0.803665 0.950350 0.028570
O O13 0.655264 0.000000 0.045766
O O14 0.013500 0.000000 0.219509
O O15 0.000000 0.056108 0.000000
#
# Coordination Sequence:
#
# PCOD9212463 Si02
#       7
#     8   8   8   4   8   8   8
#     4  11  22  39  61  86 118 163 200 246 299 354
#     4  11  22  38  61  88 122 157 202 248 296 357
#     4  10  21  42  60  85 124 155 192 245 305 353
#     4  12  22  38  66  90 114 158 198 248 296 364
#     4  11  23  38  62  90 119 158 204 245 293 356
#     4  10  22  40  60  87 125 162 195 247 303 349
#     4  10  23  38  62  91 118 156 198 244 296 357
#
# _framework density 19.240742999999998
#
# number of rings (size 3 to 8) (size 9 to 14) (size 15 to 20)
#    0.000    1.385    2.308    3.231    2.154    3.385 
#    0.000    0.000    3.385    0.000    0.000    0.000 
#    0.000    0.000    0.000    0.000    0.000    0.000 
#
# Total GULP energy -145301.198981 kJ/mol
# GULP energy per Si atom -5588.507653 kJ/mol
# Density = 1.919695 g / cm^3
# Si number density = 19.240743 Si / 1000 Ang^3
#
#
#
# Elastic Constant Matrix: (Units=GPa)
#
#
# Indices 1 2 3 4 5 6 
#
# 1 41.6018 15.6453 5.4410 0.0000 -8.1090 0.0000
# 2 15.6453 117.7270 31.8719 0.0000 3.5161 0.0000
# 3 5.4410 31.8719 61.9267 0.0000 -3.9473 0.0000
# 4 0.0000 0.0000 0.0000 33.8589 0.0000 8.3910
# 5 -8.1090 3.5161 -3.9473 0.0000 29.5753 0.0000
# 6 0.0000 0.0000 0.0000 8.3910 0.0000 17.1627
#
#
#
# Elastic Compliance Matrix: (Units=1/GPa)
#
#
# Indices 1 2 3 4 5 6 
#
# 1 0.027008 -0.003855 0.000113 0.000000 0.007879 0.000000
# 2 -0.003855 0.010523 -0.005269 0.000000 -0.003011 0.000000
# 3 0.000113 -0.005269 0.019054 0.000000 0.003201 0.000000
# 4 0.000000 0.000000 0.000000 0.033606 0.000000 -0.016430
# 5 0.007879 -0.003011 0.003201 0.000000 0.036757 0.000000
# 6 0.000000 0.000000 0.000000 -0.016430 0.000000 0.066299
#
#
# Mechanical properties :
#
#
# Convention : Reuss Voigt Hill
#
# Bulk Modulus (GPa) = 25.93142 36.35244 31.14193
# Shear Modulus (GPa) = 22.30909 27.33921 24.82415
#
# Velocity S-wave (km/s) = 3.40879 3.77357 3.59581
# Velocity P-wave (km/s) = 5.38514 6.15800 5.78449
#
# Compressibility (1/GPa) = 0.03856326
#
# Stress axis : x y z
#
# Youngs Moduli (GPa) = 37.02584 95.02994 52.48235
#
# Poissons Ratio (x) = 0.36636 -0.00595
# Poissons Ratio (y) = 0.14274 0.27654
# Poissons Ratio (z) = -0.00420 0.50072
#
# Static dielectric constant tensor:
#      x y z
#    x 1.685470 0.000000 -0.005470 
#    y 0.000000 1.643210 0.000000 
#    z -0.005470 0.000000 1.632240 
# 
# From -- ./inp_files/68664.got.cif
#   From: 2010.05.17/outbox.cif.g08.bks.cpg/sg12_35_cif.got.tgz:68664.got - 2010.06.03 13:09:07.
