data_PCOD9212455
_publ_section_title
;
Structure prediction by ZEFSAII (Michael W. Deem and Ramdas Pophale) SiO2 
 PCOD9212455
Probable space group: C 2/M
;
_chemical_formula_sum "Si O2"
_cell_formula_units_Z 48
_cell_length_a 8.385219
_cell_length_b 30.016267
_cell_length_c 13.888869
_cell_angle_alpha 90.000000
_cell_angle_beta 141.332635
_cell_angle_gamma 90.000000
_cell_volume 2184.125672
_symmetry_space_group_name_H-M "C 2/M"
_symmetry_group_IT_number 12
_symmetry_cell_setting 'monoclinic'
loop_
_space_group_symop_operation_xyz
x,y,z
-x,y,-z
-x,-y,-z
x,-y,z
1/2+x,1/2+y,z
1/2-x,1/2+y,-z
1/2-x,1/2-y,-z
1/2+x,1/2-y,z
loop_
_atom_site_type_symbol
_atom_site_label
_atom_site_fract_x
_atom_site_fract_y
_atom_site_fract_z
Si Si1 0.062089 0.000000 0.198420
Si Si2 0.231297 0.265744 0.181751
Si Si3 0.554744 0.814659 0.292793
Si Si4 0.100171 0.500000 0.823516
Si Si5 0.995552 0.403505 0.156177
Si Si6 0.936308 0.905104 0.206487
Si Si7 0.721116 0.678682 0.400420
O O1 0.038687 0.044556 0.249833
O O2 0.300172 0.000000 0.238539
O O3 0.827006 0.000000 0.010832
O O4 0.315936 0.214193 0.219543
O O5 0.157746 0.288380 0.247921
O O6 0.481033 0.291260 0.261078
O O7 0.000000 0.272555 0.000000
O O8 0.485109 0.864244 0.227895
O O9 0.241639 0.819127 0.525818
O O10 0.970810 0.452646 0.783396
O O11 0.233890 0.397060 0.196767
O O12 0.735440 0.400142 0.970821
O O13 0.159060 0.869484 0.326849
O O14 0.000000 0.694488 0.500000
#
# Coordination Sequence:
#
# PCOD9212455 Si02
#       7
#     4   8   8   4   8   8   8
#     4   9  19  37  65 104 143 187 231 298 351 418
#     4  12  26  50  74 103 137 184 246 298 348 428
#     4  12  26  45  71 104 142 187 233 297 362 427
#     4   9  19  37  66 109 144 177 239 297 358 405
#     4  10  21  41  73 102 139 186 241 295 343 424
#     4  10  21  42  69 100 142 187 240 287 350 420
#     4  12  27  46  70 103 145 190 231 293 368 426
#
# _framework density 21.976756999999999
#
# number of rings (size 3 to 8) (size 9 to 14) (size 15 to 20)
#    0.000    1.167    1.667    4.000    2.333    3.333 
#    3.000    1.250    0.000    2.000    0.000    0.000 
#    0.000    0.000    0.000    0.000    0.000    0.000 
#
# Total GULP energy -134193.359411 kJ/mol
# GULP energy per Si atom -5591.389975 kJ/mol
# Density = 2.192674 g / cm^3
# Si number density = 21.976757 Si / 1000 Ang^3
#
#
#
# Elastic Constant Matrix: (Units=GPa)
#
#
# Indices 1 2 3 4 5 6 
#
# 1 65.0846 43.4666 37.4825 0.0000 -2.2898 0.0000
# 2 43.4666 135.4999 46.5380 0.0000 -24.3033 0.0000
# 3 37.4825 46.5380 114.3273 0.0000 -8.1666 0.0000
# 4 0.0000 0.0000 0.0000 2606.1723 0.0000-1883.2134
# 5 -2.2898 -24.3033 -8.1666 0.0000 13.0516 0.0000
# 6 0.0000 0.0000 0.0000-1883.2134 0.0000 1417.3131
#
#
#
# Elastic Compliance Matrix: (Units=1/GPa)
#
#
# Indices 1 2 3 4 5 6 
#
# 1 0.023511 -0.008351 -0.005365 0.000000 -0.014782 0.000000
# 2 -0.008351 0.015273 -0.001625 0.000000 0.025957 0.000000
# 3 -0.005365 -0.001625 0.011393 0.000000 0.003162 0.000000
# 4 0.000000 0.000000 0.000000 0.009624 0.000000 0.012788
# 5 -0.014782 0.025957 0.003162 0.000000 0.124339 0.000000
# 6 0.000000 0.000000 0.000000 0.012788 0.000000 0.017697
#
#
# Mechanical properties :
#
#
# Convention : Reuss Voigt Hill
#
# Bulk Modulus (GPa) = 51.29305 63.32068 57.30687
# Shear Modulus (GPa) = 20.91907 819.80237 420.36072
#
# Velocity S-wave (km/s) = 3.08859 19.33498 13.84523
# Velocity P-wave (km/s) = 6.00912 22.96367 16.78451
#
# Compressibility (1/GPa) = 0.01949582
#
# Stress axis : x y z
#
# Youngs Moduli (GPa) = 42.53268 65.47615 87.77332
#
# Poissons Ratio (x) = 0.54678 0.47089
# Poissons Ratio (y) = 0.35519 0.14262
# Poissons Ratio (z) = 0.22818 0.10639
#
# Static dielectric constant tensor:
#      x y z
#    x 1.832310 0.000000 0.017780 
#    y 0.000000 1.820060 0.000000 
#    z 0.017780 0.000000 1.770820 
# 
# From -- ./inp_files/302919.got.cif
#   From: 2010.05.17/outbox.cif.g08.bks.cpg/sg12_152_cif.got.tgz:302919.got - 2010.06.03 13:09:07.
