data_PCOD9212290
_publ_section_title
;
Structure prediction by ZEFSAII (Michael W. Deem and Ramdas Pophale) SiO2 
 PCOD9212290
Probable space group: C 2/M
;
_chemical_formula_sum "Si O2"
_cell_formula_units_Z 40
_cell_length_a 20.106687
_cell_length_b 9.816840
_cell_length_c 9.069521
_cell_angle_alpha 90.000000
_cell_angle_beta 100.158422
_cell_angle_gamma 90.000000
_cell_volume 1762.116390
_symmetry_space_group_name_H-M "C 2/M"
_symmetry_group_IT_number 12
_symmetry_cell_setting 'monoclinic'
loop_
_space_group_symop_operation_xyz
x,y,z
-x,y,-z
-x,-y,-z
x,-y,z
1/2+x,1/2+y,z
1/2-x,1/2+y,-z
1/2-x,1/2-y,-z
1/2+x,1/2-y,z
loop_
_atom_site_type_symbol
_atom_site_label
_atom_site_fract_x
_atom_site_fract_y
_atom_site_fract_z
Si Si1 0.137298 0.248132 0.010320
Si Si2 0.036909 0.350087 0.737000
Si Si3 0.588270 0.655905 0.296896
Si Si4 0.658504 0.843319 0.550707
Si Si5 0.230549 0.147699 0.790444
O O1 0.105130 0.164023 0.130407
O O2 0.196669 0.337641 0.105876
O O3 0.080321 0.332923 0.902965
O O4 0.175533 0.161429 0.900026
O O5 0.003594 0.500000 0.720575
O O6 0.090713 0.343638 0.625411
O O7 0.983362 0.229764 0.706960
O O8 0.588693 0.500000 0.347666
O O9 0.641249 0.749413 0.405729
O O10 0.714551 0.770134 0.672991
O O11 0.674664 0.000000 0.522430
O O12 0.222955 0.000000 0.716022
#
# Coordination Sequence:
#
# PCOD9212290 Si02
#       5
#     8   8   8   8   8
#     4  10  23  39  62  92 124 156 196 246 301 356
#     4  10  22  41  63  88 121 161 202 243 294 357
#     4  12  25  39  60  91 124 158 199 249 300 352
#     4  10  23  42  63  88 121 161 201 245 299 356
#     4  10  21  41  67  90 117 157 203 248 296 354
#
# _framework density 22.699975999999999
#
# number of rings (size 3 to 8) (size 9 to 14) (size 15 to 20)
#    0.000    1.600    0.000    3.600    0.000   18.400 
#    0.000    0.000    0.000    0.000    0.000    0.000 
#    0.000    0.000    0.000    0.000    0.000    0.000 
#
# Total GULP energy -111935.847685 kJ/mol
# GULP energy per Si atom -5596.792384 kJ/mol
# Density = 2.264831 g / cm^3
# Si number density = 22.699976 Si / 1000 Ang^3
#
#
#
# Elastic Constant Matrix: (Units=GPa)
#
#
# Indices 1 2 3 4 5 6 
#
# 1 69.7908 43.6809 25.8642 0.0000 -0.0698 0.0000
# 2 43.6809 204.8318 52.9090 0.0000 7.2171 0.0000
# 3 25.8642 52.9090 113.8845 0.0000 6.3244 0.0000
# 4 0.0000 0.0000 0.0000 24.5071 0.0000 12.9298
# 5 -0.0698 7.2171 6.3244 0.0000 28.1040 0.0000
# 6 0.0000 0.0000 0.0000 12.9298 0.0000 -11.2789
#
#
#
# Elastic Compliance Matrix: (Units=1/GPa)
#
#
# Indices 1 2 3 4 5 6 
#
# 1 0.017191 -0.003053 -0.002564 0.000000 0.001404 0.000000
# 2 -0.003053 0.006110 -0.002084 0.000000 -0.001108 0.000000
# 3 -0.002564 -0.002084 0.010432 0.000000 -0.001819 0.000000
# 4 0.000000 0.000000 0.000000 0.025426 0.000000 0.029148
# 5 0.001404 -0.001108 -0.001819 0.000000 0.036279 0.000000
# 6 0.000000 0.000000 0.000000 0.029148 0.000000 -0.055247
#
#
# Mechanical properties :
#
#
# Convention : Reuss Voigt Hill
#
# Bulk Modulus (GPa) = 54.54936 70.37949 62.46442
# Shear Modulus (GPa) = 81.03098 26.00330 53.51714
#
# Velocity S-wave (km/s) = 5.98114 3.38823 4.86077
# Velocity P-wave (km/s) = 8.47239 6.81016 7.68634
#
# Compressibility (1/GPa) = 0.01833202
#
# Stress axis : x y z
#
# Youngs Moduli (GPa) = 58.16985 163.65303 95.85698
#
# Poissons Ratio (x) = 0.49968 0.24575
# Poissons Ratio (y) = 0.17761 0.19976
# Poissons Ratio (z) = 0.14913 0.34104
#
# Static dielectric constant tensor:
#      x y z
#    x 1.830620 0.000000 -0.013270 
#    y 0.000000 1.799290 0.000000 
#    z -0.013270 0.000000 1.845310 
# 
# From -- ./inp_files/93008.got.cif
#   From: 2010.05.17/outbox.cif.g08.bks.cpg/sg12_47_cif.got.tgz:93008.got - 2010.06.03 13:09:07.
