data_PCOD9212049
_publ_section_title
;
Structure prediction by ZEFSAII (Michael W. Deem and Ramdas Pophale) SiO2 
 PCOD9212049
Probable space group: C 2/M
;
_chemical_formula_sum "Si O2"
_cell_formula_units_Z 40
_cell_length_a 30.166751
_cell_length_b 11.972435
_cell_length_c 18.622233
_cell_angle_alpha 90.000000
_cell_angle_beta 163.436357
_cell_angle_gamma 90.000000
_cell_volume 1917.387307
_symmetry_space_group_name_H-M "C 2/M"
_symmetry_group_IT_number 12
_symmetry_cell_setting 'monoclinic'
loop_
_space_group_symop_operation_xyz
x,y,z
-x,y,-z
-x,-y,-z
x,-y,z
1/2+x,1/2+y,z
1/2-x,1/2+y,-z
1/2-x,1/2-y,-z
1/2+x,1/2-y,z
loop_
_atom_site_type_symbol
_atom_site_label
_atom_site_fract_x
_atom_site_fract_y
_atom_site_fract_z
Si Si1 0.709081 0.272952 0.663118
Si Si2 0.466678 0.127579 0.365991
Si Si3 0.720887 0.124556 0.379255
Si Si4 0.677711 0.500000 0.692880
Si Si5 0.015762 0.177552 0.104907
Si Si6 0.809692 0.000000 0.115961
O O1 0.554471 0.212777 0.450790
O O2 0.709700 0.309219 0.580914
O O3 0.740389 0.385309 0.756778
O O4 0.852086 0.186589 0.890379
O O5 0.500000 0.161993 0.500000
O O6 0.531923 0.000000 0.459471
O O7 0.285804 0.105154 0.065448
O O8 0.852937 0.121181 0.644563
O O9 0.578980 0.195582 0.190941
O O10 0.678518 0.000000 0.291935
O O11 0.492807 0.500000 0.386720
O O12 0.704826 0.500000 0.820332
O O13 0.000000 0.131060 0.000000
#
# Coordination Sequence:
#
# PCOD9212049 Si02
#       6
#     8   8   8   4   8   4
#     4  11  23  38  63  94 121 161 208 251 307 369
#     4   9  22  45  65  87 121 173 207 256 308 363
#     4  10  21  41  61  90 125 164 199 251 311 364
#     4  11  24  38  59  98 120 162 204 260 319 364
#     4   9  22  39  60  90 123 160 203 250 305 365
#     4   9  23  44  58  88 125 162 210 251 323 362
#
# _framework density 20.861722
#
# number of rings (size 3 to 8) (size 9 to 14) (size 15 to 20)
#    0.600    1.600    1.000    0.000    7.000    4.800 
#    0.000    8.000    0.000    0.000    0.000    0.000 
#    0.000    0.000    0.000    0.000    0.000    0.000 
#
# Total GULP energy -111573.889346 kJ/mol
# GULP energy per Si atom -5578.694467 kJ/mol
# Density = 2.081424 g / cm^3
# Si number density = 20.861722 Si / 1000 Ang^3
#
#
#
# Elastic Constant Matrix: (Units=GPa)
#
#
# Indices 1 2 3 4 5 6 
#
# 1 59.9200 5.8510 25.7752 0.0000 1.0726 0.0000
# 2 5.8510 59.3196 -4.7111 0.0000 11.9422 0.0000
# 3 25.7752 -4.7111 108.7617 0.0000 -12.2993 0.0000
# 4 0.0000 0.0000 0.0000 -33.1082 0.0000 -30.2136
# 5 1.0726 11.9422 -12.2993 0.0000 28.0203 0.0000
# 6 0.0000 0.0000 0.0000 -30.2136 0.0000 -10.4049
#
#
#
# Elastic Compliance Matrix: (Units=1/GPa)
#
#
# Indices 1 2 3 4 5 6 
#
# 1 0.018974 -0.001840 -0.004808 0.000000 -0.002053 0.000000
# 2 -0.001840 0.018619 0.000372 0.000000 -0.007702 0.000000
# 3 -0.004808 0.000372 0.010894 0.000000 0.004807 0.000000
# 4 0.000000 0.000000 0.000000 0.018306 0.000000 -0.053158
# 5 -0.002053 -0.007702 0.004807 0.000000 0.041160 0.000000
# 6 0.000000 0.000000 0.000000 -0.053158 0.000000 0.058251
#
#
# Mechanical properties :
#
#
# Convention : Reuss Voigt Hill
#
# Bulk Modulus (GPa) = 27.82951 31.31460 29.57206
# Shear Modulus (GPa) = 26.21437 10.30720 18.26078
#
# Velocity S-wave (km/s) = 3.54867 2.22518 2.96180
# Velocity P-wave (km/s) = 5.49178 4.65243 5.08944
#
# Compressibility (1/GPa) = 0.03593307
#
# Stress axis : x y z
#
# Youngs Moduli (GPa) = 52.70455 53.70742 91.79643
#
# Poissons Ratio (x) = 0.09883 0.44139
# Poissons Ratio (y) = 0.09698 -0.03411
# Poissons Ratio (z) = 0.25342 -0.01996
#
# Static dielectric constant tensor:
#      x y z
#    x 1.722450 0.000000 -0.003940 
#    y 0.000000 1.758040 0.000000 
#    z -0.003940 0.000000 1.759960 
# 
# From -- ./inp_files/296354.got.cif
#   From: 2010.05.17/outbox.cif.g08.bks.cpg/sg12_149_cif.got.tgz:296354.got - 2010.06.03 13:09:07.
