data_PCOD9212564
_publ_section_title
;
Structure prediction by ZEFSAII (Michael W. Deem and Ramdas Pophale) SiO2 
 PCOD9212564
Probable space group: C 2/M
;
_chemical_formula_sum "Si O2"
_cell_formula_units_Z 58
_cell_length_a 12.408877
_cell_length_b 30.652588
_cell_length_c 8.479035
_cell_angle_alpha 90.000000
_cell_angle_beta 73.507562
_cell_angle_gamma 90.000000
_cell_volume 3092.430831
_symmetry_space_group_name_H-M "C 2/M"
_symmetry_group_IT_number 12
_symmetry_cell_setting 'monoclinic'
loop_
_space_group_symop_operation_xyz
x,y,z
-x,y,-z
-x,-y,-z
x,-y,z
1/2+x,1/2+y,z
1/2-x,1/2+y,-z
1/2-x,1/2-y,-z
1/2+x,1/2-y,z
loop_
_atom_site_type_symbol
_atom_site_label
_atom_site_fract_x
_atom_site_fract_y
_atom_site_fract_z
Si Si1 0.118606 0.551053 0.870099
Si Si2 0.009014 0.302198 0.306286
Si Si3 0.959245 0.207188 0.195600
Si Si4 0.832392 0.922605 0.989404
Si Si5 0.419164 0.631685 0.672326
Si Si6 0.822419 0.626961 0.377969
Si Si7 0.500000 0.500000 0.000000
Si Si8 0.239124 0.653590 0.250935
O O1 0.117550 0.500000 0.830777
O O2 0.219349 0.560351 0.950930
O O3 0.140485 0.580758 0.708331
O O4 0.000000 0.562467 0.000000
O O5 0.980286 0.256747 0.236438
O O6 0.916943 0.337879 0.297229
O O7 0.000000 0.296152 0.500000
O O8 0.132271 0.321807 0.220032
O O9 0.831514 0.189964 0.258006
O O10 0.030342 0.176070 0.280552
O O11 0.000000 0.200757 0.000000
O O12 0.909229 0.902398 0.818377
O O13 0.901532 0.961517 0.038460
O O14 0.797037 0.882656 0.117133
O O15 0.500000 0.615319 0.500000
O O16 0.295502 0.638611 0.654356
O O17 0.803933 0.629629 0.572941
#
# Coordination Sequence:
#
# PCOD9212564 Si02
#       8
#     8   8   8   8   8   8   2   8
#     4  10  21  42  67  93 123 162 213 265 315 372
#     4  10  25  41  63  91 125 166 213 264 309 372
#     4  12  24  39  62  93 123 167 213 253 312 374
#     4  11  23  42  64  92 127 168 205 259 317 382
#     4  11  22  40  64  89 124 168 205 256 316 374
#     4  10  23  41  65  91 126 164 214 258 319 371
#     4  12  24  40  64  96 134 156 210 254 318 378
#     4  11  23  43  65  89 131 171 206 259 321 372
#
# _framework density 18.755472000000001
#
# number of rings (size 3 to 8) (size 9 to 14) (size 15 to 20)
#    0.000    1.241    3.448    2.069    1.931    4.414 
#    1.241    0.345    0.000    2.897    0.000    0.000 
#    0.000    0.000    0.000    0.000    0.000    0.000 
#
# Total GULP energy -161761.839509 kJ/mol
# GULP energy per Si atom -5577.994466 kJ/mol
# Density = 1.871278 g / cm^3
# Si number density = 18.755472 Si / 1000 Ang^3
#
#
#
# Elastic Constant Matrix: (Units=GPa)
#
#
# Indices 1 2 3 4 5 6 
#
# 1 121.8678 80.4044 42.5772 0.0000 -19.8030 0.0000
# 2 80.4044 120.2972 55.6636 0.0000 -17.3260 0.0000
# 3 42.5772 55.6636 77.5847 0.0000 -15.7770 0.0000
# 4 0.0000 0.0000 0.0000 -5.5937 0.0000 -24.9693
# 5 -19.8030 -17.3260 -15.7770 0.0000 15.0839 0.0000
# 6 0.0000 0.0000 0.0000 -24.9693 0.0000 1.4435
#
#
#
# Elastic Compliance Matrix: (Units=1/GPa)
#
#
# Indices 1 2 3 4 5 6 
#
# 1 0.015935 -0.009113 -0.000103 0.000000 0.010345 0.000000
# 2 -0.009113 0.018145 -0.007890 0.000000 0.000625 0.000000
# 3 -0.000103 -0.007890 0.021257 0.000000 0.013036 0.000000
# 4 0.000000 0.000000 0.000000 -0.002286 0.000000 -0.039537
# 5 0.010345 0.000625 0.013036 0.000000 0.094231 0.000000
# 6 0.000000 0.000000 0.000000 -0.039537 0.000000 0.008857
#
#
# Mechanical properties :
#
#
# Convention : Reuss Voigt Hill
#
# Bulk Modulus (GPa) = 47.33666 75.22667 61.28167
# Shear Modulus (GPa) = 25.33023 11.59369 18.46196
#
# Velocity S-wave (km/s) = 3.67897 2.48896 3.14084
# Velocity P-wave (km/s) = 6.58332 6.96105 6.77481
#
# Compressibility (1/GPa) = 0.02112528
#
# Stress axis : x y z
#
# Youngs Moduli (GPa) = 62.75416 55.11306 47.04318
#
# Poissons Ratio (x) = 0.50225 0.00484
# Poissons Ratio (y) = 0.57189 0.37115
# Poissons Ratio (z) = 0.00646 0.43482
#
# Static dielectric constant tensor:
#      x y z
#    x 1.654080 0.000000 0.002090 
#    y 0.000000 1.611690 0.000000 
#    z 0.002090 0.000000 1.654450 
# 
# From -- ./inp_files/54228.got.cif
#   From: 2010.05.17/outbox.cif.g08.bks.cpg/sg12_28_cif.got.tgz:54228.got - 2010.06.03 13:09:07.
