data_PCOD9212252
_publ_section_title
;
Structure prediction by ZEFSAII (Michael W. Deem and Ramdas Pophale) SiO2 
 PCOD9212252
Probable space group: C 2/M
;
_chemical_formula_sum "Si O2"
_cell_formula_units_Z 40
_cell_length_a 12.590324
_cell_length_b 17.430558
_cell_length_c 7.908789
_cell_angle_alpha 90.000000
_cell_angle_beta 86.575784
_cell_angle_gamma 90.000000
_cell_volume 1732.535472
_symmetry_space_group_name_H-M "C 2/M"
_symmetry_group_IT_number 12
_symmetry_cell_setting 'monoclinic'
loop_
_space_group_symop_operation_xyz
x,y,z
-x,y,-z
-x,-y,-z
x,-y,z
1/2+x,1/2+y,z
1/2-x,1/2+y,-z
1/2-x,1/2-y,-z
1/2+x,1/2-y,z
loop_
_atom_site_type_symbol
_atom_site_label
_atom_site_fract_x
_atom_site_fract_y
_atom_site_fract_z
Si Si1 0.162912 0.851822 0.360521
Si Si2 0.444866 0.500000 0.742843
Si Si3 0.959201 0.300928 0.741886
Si Si4 0.172193 0.000000 0.886554
Si Si5 0.303063 0.912706 0.632096
Si Si6 0.169247 0.693227 0.910428
O O1 0.086004 0.923883 0.352386
O O2 0.097791 0.774326 0.329875
O O3 0.226762 0.859079 0.528520
O O4 0.252018 0.859914 0.204335
O O5 0.567724 0.500000 0.779878
O O6 0.374890 0.500000 0.922650
O O7 0.916660 0.372244 0.636067
O O8 0.081661 0.282760 0.774867
O O9 0.905915 0.325184 0.925182
O O10 0.243949 0.071649 0.818114
O O11 0.309252 0.000000 0.559928
O O12 0.250000 0.750000 0.000000
#
# Coordination Sequence:
#
# PCOD9212252 Si02
#       6
#     8   4   8   4   8   8
#     4  11  22  38  64  93 132 161 216 257 322 383
#     4  11  21  39  60  95 118 179 207 270 312 375
#     4  10  21  41  66  93 125 171 211 261 324 373
#     4   9  23  39  64  87 132 165 219 257 324 371
#     4  10  22  42  60  94 132 166 205 263 313 388
#     4   9  21  40  63  93 124 161 215 267 309 375
#
# _framework density 23.087548999999999
#
# number of rings (size 3 to 8) (size 9 to 14) (size 15 to 20)
#    0.600    1.400    1.000    1.800    0.000   12.000 
#    1.800    4.000    0.000    0.000    0.000    0.000 
#    0.000    0.000    0.000    0.000    0.000    0.000 
#
# Total GULP energy -111427.429150 kJ/mol
# GULP energy per Si atom -5571.371458 kJ/mol
# Density = 2.303500 g / cm^3
# Si number density = 23.087549 Si / 1000 Ang^3
#
#
#
# Elastic Constant Matrix: (Units=GPa)
#
#
# Indices 1 2 3 4 5 6 
#
# 1 154.0538 61.6142 51.1167 0.0000 29.9803 0.0000
# 2 61.6142 103.7217 25.6710 0.0000 20.3210 0.0000
# 3 51.1167 25.6710 77.6363 0.0000 7.5556 0.0000
# 4 0.0000 0.0000 0.0000 24.9693 0.0000 15.7278
# 5 29.9803 20.3210 7.5556 0.0000 57.3788 0.0000
# 6 0.0000 0.0000 0.0000 15.7278 0.0000 -9.4519
#
#
#
# Elastic Compliance Matrix: (Units=1/GPa)
#
#
# Indices 1 2 3 4 5 6 
#
# 1 0.010614 -0.004363 -0.005223 0.000000 -0.003313 0.000000
# 2 -0.004363 0.012951 -0.001200 0.000000 -0.002149 0.000000
# 3 -0.005223 -0.001200 0.016623 0.000000 0.000965 0.000000
# 4 0.000000 0.000000 0.000000 0.019554 0.000000 0.032538
# 5 -0.003313 -0.002149 0.000965 0.000000 0.019793 0.000000
# 6 0.000000 0.000000 0.000000 0.032538 0.000000 -0.051656
#
#
# Mechanical properties :
#
#
# Convention : Reuss Voigt Hill
#
# Bulk Modulus (GPa) = 53.72334 68.02393 60.87363
# Shear Modulus (GPa) = 89.83469 27.71323 58.77396
#
# Velocity S-wave (km/s) = 6.24459 3.46837 5.05097
# Velocity P-wave (km/s) = 8.67831 6.75033 7.77432
#
# Compressibility (1/GPa) = 0.01861389
#
# Stress axis : x y z
#
# Youngs Moduli (GPa) = 94.21278 77.21240 60.15882
#
# Poissons Ratio (x) = 0.33691 0.31423
# Poissons Ratio (y) = 0.41109 0.07221
# Poissons Ratio (z) = 0.49211 0.09268
#
# Static dielectric constant tensor:
#      x y z
#    x 1.885730 0.000000 -0.015990 
#    y 0.000000 1.830460 0.000000 
#    z -0.015990 0.000000 1.979120 
# 
# From -- ./inp_files/48836.got.cif
#   From: 2010.05.17/outbox.cif.g08.bks.cpg/sg12_25_cif.got.tgz:48836.got - 2010.06.03 13:09:07.
