data_PCOD9212099
_publ_section_title
;
Structure prediction by ZEFSAII (Michael W. Deem and Ramdas Pophale) SiO2 
 PCOD9212099
Probable space group: C 2/M
;
_chemical_formula_sum "Si O2"
_cell_formula_units_Z 48
_cell_length_a 11.512328
_cell_length_b 24.634802
_cell_length_c 7.325421
_cell_angle_alpha 90.000000
_cell_angle_beta 81.888264
_cell_angle_gamma 90.000000
_cell_volume 2056.732083
_symmetry_space_group_name_H-M "C 2/M"
_symmetry_group_IT_number 12
_symmetry_cell_setting 'monoclinic'
loop_
_space_group_symop_operation_xyz
x,y,z
-x,y,-z
-x,-y,-z
x,-y,z
1/2+x,1/2+y,z
1/2-x,1/2+y,-z
1/2-x,1/2-y,-z
1/2+x,1/2-y,z
loop_
_atom_site_type_symbol
_atom_site_label
_atom_site_fract_x
_atom_site_fract_y
_atom_site_fract_z
Si Si1 0.404876 0.663614 0.399519
Si Si2 0.970253 0.643335 0.712692
Si Si3 0.441040 0.558411 0.210595
Si Si4 0.702778 0.937455 0.066000
Si Si5 0.734487 0.849019 0.763268
Si Si6 0.769601 0.267293 0.712537
O O1 0.500000 0.696083 0.500000
O O2 0.473783 0.611792 0.310767
O O3 0.300014 0.643185 0.555129
O O4 0.347605 0.696438 0.246158
O O5 0.879127 0.693559 0.723615
O O6 0.000000 0.626824 0.500000
O O7 0.094867 0.658116 0.771107
O O8 0.909523 0.593887 0.831622
O O9 0.469035 0.500000 0.289479
O O10 0.500000 0.558966 0.000000
O O11 0.302125 0.561945 0.200449
O O12 0.751032 0.899759 0.891903
O O13 0.681903 0.000000 0.016306
O O14 0.776990 0.789289 0.817100
O O15 0.750000 0.250000 0.500000
#
# Coordination Sequence:
#
# PCOD9212099 Si02
#       6
#     8   8   8   8   8   8
#     4  11  22  39  66  97 128 170 221 264 329 395
#     4  12  22  44  69  96 137 174 219 268 331 391
#     4  10  21  41  63  90 131 173 217 273 321 378
#     4  11  25  46  66  96 136 173 224 277 324 389
#     4  11  25  40  67  99 132 173 216 270 331 387
#     4  10  22  39  65  93 132 167 209 266 325 388
#
# _framework density 23.337994999999999
#
# number of rings (size 3 to 8) (size 9 to 14) (size 15 to 20)
#    0.000    1.167    5.000    1.500    4.667    3.333 
#    0.000    0.000    0.000    0.000    0.000    0.000 
#    0.000    0.000    0.000    0.000    0.000    0.000 
#
# Total GULP energy -134128.139114 kJ/mol
# GULP energy per Si atom -5588.672463 kJ/mol
# Density = 2.328488 g / cm^3
# Si number density = 23.337995 Si / 1000 Ang^3
#
#
#
# Elastic Constant Matrix: (Units=GPa)
#
#
# Indices 1 2 3 4 5 6 
#
# 1 107.1744 18.5057 6.1782 0.0000 -6.9346 0.0000
# 2 18.5057 181.4383 56.4063 0.0000 -2.0456 0.0000
# 3 6.1782 56.4063 66.2560 0.0000 -7.9563 0.0000
# 4 0.0000 0.0000 0.0000 26.2228 0.0000 -0.0160
# 5 -6.9346 -2.0456 -7.9563 0.0000 32.6775 0.0000
# 6 0.0000 0.0000 0.0000 -0.0160 0.0000 3.9222
#
#
#
# Elastic Compliance Matrix: (Units=1/GPa)
#
#
# Indices 1 2 3 4 5 6 
#
# 1 0.009627 -0.001028 0.000221 0.000000 0.002033 0.000000
# 2 -0.001028 0.007645 -0.006573 0.000000 -0.001340 0.000000
# 3 0.000221 -0.006573 0.021246 0.000000 0.004808 0.000000
# 4 0.000000 0.000000 0.000000 0.038135 0.000000 0.000156
# 5 0.002033 -0.001340 0.004808 0.000000 0.032120 0.000000
# 6 0.000000 0.000000 0.000000 0.000156 0.000000 0.254957
#
#
# Mechanical properties :
#
#
# Convention : Reuss Voigt Hill
#
# Bulk Modulus (GPa) = 42.09121 57.44991 49.77056
# Shear Modulus (GPa) = 12.93966 30.81641 21.87804
#
# Velocity S-wave (km/s) = 2.35722 3.63773 3.06509
# Velocity P-wave (km/s) = 5.04810 6.50492 5.82225
#
# Compressibility (1/GPa) = 0.02375793
#
# Stress axis : x y z
#
# Youngs Moduli (GPa) = 103.87668 130.80780 47.06786
#
# Poissons Ratio (x) = 0.13444 -0.01042
# Poissons Ratio (y) = 0.10676 0.30940
# Poissons Ratio (z) = -0.02300 0.85985
#
# Static dielectric constant tensor:
#      x y z
#    x 1.928330 0.000000 0.010950 
#    y 0.000000 1.951980 0.000000 
#    z 0.010950 0.000000 1.937320 
# 
# From -- ./inp_files/51325.got.cif
#   From: 2010.05.17/outbox.cif.g08.bks.cpg/sg12_26_cif.got.tgz:51325.got - 2010.06.03 13:09:07.
