data_PCOD9212959
_publ_section_title
;
Structure prediction by ZEFSAII (Michael W. Deem and Ramdas Pophale) SiO2 
 PCOD9212959
Probable space group: C 2/M
;
_chemical_formula_sum "Si O2"
_cell_formula_units_Z 44
_cell_length_a 24.088417
_cell_length_b 19.533051
_cell_length_c 14.289195
_cell_angle_alpha 90.000000
_cell_angle_beta 160.009120
_cell_angle_gamma 90.000000
_cell_volume 2298.517510
_symmetry_space_group_name_H-M "C 2/M"
_symmetry_group_IT_number 12
_symmetry_cell_setting 'monoclinic'
loop_
_space_group_symop_operation_xyz
x,y,z
-x,y,-z
-x,-y,-z
x,-y,z
1/2+x,1/2+y,z
1/2-x,1/2+y,-z
1/2-x,1/2-y,-z
1/2+x,1/2-y,z
loop_
_atom_site_type_symbol
_atom_site_label
_atom_site_fract_x
_atom_site_fract_y
_atom_site_fract_z
Si Si1 0.390506 0.000000 0.052642
Si Si2 0.385215 0.387628 0.068399
Si Si3 0.166149 0.500000 0.363973
Si Si4 0.733938 0.637215 0.718365
Si Si5 0.329882 0.000000 0.175104
Si Si6 0.189600 0.743365 0.797236
Si Si7 0.031781 0.000000 0.940111
Si Si8 0.500000 0.874055 0.000000
O O1 0.305158 0.065844 0.870571
O O2 0.584478 0.000000 0.337326
O O3 0.364144 0.000000 0.120241
O O4 0.563555 0.375465 0.395191
O O5 0.391318 0.432218 0.982914
O O6 0.277820 0.434383 0.967638
O O7 0.295025 0.315889 0.916192
O O8 0.347126 0.500000 0.614621
O O9 0.100955 0.571680 0.221261
O O10 0.708377 0.688458 0.764571
O O11 0.871250 0.663948 0.862439
O O12 0.500000 0.000000 0.500000
O O13 0.000000 0.724740 0.500000
O O14 0.250000 0.750000 0.000000
O O15 0.000000 0.000000 0.000000
#
# Coordination Sequence:
#
# PCOD9212959 Si02
#       8
#     4   8   4   8   4   8   4   4
#     4  10  22  35  67 100 122 165 220 274 327 392
#     4  11  24  43  66  93 130 176 221 277 337 405
#     4   9  17  34  64  91 126 157 199 268 328 382
#     4  11  22  42  68  97 127 173 224 278 334 397
#     4  11  24  39  60  92 132 163 215 276 334 402
#     4  12  25  45  67  95 138 180 225 277 341 403
#     4  11  23  42  67  97 134 170 219 278 347 398
#     4   9  18  38  64  94 122 155 214 270 316 385
#
# _framework density 19.142772999999998
#
# number of rings (size 3 to 8) (size 9 to 14) (size 15 to 20)
#    0.000    1.273    3.636    3.273    2.545    0.727 
#    4.909    0.909    0.000    0.000    0.000    0.000 
#    0.000    0.000    0.000    0.000    0.000    0.000 
#
# Total GULP energy -122692.047388 kJ/mol
# GULP energy per Si atom -5576.911245 kJ/mol
# Density = 1.909920 g / cm^3
# Si number density = 19.142773 Si / 1000 Ang^3
#
#
#
# Elastic Constant Matrix: (Units=GPa)
#
#
# Indices 1 2 3 4 5 6 
#
# 1 139.0449 34.5673 29.1527 0.0000 4.9647 0.0000
# 2 34.5673 94.3408 20.5442 0.0000 -0.5492 0.0000
# 3 29.1527 20.5442 91.4407 0.0000 9.0942 0.0000
# 4 0.0000 0.0000 0.0000 26.7085 0.0000 7.8064
# 5 4.9647 -0.5492 9.0942 0.0000 30.1831 0.0000
# 6 0.0000 0.0000 0.0000 7.8064 0.0000 21.4939
#
#
#
# Elastic Compliance Matrix: (Units=1/GPa)
#
#
# Indices 1 2 3 4 5 6 
#
# 1 0.008284 -0.002610 -0.001973 0.000000 -0.000815 0.000000
# 2 -0.002610 0.011996 -0.001987 0.000000 0.001246 0.000000
# 3 -0.001973 -0.001987 0.012353 0.000000 -0.003434 0.000000
# 4 0.000000 0.000000 0.000000 0.041888 0.000000 -0.015213
# 5 -0.000815 0.001246 -0.003434 0.000000 0.034323 0.000000
# 6 0.000000 0.000000 0.000000 -0.015213 0.000000 0.052050
#
#
# Mechanical properties :
#
#
# Convention : Reuss Voigt Hill
#
# Bulk Modulus (GPa) = 51.30371 54.81718 53.06044
# Shear Modulus (GPa) = 27.69590 31.71457 29.70523
#
# Velocity S-wave (km/s) = 3.80782 4.07472 3.94353
# Velocity P-wave (km/s) = 6.79642 7.12993 6.96517
#
# Compressibility (1/GPa) = 0.01949177
#
# Stress axis : x y z
#
# Youngs Moduli (GPa) = 120.71885 83.35952 80.95128
#
# Poissons Ratio (x) = 0.21759 0.15975
# Poissons Ratio (y) = 0.31510 0.16085
# Poissons Ratio (z) = 0.23823 0.16563
#
# Static dielectric constant tensor:
#      x y z
#    x 1.690550 0.000000 0.007560 
#    y 0.000000 1.665460 0.000000 
#    z 0.007560 0.000000 1.648160 
# 
# From -- ./inp_files/241433.got.cif
#   From: 2010.05.17/outbox.cif.g08.bks.cpg/sg12_121_cif.got.tgz:241433.got - 2010.06.03 13:09:07.
