data_PCOD9212762
_publ_section_title
;
Structure prediction by ZEFSAII (Michael W. Deem and Ramdas Pophale) SiO2 
 PCOD9212762
Probable space group: C 2/M
;
_chemical_formula_sum "Si O2"
_cell_formula_units_Z 52
_cell_length_a 12.110346
_cell_length_b 18.195977
_cell_length_c 15.413901
_cell_angle_alpha 90.000000
_cell_angle_beta 136.408631
_cell_angle_gamma 90.000000
_cell_volume 2341.991673
_symmetry_space_group_name_H-M "C 2/M"
_symmetry_group_IT_number 12
_symmetry_cell_setting 'monoclinic'
loop_
_space_group_symop_operation_xyz
x,y,z
-x,y,-z
-x,-y,-z
x,-y,z
1/2+x,1/2+y,z
1/2-x,1/2+y,-z
1/2-x,1/2-y,-z
1/2+x,1/2-y,z
loop_
_atom_site_type_symbol
_atom_site_label
_atom_site_fract_x
_atom_site_fract_y
_atom_site_fract_z
Si Si1 0.884940 0.081086 0.517964
Si Si2 0.385354 0.145630 0.731457
Si Si3 0.500000 0.321360 0.000000
Si Si4 0.718679 0.282819 0.781066
Si Si5 0.787122 0.414973 0.120424
Si Si6 0.427979 0.688679 0.700107
Si Si7 0.639982 0.141002 0.647455
O O1 0.703607 0.088816 0.381209
O O2 0.000000 0.088585 0.500000
O O3 0.909761 0.147198 0.598379
O O4 0.912381 0.000000 0.571879
O O5 0.282736 0.150455 0.760837
O O6 0.568689 0.124262 0.848186
O O7 0.373412 0.226942 0.682078
O O8 0.624570 0.266564 0.115189
O O9 0.617841 0.373967 0.013081
O O10 0.621618 0.304494 0.811729
O O11 0.609700 0.224948 0.664058
O O12 0.775040 0.500000 0.092174
O O13 0.838243 0.404667 0.251571
O O14 0.311144 0.643073 0.696087
O O15 0.500000 0.120221 0.500000
#
# Coordination Sequence:
#
# PCOD9212762 Si02
#       7
#     8   8   4   8   8   8   8
#     4  11  23  36  56  87 128 163 192 236 298 367
#     4  11  21  37  61  94 117 155 205 250 299 353
#     4  10  21  44  60  88 115 154 212 254 309 342
#     4  10  22  37  60  92 116 152 204 261 292 350
#     4  11  23  41  61  87 124 161 199 249 305 364
#     4  11  21  37  61  87 123 161 198 249 297 350
#     4  10  22  35  57  91 122 157 197 236 302 359
#
# _framework density 22.203325
#
# number of rings (size 3 to 8) (size 9 to 14) (size 15 to 20)
#    0.000    1.385    4.615    2.077    4.308    1.538 
#    2.769    0.000    0.000    0.000    0.000    2.692 
#    0.000    0.000    0.000    0.000    0.000    0.000 
#
# Total GULP energy -144995.361221 kJ/mol
# GULP energy per Si atom -5576.744662 kJ/mol
# Density = 2.215279 g / cm^3
# Si number density = 22.203325 Si / 1000 Ang^3
#
#
#
# Elastic Constant Matrix: (Units=GPa)
#
#
# Indices 1 2 3 4 5 6 
#
# 1 107.7823 6.5330 9.5759 0.0001 22.1511 0.0000
# 2 6.5330 70.0588 8.5140 0.0001 2.1465 0.0001
# 3 9.5759 8.5140 58.9129 0.0001 22.4802 0.0001
# 4 0.0001 0.0001 0.0001 15.8257 0.0001 -1.4057
# 5 22.1511 2.1465 22.4802 0.0001 31.1388 0.0001
# 6 0.0000 0.0001 0.0001 -1.4057 0.0001 5.5719
#
#
#
# Elastic Compliance Matrix: (Units=1/GPa)
#
#
# Indices 1 2 3 4 5 6 
#
# 1 0.011046 -0.000972 0.001819 0.000000 -0.009104 0.000000
# 2 -0.000972 0.014626 -0.002533 0.000000 0.001512 0.000000
# 3 0.001819 -0.002533 0.024115 0.000000 -0.018529 0.000000
# 4 0.000000 0.000000 0.000000 0.064637 0.000000 0.016306
# 5 -0.009104 0.001512 -0.018529 0.000000 0.051863 0.000000
# 6 0.000000 0.000000 0.000000 0.016306 0.000000 0.183585
#
#
# Mechanical properties :
#
#
# Convention : Reuss Voigt Hill
#
# Bulk Modulus (GPa) = 21.54449 31.77777 26.66113
# Shear Modulus (GPa) = 13.56059 24.64935 19.10497
#
# Velocity S-wave (km/s) = 2.47401 3.33553 2.93653
# Velocity P-wave (km/s) = 4.22910 5.40163 4.85092
#
# Compressibility (1/GPa) = 0.04641559
#
# Stress axis : x y z
#
# Youngs Moduli (GPa) = 90.52773 68.37215 41.46822
#
# Poissons Ratio (x) = 0.06647 -0.07543
# Poissons Ratio (y) = 0.08801 0.10502
# Poissons Ratio (z) = -0.16467 0.17315
#
# Static dielectric constant tensor:
#      x y z
#    x 1.889220 0.000000 -0.002080 
#    y 0.000000 1.788750 0.000000 
#    z -0.002080 0.000000 1.882860 
# 
# From -- ./inp_files/265124.got.cif
#   From: 2010.05.17/outbox.cif.g08.bks.cpg/sg12_133_cif.got.tgz:265124.got - 2010.06.03 13:09:07.
