data_PCOD9212783
_publ_section_title
;
Structure prediction by ZEFSAII (Michael W. Deem and Ramdas Pophale) SiO2 
 PCOD9212783
Probable space group: C 2/M
;
_chemical_formula_sum "Si O2"
_cell_formula_units_Z 64
_cell_length_a 8.070231
_cell_length_b 28.981535
_cell_length_c 16.339518
_cell_angle_alpha 90.000000
_cell_angle_beta 129.011516
_cell_angle_gamma 90.000000
_cell_volume 2969.466877
_symmetry_space_group_name_H-M "C 2/M"
_symmetry_group_IT_number 12
_symmetry_cell_setting 'monoclinic'
loop_
_space_group_symop_operation_xyz
x,y,z
-x,y,-z
-x,-y,-z
x,-y,z
1/2+x,1/2+y,z
1/2-x,1/2+y,-z
1/2-x,1/2-y,-z
1/2+x,1/2-y,z
loop_
_atom_site_type_symbol
_atom_site_label
_atom_site_fract_x
_atom_site_fract_y
_atom_site_fract_z
Si Si1 0.342273 0.287054 0.220186
Si Si2 0.416277 0.814497 0.179474
Si Si3 0.261392 0.448116 0.421392
Si Si4 0.345881 0.699284 0.530975
Si Si5 0.172742 0.613768 0.979864
Si Si6 0.520610 0.132551 0.631733
Si Si7 0.680442 0.947532 0.204255
Si Si8 0.982348 0.121629 0.203968
O O1 0.332198 0.234232 0.188246
O O2 0.122057 0.299811 0.192764
O O3 0.514786 0.298916 0.343907
O O4 0.400082 0.325343 0.171182
O O5 0.292052 0.846003 0.075761
O O6 0.482046 0.846021 0.277023
O O7 0.500000 0.428046 0.500000
O O8 0.271079 0.500000 0.457706
O O9 0.194269 0.449305 0.306003
O O10 0.092309 0.416347 0.412258
O O11 0.500000 0.690967 0.500000
O O12 0.250000 0.750000 0.500000
O O13 0.140747 0.666126 0.466653
O O14 0.046192 0.572249 0.896312
O O15 0.395995 0.600824 0.091739
O O16 0.000000 0.625997 0.000000
O O17 0.771335 0.125251 0.696411
O O18 0.854524 0.909719 0.229195
O O19 0.718028 0.000000 0.185206
#
# Coordination Sequence:
#
# PCOD9212783 Si02
#       8
#     8   8   8   8   8   8   8   8
#     4  12  23  42  62  93 131 172 219 272 316 394
#     4  12  23  42  67  91 130 174 228 264 329 383
#     4  10  22  42  68  96 126 167 213 259 328 402
#     4  12  25  40  65  92 126 171 220 271 323 386
#     4  10  21  44  67  94 129 168 221 275 318 396
#     4  12  24  40  65  95 133 174 208 278 325 384
#     4  10  21  44  75  99 127 170 220 273 332 398
#     4  11  26  41  61  97 135 165 217 272 330 381
#
# _framework density 21.552689999999998
#
# number of rings (size 3 to 8) (size 9 to 14) (size 15 to 20)
#    0.000    0.875    6.250    1.125    3.500    3.750 
#    0.000    0.000    0.000    3.750    0.000    0.000 
#    0.000    0.000    0.000    0.000    0.000    0.000 
#
# Total GULP energy -178590.313691 kJ/mol
# GULP energy per Si atom -5580.947303 kJ/mol
# Density = 2.150364 g / cm^3
# Si number density = 21.552690 Si / 1000 Ang^3
#
#
#
# Elastic Constant Matrix: (Units=GPa)
#
#
# Indices 1 2 3 4 5 6 
#
# 1 43.9311 24.1231 6.6151 0.0000 20.0340 0.0000
# 2 24.1231 103.0257 3.2834 0.0000 11.0234 0.0000
# 3 6.6151 3.2834 68.8785 0.0000 3.1152 0.0000
# 4 0.0000 0.0000 0.0000 2.5482 0.0000 -23.4127
# 5 20.0340 11.0234 3.1152 0.0000 34.6028 0.0000
# 6 0.0000 0.0000 0.0000 -23.4127 0.0000 9.7798
#
#
#
# Elastic Compliance Matrix: (Units=1/GPa)
#
#
# Indices 1 2 3 4 5 6 
#
# 1 0.034618 -0.006120 -0.002224 0.000000 -0.017893 0.000000
# 2 -0.006120 0.011139 0.000057 0.000000 -0.000010 0.000000
# 3 -0.002224 0.000057 0.014732 0.000000 -0.000057 0.000000
# 4 0.000000 0.000000 0.000000 -0.018691 0.000000 -0.044746
# 5 -0.017893 -0.000010 -0.000057 0.000000 0.039267 0.000000
# 6 0.000000 0.000000 0.000000 -0.044746 0.000000 -0.004870
#
#
# Mechanical properties :
#
#
# Convention : Reuss Voigt Hill
#
# Bulk Modulus (GPa) = 22.77123 31.54206 27.15665
# Shear Modulus (GPa) = 46.55195 21.50708 34.02951
#
# Velocity S-wave (km/s) = 4.65253 3.16236 3.97785
# Velocity P-wave (km/s) = 6.28090 5.29156 5.80734
#
# Compressibility (1/GPa) = 0.04391507
#
# Stress axis : x y z
#
# Youngs Moduli (GPa) = 28.88638 89.77758 67.88066
#
# Poissons Ratio (x) = 0.54948 0.15095
# Poissons Ratio (y) = 0.17680 -0.00389
# Poissons Ratio (z) = 0.06424 -0.00514
#
# Static dielectric constant tensor:
#      x y z
#    x 1.808070 0.000000 0.009480 
#    y 0.000000 1.802880 0.000000 
#    z 0.009480 0.000000 1.682400 
# 
# From -- ./inp_files/260398.got.cif
#   From: 2010.05.17/outbox.cif.g08.bks.cpg/sg12_131_cif.got.tgz:260398.got - 2010.06.03 13:09:07.
