data_PCOD9212431
_publ_section_title
;
Structure prediction by ZEFSAII (Michael W. Deem and Ramdas Pophale) SiO2 
 PCOD9212431
Probable space group: C 2/M
;
_chemical_formula_sum "Si O2"
_cell_formula_units_Z 60
_cell_length_a 21.888502
_cell_length_b 25.218865
_cell_length_c 11.548633
_cell_angle_alpha 90.000000
_cell_angle_beta 152.043309
_cell_angle_gamma 90.000000
_cell_volume 2988.570372
_symmetry_space_group_name_H-M "C 2/M"
_symmetry_group_IT_number 12
_symmetry_cell_setting 'monoclinic'
loop_
_space_group_symop_operation_xyz
x,y,z
-x,y,-z
-x,-y,-z
x,-y,z
1/2+x,1/2+y,z
1/2-x,1/2+y,-z
1/2-x,1/2-y,-z
1/2+x,1/2-y,z
loop_
_atom_site_type_symbol
_atom_site_label
_atom_site_fract_x
_atom_site_fract_y
_atom_site_fract_z
Si Si1 0.713441 0.655574 0.025429
Si Si2 0.878081 0.060436 0.978756
Si Si3 0.000000 0.686578 0.500000
Si Si4 0.008220 0.665608 0.875943
Si Si5 0.159738 0.562228 0.417591
Si Si6 0.834028 0.060862 0.491659
Si Si7 0.006448 0.238360 0.724351
Si Si8 0.698551 0.656413 0.724380
O O1 0.636747 0.703356 0.961992
O O2 0.687675 0.660297 0.844713
O O3 0.658082 0.601507 0.982821
O O4 0.867955 0.655893 0.307101
O O5 0.781663 0.067506 0.709213
O O6 0.861453 0.000000 0.990742
O O7 0.031495 0.067817 0.211632
O O8 0.962819 0.723678 0.331517
O O9 0.955480 0.721513 0.737081
O O10 0.939034 0.610411 0.722229
O O11 0.154461 0.665648 0.071578
O O12 0.000000 0.667321 0.000000
O O13 0.113629 0.500000 0.348221
O O14 0.214994 0.570817 0.380248
O O15 0.836404 0.099201 0.386465
O O16 0.826432 0.000000 0.442192
O O17 0.896380 0.197977 0.496740
#
# Coordination Sequence:
#
# PCOD9212431 Si02
#       8
#     8   8   4   8   8   8   8   8
#     4  12  24  42  69  93 130 175 217 270 326 394
#     4  10  22  41  67 101 132 169 218 270 327 388
#     4  12  22  40  65  90 121 172 220 254 314 396
#     4  12  26  44  66  98 135 167 216 277 323 384
#     4  10  22  44  70  96 133 176 215 263 328 394
#     4  10  21  41  70  98 130 172 219 269 326 389
#     4  12  24  44  66  93 128 175 219 266 321 385
#     4  12  24  43  65  98 131 170 221 269 325 390
#
# _framework density 20.07649
#
# number of rings (size 3 to 8) (size 9 to 14) (size 15 to 20)
#    0.000    0.800    5.333    2.400    0.000    3.467 
#    2.400    1.667    0.000    0.000    0.000    0.000 
#    0.000    0.000    0.000    0.000    0.000    0.000 
#
# Total GULP energy -167543.331949 kJ/mol
# GULP energy per Si atom -5584.777732 kJ/mol
# Density = 2.003079 g / cm^3
# Si number density = 20.076490 Si / 1000 Ang^3
#
#
#
# Elastic Constant Matrix: (Units=GPa)
#
#
# Indices 1 2 3 4 5 6 
#
# 1 61.5256 60.6860 20.0293 0.0000 2.6584 0.0000
# 2 60.6860 104.0339 43.2161 0.0000 3.6454 0.0000
# 3 20.0293 43.2161 61.7495 0.0000 13.9130 0.0000
# 4 0.0000 0.0000 0.0000 29.0811 0.0000 0.3571
# 5 2.6584 3.6454 13.9130 0.0000 34.2233 0.0000
# 6 0.0000 0.0000 0.0000 0.3571 0.0000 29.5785
#
#
#
# Elastic Compliance Matrix: (Units=1/GPa)
#
#
# Indices 1 2 3 4 5 6 
#
# 1 0.039397 -0.025130 0.005388 0.000000 -0.002574 0.000000
# 2 -0.025130 0.029804 -0.013686 0.000000 0.004341 0.000000
# 3 0.005388 -0.013686 0.026190 0.000000 -0.009608 0.000000
# 4 0.000000 0.000000 0.000000 0.034392 0.000000 -0.000415
# 5 -0.002574 0.004341 -0.009608 0.000000 0.032863 0.000000
# 6 0.000000 0.000000 0.000000 -0.000415 0.000000 0.033813
#
#
# Mechanical properties :
#
#
# Convention : Reuss Voigt Hill
#
# Bulk Modulus (GPa) = 35.04267 52.79688 43.91977
# Shear Modulus (GPa) = 18.32671 25.46841 21.89756
#
# Velocity S-wave (km/s) = 3.02461 3.56556 3.30617
# Velocity P-wave (km/s) = 5.44887 6.58072 6.04136
#
# Compressibility (1/GPa) = 0.02853664
#
# Stress axis : x y z
#
# Youngs Moduli (GPa) = 25.38248 33.55244 38.18306
#
# Poissons Ratio (x) = 0.84316 -0.20574
# Poissons Ratio (y) = 0.63785 0.52256
# Poissons Ratio (z) = -0.13677 0.45919
#
# Static dielectric constant tensor:
#      x y z
#    x 1.689010 0.000000 0.005620 
#    y 0.000000 1.721100 0.000000 
#    z 0.005620 0.000000 1.781980 
# 
# From -- ./inp_files/170397.got.cif
#   From: 2010.05.17/outbox.cif.g08.bks.cpg/sg12_86_cif.got.tgz:170397.got - 2010.06.03 13:09:07.
