data_PCOD9212436
_publ_section_title
;
Structure prediction by ZEFSAII (Michael W. Deem and Ramdas Pophale) SiO2 
 PCOD9212436
Probable space group: C 2/M
;
_chemical_formula_sum "Si O2"
_cell_formula_units_Z 38
_cell_length_a 18.246766
_cell_length_b 15.132716
_cell_length_c 5.145234
_cell_angle_alpha 90.000000
_cell_angle_beta 91.543864
_cell_angle_gamma 90.000000
_cell_volume 1420.202373
_symmetry_space_group_name_H-M "C 2/M"
_symmetry_group_IT_number 12
_symmetry_cell_setting 'monoclinic'
loop_
_space_group_symop_operation_xyz
x,y,z
-x,y,-z
-x,-y,-z
x,-y,z
1/2+x,1/2+y,z
1/2-x,1/2+y,-z
1/2-x,1/2-y,-z
1/2+x,1/2-y,z
loop_
_atom_site_type_symbol
_atom_site_label
_atom_site_fract_x
_atom_site_fract_y
_atom_site_fract_z
Si Si1 0.202189 0.894879 0.710545
Si Si2 0.075629 0.675970 0.436037
Si Si3 0.500000 0.000000 0.500000
Si Si4 0.799040 0.605153 0.227217
Si Si5 0.413261 0.679074 0.941905
Si Si6 0.948311 0.000000 0.742319
O O1 0.261416 0.881206 0.947872
O O2 0.131590 0.842095 0.802003
O O3 0.184555 0.000000 0.702696
O O4 0.242049 0.869991 0.449226
O O5 0.126815 0.654185 0.684855
O O6 0.111633 0.735826 0.220937
O O7 0.000000 0.724927 0.500000
O O8 0.045821 0.579231 0.350111
O O9 0.814608 0.500000 0.252855
O O10 0.403324 0.589926 0.767583
O O11 0.500000 0.688026 0.000000
O O12 0.000000 0.000000 0.500000
O O13 0.000000 0.000000 0.000000
#
# Coordination Sequence:
#
# PCOD9212436 Si02
#       6
#     8   8   2   8   8   4
#     4  10  23  41  68  99 138 186 229 280 351 407
#     4  10  21  41  70  99 136 179 235 283 352 410
#     4   8  20  44  66 100 136 182 222 302 348 404
#     4  10  21  43  67  98 136 180 232 287 345 415
#     4  11  24  42  65 103 140 184 237 286 340 421
#     4  10  22  40  62  93 138 180 217 282 337 390
#
# _framework density 26.756747000000001
#
# number of rings (size 3 to 8) (size 9 to 14) (size 15 to 20)
#    0.632    1.263    2.105    0.632    0.000    8.421 
#    0.000    0.526    0.000    0.000    0.000    0.000 
#    0.000    0.000    0.000    0.000    0.000    0.000 
#
# Total GULP energy -106284.326367 kJ/mol
# GULP energy per Si atom -5593.911914 kJ/mol
# Density = 2.669585 g / cm^3
# Si number density = 26.756747 Si / 1000 Ang^3
#
#
#
# Elastic Constant Matrix: (Units=GPa)
#
#
# Indices 1 2 3 4 5 6 
#
# 1 139.0818 21.4043 8.4474 0.0000 14.8530 0.0000
# 2 21.4043 159.0614 43.5938 0.0000 -1.5527 0.0000
# 3 8.4474 43.5938 101.3168 0.0000 4.0533 0.0000
# 4 0.0000 0.0000 0.0000 41.1060 0.0000 4.6791
# 5 14.8530 -1.5527 4.0533 0.0000 31.8000 0.0000
# 6 0.0000 0.0000 0.0000 4.6791 0.0000 15.2249
#
#
#
# Elastic Compliance Matrix: (Units=1/GPa)
#
#
# Indices 1 2 3 4 5 6 
#
# 1 0.007748 -0.001067 -0.000040 0.000000 -0.003666 0.000000
# 2 -0.001067 0.007292 -0.003098 0.000000 0.001250 0.000000
# 3 -0.000040 -0.003098 0.011269 0.000000 -0.001569 0.000000
# 4 0.000000 0.000000 0.000000 0.025209 0.000000 -0.007748
# 5 -0.003666 0.001250 -0.001569 0.000000 0.033420 0.000000
# 6 0.000000 0.000000 0.000000 -0.007748 0.000000 0.068063
#
#
# Mechanical properties :
#
#
# Convention : Reuss Voigt Hill
#
# Bulk Modulus (GPa) = 55.87385 60.70567 58.28976
# Shear Modulus (GPa) = 29.87227 39.36049 34.61638
#
# Velocity S-wave (km/s) = 3.34494 3.83959 3.60077
# Velocity P-wave (km/s) = 5.98712 6.51105 6.25458
#
# Compressibility (1/GPa) = 0.01789746
#
# Stress axis : x y z
#
# Youngs Moduli (GPa) = 129.06165 137.13803 88.73637
#
# Poissons Ratio (x) = 0.14639 0.00355
# Poissons Ratio (y) = 0.13777 0.27495
# Poissons Ratio (z) = 0.00517 0.42492
#
# Static dielectric constant tensor:
#      x y z
#    x 2.112680 0.000000 -0.012590 
#    y 0.000000 2.058760 0.000000 
#    z -0.012590 0.000000 2.115220 
# 
# From -- ./inp_files/20151.got.cif
#   From: 2010.05.17/outbox.cif.g08.bks.cpg/sg12_11_cif.got.tgz:20151.got - 2010.06.03 13:09:07.
