data_PCOD9212532
_publ_section_title
;
Structure prediction by ZEFSAII (Michael W. Deem and Ramdas Pophale) SiO2 
 PCOD9212532
Probable space group: C 2/M
;
_chemical_formula_sum "Si O2"
_cell_formula_units_Z 64
_cell_length_a 24.199652
_cell_length_b 8.837277
_cell_length_c 14.737752
_cell_angle_alpha 90.000000
_cell_angle_beta 76.681593
_cell_angle_gamma 90.000000
_cell_volume 3067.033357
_symmetry_space_group_name_H-M "C 2/M"
_symmetry_group_IT_number 12
_symmetry_cell_setting 'monoclinic'
loop_
_space_group_symop_operation_xyz
x,y,z
-x,y,-z
-x,-y,-z
x,-y,z
1/2+x,1/2+y,z
1/2-x,1/2+y,-z
1/2-x,1/2-y,-z
1/2+x,1/2-y,z
loop_
_atom_site_type_symbol
_atom_site_label
_atom_site_fract_x
_atom_site_fract_y
_atom_site_fract_z
Si Si1 0.928701 0.825368 0.931169
Si Si2 0.542903 0.680558 0.366204
Si Si3 0.572655 0.817481 0.551581
Si Si4 0.330657 0.822092 0.216181
Si Si5 0.868052 0.676855 0.803163
Si Si6 0.942084 0.174349 0.142919
Si Si7 0.745220 0.319833 0.902056
Si Si8 0.801930 0.317577 0.424387
O O1 0.886383 0.711016 0.899644
O O2 0.991561 0.798002 0.867007
O O3 0.912467 0.000000 0.917502
O O4 0.933810 0.811904 0.037119
O O5 0.538815 0.500000 0.374649
O O6 0.563125 0.752210 0.454109
O O7 0.480103 0.748502 0.371991
O O8 0.589646 0.727977 0.275006
O O9 0.635555 0.775015 0.561744
O O10 0.568093 0.000000 0.552643
O O11 0.397013 0.784845 0.204243
O O12 0.307323 0.737419 0.137022
O O13 0.299366 0.771808 0.319783
O O14 0.322681 0.000000 0.206953
O O15 0.874332 0.500000 0.779339
O O16 0.802115 0.719923 0.823848
O O17 0.929721 0.000000 0.172710
O O18 0.742691 0.500000 0.912312
O O19 0.750000 0.250000 0.000000
O O20 0.799023 0.500000 0.429361
O O21 0.750000 0.250000 0.500000
#
# Coordination Sequence:
#
# PCOD9212532 Si02
#       8
#     8   8   8   8   8   8   8   8
#     4   9  19  36  58  88 123 157 200 247 299 360
#     4  11  23  39  63  95 124 160 206 254 308 370
#     4  10  21  42  66  91 127 164 201 253 312 368
#     4  11  24  41  62  93 126 162 209 258 309 371
#     4  11  24  39  59  88 122 159 203 253 310 370
#     4   9  19  37  60  87 122 162 199 245 301 363
#     4  11  25  44  66  92 124 167 213 262 318 374
#     4  10  25  44  65  93 127 166 209 258 312 369
#
# _framework density 20.867069999999998
#
# number of rings (size 3 to 8) (size 9 to 14) (size 15 to 20)
#    0.000    1.750    0.000    4.875    3.500    7.000 
#    0.000    1.250    0.000    0.000    0.000    0.000 
#    0.000    0.000    0.000    0.000    0.000    0.000 
#
# Total GULP energy -178894.925635 kJ/mol
# GULP energy per Si atom -5590.466426 kJ/mol
# Density = 2.081958 g / cm^3
# Si number density = 20.867070 Si / 1000 Ang^3
#
#
#
# Elastic Constant Matrix: (Units=GPa)
#
#
# Indices 1 2 3 4 5 6 
#
# 1 102.7895 36.6797 28.6241 0.0000 -9.0502 0.0000
# 2 36.6797 55.9696 28.5142 0.0000 -13.2264 0.0000
# 3 28.6241 28.5142 78.2357 0.0000 -16.1940 0.0000
# 4 0.0000 0.0000 0.0000 29.3076 0.0000 -4.6384
# 5 -9.0502 -13.2264 -16.1940 0.0000 32.0536 0.0000
# 6 0.0000 0.0000 0.0000 -4.6384 0.0000 26.8707
#
#
#
# Elastic Compliance Matrix: (Units=1/GPa)
#
#
# Indices 1 2 3 4 5 6 
#
# 1 0.012960 -0.007546 -0.002098 0.000000 -0.000514 0.000000
# 2 -0.007546 0.027273 -0.005909 0.000000 0.006138 0.000000
# 3 -0.002098 -0.005909 0.016836 0.000000 0.005476 0.000000
# 4 0.000000 0.000000 0.000000 0.035079 0.000000 0.006055
# 5 -0.000514 0.006138 0.005476 0.000000 0.036352 0.000000
# 6 0.000000 0.000000 0.000000 0.006055 0.000000 0.038261
#
#
# Mechanical properties :
#
#
# Convention : Reuss Voigt Hill
#
# Bulk Modulus (GPa) = 38.51491 47.18121 42.84806
# Shear Modulus (GPa) = 24.21057 27.19151 25.70104
#
# Velocity S-wave (km/s) = 3.40991 3.61374 3.51330
# Velocity P-wave (km/s) = 5.83101 6.33021 6.08573
#
# Compressibility (1/GPa) = 0.02596397
#
# Stress axis : x y z
#
# Youngs Moduli (GPa) = 77.15808 36.66630 59.39545
#
# Poissons Ratio (x) = 0.27670 0.12461
# Poissons Ratio (y) = 0.58226 0.35094
# Poissons Ratio (z) = 0.16187 0.21665
#
# Static dielectric constant tensor:
#      x y z
#    x 1.748920 0.000000 -0.007130 
#    y 0.000000 1.701640 0.000000 
#    z -0.007130 0.000000 1.773170 
# 
# From -- ./inp_files/243838.got.cif
#   From: 2010.05.17/outbox.cif.g08.bks.cpg/sg12_122_cif.got.tgz:243838.got - 2010.06.03 13:09:07.
