data_PCOD9212482
_publ_section_title
;
Structure prediction by ZEFSAII (Michael W. Deem and Ramdas Pophale) SiO2 
 PCOD9212482
Probable space group: C 2/M
;
_chemical_formula_sum "Si O2"
_cell_formula_units_Z 40
_cell_length_a 11.229145
_cell_length_b 31.490612
_cell_length_c 4.971089
_cell_angle_alpha 90.000000
_cell_angle_beta 87.661851
_cell_angle_gamma 90.000000
_cell_volume 1756.376462
_symmetry_space_group_name_H-M "C 2/M"
_symmetry_group_IT_number 12
_symmetry_cell_setting 'monoclinic'
loop_
_space_group_symop_operation_xyz
x,y,z
-x,y,-z
-x,-y,-z
x,-y,z
1/2+x,1/2+y,z
1/2-x,1/2+y,-z
1/2-x,1/2-y,-z
1/2+x,1/2-y,z
loop_
_atom_site_type_symbol
_atom_site_label
_atom_site_fract_x
_atom_site_fract_y
_atom_site_fract_z
Si Si1 0.364408 0.048608 0.411596
Si Si2 0.373893 0.737756 0.839079
Si Si3 0.582201 0.644411 0.244556
Si Si4 0.578677 0.173104 0.261339
Si Si5 0.724068 0.903617 0.073924
O O1 0.500000 0.048736 0.500000
O O2 0.361948 0.075255 0.137171
O O3 0.328673 0.000000 0.358459
O O4 0.281963 0.067854 0.658122
O O5 0.360321 0.691204 0.706921
O O6 0.387593 0.779423 0.651738
O O7 0.500000 0.737665 0.000000
O O8 0.250000 0.750000 0.000000
O O9 0.500000 0.632065 0.500000
O O10 0.664015 0.606768 0.126454
O O11 0.500000 0.653261 0.000000
O O12 0.500000 0.152428 0.500000
O O13 0.500000 0.175060 0.000000
O O14 0.687820 0.142971 0.183535
#
# Coordination Sequence:
#
# PCOD9212482 Si02
#       5
#     8   8   8   8   8
#     4  11  24  42  67  99 132 162 200 261 341 414
#     4  10  21  42  62  94 135 182 225 276 330 385
#     4  11  24  43  64  92 130 178 223 272 321 382
#     4  11  22  37  59  93 128 168 216 266 311 378
#     4  12  22  40  67  93 129 169 215 262 324 391
#
# _framework density 22.774162
#
# number of rings (size 3 to 8) (size 9 to 14) (size 15 to 20)
#    0.000    1.000    2.000    6.000    0.000    1.600 
#    0.000    4.000    0.000   12.000    0.000    0.000 
#    0.000    0.000    0.000    0.000    0.000    0.000 
#
# Total GULP energy -111629.845560 kJ/mol
# GULP energy per Si atom -5581.492278 kJ/mol
# Density = 2.272233 g / cm^3
# Si number density = 22.774162 Si / 1000 Ang^3
#
#
#
# Elastic Constant Matrix: (Units=GPa)
#
#
# Indices 1 2 3 4 5 6 
#
# 1 59.7853 9.5887 23.3628 0.0000 -22.5378 0.0000
# 2 9.5887 93.9665 19.6124 0.0000 -5.3086 0.0000
# 3 23.3628 19.6124 144.2202 0.0000 -29.9434 0.0000
# 4 0.0000 0.0000 0.0000 -39.4017 0.0000 -22.8373
# 5 -22.5378 -5.3086 -29.9434 0.0000 52.5706 0.0000
# 6 0.0000 0.0000 0.0000 -22.8373 0.0000 21.4539
#
#
#
# Elastic Compliance Matrix: (Units=1/GPa)
#
#
# Indices 1 2 3 4 5 6 
#
# 1 0.020464 -0.001332 -0.001520 0.000000 0.007773 0.000000
# 2 -0.001332 0.011044 -0.001330 0.000000 -0.000214 0.000000
# 3 -0.001520 -0.001330 0.008163 0.000000 0.003864 0.000000
# 4 0.000000 0.000000 0.000000 -0.015696 0.000000 -0.016708
# 5 0.007773 -0.000214 0.003864 0.000000 0.024534 0.000000
# 6 0.000000 0.000000 0.000000 -0.016708 0.000000 0.028826
#
#
# Mechanical properties :
#
#
# Convention : Reuss Voigt Hill
#
# Bulk Modulus (GPa) = 31.94228 44.78886 38.36557
# Shear Modulus (GPa) = 52.00982 23.28509 37.64745
#
# Velocity S-wave (km/s) = 4.78401 3.20102 4.07022
# Velocity P-wave (km/s) = 6.67621 5.77679 6.24272
#
# Compressibility (1/GPa) = 0.03130647
#
# Stress axis : x y z
#
# Youngs Moduli (GPa) = 48.86524 90.55013 122.50131
#
# Poissons Ratio (x) = 0.12060 0.18622
# Poissons Ratio (y) = 0.06508 0.16298
# Poissons Ratio (z) = 0.07428 0.12047
#
# Static dielectric constant tensor:
#      x y z
#    x 1.950790 0.000000 -0.022050 
#    y 0.000000 1.916720 0.000000 
#    z -0.022050 0.000000 1.814210 
# 
# From -- ./inp_files/8329.got.cif
#   From: 2010.05.17/outbox.cif.g08.bks.cpg/sg12_5_cif.got.tgz:8329.got - 2010.06.03 13:09:07.
