data_PCOD9212832
_publ_section_title
;
Structure prediction by ZEFSAII (Michael W. Deem and Ramdas Pophale) SiO2 
 PCOD9212832
Probable space group: C 2/M
;
_chemical_formula_sum "Si O2"
_cell_formula_units_Z 44
_cell_length_a 13.902839
_cell_length_b 29.155965
_cell_length_c 8.301072
_cell_angle_alpha 90.000000
_cell_angle_beta 37.742826
_cell_angle_gamma 90.000000
_cell_volume 2059.683258
_symmetry_space_group_name_H-M "C 2/M"
_symmetry_group_IT_number 12
_symmetry_cell_setting 'monoclinic'
loop_
_space_group_symop_operation_xyz
x,y,z
-x,y,-z
-x,-y,-z
x,-y,z
1/2+x,1/2+y,z
1/2-x,1/2+y,-z
1/2-x,1/2-y,-z
1/2+x,1/2-y,z
loop_
_atom_site_type_symbol
_atom_site_label
_atom_site_fract_x
_atom_site_fract_y
_atom_site_fract_z
Si Si1 0.380723 0.949995 0.310218
Si Si2 0.500000 0.073437 0.500000
Si Si3 0.799244 0.122837 0.954236
Si Si4 0.096908 0.767324 0.537304
Si Si5 0.336236 0.374464 0.531013
Si Si6 0.631912 0.293095 0.932640
O O1 0.460204 0.950029 0.381287
O O2 0.271705 0.905037 0.440450
O O3 0.298585 0.000000 0.401247
O O4 0.500000 0.947365 0.000000
O O5 0.338853 0.099730 0.761413
O O6 0.776417 0.117743 0.793523
O O7 0.800616 0.174915 0.017503
O O8 0.982926 0.108969 0.731074
O O9 0.159485 0.819003 0.486914
O O10 0.000000 0.769136 0.500000
O O11 0.972624 0.754999 0.839930
O O12 0.231585 0.730265 0.345633
O O13 0.500000 0.318754 0.000000
#
# Coordination Sequence:
#
# PCOD9212832 Si02
#       6
#     8   4   8   8   8   8
#     4  11  25  47  73 105 140 174 222 284 346 412
#     4  12  25  42  74 106 132 178 228 284 337 414
#     4  10  23  41  65  97 138 177 228 276 334 403
#     4  11  22  40  63  88 134 177 230 277 331 393
#     4  10  21  46  67  94 138 185 217 275 349 407
#     4  11  24  39  57  95 133 180 227 284 323 391
#
# _framework density 21.362507999999998
#
# number of rings (size 3 to 8) (size 9 to 14) (size 15 to 20)
#    0.000    1.273    5.455    1.364    6.364    0.727 
#    0.000    4.545    0.000    0.000    0.000    0.000 
#    0.000    0.000    0.000    0.000    0.000    0.000 
#
# Total GULP energy -122622.531654 kJ/mol
# GULP energy per Si atom -5573.751439 kJ/mol
# Density = 2.131389 g / cm^3
# Si number density = 21.362508 Si / 1000 Ang^3
#
#
#
# Elastic Constant Matrix: (Units=GPa)
#
#
# Indices 1 2 3 4 5 6 
#
# 1 115.3749 43.7361 24.2602 0.0000 15.3397 0.0000
# 2 43.7361 44.8194 19.6717 0.0000 -13.1172 0.0000
# 3 24.2602 19.6717 143.6674 0.0000 18.1346 0.0000
# 4 0.0000 0.0000 0.0000 -7.6922 0.0000 -19.4097
# 5 15.3397 -13.1172 18.1346 0.0000 30.6443 0.0000
# 6 0.0000 0.0000 0.0000 -19.4097 0.0000 -4.6856
#
#
#
# Elastic Compliance Matrix: (Units=1/GPa)
#
#
# Indices 1 2 3 4 5 6 
#
# 1 0.025232 -0.035482 0.004441 0.000000 -0.030447 0.000000
# 2 -0.035482 0.079709 -0.012397 0.000000 0.059217 0.000000
# 3 0.004441 -0.012397 0.009574 0.000000 -0.013195 0.000000
# 4 0.000000 0.000000 0.000000 0.013753 0.000000 -0.056971
# 5 -0.030447 0.059217 -0.013195 0.000000 0.081030 0.000000
# 6 0.000000 0.000000 0.000000 -0.056971 0.000000 0.022578
#
#
# Mechanical properties :
#
#
# Convention : Reuss Voigt Hill
#
# Bulk Modulus (GPa) = 36.18309 53.24417 44.71363
# Shear Modulus (GPa) = 15.24553 18.06622 16.65588
#
# Velocity S-wave (km/s) = 2.67434 2.91124 2.79530
# Velocity P-wave (km/s) = 5.14884 6.02318 5.60309
#
# Compressibility (1/GPa) = 0.02763722
#
# Stress axis : x y z
#
# Youngs Moduli (GPa) = 39.63191 12.54569 104.45298
#
# Poissons Ratio (x) = 0.44515 -0.46385
# Poissons Ratio (y) = 1.40623 1.29493
# Poissons Ratio (z) = -0.17600 0.15553
#
# Static dielectric constant tensor:
#      x y z
#    x 1.851110 0.000000 0.038460 
#    y 0.000000 1.761350 0.000000 
#    z 0.038460 0.000000 1.799430 
# 
# From -- ./inp_files/66759.got.cif
#   From: 2010.05.17/outbox.cif.g08.bks.cpg/sg12_34_cif.got.tgz:66759.got - 2010.06.03 13:09:07.
