data_PCOD9212508
_publ_section_title
;
Structure prediction by ZEFSAII (Michael W. Deem and Ramdas Pophale) SiO2 
 PCOD9212508
Probable space group: C 2/M
;
_chemical_formula_sum "Si O2"
_cell_formula_units_Z 52
_cell_length_a 29.376128
_cell_length_b 11.967511
_cell_length_c 9.824749
_cell_angle_alpha 90.000000
_cell_angle_beta 57.993674
_cell_angle_gamma 90.000000
_cell_volume 2928.939280
_symmetry_space_group_name_H-M "C 2/M"
_symmetry_group_IT_number 12
_symmetry_cell_setting 'monoclinic'
loop_
_space_group_symop_operation_xyz
x,y,z
-x,y,-z
-x,-y,-z
x,-y,z
1/2+x,1/2+y,z
1/2-x,1/2+y,-z
1/2-x,1/2-y,-z
1/2+x,1/2-y,z
loop_
_atom_site_type_symbol
_atom_site_label
_atom_site_fract_x
_atom_site_fract_y
_atom_site_fract_z
Si Si1 0.266612 0.122340 0.312884
Si Si2 0.413499 0.366921 0.156993
Si Si3 0.485851 0.633483 0.803794
Si Si4 0.113338 0.368780 0.386420
Si Si5 0.500000 0.240124 0.500000
Si Si6 0.786076 0.364527 0.971760
Si Si7 0.670776 0.225146 0.556973
O O1 0.306981 0.132211 0.375401
O O2 0.221629 0.215556 0.406880
O O3 0.240479 0.000000 0.355547
O O4 0.293442 0.136676 0.123082
O O5 0.406740 0.500000 0.161381
O O6 0.461306 0.344135 0.189005
O O7 0.360437 0.310293 0.295838
O O8 0.435403 0.327993 0.975520
O O9 0.481852 0.500000 0.796512
O O10 0.490835 0.687405 0.649720
O O11 0.111238 0.500000 0.412089
O O12 0.054758 0.327908 0.435479
O O13 0.159541 0.347848 0.200232
O O14 0.132360 0.313827 0.497345
O O15 0.768656 0.500000 0.970088
O O16 0.750000 0.250000 0.000000
#
# Coordination Sequence:
#
# PCOD9212508 Si02
#       7
#     8   8   8   8   4   8   8
#     4  10  22  37  59  88 118 152 198 248 301 363
#     4   9  18  35  56  81 113 151 186 234 297 353
#     4   9  19  35  56  83 114 145 188 242 291 347
#     4  11  24  40  60  84 120 161 201 251 302 356
#     4  12  22  38  60  86 118 158 206 240 294 358
#     4  10  21  42  64  91 124 162 202 254 315 363
#     4  11  20  37  61  83 118 151 200 239 301 358
#
# _framework density 17.753867
#
# number of rings (size 3 to 8) (size 9 to 14) (size 15 to 20)
#    0.000    1.846    3.077    2.308    2.154    0.000 
#    0.000    2.308    0.000    0.923    0.000    0.000 
#    0.000    0.000    0.000    0.000    0.000    0.000 
#
# Total GULP energy -144770.627910 kJ/mol
# GULP energy per Si atom -5568.101073 kJ/mol
# Density = 1.771346 g / cm^3
# Si number density = 17.753867 Si / 1000 Ang^3
#
#
#
# Elastic Constant Matrix: (Units=GPa)
#
#
# Indices 1 2 3 4 5 6 
#
# 1 64.2002 31.1868 28.7271 0.0000 -4.0389 0.0000
# 2 31.1868 61.7697 42.1441 0.0000 4.1305 0.0000
# 3 28.7271 42.1441 130.5333 0.0000 3.2173 0.0000
# 4 0.0000 0.0000 0.0000 33.6018 0.0000 5.7101
# 5 -4.0389 4.1305 3.2173 0.0000 24.0545 0.0000
# 6 0.0000 0.0000 0.0000 5.7101 0.0000 43.5149
#
#
#
# Elastic Compliance Matrix: (Units=1/GPa)
#
#
# Indices 1 2 3 4 5 6 
#
# 1 0.021591 -0.010181 -0.001602 0.000000 0.005588 0.000000
# 2 -0.010181 0.025737 -0.005937 0.000000 -0.005335 0.000000
# 3 -0.001602 -0.005937 0.009945 0.000000 -0.000580 0.000000
# 4 0.000000 0.000000 0.000000 0.030439 0.000000 -0.003994
# 5 0.005588 -0.005335 -0.000580 0.000000 0.043504 0.000000
# 6 0.000000 0.000000 0.000000 -0.003994 0.000000 0.023505
#
#
# Mechanical properties :
#
#
# Convention : Reuss Voigt Hill
#
# Bulk Modulus (GPa) = 45.80689 51.17992 48.49340
# Shear Modulus (GPa) = 25.32426 30.53059 27.92743
#
# Velocity S-wave (km/s) = 3.78088 4.15138 3.97045
# Velocity P-wave (km/s) = 6.70203 7.20199 6.95650
#
# Compressibility (1/GPa) = 0.02183078
#
# Stress axis : x y z
#
# Youngs Moduli (GPa) = 46.31661 38.85407 100.55599
#
# Poissons Ratio (x) = 0.39559 0.16110
# Poissons Ratio (y) = 0.47157 0.59704
# Poissons Ratio (z) = 0.07420 0.23069
#
# Static dielectric constant tensor:
#      x y z
#    x 1.606490 0.000000 -0.009050 
#    y 0.000000 1.620160 0.000000 
#    z -0.009050 0.000000 1.596000 
# 
# From -- ./inp_files/103078.got.cif
#   From: 2010.05.17/outbox.cif.g08.bks.cpg/sg12_52_cif.got.tgz:103078.got - 2010.06.03 13:09:07.
