data_PCOD9212590
_publ_section_title
;
Structure prediction by ZEFSAII (Michael W. Deem and Ramdas Pophale) SiO2 
 PCOD9212590
Probable space group: C 2/M
;
_chemical_formula_sum "Si O2"
_cell_formula_units_Z 58
_cell_length_a 17.430725
_cell_length_b 18.194562
_cell_length_c 16.280539
_cell_angle_alpha 90.000000
_cell_angle_beta 32.182495
_cell_angle_gamma 90.000000
_cell_volume 2750.055436
_symmetry_space_group_name_H-M "C 2/M"
_symmetry_group_IT_number 12
_symmetry_cell_setting 'monoclinic'
loop_
_space_group_symop_operation_xyz
x,y,z
-x,y,-z
-x,-y,-z
x,-y,z
1/2+x,1/2+y,z
1/2-x,1/2+y,-z
1/2-x,1/2-y,-z
1/2+x,1/2-y,z
loop_
_atom_site_type_symbol
_atom_site_label
_atom_site_fract_x
_atom_site_fract_y
_atom_site_fract_z
Si Si1 0.843290 0.854116 0.121779
Si Si2 0.416431 0.384415 0.721794
Si Si3 0.737707 0.417457 0.974765
Si Si4 0.876174 0.658991 0.550123
Si Si5 0.786673 0.187282 0.567744
Si Si6 0.663375 0.178531 0.852489
Si Si7 0.500000 0.500000 0.500000
Si Si8 0.936057 0.586547 0.328912
O O1 0.729956 0.882459 0.291453
O O2 0.844646 0.766400 0.134922
O O3 0.803786 0.866628 0.063456
O O4 0.000000 0.884430 0.000000
O O5 0.374775 0.415418 0.848671
O O6 0.552319 0.330833 0.606643
O O7 0.267482 0.347365 0.829485
O O8 0.462919 0.437689 0.605291
O O9 0.741141 0.500000 0.937653
O O10 0.902633 0.401853 0.851812
O O11 0.791252 0.724986 0.580164
O O12 0.939227 0.606924 0.422631
O O13 0.000000 0.690228 0.500000
O O14 0.743330 0.156529 0.696375
O O15 0.674183 0.144296 0.612145
O O16 0.500000 0.149394 0.000000
O O17 0.896053 0.500000 0.352884
#
# Coordination Sequence:
#
# PCOD9212590 Si02
#       8
#     8   8   8   8   8   8   2   8
#     4  10  23  42  66  97 131 172 226 281 334 396
#     4  12  24  42  68  97 131 178 222 281 334 399
#     4  11  25  44  63  95 138 178 221 276 335 403
#     4  11  22  45  71  96 134 181 230 282 335 404
#     4  11  23  41  67  98 133 170 226 284 336 398
#     4  10  21  42  68  95 130 171 221 275 337 402
#     4  12  24  44  66 100 130 178 226 272 340 412
#     4  11  26  43  65 100 140 181 224 275 343 412
#
# _framework density 21.090485000000001
#
# number of rings (size 3 to 8) (size 9 to 14) (size 15 to 20)
#    0.000    1.103    3.448    2.897    2.897    1.655 
#    2.483    0.345    0.000    0.000    0.000    0.000 
#    0.000    0.000    0.000    0.000    0.000    0.000 
#
# Total GULP energy -161470.471296 kJ/mol
# GULP energy per Si atom -5567.947286 kJ/mol
# Density = 2.104248 g / cm^3
# Si number density = 21.090485 Si / 1000 Ang^3
#
#
#
# Elastic Constant Matrix: (Units=GPa)
#
#
# Indices 1 2 3 4 5 6 
#
# 1 96.3500 33.5998 42.1356 -0.0003 5.4911 0.0002
# 2 33.5998 32.0608 27.7565 -0.0006 6.8997 0.0001
# 3 42.1356 27.7565 138.0852 -0.0009 14.5576 0.0004
# 4 -0.0003 -0.0006 -0.0009 10.4406 0.0003 8.6679
# 5 5.4911 6.8997 14.5576 0.0003 42.9290 -0.0002
# 6 0.0002 0.0001 0.0004 8.6679 -0.0002 15.6022
#
#
#
# Elastic Compliance Matrix: (Units=1/GPa)
#
#
# Indices 1 2 3 4 5 6 
#
# 1 0.016817 -0.016127 -0.002008 -0.000001 0.001122 0.000001
# 2 -0.016127 0.053780 -0.005388 0.000004 -0.004754 -0.000003
# 3 -0.002008 -0.005388 0.009146 0.000001 -0.001979 -0.000001
# 4 -0.000001 0.000004 0.000001 0.177775 -0.000003 -0.098763
# 5 0.001122 -0.004754 -0.001979 -0.000003 0.024586 0.000002
# 6 0.000001 -0.000003 -0.000001 -0.098763 0.000002 0.118962
#
#
# Mechanical properties :
#
#
# Convention : Reuss Voigt Hill
#
# Bulk Modulus (GPa) = 30.58443 52.60886 41.59664
# Shear Modulus (GPa) = 10.89298 24.66129 17.77714
#
# Velocity S-wave (km/s) = 2.27510 3.42323 2.90642
# Velocity P-wave (km/s) = 4.62974 6.37363 5.57035
#
# Compressibility (1/GPa) = 0.03269637
#
# Stress axis : x y z
#
# Youngs Moduli (GPa) = 59.46342 18.59439 109.33345
#
# Poissons Ratio (x) = 0.29988 0.21956
# Poissons Ratio (y) = 0.95898 0.58909
# Poissons Ratio (z) = 0.11941 0.10019
#
# Static dielectric constant tensor:
#      x y z
#    x 1.770460 0.000000 -0.027520 
#    y 0.000000 1.750050 0.000000 
#    z -0.027520 0.000000 1.775120 
# 
# From -- ./inp_files/278803.got.cif
#   From: 2010.05.17/outbox.cif.g08.bks.cpg/sg12_140_cif.got.tgz:278803.got - 2010.06.03 13:09:07.
