data_PCOD9212302
_publ_section_title
;
Structure prediction by ZEFSAII (Michael W. Deem and Ramdas Pophale) SiO2 
 PCOD9212302
Probable space group: C 2/M
;
_chemical_formula_sum "Si O2"
_cell_formula_units_Z 48
_cell_length_a 21.843218
_cell_length_b 17.839174
_cell_length_c 5.243833
_cell_angle_alpha 90.000000
_cell_angle_beta 84.264797
_cell_angle_gamma 90.000000
_cell_volume 2033.109795
_symmetry_space_group_name_H-M "C 2/M"
_symmetry_group_IT_number 12
_symmetry_cell_setting 'monoclinic'
loop_
_space_group_symop_operation_xyz
x,y,z
-x,y,-z
-x,-y,-z
x,-y,z
1/2+x,1/2+y,z
1/2-x,1/2+y,-z
1/2-x,1/2-y,-z
1/2+x,1/2-y,z
loop_
_atom_site_type_symbol
_atom_site_label
_atom_site_fract_x
_atom_site_fract_y
_atom_site_fract_z
Si Si1 0.434622 0.850431 0.910883
Si Si2 0.433056 0.682361 0.061357
Si Si3 0.820178 0.088159 0.882626
Si Si4 0.156474 0.797018 0.495271
Si Si5 0.370447 0.088968 0.431397
Si Si6 0.229796 0.325079 0.245623
O O1 0.415740 0.884140 0.644609
O O2 0.500000 0.877147 0.000000
O O3 0.438008 0.760112 0.903530
O O4 0.387123 0.875044 0.152189
O O5 0.379517 0.625996 0.995472
O O6 0.410132 0.708227 0.351948
O O7 0.500000 0.646681 0.000000
O O8 0.756863 0.125302 0.007714
O O9 0.818757 0.000000 0.910811
O O10 0.831515 0.118101 0.593956
O O11 0.178468 0.740675 0.262324
O O12 0.208743 0.782785 0.684473
O O13 0.303765 0.117671 0.549480
O O14 0.372985 0.000000 0.410197
#
# Coordination Sequence:
#
# PCOD9212302 Si02
#       6
#     8   8   8   8   8   8
#     4  11  25  45  68  96 135 182 233 282 338 410
#     4  10  23  43  68  94 127 175 230 282 339 412
#     4  11  24  40  64  96 135 174 219 287 353 408
#     4  10  21  41  67  92 126 173 224 281 332 411
#     4  12  25  41  67 101 139 179 226 284 346 410
#     4  10  22  40  64  95 128 175 222 275 333 410
#
# _framework density 23.609154
#
# number of rings (size 3 to 8) (size 9 to 14) (size 15 to 20)
#    0.000    1.333    1.667    3.000    2.333    6.333 
#    0.000    0.833    0.000    0.000    0.000    0.000 
#    0.000    0.000    0.000    0.000    0.000    0.000 
#
# Total GULP energy -133983.012194 kJ/mol
# GULP energy per Si atom -5582.625508 kJ/mol
# Density = 2.355542 g / cm^3
# Si number density = 23.609154 Si / 1000 Ang^3
#
#
#
# Elastic Constant Matrix: (Units=GPa)
#
#
# Indices 1 2 3 4 5 6 
#
# 1 139.2167 9.0701 32.0445 0.0000 -22.1919 0.0000
# 2 9.0701 125.2811 12.2101 0.0000 -1.7439 0.0000
# 3 32.0445 12.2101 68.1819 0.0000 -8.9945 0.0000
# 4 0.0000 0.0000 0.0000 26.0522 0.0000 3.6672
# 5 -22.1919 -1.7439 -8.9945 0.0000 40.1855 0.0000
# 6 0.0000 0.0000 0.0000 3.6672 0.0000 24.8924
#
#
#
# Elastic Compliance Matrix: (Units=1/GPa)
#
#
# Indices 1 2 3 4 5 6 
#
# 1 0.008636 -0.000229 -0.003493 0.000000 0.003977 0.000000
# 2 -0.000229 0.008130 -0.001358 0.000000 -0.000078 0.000000
# 3 -0.003493 -0.001358 0.016785 0.000000 0.001769 0.000000
# 4 0.000000 0.000000 0.000000 0.039197 0.000000 -0.005775
# 5 0.003977 -0.000078 0.001769 0.000000 0.027474 0.000000
# 6 0.000000 0.000000 0.000000 -0.005775 0.000000 0.041024
#
#
# Mechanical properties :
#
#
# Convention : Reuss Voigt Hill
#
# Bulk Modulus (GPa) = 42.75467 48.81434 45.78451
# Shear Modulus (GPa) = 31.40634 36.84969 34.12802
#
# Velocity S-wave (km/s) = 3.65123 3.95501 3.80615
# Velocity P-wave (km/s) = 5.99366 6.44803 6.22499
#
# Compressibility (1/GPa) = 0.02338926
#
# Stress axis : x y z
#
# Youngs Moduli (GPa) = 115.79412 123.00176 59.57722
#
# Poissons Ratio (x) = 0.02822 0.20810
# Poissons Ratio (y) = 0.02657 0.08093
# Poissons Ratio (z) = 0.40447 0.16708
#
# Static dielectric constant tensor:
#      x y z
#    x 1.954180 0.000000 0.074700 
#    y 0.000000 1.867550 0.000000 
#    z 0.074700 0.000000 1.994690 
# 
# From -- ./inp_files/24752.got.cif
#   From: 2010.05.17/outbox.cif.g08.bks.cpg/sg12_13_cif.got.tgz:24752.got - 2010.06.03 13:09:07.
