data_PCOD9212897
_publ_section_title
;
Structure prediction by ZEFSAII (Michael W. Deem and Ramdas Pophale) SiO2 
 PCOD9212897
Probable space group: C 2/M
;
_chemical_formula_sum "Si O2"
_cell_formula_units_Z 48
_cell_length_a 35.846977
_cell_length_b 17.746427
_cell_length_c 11.216699
_cell_angle_alpha 90.000000
_cell_angle_beta 156.844618
_cell_angle_gamma 90.000000
_cell_volume 2805.890959
_symmetry_space_group_name_H-M "C 2/M"
_symmetry_group_IT_number 12
_symmetry_cell_setting 'monoclinic'
loop_
_space_group_symop_operation_xyz
x,y,z
-x,y,-z
-x,-y,-z
x,-y,z
1/2+x,1/2+y,z
1/2-x,1/2+y,-z
1/2-x,1/2-y,-z
1/2+x,1/2-y,z
loop_
_atom_site_type_symbol
_atom_site_label
_atom_site_fract_x
_atom_site_fract_y
_atom_site_fract_z
Si Si1 0.588431 0.587597 0.351782
Si Si2 0.286705 0.326420 0.461261
Si Si3 0.549952 0.202783 0.018626
Si Si4 0.540722 0.696462 0.427239
Si Si5 0.787636 0.589544 0.526449
Si Si6 0.651656 0.694437 0.990180
O O1 0.606260 0.500000 0.427573
O O2 0.675463 0.627126 0.539942
O O3 0.562220 0.632391 0.393685
O O4 0.500000 0.593110 0.000000
O O5 0.370517 0.268989 0.745481
O O6 0.260852 0.380978 0.493968
O O7 0.199003 0.272547 0.171702
O O8 0.607691 0.126198 0.168170
O O9 0.500000 0.202495 0.000000
O O10 0.477253 0.227481 0.701922
O O11 0.622108 0.700035 0.765779
O O12 0.443571 0.680760 0.213570
O O13 0.787525 0.500000 0.518480
O O14 0.726756 0.629156 0.242553
#
# Coordination Sequence:
#
# PCOD9212897 Si02
#       6
#     8   8   8   8   8   8
#     4  11  21  33  55  85 112 141 179 226 280 327
#     4  11  18  37  58  82 104 145 190 230 262 324
#     4  11  19  37  61  80 105 146 195 227 262 321
#     4  11  19  37  56  83 111 144 181 233 271 325
#     4  11  22  37  57  83 115 144 182 228 276 332
#     4  10  22  34  59  82 110 145 187 225 277 325
#
# _framework density 17.106866
#
# number of rings (size 3 to 8) (size 9 to 14) (size 15 to 20)
#    0.000    1.167    6.667    1.500    0.000    3.667 
#    0.000    1.667    0.000    3.000    0.000    0.000 
#    0.000    0.000    0.000    0.000    0.000    0.000 
#
# Total GULP energy -133990.112491 kJ/mol
# GULP energy per Si atom -5582.921354 kJ/mol
# Density = 1.706793 g / cm^3
# Si number density = 17.106866 Si / 1000 Ang^3
#
#
#
# Elastic Constant Matrix: (Units=GPa)
#
#
# Indices 1 2 3 4 5 6 
#
# 1 106.4964 44.0727 48.3238 0.0000 -13.0898 0.0000
# 2 44.0727 131.5831 63.6997 0.0000 -3.2767 0.0000
# 3 48.3238 63.6997 86.5010 0.0000 -23.4899 0.0000
# 4 0.0000 0.0000 0.0000 10.8502 0.0000 4.5343
# 5 -13.0898 -3.2767 -23.4899 0.0000 24.1287 0.0000
# 6 0.0000 0.0000 0.0000 4.5343 0.0000 21.8727
#
#
#
# Elastic Compliance Matrix: (Units=1/GPa)
#
#
# Indices 1 2 3 4 5 6 
#
# 1 0.012734 -0.001464 -0.005728 0.000000 0.001133 0.000000
# 2 -0.001464 0.013756 -0.012262 0.000000 -0.010863 0.000000
# 3 -0.005728 -0.012262 0.030578 0.000000 0.024996 0.000000
# 4 0.000000 0.000000 0.000000 0.100906 0.000000 -0.020918
# 5 0.001133 -0.010863 0.024996 0.000000 0.064918 0.000000
# 6 0.000000 0.000000 0.000000 -0.020918 0.000000 0.050056
#
#
# Mechanical properties :
#
#
# Convention : Reuss Voigt Hill
#
# Bulk Modulus (GPa) = 55.06668 70.75253 62.90960
# Shear Modulus (GPa) = 15.72776 22.60260 19.16518
#
# Velocity S-wave (km/s) = 3.03542 3.63886 3.35075
# Velocity P-wave (km/s) = 6.67418 7.68791 7.19891
#
# Compressibility (1/GPa) = 0.01815980
#
# Stress axis : x y z
#
# Youngs Moduli (GPa) = 78.52758 72.69790 32.70313
#
# Poissons Ratio (x) = 0.10643 0.18733
# Poissons Ratio (y) = 0.11496 0.40100
# Poissons Ratio (z) = 0.44983 0.89141
#
# Static dielectric constant tensor:
#      x y z
#    x 1.583910 0.000000 0.002780 
#    y 0.000000 1.557990 0.000000 
#    z 0.002780 0.000000 1.597310 
# 
# From -- ./inp_files/112952.got.cif
#   From: 2010.05.17/outbox.cif.g08.bks.cpg/sg12_57_cif.got.tgz:112952.got - 2010.06.03 13:09:07.
