data_PCOD9212902
_publ_section_title
;
Structure prediction by ZEFSAII (Michael W. Deem and Ramdas Pophale) SiO2 
 PCOD9212902
Probable space group: C 2/M
;
_chemical_formula_sum "Si O2"
_cell_formula_units_Z 36
_cell_length_a 13.852107
_cell_length_b 5.722916
_cell_length_c 20.448346
_cell_angle_alpha 90.000000
_cell_angle_beta 53.107512
_cell_angle_gamma 90.000000
_cell_volume 1296.441440
_symmetry_space_group_name_H-M "C 2/M"
_symmetry_group_IT_number 12
_symmetry_cell_setting 'monoclinic'
loop_
_space_group_symop_operation_xyz
x,y,z
-x,y,-z
-x,-y,-z
x,-y,z
1/2+x,1/2+y,z
1/2-x,1/2+y,-z
1/2-x,1/2-y,-z
1/2+x,1/2-y,z
loop_
_atom_site_type_symbol
_atom_site_label
_atom_site_fract_x
_atom_site_fract_y
_atom_site_fract_z
Si Si1 0.544894 0.500000 0.295094
Si Si2 0.722910 0.500000 0.344362
Si Si3 0.866869 0.749903 0.498698
Si Si4 0.715291 0.000000 0.838928
Si Si5 0.105397 0.500000 0.022412
Si Si6 0.232033 0.000000 0.843454
Si Si7 0.876075 0.000000 0.967912
Si Si8 0.985045 0.500000 0.277782
O O1 0.645972 0.500000 0.310612
O O2 0.642574 0.500000 0.194945
O O3 0.476733 0.251494 0.319301
O O4 0.682517 0.284767 0.407605
O O5 0.867549 0.500000 0.279917
O O6 0.928745 0.500000 0.466608
O O7 0.750000 0.750000 0.500000
O O8 0.931268 0.000000 0.459791
O O9 0.619585 0.000000 0.937890
O O10 0.704099 0.736708 0.816615
O O11 0.061565 0.250746 0.068107
O O12 0.247898 0.500000 0.984168
O O13 0.159297 0.000000 0.940554
O O14 0.375784 0.000000 0.801492
#
# Coordination Sequence:
#
# PCOD9212902 Si02
#       8
#     4   4   8   4   4   4   4   4
#     4  10  22  35  51  78 105 134 172 209 250 301
#     4  10  22  34  62  74 105 138 170 204 256 298
#     4   8  16  30  52  78  96 131 166 197 252 296
#     4   8  14  26  39  57  91 121 150 200 242 278
#     4   8  12  18  32  53  77 111 151 188 232 282
#     4   8  14  26  39  57  91 121 150 200 242 278
#     4   8  12  18  32  53  77 111 151 188 232 282
#     4  10  22  35  51  78 105 134 172 209 250 301
#
# _framework density 27.768322000000001
#
# number of rings (size 3 to 8) (size 9 to 14) (size 15 to 20)
#    0.667    2.667    0.000    0.000    3.111    0.000 
#    0.000    0.000    0.000    4.000    0.000    0.778 
#    0.000    0.000    0.000   74.222    0.000    3.556 
#
# Total GULP energy -100391.562676 kJ/mol
# GULP energy per Si atom -5577.309038 kJ/mol
# Density = 2.770512 g / cm^3
# Si number density = 27.768322 Si / 1000 Ang^3
#
#
#
# Elastic Constant Matrix: (Units=GPa)
#
#
# Indices 1 2 3 4 5 6 
#
# 1 132.6608 37.0372 29.5405 0.0008 -14.6713 0.0031
# 2 37.0372 346.8546 35.7454 0.0034 -11.3218 0.0072
# 3 29.5405 35.7454 54.5142 0.0000 -15.7434 0.0003
# 4 0.0008 0.0034 0.0000 19.8055 0.0000 15.0000
# 5 -14.6713 -11.3218 -15.7434 0.0000 46.2283 0.0006
# 6 0.0031 0.0072 0.0003 15.0000 0.0006 20.6490
#
#
#
# Elastic Compliance Matrix: (Units=1/GPa)
#
#
# Indices 1 2 3 4 5 6 
#
# 1 0.008711 -0.000472 -0.004044 0.000001 0.001272 -0.000002
# 2 -0.000472 0.003118 -0.001787 0.000001 0.000005 -0.000001
# 3 -0.004044 -0.001787 0.023523 0.000000 0.006290 0.000001
# 4 0.000001 0.000001 0.000000 0.112244 0.000002 -0.081537
# 5 0.001272 0.000005 0.006290 0.000002 0.024179 -0.000002
# 6 -0.000002 -0.000001 0.000001 -0.081537 -0.000002 0.107659
#
#
# Mechanical properties :
#
#
# Convention : Reuss Voigt Hill
#
# Bulk Modulus (GPa) = 43.96219 82.07509 63.01864
# Shear Modulus (GPa) = 16.68778 46.11701 31.40239
#
# Velocity S-wave (km/s) = 2.45412 4.07969 3.36649
# Velocity P-wave (km/s) = 4.88840 7.19813 6.15262
#
# Compressibility (1/GPa) = 0.02274682
#
# Stress axis : x y z
#
# Youngs Moduli (GPa) = 114.79947 320.74025 42.51094
#
# Poissons Ratio (x) = 0.15136 0.17189
# Poissons Ratio (y) = 0.05418 0.07597
# Poissons Ratio (z) = 0.46420 0.57321
#
# Static dielectric constant tensor:
#      x y z
#    x 2.118040 0.000000 0.056410 
#    y 0.000000 2.184340 0.000000 
#    z 0.056410 0.000000 2.429360 
# 
# From -- ./inp_files/357198.got.cif
#   From: 2010.05.17/outbox.cif.g08.bks.cpg/sg12_179_cif.got.tgz:357198.got - 2010.06.03 13:09:07.
