data_PCOD9212032
_publ_section_title
;
Structure prediction by ZEFSAII (Michael W. Deem and Ramdas Pophale) SiO2 
 PCOD9212032
Probable space group: C 2/M
;
_chemical_formula_sum "Si O2"
_cell_formula_units_Z 56
_cell_length_a 9.286158
_cell_length_b 26.954146
_cell_length_c 14.830073
_cell_angle_alpha 90.000000
_cell_angle_beta 61.885553
_cell_angle_gamma 90.000000
_cell_volume 3273.991099
_symmetry_space_group_name_H-M "C 2/M"
_symmetry_group_IT_number 12
_symmetry_cell_setting 'monoclinic'
loop_
_space_group_symop_operation_xyz
x,y,z
-x,y,-z
-x,-y,-z
x,-y,z
1/2+x,1/2+y,z
1/2-x,1/2+y,-z
1/2-x,1/2-y,-z
1/2+x,1/2-y,z
loop_
_atom_site_type_symbol
_atom_site_label
_atom_site_fract_x
_atom_site_fract_y
_atom_site_fract_z
Si Si1 0.299161 0.350394 0.716234
Si Si2 0.614257 0.319906 0.711834
Si Si3 0.998973 0.307294 0.100128
Si Si4 0.156062 0.800327 0.898393
Si Si5 0.306718 0.218725 0.397182
Si Si6 0.153250 0.628244 0.505730
Si Si7 0.679333 0.555761 0.405401
O O1 0.428231 0.336937 0.754670
O O2 0.115847 0.339134 0.800841
O O3 0.325099 0.311935 0.623845
O O4 0.322189 0.406438 0.677688
O O5 0.677642 0.326323 0.794763
O O6 0.616839 0.261086 0.687319
O O7 0.717842 0.348959 0.604335
O O8 0.904081 0.255317 0.109766
O O9 0.178265 0.299938 0.091192
O O10 0.000000 0.330916 0.000000
O O11 0.000000 0.821188 0.000000
O O12 0.250000 0.250000 0.500000
O O13 0.407070 0.174242 0.413408
O O14 0.222700 0.585926 0.548209
O O15 0.000000 0.607636 0.500000
O O16 0.500000 0.552436 0.500000
O O17 0.737714 0.500000 0.369075
#
# Coordination Sequence:
#
# PCOD9212032 Si02
#       7
#     8   8   8   8   8   8   8
#     4  11  21  35  55  81 106 146 189 226 275 327
#     4  11  21  33  50  76 114 150 180 222 262 323
#     4  11  22  36  54  78 111 147 192 228 267 321
#     4  11  22  35  52  76 111 156 188 222 264 318
#     4   9  21  29  47  71 113 147 182 211 262 311
#     4  10  22  33  51  80 110 144 185 220 268 329
#     4  10  21  41  60  78 108 145 187 233 276 328
#
# _framework density 17.104506000000001
#
# number of rings (size 3 to 8) (size 9 to 14) (size 15 to 20)
#    0.000    1.571    2.857    3.429    8.000    0.286 
#    0.000    0.000    0.000    0.429    0.000    0.000 
#    0.000    2.857    0.000    0.000    0.000    0.000 
#
# Total GULP energy -156029.468445 kJ/mol
# GULP energy per Si atom -5572.481016 kJ/mol
# Density = 1.706558 g / cm^3
# Si number density = 17.104506 Si / 1000 Ang^3
#
#
#
# Elastic Constant Matrix: (Units=GPa)
#
#
# Indices 1 2 3 4 5 6 
#
# 1 120.1641 29.4579 24.4564 0.0000 10.8987 0.0000
# 2 29.4579 103.5426 24.9667 0.0000 4.6419 0.0000
# 3 24.4564 24.9667 83.7129 0.0000 8.2918 0.0000
# 4 0.0000 0.0000 0.0000 43.6130 0.0000 14.3459
# 5 10.8987 4.6419 8.2918 0.0000 29.9087 0.0000
# 6 0.0000 0.0000 0.0000 14.3459 0.0000 18.0143
#
#
#
# Elastic Compliance Matrix: (Units=1/GPa)
#
#
# Indices 1 2 3 4 5 6 
#
# 1 0.009459 -0.002123 -0.001873 0.000000 -0.002598 0.000000
# 2 -0.002123 0.010900 -0.002611 0.000000 -0.000194 0.000000
# 3 -0.001873 -0.002611 0.013536 0.000000 -0.002665 0.000000
# 4 0.000000 0.000000 0.000000 0.031067 0.000000 -0.024741
# 5 -0.002598 -0.000194 -0.002665 0.000000 0.035151 0.000000
# 6 0.000000 0.000000 0.000000 -0.024741 0.000000 0.075214
#
#
# Mechanical properties :
#
#
# Convention : Reuss Voigt Hill
#
# Bulk Modulus (GPa) = 48.35556 51.68686 50.02121
# Shear Modulus (GPa) = 25.58395 33.54311 29.56353
#
# Velocity S-wave (km/s) = 3.87168 4.43320 4.16192
# Velocity P-wave (km/s) = 6.95116 7.51586 7.23902
#
# Compressibility (1/GPa) = 0.02068015
#
# Stress axis : x y z
#
# Youngs Moduli (GPa) = 105.71646 91.74092 73.87949
#
# Poissons Ratio (x) = 0.19477 0.13837
# Poissons Ratio (y) = 0.22444 0.19293
# Poissons Ratio (z) = 0.19800 0.23958
#
# Static dielectric constant tensor:
#      x y z
#    x 1.622590 0.000000 0.000970 
#    y 0.000000 1.564200 0.000000 
#    z 0.000970 0.000000 1.672260 
# 
# From -- ./inp_files/199301.got.cif
#   From: 2010.05.17/outbox.cif.g08.bks.cpg/sg12_100_cif.got.tgz:199301.got - 2010.06.03 13:09:07.
