data_PCOD9212293
_publ_section_title
;
Structure prediction by ZEFSAII (Michael W. Deem and Ramdas Pophale) SiO2 
 PCOD9212293
Probable space group: C 2/M
;
_chemical_formula_sum "Si O2"
_cell_formula_units_Z 64
_cell_length_a 31.402988
_cell_length_b 8.529844
_cell_length_c 20.196477
_cell_angle_alpha 90.000000
_cell_angle_beta 37.904565
_cell_angle_gamma 90.000000
_cell_volume 3323.549702
_symmetry_space_group_name_H-M "C 2/M"
_symmetry_group_IT_number 12
_symmetry_cell_setting 'monoclinic'
loop_
_space_group_symop_operation_xyz
x,y,z
-x,y,-z
-x,-y,-z
x,-y,z
1/2+x,1/2+y,z
1/2-x,1/2+y,-z
1/2-x,1/2-y,-z
1/2+x,1/2-y,z
loop_
_atom_site_type_symbol
_atom_site_label
_atom_site_fract_x
_atom_site_fract_y
_atom_site_fract_z
Si Si1 0.194682 0.683879 0.768338
Si Si2 0.311147 0.687023 0.877649
Si Si3 0.944145 0.821247 0.010618
Si Si4 0.188410 0.311400 0.622539
Si Si5 0.550256 0.190533 0.497416
Si Si6 0.035664 0.188547 0.773740
Si Si7 0.196430 0.312909 0.262186
Si Si8 0.036489 0.689010 0.269938
O O1 0.211858 0.500000 0.748245
O O2 0.117376 0.712832 0.889338
O O3 0.199231 0.739357 0.686178
O O4 0.242877 0.771882 0.761594
O O5 0.312048 0.500000 0.879937
O O6 0.298345 0.739178 0.817254
O O7 0.386046 0.750784 0.809836
O O8 0.250000 0.750000 0.000000
O O9 0.917892 0.000000 0.030933
O O10 0.000000 0.829745 0.000000
O O11 0.985457 0.765250 0.895814
O O12 0.188658 0.500000 0.621173
O O13 0.250000 0.250000 0.500000
O O14 0.113097 0.253733 0.690003
O O15 0.500000 0.237984 0.500000
O O16 0.626575 0.243756 0.384603
O O17 0.515404 0.242173 0.607984
O O18 0.551979 0.000000 0.497278
O O19 0.997712 0.249222 0.754997
O O20 0.040246 0.000000 0.767523
O O21 0.192055 0.500000 0.258059
O O22 0.039087 0.500000 0.266028
#
# Coordination Sequence:
#
# PCOD9212293 Si02
#       8
#     8   8   8   8   8   8   8   8
#     4  11  25  42  63  95 130 165 212 266 318 376
#     4  12  26  45  66  93 129 170 214 266 322 378
#     4  10  21  41  67  91 121 164 212 260 315 379
#     4  11  25  44  65  92 129 172 216 267 324 382
#     4   9  18  38  66  93 121 160 210 257 308 371
#     4  11  24  42  65  95 129 167 213 265 319 380
#     4  11  23  42  68  95 128 170 212 259 315 381
#     4  11  23  42  67  96 129 169 213 260 316 380
#
# _framework density 19.256519000000001
#
# number of rings (size 3 to 8) (size 9 to 14) (size 15 to 20)
#    0.000    1.250    2.500    3.000    3.500    2.750 
#    0.000    2.500    0.000    0.000    0.000    0.000 
#    0.000    0.000    0.000    0.000    0.000    0.000 
#
# Total GULP energy -178796.098464 kJ/mol
# GULP energy per Si atom -5587.378077 kJ/mol
# Density = 1.921269 g / cm^3
# Si number density = 19.256519 Si / 1000 Ang^3
#
#
#
# Elastic Constant Matrix: (Units=GPa)
#
#
# Indices 1 2 3 4 5 6 
#
# 1 156.3207 32.5603 96.0388 -0.0151 16.8610 -0.0015
# 2 32.5603 60.1009 45.1309 -0.0213 3.4814 0.0017
# 3 96.0388 45.1309 191.8777 -0.0211 19.7081 0.0025
# 4 -0.0151 -0.0213 -0.0211 10.9760 0.0119 -7.0504
# 5 16.8610 3.4814 19.7081 0.0119 37.2656 0.0003
# 6 -0.0015 0.0017 0.0025 -7.0504 0.0003 20.0757
#
#
#
# Elastic Compliance Matrix: (Units=1/GPa)
#
#
# Indices 1 2 3 4 5 6 
#
# 1 0.009546 -0.001969 -0.004113 0.000006 -0.001960 0.000003
# 2 -0.001969 0.020630 -0.003976 0.000036 0.001067 0.000011
# 3 -0.004113 -0.003976 0.008435 0.000006 -0.002228 0.000001
# 4 0.000006 0.000036 0.000006 0.117648 -0.000047 0.041317
# 5 -0.001960 0.001067 -0.002228 -0.000047 0.028800 -0.000017
# 6 0.000003 0.000011 0.000001 0.041317 -0.000017 0.064322
#
#
# Mechanical properties :
#
#
# Convention : Reuss Voigt Hill
#
# Bulk Modulus (GPa) = 54.07621 83.97328 69.02475
# Shear Modulus (GPa) = 18.13825 29.30141 23.71983
#
# Velocity S-wave (km/s) = 3.07241 3.90505 3.51348
# Velocity P-wave (km/s) = 6.38195 8.00218 7.23755
#
# Compressibility (1/GPa) = 0.01849242
#
# Stress axis : x y z
#
# Youngs Moduli (GPa) = 104.75792 48.47426 118.55956
#
# Poissons Ratio (x) = 0.09545 0.48769
# Poissons Ratio (y) = 0.20629 0.47141
# Poissons Ratio (z) = 0.43092 0.19274
#
# Static dielectric constant tensor:
#      x y z
#    x 1.657470 -0.000010 0.041770 
#    y -0.000010 1.672540 0.000000 
#    z 0.041770 0.000000 1.628030 
# 
# From -- ./inp_files/295452.got.cif
#   From: 2010.05.17/outbox.cif.g08.bks.cpg/sg12_148_cif.got.tgz:295452.got - 2010.06.03 13:09:07.
