data_PCOD9212073
_publ_section_title
;
Structure prediction by ZEFSAII (Michael W. Deem and Ramdas Pophale) SiO2 
 PCOD9212073
Probable space group: C 2/M
;
_chemical_formula_sum "Si O2"
_cell_formula_units_Z 40
_cell_length_a 14.624930
_cell_length_b 22.214416
_cell_length_c 9.150874
_cell_angle_alpha 90.000000
_cell_angle_beta 42.559993
_cell_angle_gamma 90.000000
_cell_volume 2010.806857
_symmetry_space_group_name_H-M "C 2/M"
_symmetry_group_IT_number 12
_symmetry_cell_setting 'monoclinic'
loop_
_space_group_symop_operation_xyz
x,y,z
-x,y,-z
-x,-y,-z
x,-y,z
1/2+x,1/2+y,z
1/2-x,1/2+y,-z
1/2-x,1/2-y,-z
1/2+x,1/2-y,z
loop_
_atom_site_type_symbol
_atom_site_label
_atom_site_fract_x
_atom_site_fract_y
_atom_site_fract_z
Si Si1 0.682044 0.809539 0.506466
Si Si2 0.606170 0.769353 0.098386
Si Si3 0.380865 0.430443 0.743451
Si Si4 0.611990 0.355612 0.971705
Si Si5 0.149338 0.380894 0.830544
O O1 0.750000 0.750000 0.500000
O O2 0.523033 0.795942 0.663226
O O3 0.759374 0.834288 0.273902
O O4 0.692359 0.860703 0.618949
O O5 0.750000 0.750000 0.000000
O O6 0.549587 0.707365 0.099826
O O7 0.638359 0.818749 0.937083
O O8 0.500000 0.404544 0.500000
O O9 0.411572 0.500000 0.739048
O O10 0.249956 0.423384 0.797366
O O11 0.360362 0.394668 0.917714
O O12 0.500000 0.385670 0.000000
O O13 0.000000 0.407244 0.000000
#
# Coordination Sequence:
#
# PCOD9212073 Si02
#       5
#     8   8   8   8   8
#     4  11  21  36  61  97 135 163 203 249 323 397
#     4  11  21  36  60  99 131 168 204 252 321 397
#     4  11  26  45  66  90 120 170 228 268 311 371
#     4  12  22  39  65  95 131 170 204 267 323 380
#     4  10  21  41  62  91 129 165 207 257 318 387
#
# _framework density 19.892512
#
# number of rings (size 3 to 8) (size 9 to 14) (size 15 to 20)
#    0.000    1.000    6.000    1.800    0.000    1.600 
#    0.000    1.000    0.000    6.000    0.000    0.000 
#    0.000    0.000    0.000    0.000    0.000    0.000 
#
# Total GULP energy -111633.188837 kJ/mol
# GULP energy per Si atom -5581.659442 kJ/mol
# Density = 1.984724 g / cm^3
# Si number density = 19.892512 Si / 1000 Ang^3
#
#
#
# Elastic Constant Matrix: (Units=GPa)
#
#
# Indices 1 2 3 4 5 6 
#
# 1 125.9127 4.5058 60.8936 0.0000 -12.0206 0.0000
# 2 4.5058 36.1835 36.9095 0.0000 11.8288 0.0000
# 3 60.8936 36.9095 170.1293 0.0000 11.7823 0.0000
# 4 0.0000 0.0000 0.0000 19.0811 0.0000 -1.8336
# 5 -12.0206 11.8288 11.7823 0.0000 30.5134 0.0000
# 6 0.0000 0.0000 0.0000 -1.8336 0.0000 8.2843
#
#
#
# Elastic Compliance Matrix: (Units=1/GPa)
#
#
# Indices 1 2 3 4 5 6 
#
# 1 0.010558 0.001518 -0.004475 0.000000 0.005299 0.000000
# 2 0.001518 0.039774 -0.008370 0.000000 -0.011589 0.000000
# 3 -0.004475 -0.008370 0.009445 0.000000 -0.002166 0.000000
# 4 0.000000 0.000000 0.000000 0.053547 0.000000 0.011851
# 5 0.005299 -0.011589 -0.002166 0.000000 0.040189 0.000000
# 6 0.000000 0.000000 0.000000 0.011851 0.000000 0.123333
#
#
# Mechanical properties :
#
#
# Convention : Reuss Voigt Hill
#
# Bulk Modulus (GPa) = 26.93705 59.64923 43.29314
# Shear Modulus (GPa) = 16.03212 26.90356 21.46784
#
# Velocity S-wave (km/s) = 2.84198 3.68155 3.28867
# Velocity P-wave (km/s) = 4.93354 6.93705 6.01924
#
# Compressibility (1/GPa) = 0.03712359
#
# Stress axis : x y z
#
# Youngs Moduli (GPa) = 94.71636 25.14204 105.87092
#
# Poissons Ratio (x) = -0.03817 0.47380
# Poissons Ratio (y) = -0.14379 0.88611
# Poissons Ratio (z) = 0.42388 0.21043
#
# Static dielectric constant tensor:
#      x y z
#    x 1.764020 0.000000 -0.017550 
#    y 0.000000 1.675800 0.000000 
#    z -0.017550 0.000000 1.751100 
# 
# From -- ./inp_files/50951.got.cif
#   From: 2010.05.17/outbox.cif.g08.bks.cpg/sg12_26_cif.got.tgz:50951.got - 2010.06.03 13:09:07.
