data_PCOD9212113
_publ_section_title
;
Structure prediction by ZEFSAII (Michael W. Deem and Ramdas Pophale) SiO2 
 PCOD9212113
Probable space group: C 2/M
;
_chemical_formula_sum "Si O2"
_cell_formula_units_Z 52
_cell_length_a 12.702468
_cell_length_b 15.047062
_cell_length_c 23.194755
_cell_angle_alpha 90.000000
_cell_angle_beta 150.746419
_cell_angle_gamma 90.000000
_cell_volume 2166.458713
_symmetry_space_group_name_H-M "C 2/M"
_symmetry_group_IT_number 12
_symmetry_cell_setting 'monoclinic'
loop_
_space_group_symop_operation_xyz
x,y,z
-x,y,-z
-x,-y,-z
x,-y,z
1/2+x,1/2+y,z
1/2-x,1/2+y,-z
1/2-x,1/2-y,-z
1/2+x,1/2-y,z
loop_
_atom_site_type_symbol
_atom_site_label
_atom_site_fract_x
_atom_site_fract_y
_atom_site_fract_z
Si Si1 0.160557 0.000000 0.951901
Si Si2 0.300634 0.326589 0.200005
Si Si3 0.706597 0.000000 0.769336
Si Si4 0.301046 0.820384 0.974037
Si Si5 0.272382 0.855996 0.409475
Si Si6 0.740957 0.663839 0.629599
Si Si7 0.998969 0.326426 0.363879
Si Si8 0.030386 0.500000 0.219986
O O1 0.165488 0.910129 0.917776
O O2 0.367509 0.000000 0.090551
O O3 0.959464 0.000000 0.898135
O O4 0.521380 0.385783 0.297254
O O5 0.363078 0.259718 0.281221
O O6 0.052101 0.352845 0.092852
O O7 0.766069 0.219338 0.120341
O O8 0.647187 0.913933 0.703295
O O9 0.592501 0.000000 0.776964
O O10 0.250000 0.750000 0.000000
O O11 0.500000 0.902776 0.500000
O O12 0.257198 0.770199 0.359412
O O13 0.341939 0.822353 0.506310
O O14 0.500000 0.637806 0.500000
O O15 0.834952 0.591342 0.717430
O O16 0.867071 0.655502 0.630112
#
# Coordination Sequence:
#
# PCOD9212113 Si02
#       8
#     4   8   4   8   8   8   8   4
#     4  12  27  42  66 100 136 182 234 283 339 403
#     4  10  23  44  67  99 135 177 234 279 334 420
#     4  10  23  41  64  91 140 168 230 290 341 402
#     4  11  27  45  71  99 136 187 231 284 343 407
#     4  10  22  37  68  98 131 171 226 283 340 411
#     4   9  18  34  57  91 132 163 209 273 339 406
#     4  10  21  41  63  97 130 176 222 285 347 404
#     4  10  22  36  59  96 132 174 220 282 347 387
#
# _framework density 24.002303000000001
#
# number of rings (size 3 to 8) (size 9 to 14) (size 15 to 20)
#    0.000    1.846    0.000    3.231   10.769    3.692 
#    0.000    1.923    0.000    0.923    0.000    0.000 
#    0.000    0.000    0.000    0.000    0.000    0.000 
#
# Total GULP energy -144916.654061 kJ/mol
# GULP energy per Si atom -5573.717464 kJ/mol
# Density = 2.394767 g / cm^3
# Si number density = 24.002303 Si / 1000 Ang^3
#
#
#
# Elastic Constant Matrix: (Units=GPa)
#
#
# Indices 1 2 3 4 5 6 
#
# 1 53.8836 13.4451 11.2511 -0.0003 -5.8800 0.0001
# 2 13.4451 98.0608 11.4588 0.0005 -2.2538 -0.0001
# 3 11.2511 11.4588 126.3536 0.0014 18.6580 -0.0002
# 4 -0.0003 0.0005 0.0014 50.7444 -0.0001 -9.9090
# 5 -5.8800 -2.2538 18.6580 -0.0001 62.1386 0.0000
# 6 0.0001 -0.0001 -0.0002 -9.9090 0.0000 15.3862
#
#
#
# Elastic Compliance Matrix: (Units=1/GPa)
#
#
# Indices 1 2 3 4 5 6 
#
# 1 0.019820 -0.002442 -0.001891 0.000000 0.002355 0.000000
# 2 -0.002442 0.010636 -0.000806 0.000000 0.000397 0.000000
# 3 -0.001891 -0.000806 0.008566 0.000000 -0.002780 0.000000
# 4 0.000000 0.000000 0.000000 0.022541 0.000000 0.014517
# 5 0.002355 0.000397 -0.002780 0.000000 0.017165 0.000000
# 6 0.000000 0.000000 0.000000 0.014517 0.000000 0.074342
#
#
# Mechanical properties :
#
#
# Convention : Reuss Voigt Hill
#
# Bulk Modulus (GPa) = 34.79009 38.95645 36.87327
# Shear Modulus (GPa) = 28.91338 41.79671 35.35505
#
# Velocity S-wave (km/s) = 3.47451 4.17749 3.84211
# Velocity P-wave (km/s) = 5.53374 6.28761 5.92268
#
# Compressibility (1/GPa) = 0.02874382
#
# Stress axis : x y z
#
# Youngs Moduli (GPa) = 50.45471 94.02130 116.73649
#
# Poissons Ratio (x) = 0.22964 0.22076
# Poissons Ratio (y) = 0.12323 0.09405
# Poissons Ratio (z) = 0.09541 0.07575
#
# Static dielectric constant tensor:
#      x y z
#    x 1.940500 0.000000 0.049640 
#    y 0.000000 1.969770 0.000000 
#    z 0.049640 0.000000 1.973310 
# 
# From -- ./inp_files/377004.got.cif
#   From: 2010.05.17/outbox.cif.g08.bks.cpg/sg12_189_cif.got.tgz:377004.got - 2010.06.03 13:09:07.
