data_PCOD9212774
_publ_section_title
;
Structure prediction by ZEFSAII (Michael W. Deem and Ramdas Pophale) SiO2 
 PCOD9212774
Probable space group: C 2/M
;
_chemical_formula_sum "Si O2"
_cell_formula_units_Z 48
_cell_length_a 16.786919
_cell_length_b 15.750012
_cell_length_c 16.777578
_cell_angle_alpha 90.000000
_cell_angle_beta 144.774759
_cell_angle_gamma 90.000000
_cell_volume 2558.589200
_symmetry_space_group_name_H-M "C 2/M"
_symmetry_group_IT_number 12
_symmetry_cell_setting 'monoclinic'
loop_
_space_group_symop_operation_xyz
x,y,z
-x,y,-z
-x,-y,-z
x,-y,z
1/2+x,1/2+y,z
1/2-x,1/2+y,-z
1/2-x,1/2-y,-z
1/2+x,1/2-y,z
loop_
_atom_site_type_symbol
_atom_site_label
_atom_site_fract_x
_atom_site_fract_y
_atom_site_fract_z
Si Si1 0.594592 0.677134 0.940714
Si Si2 0.660434 0.596988 0.656900
Si Si3 0.829712 0.803576 0.181190
Si Si4 0.430141 0.825878 0.604895
Si Si5 0.860288 0.000000 0.936513
Si Si6 0.046065 0.500000 0.629633
Si Si7 0.821077 0.734290 0.684259
O O1 0.626532 0.672508 0.872455
O O2 0.437661 0.708606 0.821191
O O3 0.691004 0.748963 0.058763
O O4 0.630676 0.586388 0.005871
O O5 0.500000 0.606028 0.500000
O O6 0.701362 0.500000 0.673307
O O7 0.677825 0.618948 0.764241
O O8 0.750838 0.665276 0.683285
O O9 0.947634 0.740972 0.311040
O O10 0.484200 0.917353 0.623096
O O11 0.296389 0.796152 0.446655
O O12 0.390604 0.814591 0.665757
O O13 0.712689 0.000000 0.771456
O O14 0.000000 0.000000 0.000000
O O15 0.000000 0.500000 0.500000
#
# Coordination Sequence:
#
# PCOD9212774 Si02
#       7
#     8   8   8   8   4   4   8
#     4  10  24  42  67  91 131 170 211 263 320 386
#     4  11  24  40  66  96 126 164 212 270 317 371
#     4  10  21  44  66  93 123 174 213 255 330 379
#     4  10  22  42  65  93 128 173 213 263 312 385
#     4  12  28  44  64 101 134 169 217 266 317 386
#     4  12  28  42  68  99 132 171 217 264 323 380
#     4  10  23  42  66  95 126 169 218 264 323 374
#
# _framework density 18.760338000000001
#
# number of rings (size 3 to 8) (size 9 to 14) (size 15 to 20)
#    0.000    1.500    3.333    0.000    9.333    0.000 
#    0.000    1.667    0.000    0.000    0.000    0.000 
#    0.000    0.000    0.000    0.000    0.000    0.000 
#
# Total GULP energy -134067.404733 kJ/mol
# GULP energy per Si atom -5586.141864 kJ/mol
# Density = 1.871764 g / cm^3
# Si number density = 18.760338 Si / 1000 Ang^3
#
#
#
# Elastic Constant Matrix: (Units=GPa)
#
#
# Indices 1 2 3 4 5 6 
#
# 1 44.2078 34.9708 32.9704 0.0001 6.5242 0.0001
# 2 34.9708 100.0674 44.0975 0.0001 -1.2277 0.0001
# 3 32.9704 44.0975 129.6742 0.0003 12.3459 0.0002
# 4 0.0001 0.0001 0.0003 18.4788 0.0002 -1.6432
# 5 6.5242 -1.2277 12.3459 0.0002 22.8113 0.0002
# 6 0.0001 0.0001 0.0002 -1.6432 0.0002 16.0853
#
#
#
# Elastic Compliance Matrix: (Units=1/GPa)
#
#
# Indices 1 2 3 4 5 6 
#
# 1 0.035636 -0.010476 -0.004717 0.000000 -0.008203 0.000000
# 2 -0.010476 0.015025 -0.002961 0.000000 0.005407 0.000000
# 3 -0.004717 -0.002961 0.010337 0.000000 -0.004405 0.000000
# 4 0.000000 0.000000 0.000000 0.054612 0.000000 0.005579
# 5 -0.008203 0.005407 -0.004405 0.000000 0.048859 0.000000
# 6 0.000000 0.000000 0.000000 0.005579 0.000000 0.062739
#
#
# Mechanical properties :
#
#
# Convention : Reuss Voigt Hill
#
# Bulk Modulus (GPa) = 40.50061 55.33630 47.91845
# Shear Modulus (GPa) = 18.39953 22.26914 20.33433
#
# Velocity S-wave (km/s) = 3.13512 3.44907 3.29584
# Velocity P-wave (km/s) = 5.89411 6.73958 6.33098
#
# Compressibility (1/GPa) = 0.02469099
#
# Stress axis : x y z
#
# Youngs Moduli (GPa) = 28.06154 66.55420 96.73700
#
# Poissons Ratio (x) = 0.69720 0.45634
# Poissons Ratio (y) = 0.29396 0.28643
# Poissons Ratio (z) = 0.13237 0.19706
#
# Static dielectric constant tensor:
#      x y z
#    x 1.657480 0.000000 -0.001150 
#    y 0.000000 1.620030 0.000000 
#    z -0.001150 0.000000 1.642990 
# 
# From -- ./inp_files/278275.got.cif
#   From: 2010.05.17/outbox.cif.g08.bks.cpg/sg12_140_cif.got.tgz:278275.got - 2010.06.03 13:09:07.
