data_PCOD9212010
_publ_section_title
;
Structure prediction by ZEFSAII (Michael W. Deem and Ramdas Pophale) SiO2 
 PCOD9212010
Probable space group: C 2/M
;
_chemical_formula_sum "Si O2"
_cell_formula_units_Z 36
_cell_length_a 18.097345
_cell_length_b 18.137465
_cell_length_c 4.949904
_cell_angle_alpha 90.000000
_cell_angle_beta 64.245272
_cell_angle_gamma 90.000000
_cell_volume 1463.356885
_symmetry_space_group_name_H-M "C 2/M"
_symmetry_group_IT_number 12
_symmetry_cell_setting 'monoclinic'
loop_
_space_group_symop_operation_xyz
x,y,z
-x,y,-z
-x,-y,-z
x,-y,z
1/2+x,1/2+y,z
1/2-x,1/2+y,-z
1/2-x,1/2-y,-z
1/2+x,1/2-y,z
loop_
_atom_site_type_symbol
_atom_site_label
_atom_site_fract_x
_atom_site_fract_y
_atom_site_fract_z
Si Si1 0.919606 0.662438 0.441921
Si Si2 0.912530 0.500000 0.510589
Si Si3 0.909274 0.000000 0.502273
Si Si4 0.669015 0.779698 0.909966
Si Si5 0.187409 0.869296 0.615415
Si Si6 0.753764 0.000000 0.140135
O O1 0.911334 0.577632 0.368190
O O2 0.903336 0.702114 0.187834
O O3 0.000000 0.671698 0.500000
O O4 0.851603 0.692155 0.760315
O O5 0.836419 0.500000 0.843529
O O6 0.000000 0.500000 0.500000
O O7 0.888006 0.078304 0.378042
O O8 0.000000 0.000000 0.500000
O O9 0.833606 0.000000 0.831716
O O10 0.751987 0.822813 0.680678
O O11 0.668249 0.691563 0.873394
O O12 0.241195 0.930764 0.673503
#
# Coordination Sequence:
#
# PCOD9212010 Si02
#       6
#     8   4   4   8   8   4
#     4  11  24  42  67 105 144 187 232 289 355 430
#     4  10  21  40  71 101 139 180 232 284 350 435
#     4  11  26  47  71 102 139 196 252 303 359 433
#     4  11  24  44  69 105 141 187 236 291 368 425
#     4  10  25  41  71  99 135 187 237 303 355 430
#     4  11  21  46  69  96 139 183 236 290 362 418
#
# _framework density 24.600971000000001
#
# number of rings (size 3 to 8) (size 9 to 14) (size 15 to 20)
#    0.000    1.333    2.222    2.000    3.111    6.222 
#    4.000    3.333    0.000    0.000    0.000    0.000 
#    0.000    0.000    0.000    0.000    0.000    0.000 
#
# Total GULP energy -100354.598966 kJ/mol
# GULP energy per Si atom -5575.255498 kJ/mol
# Density = 2.454498 g / cm^3
# Si number density = 24.600971 Si / 1000 Ang^3
#
#
#
# Elastic Constant Matrix: (Units=GPa)
#
#
# Indices 1 2 3 4 5 6 
#
# 1 181.1741 58.7342 23.0172 0.0000 2.8530 0.0000
# 2 58.7342 201.4606 13.3941 0.0000 17.8676 0.0000
# 3 23.0172 13.3941 63.8689 0.0000 8.3240 0.0000
# 4 0.0000 0.0000 0.0000 17.2858 0.0000 13.3222
# 5 2.8530 17.8676 8.3240 0.0000 27.6357 0.0000
# 6 0.0000 0.0000 0.0000 13.3222 0.0000 39.1282
#
#
#
# Elastic Compliance Matrix: (Units=1/GPa)
#
#
# Indices 1 2 3 4 5 6 
#
# 1 0.006352 -0.001816 -0.002056 0.000000 0.001138 0.000000
# 2 -0.001816 0.005814 -0.000103 0.000000 -0.003540 0.000000
# 3 -0.002056 -0.000103 0.017053 0.000000 -0.004857 0.000000
# 4 0.000000 0.000000 0.000000 0.078432 0.000000 -0.026704
# 5 0.001138 -0.003540 -0.004857 0.000000 0.039820 0.000000
# 6 0.000000 0.000000 0.000000 -0.026704 0.000000 0.034649
#
#
# Mechanical properties :
#
#
# Convention : Reuss Voigt Hill
#
# Bulk Modulus (GPa) = 47.02141 70.75495 58.88818
# Shear Modulus (GPa) = 25.36010 40.23382 32.79696
#
# Velocity S-wave (km/s) = 3.21418 4.04847 3.65520
# Velocity P-wave (km/s) = 5.73844 7.11877 6.46555
#
# Compressibility (1/GPa) = 0.02126691
#
# Stress axis : x y z
#
# Youngs Moduli (GPa) = 157.44053 171.99718 58.64099
#
# Poissons Ratio (x) = 0.31234 0.12059
# Poissons Ratio (y) = 0.28590 0.00606
# Poissons Ratio (z) = 0.32377 0.01779
#
# Static dielectric constant tensor:
#      x y z
#    x 1.926000 0.000000 0.004090 
#    y 0.000000 1.993500 0.000000 
#    z 0.004090 0.000000 1.930480 
# 
# From -- ./inp_files/15088.got.cif
#   From: 2010.05.17/outbox.cif.g08.bks.cpg/sg12_8_cif.got.tgz:15088.got - 2010.06.03 13:09:07.
