data_PCOD9212998
_publ_section_title
;
Structure prediction by ZEFSAII (Michael W. Deem and Ramdas Pophale) SiO2 
 PCOD9212998
Probable space group: C 2/M
;
_chemical_formula_sum "Si O2"
_cell_formula_units_Z 56
_cell_length_a 11.423638
_cell_length_b 21.671465
_cell_length_c 19.889852
_cell_angle_alpha 90.000000
_cell_angle_beta 143.486705
_cell_angle_gamma 90.000000
_cell_volume 2929.867685
_symmetry_space_group_name_H-M "C 2/M"
_symmetry_group_IT_number 12
_symmetry_cell_setting 'monoclinic'
loop_
_space_group_symop_operation_xyz
x,y,z
-x,y,-z
-x,-y,-z
x,-y,z
1/2+x,1/2+y,z
1/2-x,1/2+y,-z
1/2-x,1/2-y,-z
1/2+x,1/2-y,z
loop_
_atom_site_type_symbol
_atom_site_label
_atom_site_fract_x
_atom_site_fract_y
_atom_site_fract_z
Si Si1 0.171935 0.069973 0.003518
Si Si2 0.506859 0.069848 0.391785
Si Si3 0.329882 0.570930 0.648673
Si Si4 0.024252 0.201489 0.758940
Si Si5 0.316229 0.246770 0.784027
Si Si6 0.873795 0.660556 0.004730
Si Si7 0.277321 0.625643 0.832197
O O1 0.280128 0.099904 0.991978
O O2 0.224816 0.114874 0.089847
O O3 0.224653 0.000000 0.043413
O O4 0.938219 0.075045 0.883554
O O5 0.710755 0.081592 0.523975
O O6 0.337650 0.072992 0.370872
O O7 0.431527 0.114512 0.298900
O O8 0.511877 0.000000 0.367777
O O9 0.408535 0.500000 0.684973
O O10 0.469262 0.629340 0.724613
O O11 0.111560 0.226009 0.727580
O O12 0.846585 0.235425 0.718718
O O13 0.204532 0.204242 0.895480
O O14 0.479301 0.196140 0.877894
O O15 0.360572 0.309760 0.845274
O O16 0.000000 0.641143 0.000000
#
# Coordination Sequence:
#
# PCOD9212998 Si02
#       7
#     8   8   8   8   8   8   8
#     4  11  22  33  51  84 116 142 180 231 288 336
#     4   9  16  31  55  82 113 143 183 234 285 326
#     4   9  18  33  57  84 110 143 189 237 281 328
#     4  11  21  36  57  84 113 148 190 235 276 334
#     4  11  22  35  57  80 112 152 190 224 275 336
#     4  10  22  36  55  78 110 152 191 225 269 338
#     4  11  20  32  55  82 112 146 182 232 277 331
#
# _framework density 19.113492000000001
#
# number of rings (size 3 to 8) (size 9 to 14) (size 15 to 20)
#    0.000    1.714    2.857    3.857    6.000    2.000 
#    0.000    2.857    0.000    0.000    0.000    3.000 
#    0.000   25.143    0.000    0.000    0.000    0.000 
#
# Total GULP energy -155937.166188 kJ/mol
# GULP energy per Si atom -5569.184507 kJ/mol
# Density = 1.906999 g / cm^3
# Si number density = 19.113492 Si / 1000 Ang^3
#
#
#
# Elastic Constant Matrix: (Units=GPa)
#
#
# Indices 1 2 3 4 5 6 
#
# 1 106.4912 33.2930 6.8331 0.0003 5.1396 0.0002
# 2 33.2930 56.8945 15.3769 0.0001 4.6235 0.0000
# 3 6.8331 15.3769 47.1969 0.0017 -8.3401 0.0014
# 4 0.0003 0.0001 0.0017 17.8113 0.0006 4.9944
# 5 5.1396 4.6235 -8.3401 0.0006 6.7134 0.0005
# 6 0.0002 0.0000 0.0014 4.9944 0.0005 6.3547
#
#
#
# Elastic Compliance Matrix: (Units=1/GPa)
#
#
# Indices 1 2 3 4 5 6 
#
# 1 0.011629 -0.006199 -0.000619 0.000000 -0.005403 0.000000
# 2 -0.006199 0.027342 -0.013453 0.000001 -0.030797 0.000005
# 3 -0.000619 -0.013453 0.035083 -0.000002 0.053322 -0.000010
# 4 0.000000 0.000001 -0.000002 0.072015 -0.000005 -0.056599
# 5 -0.005403 -0.030797 0.053322 -0.000005 0.240543 -0.000026
# 6 0.000000 0.000005 -0.000010 -0.056599 -0.000026 0.201847
#
#
# Mechanical properties :
#
#
# Convention : Reuss Voigt Hill
#
# Bulk Modulus (GPa) = 29.83879 35.73205 32.78542
# Shear Modulus (GPa) = 7.81042 16.51453 12.16247
#
# Velocity S-wave (km/s) = 2.02366 2.94262 2.52529
# Velocity P-wave (km/s) = 4.59408 5.50278 5.06883
#
# Compressibility (1/GPa) = 0.03351342
#
# Stress axis : x y z
#
# Youngs Moduli (GPa) = 85.99349 36.57342 28.50388
#
# Poissons Ratio (x) = 0.22670 0.01764
# Poissons Ratio (y) = 0.53304 0.38346
# Poissons Ratio (z) = 0.05321 0.49202
#
# Static dielectric constant tensor:
#      x y z
#    x 1.718510 0.000000 -0.002100 
#    y 0.000000 1.670030 0.000000 
#    z -0.002100 0.000000 1.694920 
# 
# From -- ./inp_files/190390.got.cif
#   From: 2010.05.17/outbox.cif.g08.bks.cpg/sg12_96_cif.got.tgz:190390.got - 2010.06.03 13:09:07.
