data_PCOD9212904
_publ_section_title
;
Structure prediction by ZEFSAII (Michael W. Deem and Ramdas Pophale) SiO2 
 PCOD9212904
Probable space group: C 2/M
;
_chemical_formula_sum "Si O2"
_cell_formula_units_Z 36
_cell_length_a 9.500571
_cell_length_b 17.880354
_cell_length_c 11.242416
_cell_angle_alpha 90.000000
_cell_angle_beta 79.362903
_cell_angle_gamma 90.000000
_cell_volume 1876.971629
_symmetry_space_group_name_H-M "C 2/M"
_symmetry_group_IT_number 12
_symmetry_cell_setting 'monoclinic'
loop_
_space_group_symop_operation_xyz
x,y,z
-x,y,-z
-x,-y,-z
x,-y,z
1/2+x,1/2+y,z
1/2-x,1/2+y,-z
1/2-x,1/2-y,-z
1/2+x,1/2-y,z
loop_
_atom_site_type_symbol
_atom_site_label
_atom_site_fract_x
_atom_site_fract_y
_atom_site_fract_z
Si Si1 0.852026 0.637123 0.193064
Si Si2 0.000000 0.253956 0.000000
Si Si3 0.450279 0.000000 0.872090
Si Si4 0.971117 0.141234 0.783640
Si Si5 0.887016 0.000000 0.127214
Si Si6 0.899420 0.740597 0.411829
O O1 0.882740 0.689071 0.072570
O O2 0.688826 0.609769 0.210593
O O3 0.870550 0.688163 0.304856
O O4 0.971644 0.573685 0.188007
O O5 0.961485 0.200346 0.895214
O O6 0.279140 0.000000 0.885816
O O7 0.500000 0.000000 0.000000
O O8 0.028219 0.185808 0.659164
O O9 0.076826 0.074801 0.804765
O O10 0.000000 0.000000 0.000000
O O11 0.750000 0.750000 0.500000
O O12 0.000000 0.709660 0.500000
#
# Coordination Sequence:
#
# PCOD9212904 Si02
#       6
#     8   4   4   8   4   8
#     4  11  23  41  67  96 133 171 217 269 329 388
#     4  10  22  34  68  98 130 160 220 262 336 380
#     4  12  26  42  64  96 138 173 214 267 332 394
#     4  11  23  41  67  96 133 172 216 268 331 386
#     4  12  26  42  64  96 138 172 216 265 332 399
#     4  11  24  45  70  97 130 172 225 274 320 381
#
# _framework density 19.179832000000001
#
# number of rings (size 3 to 8) (size 9 to 14) (size 15 to 20)
#    0.000    0.889    4.444    2.667    3.111    1.778 
#    0.000    2.222    0.000    0.000    0.000    0.000 
#    0.000    0.000    0.000    0.000    0.000    0.000 
#
# Total GULP energy -100464.998766 kJ/mol
# GULP energy per Si atom -5581.388820 kJ/mol
# Density = 1.913618 g / cm^3
# Si number density = 19.179832 Si / 1000 Ang^3
#
#
#
# Elastic Constant Matrix: (Units=GPa)
#
#
# Indices 1 2 3 4 5 6 
#
# 1 176.1450 36.7434 29.1769 0.0000 -19.6251 0.0000
# 2 36.7434 80.7951 25.1798 0.0000 -13.5064 0.0000
# 3 29.1769 25.1798 105.2247 0.0000 -14.8617 0.0000
# 4 0.0000 0.0000 0.0000 8.7643 0.0000 -1.9366
# 5 -19.6251 -13.5064 -14.8617 0.0000 28.7998 0.0000
# 6 0.0000 0.0000 0.0000 -1.9366 0.0000 26.8262
#
#
#
# Elastic Compliance Matrix: (Units=1/GPa)
#
#
# Indices 1 2 3 4 5 6 
#
# 1 0.006624 -0.002236 -0.000876 0.000000 0.003013 0.000000
# 2 -0.002236 0.014827 -0.002331 0.000000 0.004227 0.000000
# 3 -0.000876 -0.002331 0.010857 0.000000 0.003912 0.000000
# 4 0.000000 0.000000 0.000000 0.115950 0.000000 0.008371
# 5 0.003013 0.004227 0.003912 0.000000 0.040777 0.000000
# 6 0.000000 0.000000 0.000000 0.008371 0.000000 0.037881
#
#
# Mechanical properties :
#
#
# Convention : Reuss Voigt Hill
#
# Bulk Modulus (GPa) = 46.68106 60.48500 53.58303
# Shear Modulus (GPa) = 20.41294 30.94903 25.68098
#
# Velocity S-wave (km/s) = 3.26589 4.02135 3.66315
# Velocity P-wave (km/s) = 6.21392 7.29149 6.77417
#
# Compressibility (1/GPa) = 0.02142196
#
# Stress axis : x y z
#
# Youngs Moduli (GPa) = 150.95735 67.44519 92.10825
#
# Poissons Ratio (x) = 0.15079 0.08071
# Poissons Ratio (y) = 0.33751 0.21471
# Poissons Ratio (z) = 0.13227 0.15722
#
# Static dielectric constant tensor:
#      x y z
#    x 1.592340 0.000000 -0.014550 
#    y 0.000000 1.646010 0.000000 
#    z -0.014550 0.000000 1.610210 
# 
# From -- ./inp_files/118811.got.cif
#   From: 2010.05.17/outbox.cif.g08.bks.cpg/sg12_60_cif.got.tgz:118811.got - 2010.06.03 13:09:07.
