data_PCOD9212305
_publ_section_title
;
Structure prediction by ZEFSAII (Michael W. Deem and Ramdas Pophale) SiO2 
 PCOD9212305
Probable space group: C 2/M
;
_chemical_formula_sum "Si O2"
_cell_formula_units_Z 56
_cell_length_a 31.071208
_cell_length_b 9.020279
_cell_length_c 18.390482
_cell_angle_alpha 90.000000
_cell_angle_beta 144.787282
_cell_angle_gamma 90.000000
_cell_volume 2972.050372
_symmetry_space_group_name_H-M "C 2/M"
_symmetry_group_IT_number 12
_symmetry_cell_setting 'monoclinic'
loop_
_space_group_symop_operation_xyz
x,y,z
-x,y,-z
-x,-y,-z
x,-y,z
1/2+x,1/2+y,z
1/2-x,1/2+y,-z
1/2-x,1/2-y,-z
1/2+x,1/2-y,z
loop_
_atom_site_type_symbol
_atom_site_label
_atom_site_fract_x
_atom_site_fract_y
_atom_site_fract_z
Si Si1 0.671704 0.176539 0.871695
Si Si2 0.912744 0.678809 0.393097
Si Si3 0.735382 0.824405 0.558121
Si Si4 0.613498 0.326583 0.490388
Si Si5 0.948913 0.170820 0.196881
Si Si6 0.018954 0.327510 0.906871
Si Si7 0.877032 0.327227 0.808966
O O1 0.637271 0.220631 0.745685
O O2 0.611301 0.226612 0.847555
O O3 0.679852 0.000000 0.882707
O O4 0.750000 0.250000 0.000000
O O5 0.910625 0.500000 0.398215
O O6 0.882714 0.753836 0.424837
O O7 0.000000 0.719778 0.500000
O O8 0.750000 0.750000 0.500000
O O9 0.664703 0.756370 0.502337
O O10 0.807717 0.780492 0.705371
O O11 0.727255 0.000000 0.538684
O O12 0.634413 0.500000 0.521907
O O13 0.527802 0.315603 0.346708
O O14 0.962290 0.221799 0.133206
O O15 0.924457 0.000000 0.166681
O O16 0.020273 0.500000 0.885064
O O17 0.937617 0.298903 0.829179
O O18 0.078116 0.311490 0.053940
O O19 0.853110 0.500000 0.769818
#
# Coordination Sequence:
#
# PCOD9212305 Si02
#       7
#     8   8   8   8   8   8   8
#     4  11  24  42  65  91 124 161 200 252 311 370
#     4  10  21  41  67  93 122 160 207 257 311 370
#     4  12  25  40  60  87 123 162 203 253 307 362
#     4  11  24  40  63  93 123 161 207 255 308 368
#     4  11  23  38  59  89 121 154 200 249 301 365
#     4   9  19  36  61  87 115 156 200 244 300 363
#     4   9  19  38  60  85 117 155 200 248 301 362
#
# _framework density 18.842210999999999
#
# number of rings (size 3 to 8) (size 9 to 14) (size 15 to 20)
#    0.000    1.571    1.429    4.286    0.000    7.714 
#    0.000    1.429    0.000    0.000    0.000    0.000 
#    0.000    0.000    0.000    0.000    0.000    0.000 
#
# Total GULP energy -156507.885619 kJ/mol
# GULP energy per Si atom -5589.567344 kJ/mol
# Density = 1.879933 g / cm^3
# Si number density = 18.842211 Si / 1000 Ang^3
#
#
#
# Elastic Constant Matrix: (Units=GPa)
#
#
# Indices 1 2 3 4 5 6 
#
# 1 104.7966 51.8864 38.0237 0.0000 -13.4006 0.0000
# 2 51.8864 81.7664 47.2236 0.0000 0.0967 0.0000
# 3 38.0237 47.2236 80.4098 0.0000 1.9816 0.0000
# 4 0.0000 0.0000 0.0000 18.7203 0.0000 -3.1052
# 5 -13.4006 0.0967 1.9816 0.0000 26.8119 0.0000
# 6 0.0000 0.0000 0.0000 -3.1052 0.0000 34.8325
#
#
#
# Elastic Compliance Matrix: (Units=1/GPa)
#
#
# Indices 1 2 3 4 5 6 
#
# 1 0.015729 -0.008444 -0.002678 0.000000 0.008090 0.000000
# 2 -0.008444 0.023055 -0.009458 0.000000 -0.003604 0.000000
# 3 -0.002678 -0.009458 0.019325 0.000000 -0.002733 0.000000
# 4 0.000000 0.000000 0.000000 0.054220 0.000000 0.004834
# 5 0.008090 -0.003604 -0.002733 0.000000 0.041555 0.000000
# 6 0.000000 0.000000 0.000000 0.004834 0.000000 0.029140
#
#
# Mechanical properties :
#
#
# Convention : Reuss Voigt Hill
#
# Bulk Modulus (GPa) = 59.00331 60.13782 59.57056
# Shear Modulus (GPa) = 21.75483 24.72888 23.24185
#
# Velocity S-wave (km/s) = 3.40160 3.62666 3.51593
# Velocity P-wave (km/s) = 6.84180 7.03724 6.94021
#
# Compressibility (1/GPa) = 0.01694820
#
# Stress axis : x y z
#
# Youngs Moduli (GPa) = 63.57548 43.37442 51.74717
#
# Poissons Ratio (x) = 0.36626 0.13859
# Poissons Ratio (y) = 0.53684 0.48943
# Poissons Ratio (z) = 0.17027 0.41024
#
# Static dielectric constant tensor:
#      x y z
#    x 1.618230 0.000000 -0.005450 
#    y 0.000000 1.634270 0.000000 
#    z -0.005450 0.000000 1.652320 
# 
# From -- ./inp_files/280938.got.cif
#   From: 2010.05.17/outbox.cif.g08.bks.cpg/sg12_141_cif.got.tgz:280938.got - 2010.06.03 13:09:07.
