data_PCOD9212638
_publ_section_title
;
Structure prediction by ZEFSAII (Michael W. Deem and Ramdas Pophale) SiO2 
 PCOD9212638
Probable space group: C 2/M
;
_chemical_formula_sum "Si O2"
_cell_formula_units_Z 44
_cell_length_a 7.228274
_cell_length_b 18.291642
_cell_length_c 17.278951
_cell_angle_alpha 90.000000
_cell_angle_beta 55.925706
_cell_angle_gamma 90.000000
_cell_volume 1892.337139
_symmetry_space_group_name_H-M "C 2/M"
_symmetry_group_IT_number 12
_symmetry_cell_setting 'monoclinic'
loop_
_space_group_symop_operation_xyz
x,y,z
-x,y,-z
-x,-y,-z
x,-y,z
1/2+x,1/2+y,z
1/2-x,1/2+y,-z
1/2-x,1/2-y,-z
1/2+x,1/2-y,z
loop_
_atom_site_type_symbol
_atom_site_label
_atom_site_fract_x
_atom_site_fract_y
_atom_site_fract_z
Si Si1 0.730430 0.000000 0.055172
Si Si2 0.832451 0.339908 0.972914
Si Si3 0.591819 0.416636 0.393762
Si Si4 0.321972 0.810817 0.226344
Si Si5 0.722060 0.000000 0.399206
Si Si6 0.527966 0.341254 0.826696
Si Si7 0.250329 0.000000 0.781868
O O1 0.664486 0.072649 0.027987
O O2 0.622798 0.000000 0.166216
O O3 0.000000 0.000000 0.000000
O O4 0.926965 0.321041 0.866086
O O5 0.590776 0.320621 0.063817
O O6 0.000000 0.313809 0.000000
O O7 0.500000 0.395533 0.500000
O O8 0.685138 0.500000 0.379196
O O9 0.757531 0.358558 0.316029
O O10 0.378931 0.431399 0.387033
O O11 0.301316 0.723058 0.237702
O O12 0.160578 0.839514 0.195950
O O13 0.500000 0.000000 0.500000
O O14 0.654792 0.000000 0.326245
O O15 0.616265 0.423257 0.814622
#
# Coordination Sequence:
#
# PCOD9212638 Si02
#       7
#     4   8   8   8   4   8   4
#     4  12  23  35  63  99 129 171 234 283 316 402
#     4  10  23  40  63  93 137 183 223 272 339 399
#     4   9  20  43  70  99 133 171 223 275 338 409
#     4  11  24  40  67  97 134 177 228 276 341 399
#     4  10  21  42  70  95 125 175 218 270 342 409
#     4  11  23  44  64  96 136 184 217 283 328 404
#     4  12  24  43  68  91 140 169 227 272 345 392
#
# _framework density 23.251671999999999
#
# number of rings (size 3 to 8) (size 9 to 14) (size 15 to 20)
#    0.545    0.909    3.636    0.818    3.818    2.909 
#    0.000    1.818    0.000    0.000    0.000    0.000 
#    0.000    0.000    0.000    0.000    0.000    0.000 
#
# Total GULP energy -122862.623224 kJ/mol
# GULP energy per Si atom -5584.664692 kJ/mol
# Density = 2.319875 g / cm^3
# Si number density = 23.251672 Si / 1000 Ang^3
#
#
#
# Elastic Constant Matrix: (Units=GPa)
#
#
# Indices 1 2 3 4 5 6 
#
# 1 61.1594 21.8268 30.3929 0.0000 7.3446 0.0000
# 2 21.8268 181.0690 72.8475 0.0000 -8.2847 0.0000
# 3 30.3929 72.8475 212.3747 0.0000 7.4169 0.0000
# 4 0.0000 0.0000 0.0000 35.1816 0.0000 8.8236
# 5 7.3446 -8.2847 7.4169 0.0000 32.0315 0.0000
# 6 0.0000 0.0000 0.0000 8.8236 0.0000 17.0471
#
#
#
# Elastic Compliance Matrix: (Units=1/GPa)
#
#
# Indices 1 2 3 4 5 6 
#
# 1 0.018395 -0.001635 -0.001925 0.000000 -0.004195 0.000000
# 2 -0.001635 0.006707 -0.002158 0.000000 0.002609 0.000000
# 3 -0.001925 -0.002158 0.005775 0.000000 -0.001454 0.000000
# 4 0.000000 0.000000 0.000000 0.032664 0.000000 -0.016907
# 5 -0.004195 0.002609 -0.001454 0.000000 0.033193 0.000000
# 6 0.000000 0.000000 0.000000 -0.016907 0.000000 0.067412
#
#
# Mechanical properties :
#
#
# Convention : Reuss Voigt Hill
#
# Bulk Modulus (GPa) = 51.43658 78.30416 64.87037
# Shear Modulus (GPa) = 27.46312 38.82109 33.14211
#
# Velocity S-wave (km/s) = 3.44048 4.09051 3.77950
# Velocity P-wave (km/s) = 6.16054 7.48730 6.85609
#
# Compressibility (1/GPa) = 0.01944142
#
# Stress axis : x y z
#
# Youngs Moduli (GPa) = 54.36372 149.08986 173.15598
#
# Poissons Ratio (x) = 0.24372 0.33336
# Poissons Ratio (y) = 0.08887 0.37365
# Poissons Ratio (z) = 0.10466 0.32172
#
# Static dielectric constant tensor:
#      x y z
#    x 1.920790 0.000000 -0.034260 
#    y 0.000000 1.894670 0.000000 
#    z -0.034260 0.000000 1.876120 
# 
# From -- ./inp_files/256890.got.cif
#   From: 2010.05.17/outbox.cif.g08.bks.cpg/sg12_129_cif.got.tgz:256890.got - 2010.06.03 13:09:07.
