data_PCOD9212326
_publ_section_title
;
Structure prediction by ZEFSAII (Michael W. Deem and Ramdas Pophale) SiO2 
 PCOD9212326
Probable space group: C 2/M
;
_chemical_formula_sum "Si O2"
_cell_formula_units_Z 56
_cell_length_a 12.325540
_cell_length_b 26.501153
_cell_length_c 14.572151
_cell_angle_alpha 90.000000
_cell_angle_beta 38.622336
_cell_angle_gamma 90.000000
_cell_volume 2971.030903
_symmetry_space_group_name_H-M "C 2/M"
_symmetry_group_IT_number 12
_symmetry_cell_setting 'monoclinic'
loop_
_space_group_symop_operation_xyz
x,y,z
-x,y,-z
-x,-y,-z
x,-y,z
1/2+x,1/2+y,z
1/2-x,1/2+y,-z
1/2-x,1/2-y,-z
1/2+x,1/2-y,z
loop_
_atom_site_type_symbol
_atom_site_label
_atom_site_fract_x
_atom_site_fract_y
_atom_site_fract_z
Si Si1 0.507773 0.823151 0.258631
Si Si2 0.814888 0.107488 0.569065
Si Si3 0.045979 0.868563 0.262735
Si Si4 0.881387 0.145985 0.996061
Si Si5 0.074965 0.762286 0.350947
Si Si6 0.187861 0.556143 0.827721
Si Si7 0.978864 0.257994 0.106575
O O1 0.327703 0.848833 0.348708
O O2 0.492713 0.786879 0.356737
O O3 0.547359 0.786400 0.148181
O O4 0.675600 0.859692 0.152259
O O5 0.714367 0.067549 0.701027
O O6 0.000000 0.116040 0.500000
O O7 0.884723 0.102390 0.418448
O O8 0.056526 0.870061 0.146063
O O9 0.052691 0.811073 0.298896
O O10 0.211132 0.898732 0.190600
O O11 0.917589 0.206247 0.972125
O O12 0.000000 0.124779 0.000000
O O13 0.274096 0.748791 0.242284
O O14 0.000000 0.773639 0.500000
O O15 0.262731 0.500000 0.794260
O O16 0.000000 0.556083 0.000000
O O17 0.000000 0.290248 0.000000
#
# Coordination Sequence:
#
# PCOD9212326 Si02
#       7
#     8   8   8   8   8   8   8
#     4  12  22  36  54  75 116 161 204 248 296 336
#     4  10  23  38  56  91 119 156 195 241 300 362
#     4  11  22  38  56  84 120 156 196 248 302 357
#     4  11  22  37  53  79 111 156 211 254 285 350
#     4  12  24  34  51  80 117 163 208 244 294 347
#     4  10  21  41  67  95 120 148 190 246 307 368
#     4  11  20  34  49  72 102 148 203 250 280 336
#
# _framework density 18.848676000000001
#
# number of rings (size 3 to 8) (size 9 to 14) (size 15 to 20)
#    0.000    1.000    4.286    6.000    2.000    4.857 
#    0.000    0.000    0.000    0.429    0.000    0.000 
#    0.000    8.571    0.000    0.000    0.000    0.000 
#
# Total GULP energy -155937.146336 kJ/mol
# GULP energy per Si atom -5569.183798 kJ/mol
# Density = 1.880578 g / cm^3
# Si number density = 18.848676 Si / 1000 Ang^3
#
#
#
# Elastic Constant Matrix: (Units=GPa)
#
#
# Indices 1 2 3 4 5 6 
#
# 1 72.8688 20.3291 29.0065 0.0000 12.9351 0.0000
# 2 20.3291 42.6275 27.0216 0.0000 2.6085 0.0000
# 3 29.0065 27.0216 106.1876 0.0000 9.1902 0.0000
# 4 0.0000 0.0000 0.0000 6.3192 0.0000 3.8262
# 5 12.9351 2.6085 9.1902 0.0000 45.9160 0.0000
# 6 0.0000 0.0000 0.0000 3.8262 0.0000 6.5945
#
#
#
# Elastic Compliance Matrix: (Units=1/GPa)
#
#
# Indices 1 2 3 4 5 6 
#
# 1 0.017273 -0.006226 -0.002792 0.000000 -0.003954 0.000000
# 2 -0.006226 0.030216 -0.006097 0.000000 0.001258 0.000000
# 3 -0.002792 -0.006097 0.011839 0.000000 -0.001237 0.000000
# 4 0.000000 0.000000 0.000000 0.243949 0.000000 -0.141541
# 5 -0.003954 0.001258 -0.001237 0.000000 0.023069 0.000000
# 6 0.000000 0.000000 0.000000 -0.141541 0.000000 0.233765
#
#
# Mechanical properties :
#
#
# Convention : Reuss Voigt Hill
#
# Bulk Modulus (GPa) = 34.36679 41.59979 37.98329
# Shear Modulus (GPa) = 8.33276 21.45439 14.89358
#
# Velocity S-wave (km/s) = 2.10487 3.37745 2.81404
# Velocity P-wave (km/s) = 4.91730 6.10965 5.54562
#
# Compressibility (1/GPa) = 0.02909786
#
# Stress axis : x y z
#
# Youngs Moduli (GPa) = 57.89249 33.09475 84.46980
#
# Poissons Ratio (x) = 0.20605 0.23584
# Poissons Ratio (y) = 0.36043 0.51504
# Poissons Ratio (z) = 0.16163 0.20179
#
# Static dielectric constant tensor:
#      x y z
#    x 1.707470 0.000000 0.033560 
#    y 0.000000 1.657020 0.000000 
#    z 0.033560 0.000000 1.837570 
# 
# From -- ./inp_files/209092.got.cif
#   From: 2010.05.17/outbox.cif.g08.bks.cpg/sg12_105_cif.got.tgz:209092.got - 2010.06.03 13:09:07.
