data_PCOD9212028
_publ_section_title
;
Structure prediction by ZEFSAII (Michael W. Deem and Ramdas Pophale) SiO2 
 PCOD9212028
Probable space group: C 2/M
;
_chemical_formula_sum "Si O2"
_cell_formula_units_Z 48
_cell_length_a 29.682808
_cell_length_b 23.777581
_cell_length_c 20.831359
_cell_angle_alpha 90.000000
_cell_angle_beta 170.968742
_cell_angle_gamma 90.000000
_cell_volume 2307.894698
_symmetry_space_group_name_H-M "C 2/M"
_symmetry_group_IT_number 12
_symmetry_cell_setting 'monoclinic'
loop_
_space_group_symop_operation_xyz
x,y,z
-x,y,-z
-x,-y,-z
x,-y,z
1/2+x,1/2+y,z
1/2-x,1/2+y,-z
1/2-x,1/2-y,-z
1/2+x,1/2-y,z
loop_
_atom_site_type_symbol
_atom_site_label
_atom_site_fract_x
_atom_site_fract_y
_atom_site_fract_z
Si Si1 0.031280 0.618505 0.791361
Si Si2 0.094927 0.800019 0.201663
Si Si3 0.513341 0.302897 0.221434
Si Si4 0.157447 0.500000 0.153467
Si Si5 0.292360 0.500000 0.144797
Si Si6 0.392416 0.870283 0.958229
Si Si7 0.163153 0.814744 0.889071
O O1 0.707644 0.637214 0.349361
O O2 0.098987 0.554390 0.875465
O O3 0.182963 0.634619 0.072402
O O4 0.130233 0.650762 0.867098
O O5 0.366967 0.760100 0.599483
O O6 0.892121 0.800365 0.978269
O O7 0.000000 0.777215 0.000000
O O8 0.332203 0.322209 0.027377
O O9 0.800227 0.341453 0.621812
O O10 0.502054 0.500000 0.628222
O O11 0.085202 0.437649 0.023208
O O12 0.000000 0.500000 0.000000
O O13 0.500000 0.500000 0.500000
O O14 0.151617 0.837377 0.577863
O O15 0.250000 0.750000 0.000000
#
# Coordination Sequence:
#
# PCOD9212028 Si02
#       7
#     8   8   8   4   4   8   8
#     4  11  22  38  61  88 117 162 201 247 308 357
#     4  10  21  41  59  82 117 159 201 244 297 363
#     4  10  22  37  58  84 118 160 195 245 299 357
#     4  12  22  34  58  94 120 163 192 244 316 355
#     4  12  20  40  61  88 124 155 199 254 301 356
#     4  11  22  38  59  85 130 158 198 246 305 372
#     4  12  21  34  52  89 119 157 199 242 300 358
#
# _framework density 20.798176000000002
#
# number of rings (size 3 to 8) (size 9 to 14) (size 15 to 20)
#    0.000    1.000    5.000    3.000    0.000    0.000 
#    3.000    1.250    0.000    0.000    0.000    1.167 
#    0.000    0.000    0.000    0.000    0.000    0.000 
#
# Total GULP energy -133792.441678 kJ/mol
# GULP energy per Si atom -5574.685070 kJ/mol
# Density = 2.075084 g / cm^3
# Si number density = 20.798176 Si / 1000 Ang^3
#
#
#
# Elastic Constant Matrix: (Units=GPa)
#
#
# Indices 1 2 3 4 5 6 
#
# 1 225.4852 37.8210 26.8332 -0.0071 5.4865 -0.0101
# 2 37.8210 166.9089 21.3050 -0.0039 0.4943 0.0011
# 3 26.8332 21.3050 23.1194 -0.0086 1.5494 -0.0097
# 4 -0.0071 -0.0039 -0.0086 26.3163 -0.0038 9.2095
# 5 5.4865 0.4943 1.5494 -0.0038 29.5392 -0.0063
# 6 -0.0101 0.0011 -0.0097 9.2095 -0.0063 27.4726
#
#
#
# Elastic Compliance Matrix: (Units=1/GPa)
#
#
# Indices 1 2 3 4 5 6 
#
# 1 0.005190 -0.000466 -0.005550 -0.000001 -0.000665 0.000000
# 2 -0.000466 0.006833 -0.005775 0.000000 0.000275 -0.000002
# 3 -0.005550 -0.005775 0.055135 0.000011 -0.001765 0.000014
# 4 -0.000001 0.000000 0.000011 0.043050 0.000002 -0.014431
# 5 -0.000665 0.000275 -0.001765 0.000002 0.034065 0.000006
# 6 0.000000 -0.000002 0.000014 -0.014431 0.000006 0.041238
#
#
# Mechanical properties :
#
#
# Convention : Reuss Voigt Hill
#
# Bulk Modulus (GPa) = 22.94776 65.27019 44.10898
# Shear Modulus (GPa) = 22.35983 38.63590 30.49787
#
# Velocity S-wave (km/s) = 3.28241 4.31473 3.83348
# Velocity P-wave (km/s) = 5.04213 7.50155 6.39126
#
# Compressibility (1/GPa) = 0.04357724
#
# Stress axis : x y z
#
# Youngs Moduli (GPa) = 192.69427 146.34618 18.13741
#
# Poissons Ratio (x) = 0.06814 0.10065
# Poissons Ratio (y) = 0.08972 0.10474
# Poissons Ratio (z) = 1.06937 0.84513
#
# Static dielectric constant tensor:
#      x y z
#    x 1.824420 -0.000010 -0.043930 
#    y -0.000010 1.756080 -0.000010 
#    z -0.043930 -0.000010 1.821060 
# 
# From -- ./inp_files/330593.got.cif
#   From: 2010.05.17/outbox.cif.g08.bks.cpg/sg12_166_cif.got.tgz:330593.got - 2010.06.03 13:09:07.
