data_PCOD9212013
_publ_section_title
;
Structure prediction by ZEFSAII (Michael W. Deem and Ramdas Pophale) SiO2 
 PCOD9212013
Probable space group: C 2/M
;
_chemical_formula_sum "Si O2"
_cell_formula_units_Z 56
_cell_length_a 18.533588
_cell_length_b 23.450026
_cell_length_c 9.433939
_cell_angle_alpha 90.000000
_cell_angle_beta 144.207361
_cell_angle_gamma 90.000000
_cell_volume 2397.965705
_symmetry_space_group_name_H-M "C 2/M"
_symmetry_group_IT_number 12
_symmetry_cell_setting 'monoclinic'
loop_
_space_group_symop_operation_xyz
x,y,z
-x,y,-z
-x,-y,-z
x,-y,z
1/2+x,1/2+y,z
1/2-x,1/2+y,-z
1/2-x,1/2-y,-z
1/2+x,1/2-y,z
loop_
_atom_site_type_symbol
_atom_site_label
_atom_site_fract_x
_atom_site_fract_y
_atom_site_fract_z
Si Si1 0.725718 0.614917 0.601130
Si Si2 0.440221 0.169002 0.058541
Si Si3 0.144507 0.936613 0.756295
Si Si4 0.238202 0.363998 0.811286
Si Si5 0.356748 0.295458 0.736554
Si Si6 0.396775 0.934424 0.625653
Si Si7 0.393557 0.767714 0.246884
O O1 0.691172 0.573141 0.670905
O O2 0.633594 0.651184 0.357587
O O3 0.817228 0.583138 0.637557
O O4 0.796853 0.664204 0.800730
O O5 0.489429 0.109206 0.196851
O O6 0.456184 0.218328 0.196332
O O7 0.500000 0.172766 0.000000
O O8 0.000000 0.934383 0.500000
O O9 0.181241 0.000000 0.864930
O O10 0.183508 0.889160 0.933489
O O11 0.300662 0.322631 0.792380
O O12 0.186196 0.417370 0.640274
O O13 0.129639 0.326447 0.705335
O O14 0.250000 0.250000 0.500000
O O15 0.500000 0.279863 0.000000
O O16 0.431891 0.000000 0.685734
O O17 0.500000 0.733041 0.500000
O O18 0.250000 0.750000 0.000000
#
# Coordination Sequence:
#
# PCOD9212013 Si02
#       7
#     8   8   8   8   8   8   8
#     4  10  22  42  67 100 144 182 238 301 356 444
#     4  10  22  44  71 100 145 180 237 295 352 435
#     4  11  23  40  68 101 142 193 242 294 366 443
#     4  11  24  44  68 101 147 183 243 304 358 442
#     4  11  27  47  73 104 139 197 250 308 373 433
#     4  10  21  40  71 106 144 187 234 296 369 433
#     4  12  27  49  71 103 140 190 239 301 364 425
#
# _framework density 23.353128000000002
#
# number of rings (size 3 to 8) (size 9 to 14) (size 15 to 20)
#    0.000    1.286    2.857    1.714    2.000    7.714 
#    0.000    1.429    0.000    6.857    0.000    0.000 
#    0.000    0.000    0.000    0.000    0.000    0.000 
#
# Total GULP energy -156148.419495 kJ/mol
# GULP energy per Si atom -5576.729268 kJ/mol
# Density = 2.329998 g / cm^3
# Si number density = 23.353128 Si / 1000 Ang^3
#
#
#
# Elastic Constant Matrix: (Units=GPa)
#
#
# Indices 1 2 3 4 5 6 
#
# 1 100.6765 24.1868 55.9619 0.0000 -20.0678 0.0000
# 2 24.1868 104.1162 59.4148 0.0000 -7.8199 0.0000
# 3 55.9619 59.4148 141.6932 0.0000 -2.4858 0.0000
# 4 0.0000 0.0000 0.0000 38.3030 0.0000 -8.1107
# 5 -20.0678 -7.8199 -2.4858 0.0000 35.8521 0.0000
# 6 0.0000 0.0000 0.0000 -8.1107 0.0000 24.7487
#
#
#
# Elastic Compliance Matrix: (Units=1/GPa)
#
#
# Indices 1 2 3 4 5 6 
#
# 1 0.014643 0.000543 -0.005872 0.000000 0.007907 0.000000
# 2 0.000543 0.012854 -0.005557 0.000000 0.002722 0.000000
# 3 -0.005872 -0.005557 0.011642 0.000000 -0.003692 0.000000
# 4 0.000000 0.000000 0.000000 0.028054 0.000000 0.009194
# 5 0.007907 0.002722 -0.003692 0.000000 0.032656 0.000000
# 6 0.000000 0.000000 0.000000 0.009194 0.000000 0.043419
#
#
# Mechanical properties :
#
#
# Convention : Reuss Voigt Hill
#
# Bulk Modulus (GPa) = 57.57940 69.51253 63.54597
# Shear Modulus (GPa) = 29.26906 33.57560 31.42233
#
# Velocity S-wave (km/s) = 3.54407 3.79586 3.67213
# Velocity P-wave (km/s) = 6.43869 7.00299 6.72676
#
# Compressibility (1/GPa) = 0.01736732
#
# Stress axis : x y z
#
# Youngs Moduli (GPa) = 68.29406 77.79739 85.89568
#
# Poissons Ratio (x) = -0.04227 0.50440
# Poissons Ratio (y) = -0.03711 0.47730
# Poissons Ratio (z) = 0.40104 0.43230
#
# Static dielectric constant tensor:
#      x y z
#    x 1.787490 0.000000 -0.091660 
#    y 0.000000 1.918550 0.000000 
#    z -0.091660 0.000000 1.917870 
# 
# From -- ./inp_files/80082.got.cif
#   From: 2010.05.17/outbox.cif.g08.bks.cpg/sg12_41_cif.got.tgz:80082.got - 2010.06.03 13:09:07.
