data_PCOD9212769
_publ_section_title
;
Structure prediction by ZEFSAII (Michael W. Deem and Ramdas Pophale) SiO2 
 PCOD9212769
Probable space group: C 2/M
;
_chemical_formula_sum "Si O2"
_cell_formula_units_Z 52
_cell_length_a 8.007637
_cell_length_b 20.862856
_cell_length_c 15.471201
_cell_angle_alpha 90.000000
_cell_angle_beta 79.129764
_cell_angle_gamma 90.000000
_cell_volume 2538.275622
_symmetry_space_group_name_H-M "C 2/M"
_symmetry_group_IT_number 12
_symmetry_cell_setting 'monoclinic'
loop_
_space_group_symop_operation_xyz
x,y,z
-x,y,-z
-x,-y,-z
x,-y,z
1/2+x,1/2+y,z
1/2-x,1/2+y,-z
1/2-x,1/2-y,-z
1/2+x,1/2-y,z
loop_
_atom_site_type_symbol
_atom_site_label
_atom_site_fract_x
_atom_site_fract_y
_atom_site_fract_z
Si Si1 0.616866 0.500000 0.846621
Si Si2 0.175782 0.888335 0.702459
Si Si3 0.558030 0.924456 0.660292
Si Si4 0.308111 0.245497 0.738990
Si Si5 0.755795 0.000000 0.974954
Si Si6 0.103618 0.851207 0.402828
Si Si7 0.564143 0.160627 0.818228
Si Si8 0.000000 0.610914 0.000000
O O1 0.646645 0.438180 0.783401
O O2 0.430846 0.500000 0.906931
O O3 0.731795 0.500000 0.921598
O O4 0.367481 0.903957 0.649627
O O5 0.184718 0.814883 0.733224
O O6 0.022378 0.890919 0.648924
O O7 0.716846 0.887611 0.602060
O O8 0.573757 0.903675 0.760287
O O9 0.574741 0.000000 0.648408
O O10 0.352843 0.283869 0.647727
O O11 0.464418 0.208745 0.765693
O O12 0.240770 0.301548 0.809164
O O13 0.654016 0.936107 0.961732
O O14 0.000000 0.841476 0.500000
O O15 0.470458 0.151262 0.917106
#
# Coordination Sequence:
#
# PCOD9212769 Si02
#       8
#     4   8   8   8   4   8   8   4
#     4  11  24  44  69  93 131 176 220 263 335 390
#     4  11  23  44  69  97 132 177 213 281 333 394
#     4  10  23  42  68  95 132 180 221 268 339 399
#     4  10  21  44  65  88 131 174 226 263 332 404
#     4  10  24  40  62 100 130 171 224 266 312 403
#     4  11  26  44  68 100 130 174 229 277 331 402
#     4  10  22  38  62  94 128 177 214 271 327 390
#     4  11  24  36  62 100 138 165 216 278 318 379
#
# _framework density 20.486348
#
# number of rings (size 3 to 8) (size 9 to 14) (size 15 to 20)
#    0.000    1.538    2.308    1.846    7.538    2.154 
#    0.000    2.308    0.000    0.000    0.000    0.000 
#    0.000    0.000    0.000    0.000    0.000    0.000 
#
# Total GULP energy -145066.812340 kJ/mol
# GULP energy per Si atom -5579.492782 kJ/mol
# Density = 2.043972 g / cm^3
# Si number density = 20.486348 Si / 1000 Ang^3
#
#
#
# Elastic Constant Matrix: (Units=GPa)
#
#
# Indices 1 2 3 4 5 6 
#
# 1 77.2795 25.3385 10.3663 0.0000 -12.3949 0.0000
# 2 25.3385 101.4728 22.1163 0.0000 -4.8334 0.0000
# 3 10.3663 22.1163 48.2954 0.0000 -18.5385 0.0000
# 4 0.0000 0.0000 0.0000 24.4390 0.0000 -17.2273
# 5 -12.3949 -4.8334 -18.5385 0.0000 25.0064 0.0000
# 6 0.0000 0.0000 0.0000 -17.2273 0.0000 55.3559
#
#
#
# Elastic Compliance Matrix: (Units=1/GPa)
#
#
# Indices 1 2 3 4 5 6 
#
# 1 0.015244 -0.003754 0.001494 0.000000 0.007938 0.000000
# 2 -0.003754 0.011962 -0.006288 0.000000 -0.004211 0.000000
# 3 0.001494 -0.006288 0.032264 0.000000 0.023444 0.000000
# 4 0.000000 0.000000 0.000000 0.052417 0.000000 0.016313
# 5 0.007938 -0.004211 0.023444 0.000000 0.060491 0.000000
# 6 0.000000 0.000000 0.000000 0.016313 0.000000 0.023142
#
#
# Mechanical properties :
#
#
# Convention : Reuss Voigt Hill
#
# Bulk Modulus (GPa) = 23.59966 38.07666 30.83816
# Shear Modulus (GPa) = 22.05163 32.24205 27.14684
#
# Velocity S-wave (km/s) = 3.28442 3.97146 3.64417
# Velocity P-wave (km/s) = 5.09195 6.29735 5.72646
#
# Compressibility (1/GPa) = 0.04237348
#
# Stress axis : x y z
#
# Youngs Moduli (GPa) = 65.60102 83.59610 30.99424
#
# Poissons Ratio (x) = 0.31382 -0.04631
# Poissons Ratio (y) = 0.24627 0.19491
# Poissons Ratio (z) = -0.09802 0.52569
#
# Static dielectric constant tensor:
#      x y z
#    x 1.856900 0.000000 0.016790 
#    y 0.000000 1.717680 0.000000 
#    z 0.016790 0.000000 1.696090 
# 
# From -- ./inp_files/197038.got.cif
#   From: 2010.05.17/outbox.cif.g08.bks.cpg/sg12_99_cif.got.tgz:197038.got - 2010.06.03 13:09:07.
