data_PCOD9212541
_publ_section_title
;
Structure prediction by ZEFSAII (Michael W. Deem and Ramdas Pophale) SiO2 
 PCOD9212541
Probable space group: C 2/M
;
_chemical_formula_sum "Si O2"
_cell_formula_units_Z 64
_cell_length_a 14.269807
_cell_length_b 16.898664
_cell_length_c 16.900909
_cell_angle_alpha 90.000000
_cell_angle_beta 47.320398
_cell_angle_gamma 90.000000
_cell_volume 2996.125693
_symmetry_space_group_name_H-M "C 2/M"
_symmetry_group_IT_number 12
_symmetry_cell_setting 'monoclinic'
loop_
_space_group_symop_operation_xyz
x,y,z
-x,y,-z
-x,-y,-z
x,-y,z
1/2+x,1/2+y,z
1/2-x,1/2+y,-z
1/2-x,1/2-y,-z
1/2+x,1/2-y,z
loop_
_atom_site_type_symbol
_atom_site_label
_atom_site_fract_x
_atom_site_fract_y
_atom_site_fract_z
Si Si1 0.542754 0.805725 0.237205
Si Si2 0.855305 0.084396 0.609337
Si Si3 0.696812 0.595424 0.898815
Si Si4 0.702332 0.673626 0.211835
Si Si5 0.884920 0.786434 0.192757
Si Si6 0.134543 0.088436 0.111665
Si Si7 0.726951 0.163790 0.548378
Si Si8 0.660684 0.588065 0.666230
O O1 0.662596 0.865969 0.165751
O O2 0.590761 0.737937 0.269830
O O3 0.495556 0.757132 0.184355
O O4 0.421211 0.846934 0.346537
O O5 0.842388 0.101473 0.708906
O O6 0.793435 0.153361 0.594516
O O7 0.000000 0.081335 0.500000
O O8 0.793286 0.000000 0.625642
O O9 0.699674 0.500000 0.880075
O O10 0.624506 0.646192 0.872535
O O11 0.629266 0.606433 0.022397
O O12 0.822002 0.713426 0.183678
O O13 0.722812 0.646594 0.110635
O O14 0.799815 0.835206 0.305546
O O15 0.992439 0.089912 0.230641
O O16 0.185147 0.000000 0.090259
O O17 0.750000 0.250000 0.500000
O O18 0.792025 0.103461 0.449454
O O19 0.702892 0.500000 0.667734
#
# Coordination Sequence:
#
# PCOD9212541 Si02
#       8
#     8   8   8   8   8   8   8   8
#     4  11  23  42  68  96 129 174 219 273 335 389
#     4  11  22  34  55  89 122 159 208 261 318 381
#     4  10  25  46  68  96 136 179 222 273 338 404
#     4  11  21  40  62  90 127 167 213 267 327 388
#     4  11  22  42  65  97 126 172 221 271 324 389
#     4  10  21  42  66  93 132 173 212 273 335 388
#     4  12  21  39  63  93 131 168 214 270 329 388
#     4  11  22  39  65  96 129 167 219 272 328 387
#
# _framework density 21.36092
#
# number of rings (size 3 to 8) (size 9 to 14) (size 15 to 20)
#    0.000    1.125    3.750    2.625    0.000    5.500 
#    2.250    3.750    0.000    5.250    0.000    0.000 
#    0.000    0.000    0.000    0.000    0.000    0.000 
#
# Total GULP energy -178257.440229 kJ/mol
# GULP energy per Si atom -5570.545007 kJ/mol
# Density = 2.131230 g / cm^3
# Si number density = 21.360920 Si / 1000 Ang^3
#
#
#
# Elastic Constant Matrix: (Units=GPa)
#
#
# Indices 1 2 3 4 5 6 
#
# 1 108.2390 35.9508 42.4464 0.0000 1.5339 0.0000
# 2 35.9508 102.6801 37.3261 0.0000 5.0430 0.0000
# 3 42.4464 37.3261 90.3165 0.0000 11.1723 0.0000
# 4 0.0000 0.0000 0.0000 28.8287 0.0000 16.5937
# 5 1.5339 5.0430 11.1723 0.0000 32.9284 0.0000
# 6 0.0000 0.0000 0.0000 16.5937 0.0000 41.9151
#
#
#
# Elastic Compliance Matrix: (Units=1/GPa)
#
#
# Indices 1 2 3 4 5 6 
#
# 1 0.011912 -0.002520 -0.004735 0.000000 0.001438 0.000000
# 2 -0.002520 0.011995 -0.003716 0.000000 -0.000459 0.000000
# 3 -0.004735 -0.003716 0.015381 0.000000 -0.004429 0.000000
# 4 0.000000 0.000000 0.000000 0.044925 0.000000 -0.017785
# 5 0.001438 -0.000459 -0.004429 0.000000 0.031875 0.000000
# 6 0.000000 0.000000 0.000000 -0.017785 0.000000 0.030899
#
#
# Mechanical properties :
#
#
# Convention : Reuss Voigt Hill
#
# Bulk Modulus (GPa) = 57.64983 59.18692 58.41837
# Shear Modulus (GPa) = 28.61881 33.10192 30.86037
#
# Velocity S-wave (km/s) = 3.66426 3.94083 3.80506
# Velocity P-wave (km/s) = 6.70444 6.96240 6.83464
#
# Compressibility (1/GPa) = 0.01734611
#
# Stress axis : x y z
#
# Youngs Moduli (GPa) = 83.94717 83.36986 65.01538
#
# Poissons Ratio (x) = 0.21011 0.30783
# Poissons Ratio (y) = 0.21157 0.24160
# Poissons Ratio (z) = 0.39746 0.30980
#
# Static dielectric constant tensor:
#      x y z
#    x 1.789760 0.000000 0.000470 
#    y 0.000000 1.852010 0.000000 
#    z 0.000470 0.000000 1.824350 
# 
# From -- ./inp_files/216798.got.cif
#   From: 2010.05.17/outbox.cif.g08.bks.cpg/sg12_109_cif.got.tgz:216798.got - 2010.06.03 13:09:07.
