data_PCOD9212916
_publ_section_title
;
Structure prediction by ZEFSAII (Michael W. Deem and Ramdas Pophale) SiO2 
 PCOD9212916
Probable space group: C 2/M
;
_chemical_formula_sum "Si O2"
_cell_formula_units_Z 56
_cell_length_a 11.686146
_cell_length_b 20.900135
_cell_length_c 13.533349
_cell_angle_alpha 90.000000
_cell_angle_beta 106.120093
_cell_angle_gamma 90.000000
_cell_volume 3175.449890
_symmetry_space_group_name_H-M "C 2/M"
_symmetry_group_IT_number 12
_symmetry_cell_setting 'monoclinic'
loop_
_space_group_symop_operation_xyz
x,y,z
-x,y,-z
-x,-y,-z
x,-y,z
1/2+x,1/2+y,z
1/2-x,1/2+y,-z
1/2-x,1/2-y,-z
1/2+x,1/2-y,z
loop_
_atom_site_type_symbol
_atom_site_label
_atom_site_fract_x
_atom_site_fract_y
_atom_site_fract_z
Si Si1 0.896874 0.000000 0.338202
Si Si2 0.332701 0.500000 0.553518
Si Si3 0.603265 0.156201 0.412245
Si Si4 0.407025 0.924604 0.279966
Si Si5 0.739509 0.632387 0.378640
Si Si6 0.775766 0.132405 0.271625
Si Si7 0.442073 0.075920 0.879366
Si Si8 0.002894 0.794084 0.380742
O O1 0.843915 0.935056 0.283813
O O2 0.860032 0.000000 0.444475
O O3 0.038566 0.000000 0.363647
O O4 0.266082 0.563556 0.569303
O O5 0.511703 0.097555 0.380180
O O6 0.664358 0.169837 0.531982
O O7 0.706958 0.141973 0.358727
O O8 0.533685 0.220567 0.368562
O O9 0.292713 0.882902 0.284098
O O10 0.462072 0.912548 0.185041
O O11 0.382398 0.000000 0.282519
O O12 0.612213 0.665205 0.361015
O O13 0.669455 0.122875 0.167416
O O14 0.879290 0.185213 0.300221
O O15 0.407001 0.000000 0.861166
O O16 0.500000 0.084498 0.000000
O O17 0.000000 0.806622 0.500000
#
# Coordination Sequence:
#
# PCOD9212916 Si02
#       8
#     4   4   8   8   8   8   8   8
#     4  11  18  34  48  81 112 143 192 217 261 326
#     4  11  20  28  50  76 116 158 175 217 270 309
#     4  11  24  34  52  75 116 156 189 220 259 318
#     4  10  22  35  53  82 108 139 180 228 284 327
#     4  12  21  33  49  77 116 152 182 221 262 321
#     4  11  21  35  57  82 109 142 189 231 267 324
#     4   9  19  38  63  86 107 134 177 236 289 332
#     4  12  23  37  51  76 116 162 193 213 252 319
#
# _framework density 17.635297000000001
#
# number of rings (size 3 to 8) (size 9 to 14) (size 15 to 20)
#    0.000    1.143    5.714    1.714    4.000    0.571 
#    0.000    0.000    0.000    4.286    0.000    4.000 
#    0.000    0.000    0.000    0.000    0.000    0.000 
#
# Total GULP energy -156203.450857 kJ/mol
# GULP energy per Si atom -5578.694673 kJ/mol
# Density = 1.759516 g / cm^3
# Si number density = 17.635297 Si / 1000 Ang^3
#
#
#
# Elastic Constant Matrix: (Units=GPa)
#
#
# Indices 1 2 3 4 5 6 
#
# 1 80.9601 14.2749 28.2862 0.0000 -1.4006 0.0000
# 2 14.2749 59.1297 7.1525 0.0000 4.1161 0.0000
# 3 28.2862 7.1525 71.7123 0.0000 3.8542 0.0000
# 4 0.0000 0.0000 0.0000 12.9588 0.0000 14.7343
# 5 -1.4006 4.1161 3.8542 0.0000 13.2823 0.0000
# 6 0.0000 0.0000 0.0000 14.7343 0.0000 19.3139
#
#
#
# Elastic Compliance Matrix: (Units=1/GPa)
#
#
# Indices 1 2 3 4 5 6 
#
# 1 0.015034 -0.003221 -0.005838 0.000000 0.004278 0.000000
# 2 -0.003221 0.018126 -0.000221 0.000000 -0.005893 0.000000
# 3 -0.005838 -0.000221 0.016557 0.000000 -0.005352 0.000000
# 4 0.000000 0.000000 0.000000 0.582020 0.000000 -0.444016
# 5 0.004278 -0.005893 -0.005352 0.000000 0.079118 0.000000
# 6 0.000000 0.000000 0.000000 -0.444016 0.000000 0.390510
#
#
# Mechanical properties :
#
#
# Convention : Reuss Voigt Hill
#
# Bulk Modulus (GPa) = 32.09556 34.58104 33.33830
# Shear Modulus (GPa) = 4.42356 19.91689 12.17022
#
# Velocity S-wave (km/s) = 1.58550 3.36427 2.62984
# Velocity P-wave (km/s) = 4.64660 5.89429 5.30723
#
# Compressibility (1/GPa) = 0.03115696
#
# Stress axis : x y z
#
# Youngs Moduli (GPa) = 66.51795 55.16803 60.39675
#
# Poissons Ratio (x) = 0.17769 0.35262
# Poissons Ratio (y) = 0.21425 0.01333
# Poissons Ratio (z) = 0.38836 0.01218
#
# Static dielectric constant tensor:
#      x y z
#    x 1.641270 0.000000 0.001440 
#    y 0.000000 1.619390 0.000000 
#    z 0.001440 0.000000 1.579000 
# 
# From -- ./inp_files/207329.got.cif
#   From: 2010.05.17/outbox.cif.g08.bks.cpg/sg12_104_cif.got.tgz:207329.got - 2010.06.03 13:09:07.
