data_PCOD9212509
_publ_section_title
;
Structure prediction by ZEFSAII (Michael W. Deem and Ramdas Pophale) SiO2 
 PCOD9212509
Probable space group: C 2/M
;
_chemical_formula_sum "Si O2"
_cell_formula_units_Z 50
_cell_length_a 23.177069
_cell_length_b 7.708200
_cell_length_c 13.422759
_cell_angle_alpha 90.000000
_cell_angle_beta 65.434710
_cell_angle_gamma 90.000000
_cell_volume 2180.973128
_symmetry_space_group_name_H-M "C 2/M"
_symmetry_group_IT_number 12
_symmetry_cell_setting 'monoclinic'
loop_
_space_group_symop_operation_xyz
x,y,z
-x,y,-z
-x,-y,-z
x,-y,z
1/2+x,1/2+y,z
1/2-x,1/2+y,-z
1/2-x,1/2-y,-z
1/2+x,1/2-y,z
loop_
_atom_site_type_symbol
_atom_site_label
_atom_site_fract_x
_atom_site_fract_y
_atom_site_fract_z
Si Si1 0.000000 0.500000 0.000000
Si Si2 0.760010 0.208913 0.310012
Si Si3 0.112798 0.791984 0.682327
Si Si4 0.117965 0.707974 0.455514
Si Si5 0.986946 0.199783 0.872260
Si Si6 0.221507 0.203394 0.127198
Si Si7 0.080852 0.302519 0.274915
O O1 0.961978 0.344240 0.965060
O O2 0.818278 0.275303 0.334356
O O3 0.690761 0.273762 0.394227
O O4 0.766522 0.254411 0.188844
O O5 0.759226 0.000000 0.319169
O O6 0.095158 0.745852 0.582344
O O7 0.058505 0.734891 0.797140
O O8 0.113897 0.000000 0.687482
O O9 0.119813 0.500000 0.441993
O O10 0.078183 0.771855 0.388989
O O11 0.952811 0.204981 0.790023
O O12 0.985286 0.000000 0.906869
O O13 0.155886 0.301995 0.195902
O O14 0.206989 0.000000 0.139336
O O15 0.250000 0.250000 0.000000
O O16 0.056325 0.500000 0.292522
#
# Coordination Sequence:
#
# PCOD9212509 Si02
#       7
#     2   8   8   8   8   8   8
#     4  12  26  48  68  88 128 168 210 272 332 376
#     4   9  19  38  57  85 126 168 207 258 316 380
#     4  10  22  38  60  91 130 164 213 265 313 381
#     4   9  19  34  62  92 126 167 209 255 316 388
#     4  11  25  45  68  97 126 169 221 266 321 390
#     4  11  22  37  59  89 120 160 211 270 322 383
#     4  10  21  42  64  91 126 167 210 263 325 381
#
# _framework density 22.925546000000001
#
# number of rings (size 3 to 8) (size 9 to 14) (size 15 to 20)
#    0.000    1.920    0.800    3.600    1.120    5.760 
#    2.880    6.400    0.000    0.000    0.000    0.000 
#    0.000    0.000    0.000    0.000    0.000    0.000 
#
# Total GULP energy -139448.063139 kJ/mol
# GULP energy per Si atom -5577.922526 kJ/mol
# Density = 2.287337 g / cm^3
# Si number density = 22.925546 Si / 1000 Ang^3
#
#
#
# Elastic Constant Matrix: (Units=GPa)
#
#
# Indices 1 2 3 4 5 6 
#
# 1 63.8007 14.3275 24.3030 0.0000 30.1494 0.0000
# 2 14.3275 83.1632 7.3321 0.0000 5.3281 0.0000
# 3 24.3030 7.3321 121.5500 0.0000 27.5444 0.0000
# 4 0.0000 0.0000 0.0000 -9.7857 0.0000 -11.8387
# 5 30.1494 5.3281 27.5444 0.0000 32.2673 0.0000
# 6 0.0000 0.0000 0.0000 -11.8387 0.0000 5.5233
#
#
#
# Elastic Compliance Matrix: (Units=1/GPa)
#
#
# Indices 1 2 3 4 5 6 
#
# 1 0.028955 -0.003307 0.000517 0.000000 -0.026950 0.000000
# 2 -0.003307 0.012543 -0.000405 0.000000 0.001365 0.000000
# 3 0.000517 -0.000405 0.010219 0.000000 -0.009140 0.000000
# 4 0.000000 0.000000 0.000000 -0.028441 0.000000 -0.060960
# 5 -0.026950 0.001365 -0.009140 0.000000 0.063749 0.000000
# 6 0.000000 0.000000 0.000000 -0.060960 0.000000 0.050389
#
#
# Mechanical properties :
#
#
# Convention : Reuss Voigt Hill
#
# Bulk Modulus (GPa) = 22.06177 40.04878 31.05528
# Shear Modulus (GPa) = 31.46404 20.43774 25.95089
#
# Velocity S-wave (km/s) = 3.70867 2.98901 3.36812
# Velocity P-wave (km/s) = 5.28991 5.42395 5.35735
#
# Compressibility (1/GPa) = 0.04532728
#
# Stress axis : x y z
#
# Youngs Moduli (GPa) = 34.53676 79.72833 97.85455
#
# Poissons Ratio (x) = 0.26369 -0.05062
# Poissons Ratio (y) = 0.11423 0.03958
# Poissons Ratio (z) = -0.01786 0.03225
#
# Static dielectric constant tensor:
#      x y z
#    x 1.878740 0.000000 -0.001710 
#    y 0.000000 1.853720 0.000000 
#    z -0.001710 0.000000 1.895510 
# 
# From -- ./inp_files/179837.got.cif
#   From: 2010.05.17/outbox.cif.g08.bks.cpg/sg12_90_cif.got.tgz:179837.got - 2010.06.03 13:09:07.
