data_PCOD9212624
_publ_section_title
;
Structure prediction by ZEFSAII (Michael W. Deem and Ramdas Pophale) SiO2 
 PCOD9212624
Probable space group: C 2/M
;
_chemical_formula_sum "Si O2"
_cell_formula_units_Z 52
_cell_length_a 16.972372
_cell_length_b 21.428801
_cell_length_c 8.938107
_cell_angle_alpha 90.000000
_cell_angle_beta 131.555945
_cell_angle_gamma 90.000000
_cell_volume 2432.576817
_symmetry_space_group_name_H-M "C 2/M"
_symmetry_group_IT_number 12
_symmetry_cell_setting 'monoclinic'
loop_
_space_group_symop_operation_xyz
x,y,z
-x,y,-z
-x,-y,-z
x,-y,z
1/2+x,1/2+y,z
1/2-x,1/2+y,-z
1/2-x,1/2-y,-z
1/2+x,1/2-y,z
loop_
_atom_site_type_symbol
_atom_site_label
_atom_site_fract_x
_atom_site_fract_y
_atom_site_fract_z
Si Si1 0.115515 0.891176 0.611353
Si Si2 0.117583 0.500000 0.088405
Si Si3 0.695843 0.372983 0.374302
Si Si4 0.602273 0.251487 0.715191
Si Si5 0.873051 0.000000 0.867122
Si Si6 0.122290 0.363860 0.206991
Si Si7 0.826173 0.764106 0.878145
Si Si8 0.274644 0.500000 0.071550
O O1 0.140673 0.881072 0.467671
O O2 0.116067 0.822833 0.682979
O O3 0.186730 0.938633 0.793247
O O4 0.000000 0.917165 0.500000
O O5 0.155138 0.433947 0.201740
O O6 0.148828 0.500000 0.951962
O O7 0.000000 0.500000 0.000000
O O8 0.673414 0.437636 0.264527
O O9 0.821405 0.360537 0.559579
O O10 0.651084 0.315973 0.218394
O O11 0.500000 0.226295 0.500000
O O12 0.712313 0.219298 0.807542
O O13 0.593160 0.255741 0.882671
O O14 0.000000 0.000000 0.000000
O O15 0.829026 0.000000 0.980316
O O16 0.175961 0.304390 0.196655
O O17 0.000000 0.358906 0.000000
#
# Coordination Sequence:
#
# PCOD9212624 Si02
#       8
#     8   4   8   8   4   8   8   4
#     4  11  22  38  65  95 132 177 227 281 357 421
#     4  10  21  42  69  98 130 182 235 277 342 419
#     4  12  24  44  69 103 143 179 232 293 351 424
#     4  10  23  42  64  95 143 181 225 285 354 414
#     4  12  28  45  70 105 145 188 234 292 363 429
#     4  11  24  41  71  99 135 183 238 288 352 410
#     4  11  24  42  68 104 137 181 236 288 346 423
#     4  12  20  41  67  95 138 181 227 286 347 418
#
# _framework density 21.37651
#
# number of rings (size 3 to 8) (size 9 to 14) (size 15 to 20)
#    0.000    0.923    3.077    3.462    2.154    4.308 
#    0.000    0.000    0.000    3.692    0.000    0.000 
#    0.000    0.000    0.000    0.000    0.000    0.000 
#
# Total GULP energy -144788.235374 kJ/mol
# GULP energy per Si atom -5568.778284 kJ/mol
# Density = 2.132786 g / cm^3
# Si number density = 21.376510 Si / 1000 Ang^3
#
#
#
# Elastic Constant Matrix: (Units=GPa)
#
#
# Indices 1 2 3 4 5 6 
#
# 1 102.1627 25.0230 54.6548 0.0000 -13.6230 0.0000
# 2 25.0230 96.6464 29.6148 0.0000 -31.3677 0.0000
# 3 54.6548 29.6148 137.8068 0.0000 -9.7386 0.0000
# 4 0.0000 0.0000 0.0000 40.9930 0.0000 3.0642
# 5 -13.6230 -31.3677 -9.7386 0.0000 49.9577 0.0000
# 6 0.0000 0.0000 0.0000 3.0642 0.0000 30.3706
#
#
#
# Elastic Compliance Matrix: (Units=1/GPa)
#
#
# Indices 1 2 3 4 5 6 
#
# 1 0.012856 -0.001319 -0.004691 0.000000 0.001763 0.000000
# 2 -0.001319 0.013855 -0.001891 0.000000 0.007971 0.000000
# 3 -0.004691 -0.001891 0.009480 0.000000 -0.000619 0.000000
# 4 0.000000 0.000000 0.000000 0.024580 0.000000 -0.002480
# 5 0.001763 0.007971 -0.000619 0.000000 0.025382 0.000000
# 6 0.000000 0.000000 0.000000 -0.002480 0.000000 0.033177
#
#
# Mechanical properties :
#
#
# Convention : Reuss Voigt Hill
#
# Bulk Modulus (GPa) = 49.04576 61.68901 55.36738
# Shear Modulus (GPa) = 35.22945 39.41917 37.32431
#
# Velocity S-wave (km/s) = 4.06402 4.29889 4.18310
# Velocity P-wave (km/s) = 6.70934 7.31858 7.02057
#
# Compressibility (1/GPa) = 0.02038912
#
# Stress axis : x y z
#
# Youngs Moduli (GPa) = 77.78552 72.17580 105.49033
#
# Poissons Ratio (x) = 0.09520 0.49482
# Poissons Ratio (y) = 0.10260 0.19949
# Poissons Ratio (z) = 0.36486 0.13649
#
# Static dielectric constant tensor:
#      x y z
#    x 1.306280 0.000000 -0.212410 
#    y 0.000000 1.714250 0.000000 
#    z -0.212410 0.000000 1.717590 
# 
# From -- ./inp_files/78116.got.cif
#   From: 2010.05.17/outbox.cif.g08.bks.cpg/sg12_40_cif.got.tgz:78116.got - 2010.06.03 13:09:07.
