data_PCOD9212208
_publ_section_title
;
Structure prediction by ZEFSAII (Michael W. Deem and Ramdas Pophale) SiO2 
 PCOD9212208
Probable space group: C 2/M
;
_chemical_formula_sum "Si O2"
_cell_formula_units_Z 32
_cell_length_a 5.294747
_cell_length_b 14.369018
_cell_length_c 20.414781
_cell_angle_alpha 90.000000
_cell_angle_beta 97.372616
_cell_angle_gamma 90.000000
_cell_volume 1540.322358
_symmetry_space_group_name_H-M "C 2/M"
_symmetry_group_IT_number 12
_symmetry_cell_setting 'monoclinic'
loop_
_space_group_symop_operation_xyz
x,y,z
-x,y,-z
-x,-y,-z
x,-y,z
1/2+x,1/2+y,z
1/2-x,1/2+y,-z
1/2-x,1/2-y,-z
1/2+x,1/2-y,z
loop_
_atom_site_type_symbol
_atom_site_label
_atom_site_fract_x
_atom_site_fract_y
_atom_site_fract_z
Si Si1 0.316489 0.689257 0.629201
Si Si2 0.141468 0.886365 0.222637
Si Si3 0.896379 0.610617 0.854774
Si Si4 0.000000 0.311384 0.000000
Si Si5 0.272034 0.500000 0.544549
O O1 0.561022 0.749079 0.615129
O O2 0.350734 0.659787 0.706120
O O3 0.293843 0.593568 0.588281
O O4 0.384770 0.857486 0.187765
O O5 0.884348 0.858590 0.176088
O O6 0.144077 0.000000 0.229915
O O7 0.893345 0.500000 0.848532
O O8 0.962700 0.633278 0.931541
O O9 0.750000 0.250000 0.000000
O O10 0.500000 0.500000 0.500000
O O11 0.000000 0.500000 0.500000
#
# Coordination Sequence:
#
# PCOD9212208 Si02
#       5
#     8   8   8   4   4
#     4  12  26  44  73 106 139 180 228 279 336 400
#     4  10  21  41  65  94 128 167 217 278 333 388
#     4  10  22  39  63  86 122 172 218 266 329 399
#     4  12  25  38  55  84 126 164 212 278 331 388
#     4  12  28  50  74 102 146 183 222 279 326 402
#
# _framework density 20.774871000000001
#
# number of rings (size 3 to 8) (size 9 to 14) (size 15 to 20)
#    0.000    1.000    1.250    4.875    0.000    9.000 
#    0.000    5.000    0.000    0.000    0.000    0.000 
#    0.000    0.000    0.000    0.000    0.000    0.000 
#
# Total GULP energy -89583.059739 kJ/mol
# GULP energy per Si atom -5598.941234 kJ/mol
# Density = 2.072759 g / cm^3
# Si number density = 20.774871 Si / 1000 Ang^3
#
#
#
# Elastic Constant Matrix: (Units=GPa)
#
#
# Indices 1 2 3 4 5 6 
#
# 1 112.9864 17.8987 6.9140 0.0000 9.5626 0.0000
# 2 17.8987 116.5594 25.6502 0.0000 2.9800 0.0000
# 3 6.9140 25.6502 99.6006 0.0000 1.5287 0.0000
# 4 0.0000 0.0000 0.0000 -7.8274 0.0000 -5.1669
# 5 9.5626 2.9800 1.5287 0.0000 33.2508 0.0000
# 6 0.0000 0.0000 0.0000 -5.1669 0.0000 2.2970
#
#
#
# Elastic Compliance Matrix: (Units=1/GPa)
#
#
# Indices 1 2 3 4 5 6 
#
# 1 0.009289 -0.001302 -0.000271 0.000000 -0.002542 0.000000
# 2 -0.001302 0.009294 -0.002298 0.000000 -0.000353 0.000000
# 3 -0.000271 -0.002298 0.010654 0.000000 -0.000206 0.000000
# 4 0.000000 0.000000 0.000000 -0.051414 0.000000 -0.115653
# 5 -0.002542 -0.000353 -0.000206 0.000000 0.030847 0.000000
# 6 0.000000 0.000000 0.000000 -0.115653 0.000000 0.175205
#
#
# Mechanical properties :
#
#
# Convention : Reuss Voigt Hill
#
# Bulk Modulus (GPa) = 46.51983 47.78579 47.15281
# Shear Modulus (GPa) = 25.15350 24.12299 24.63824
#
# Velocity S-wave (km/s) = 3.48338 3.41128 3.44752
# Velocity P-wave (km/s) = 6.21446 6.21027 6.21237
#
# Compressibility (1/GPa) = 0.02149621
#
# Stress axis : x y z
#
# Youngs Moduli (GPa) = 107.65934 107.59784 93.86360
#
# Poissons Ratio (x) = 0.14007 0.02539
# Poissons Ratio (y) = 0.14015 0.21567
# Poissons Ratio (z) = 0.02912 0.24722
#
# Static dielectric constant tensor:
#      x y z
#    x 1.717090 0.000000 0.003320 
#    y 0.000000 1.745620 0.000000 
#    z 0.003320 0.000000 1.771120 
# 
# From -- ./inp_files/252371.got.cif
#   From: 2010.05.17/outbox.cif.g08.bks.cpg/sg12_127_cif.got.tgz:252371.got - 2010.06.03 13:09:07.
