data_PCOD9212357
_publ_section_title
;
Structure prediction by ZEFSAII (Michael W. Deem and Ramdas Pophale) SiO2 
 PCOD9212357
Probable space group: C 2/M
;
_chemical_formula_sum "Si O2"
_cell_formula_units_Z 48
_cell_length_a 18.786638
_cell_length_b 14.521355
_cell_length_c 14.131467
_cell_angle_alpha 90.000000
_cell_angle_beta 40.272255
_cell_angle_gamma 90.000000
_cell_volume 2492.060054
_symmetry_space_group_name_H-M "C 2/M"
_symmetry_group_IT_number 12
_symmetry_cell_setting 'monoclinic'
loop_
_space_group_symop_operation_xyz
x,y,z
-x,y,-z
-x,-y,-z
x,-y,z
1/2+x,1/2+y,z
1/2-x,1/2+y,-z
1/2-x,1/2-y,-z
1/2+x,1/2-y,z
loop_
_atom_site_type_symbol
_atom_site_label
_atom_site_fract_x
_atom_site_fract_y
_atom_site_fract_z
Si Si1 0.298689 0.109421 0.102636
Si Si2 0.487392 0.890378 0.624909
Si Si3 0.877264 0.242174 0.396937
Si Si4 0.889481 0.889961 0.557597
Si Si5 0.758237 0.109695 0.054280
Si Si6 0.455349 0.273984 0.943538
O O1 0.215010 0.134352 0.271412
O O2 0.321083 0.000000 0.083059
O O3 0.243176 0.128799 0.056839
O O4 0.406842 0.170779 0.000697
O O5 0.500000 0.873474 0.500000
O O6 0.572952 0.830703 0.598701
O O7 0.363209 0.866245 0.783450
O O8 0.502627 0.000000 0.625992
O O9 0.750000 0.250000 0.500000
O O10 0.888213 0.158540 0.458820
O O11 0.949387 0.225243 0.230808
O O12 0.000000 0.862039 0.500000
O O13 0.890735 0.000000 0.546129
O O14 0.773482 0.000000 0.051620
O O15 0.853663 0.164648 0.009970
O O16 0.500000 0.304129 0.000000
#
# Coordination Sequence:
#
# PCOD9212357 Si02
#       6
#     8   8   8   8   8   8
#     4  10  21  41  68  94 122 161 213 264 311 371
#     4  10  23  42  67  94 123 166 216 262 311 375
#     4  12  26  41  63  93 132 170 205 258 319 382
#     4  10  22  40  65  95 125 163 207 257 315 374
#     4  10  22  42  67  93 122 164 215 266 314 369
#     4  12  26  40  62  95 129 168 211 259 322 374
#
# _framework density 19.261172999999999
#
# number of rings (size 3 to 8) (size 9 to 14) (size 15 to 20)
#    0.000    1.333    1.667    3.000    7.000    3.333 
#    0.000    0.000    0.000    0.000    0.000    0.000 
#    0.000    0.000    0.000    0.000    0.000    0.000 
#
# Total GULP energy -134251.995020 kJ/mol
# GULP energy per Si atom -5593.833126 kJ/mol
# Density = 1.921733 g / cm^3
# Si number density = 19.261173 Si / 1000 Ang^3
#
#
#
# Elastic Constant Matrix: (Units=GPa)
#
#
# Indices 1 2 3 4 5 6 
#
# 1 126.8944 44.4320 80.8883 0.0000 -5.7811 0.0000
# 2 44.4320 47.0312 54.4050 0.0000 -3.2952 0.0000
# 3 80.8883 54.4050 173.6238 0.0000 6.9076 0.0000
# 4 0.0000 0.0000 0.0000 29.3041 0.0000 1.6550
# 5 -5.7811 -3.2952 6.9076 0.0000 38.0870 0.0000
# 6 0.0000 0.0000 0.0000 1.6550 0.0000 -4.1513
#
#
#
# Elastic Compliance Matrix: (Units=1/GPa)
#
#
# Indices 1 2 3 4 5 6 
#
# 1 0.013118 -0.007992 -0.003685 0.000000 0.001968 0.000000
# 2 -0.007992 0.039121 -0.008684 0.000000 0.003747 0.000000
# 3 -0.003685 -0.008684 0.010324 0.000000 -0.003183 0.000000
# 4 0.000000 0.000000 0.000000 0.033373 0.000000 0.013305
# 5 0.001968 0.003747 -0.003183 0.000000 0.027456 0.000000
# 6 0.000000 0.000000 0.000000 0.013305 0.000000 -0.235585
#
#
# Mechanical properties :
#
#
# Convention : Reuss Voigt Hill
#
# Bulk Modulus (GPa) = 45.78721 78.55555 62.17138
# Shear Modulus (GPa) = -77.89509 23.83625 -27.02942
#
# Velocity S-wave (km/s) = -6.36626 3.52167 -3.75014
# Velocity P-wave (km/s) = 5.49688 7.57688 3.68737
#
# Compressibility (1/GPa) = 0.02184016
#
# Stress axis : x y z
#
# Youngs Moduli (GPa) = 76.23231 25.56170 96.85716
#
# Poissons Ratio (x) = 0.20428 0.35696
# Poissons Ratio (y) = 0.60922 0.84115
# Poissons Ratio (z) = 0.28095 0.22199
#
# Static dielectric constant tensor:
#      x y z
#    x 1.631780 0.000000 0.004080 
#    y 0.000000 1.682600 0.000000 
#    z 0.004080 0.000000 1.660340 
# 
# From -- ./inp_files/225111.got.cif
#   From: 2010.05.17/outbox.cif.g08.bks.cpg/sg12_113_cif.got.tgz:225111.got - 2010.06.03 13:09:07.
