data_PCOD9212194
_publ_section_title
;
Structure prediction by ZEFSAII (Michael W. Deem and Ramdas Pophale) SiO2 
 PCOD9212194
Probable space group: C 2/M
;
_chemical_formula_sum "Si O2"
_cell_formula_units_Z 48
_cell_length_a 29.789578
_cell_length_b 18.205527
_cell_length_c 14.710901
_cell_angle_alpha 90.000000
_cell_angle_beta 161.923334
_cell_angle_gamma 90.000000
_cell_volume 2475.561276
_symmetry_space_group_name_H-M "C 2/M"
_symmetry_group_IT_number 12
_symmetry_cell_setting 'monoclinic'
loop_
_space_group_symop_operation_xyz
x,y,z
-x,y,-z
-x,-y,-z
x,-y,z
1/2+x,1/2+y,z
1/2-x,1/2+y,-z
1/2-x,1/2-y,-z
1/2+x,1/2-y,z
loop_
_atom_site_type_symbol
_atom_site_label
_atom_site_fract_x
_atom_site_fract_y
_atom_site_fract_z
Si Si1 0.933699 0.411570 0.275697
Si Si2 0.597454 0.413924 0.597457
Si Si3 0.091897 0.917412 0.268034
Si Si4 0.854018 0.414546 0.662173
Si Si5 0.620002 0.167238 0.480435
Si Si6 0.543467 0.321347 0.835112
O O1 0.939510 0.500000 0.286606
O O2 0.000000 0.386038 0.500000
O O3 0.031298 0.381957 0.381460
O O4 0.764288 0.391519 0.937431
O O5 0.500000 0.409828 0.500000
O O6 0.598827 0.500000 0.570941
O O7 0.522036 0.362973 0.377949
O O8 0.239058 0.883182 0.513050
O O9 0.008523 0.869343 0.179534
O O10 0.119394 0.000000 0.357462
O O11 0.000000 0.923567 0.000000
O O12 0.812355 0.500000 0.562225
O O13 0.866284 0.371918 0.591349
O O14 0.000000 0.415467 0.000000
O O15 0.529712 0.242029 0.298095
O O16 0.782636 0.181703 0.829555
#
# Coordination Sequence:
#
# PCOD9212194 Si02
#       6
#     8   8   8   8   8   8
#     4  10  22  42  69  97 126 160 203 256 309 367
#     4  10  22  42  69  98 125 159 205 255 308 368
#     4  10  21  41  65  91 121 161 210 258 310 363
#     4  10  23  41  65  92 122 162 209 260 309 365
#     4  12  26  42  61  91 129 168 210 254 312 371
#     4  12  26  41  62  91 128 170 208 256 310 371
#
# _framework density 19.389541000000001
#
# number of rings (size 3 to 8) (size 9 to 14) (size 15 to 20)
#    0.000    1.333    1.667    3.000    4.667    5.333 
#    0.000    3.333    0.000    0.000    0.000    0.000 
#    0.000    0.000    0.000    0.000    0.000    0.000 
#
# Total GULP energy -134054.938191 kJ/mol
# GULP energy per Si atom -5585.622425 kJ/mol
# Density = 1.934541 g / cm^3
# Si number density = 19.389541 Si / 1000 Ang^3
#
#
#
# Elastic Constant Matrix: (Units=GPa)
#
#
# Indices 1 2 3 4 5 6 
#
# 1 95.9158 26.5242 53.7891 0.0000 20.6138 0.0000
# 2 26.5242 50.4952 39.1080 0.0000 -2.2849 0.0000
# 3 53.7891 39.1080 147.0140 0.0000 23.0567 0.0000
# 4 0.0000 0.0000 0.0000 39.9686 0.0000 -2.9216
# 5 20.6138 -2.2849 23.0567 0.0000 41.2897 0.0000
# 6 0.0000 0.0000 0.0000 -2.9216 0.0000 14.8390
#
#
#
# Elastic Compliance Matrix: (Units=1/GPa)
#
#
# Indices 1 2 3 4 5 6 
#
# 1 0.015047 -0.005882 -0.002972 0.000000 -0.006178 0.000000
# 2 -0.005882 0.028470 -0.006717 0.000000 0.008263 0.000000
# 3 -0.002972 -0.006717 0.010414 0.000000 -0.004703 0.000000
# 4 0.000000 0.000000 0.000000 0.025385 0.000000 0.004998
# 5 -0.006178 0.008263 -0.004703 0.000000 0.030387 0.000000
# 6 0.000000 0.000000 0.000000 0.004998 0.000000 0.068374
#
#
# Mechanical properties :
#
#
# Convention : Reuss Voigt Hill
#
# Bulk Modulus (GPa) = 43.88106 59.14084 51.51095
# Shear Modulus (GPa) = 23.06123 30.81969 26.94046
#
# Velocity S-wave (km/s) = 3.45246 3.99118 3.73155
# Velocity P-wave (km/s) = 6.21072 7.19771 6.72235
#
# Compressibility (1/GPa) = 0.02278888
#
# Stress axis : x y z
#
# Youngs Moduli (GPa) = 66.46036 35.12493 96.02548
#
# Poissons Ratio (x) = 0.20659 0.28535
# Poissons Ratio (y) = 0.39090 0.64504
# Poissons Ratio (z) = 0.19750 0.23595
#
# Static dielectric constant tensor:
#      x y z
#    x 1.474870 0.000000 -0.233790 
#    y 0.000000 1.674620 0.000000 
#    z -0.233790 0.000000 1.344560 
# 
# From -- ./inp_files/184840.got.cif
#   From: 2010.05.17/outbox.cif.g08.bks.cpg/sg12_93_cif.got.tgz:184840.got - 2010.06.03 13:09:07.
