data_PCOD9212389
_publ_section_title
;
Structure prediction by ZEFSAII (Michael W. Deem and Ramdas Pophale) SiO2 
 PCOD9212389
Probable space group: C 2/M
;
_chemical_formula_sum "Si O2"
_cell_formula_units_Z 48
_cell_length_a 23.594757
_cell_length_b 22.642283
_cell_length_c 6.978803
_cell_angle_alpha 90.000000
_cell_angle_beta 145.761465
_cell_angle_gamma 90.000000
_cell_volume 2097.716971
_symmetry_space_group_name_H-M "C 2/M"
_symmetry_group_IT_number 12
_symmetry_cell_setting 'monoclinic'
loop_
_space_group_symop_operation_xyz
x,y,z
-x,y,-z
-x,-y,-z
x,-y,z
1/2+x,1/2+y,z
1/2-x,1/2+y,-z
1/2-x,1/2-y,-z
1/2+x,1/2-y,z
loop_
_atom_site_type_symbol
_atom_site_label
_atom_site_fract_x
_atom_site_fract_y
_atom_site_fract_z
Si Si1 0.093090 0.352121 0.153478
Si Si2 0.722138 0.066136 0.235181
Si Si3 0.266228 0.299311 0.891363
Si Si4 0.577082 0.592857 0.972598
Si Si5 0.434558 0.268444 0.124248
Si Si6 0.641406 0.586398 0.721292
O O1 0.146296 0.387591 0.126235
O O2 0.176461 0.336578 0.547835
O O3 0.049183 0.289431 0.955121
O O4 0.000000 0.383865 0.000000
O O5 0.757556 0.068800 0.110383
O O6 0.685571 0.000000 0.172768
O O7 0.831365 0.076555 0.636406
O O8 0.250000 0.250000 0.000000
O O9 0.318855 0.266125 0.864546
O O10 0.343146 0.343645 0.210411
O O11 0.560114 0.664277 0.937469
O O12 0.618666 0.571779 0.880122
O O13 0.463272 0.569607 0.674780
O O14 0.500000 0.263228 0.500000
#
# Coordination Sequence:
#
# PCOD9212389 Si02
#       6
#     8   8   8   8   8   8
#     4  12  27  42  66  99 137 186 233 281 334 392
#     4  12  27  46  67  94 134 188 244 287 325 384
#     4  11  21  38  64  99 140 177 208 271 343 419
#     4  10  21  42  69 106 141 170 207 274 359 427
#     4  11  20  40  67 103 137 167 205 269 355 427
#     4  10  21  41  69 100 138 169 214 273 348 414
#
# _framework density 22.882017000000001
#
# number of rings (size 3 to 8) (size 9 to 14) (size 15 to 20)
#    0.000    1.000    6.667    3.000    2.333    2.333 
#    0.000    1.667    0.000    1.500    0.000    0.000 
#    0.000    0.000    0.000    0.000    0.000    0.000 
#
# Total GULP energy -133739.199897 kJ/mol
# GULP energy per Si atom -5572.466662 kJ/mol
# Density = 2.282994 g / cm^3
# Si number density = 22.882017 Si / 1000 Ang^3
#
#
#
# Elastic Constant Matrix: (Units=GPa)
#
#
# Indices 1 2 3 4 5 6 
#
# 1 130.9452 43.9434 26.7861 0.0000 39.8538 0.0000
# 2 43.9434 115.8591 3.8283 0.0000 -1.4449 0.0000
# 3 26.7861 3.8283 54.1835 0.0000 3.6942 0.0000
# 4 0.0000 0.0000 0.0000 -24.6196 0.0000 3.5917
# 5 39.8538 -1.4449 3.6942 0.0000 32.1912 0.0000
# 6 0.0000 0.0000 0.0000 3.5917 0.0000 0.3859
#
#
#
# Elastic Compliance Matrix: (Units=1/GPa)
#
#
# Indices 1 2 3 4 5 6 
#
# 1 0.017985 -0.006864 -0.006921 0.000000 -0.021780 0.000000
# 2 -0.006864 0.011278 0.001998 0.000000 0.008775 0.000000
# 3 -0.006921 0.001998 0.021313 0.000000 0.006212 0.000000
# 4 0.000000 0.000000 0.000000 -0.017227 0.000000 0.160339
# 5 -0.021780 0.008775 0.006212 0.000000 0.057709 0.000000
# 6 0.000000 0.000000 0.000000 0.160339 0.000000 1.099063
#
#
# Mechanical properties :
#
#
# Convention : Reuss Voigt Hill
#
# Bulk Modulus (GPa) = 37.03512 50.01151 43.52332
# Shear Modulus (GPa) = 4.08932 16.68682 10.38807
#
# Velocity S-wave (km/s) = 1.33829 2.70340 2.13300
# Velocity P-wave (km/s) = 4.31375 5.62567 5.01281
#
# Compressibility (1/GPa) = 0.02700140
#
# Stress axis : x y z
#
# Youngs Moduli (GPa) = 55.60230 88.66746 46.92071
#
# Poissons Ratio (x) = 0.60864 0.32474
# Poissons Ratio (y) = 0.38167 -0.09376
# Poissons Ratio (z) = 0.38483 -0.17718
#
# Static dielectric constant tensor:
#      x y z
#    x 2.008020 0.000000 0.021290 
#    y 0.000000 1.803430 0.000000 
#    z 0.021290 0.000000 1.820930 
# 
# From -- ./inp_files/106818.got.cif
#   From: 2010.05.17/outbox.cif.g08.bks.cpg/sg12_54_cif.got.tgz:106818.got - 2010.06.03 13:09:07.
