data_PCOD9212799
_publ_section_title
;
Structure prediction by ZEFSAII (Michael W. Deem and Ramdas Pophale) SiO2 
 PCOD9212799
Probable space group: C 2/M
;
_chemical_formula_sum "Si O2"
_cell_formula_units_Z 48
_cell_length_a 20.627596
_cell_length_b 21.617743
_cell_length_c 5.264860
_cell_angle_alpha 90.000000
_cell_angle_beta 122.448639
_cell_angle_gamma 90.000000
_cell_volume 1981.174629
_symmetry_space_group_name_H-M "C 2/M"
_symmetry_group_IT_number 12
_symmetry_cell_setting 'monoclinic'
loop_
_space_group_symop_operation_xyz
x,y,z
-x,y,-z
-x,-y,-z
x,-y,z
1/2+x,1/2+y,z
1/2-x,1/2+y,-z
1/2-x,1/2-y,-z
1/2+x,1/2-y,z
loop_
_atom_site_type_symbol
_atom_site_label
_atom_site_fract_x
_atom_site_fract_y
_atom_site_fract_z
Si Si1 0.199066 0.065659 0.352870
Si Si2 0.268635 0.842363 0.845055
Si Si3 0.949127 0.312257 0.648799
Si Si4 0.351762 0.271125 0.097768
Si Si5 0.049585 0.883073 0.849826
Si Si6 0.855599 0.569660 0.363555
O O1 0.205546 0.126221 0.537988
O O2 0.277134 0.065216 0.357942
O O3 0.194862 0.000000 0.487618
O O4 0.123600 0.073307 0.027361
O O5 0.220303 0.813986 0.977268
O O6 0.319255 0.784740 0.857817
O O7 0.326949 0.896727 0.046244
O O8 0.885867 0.262142 0.422546
O O9 0.910744 0.379726 0.606198
O O10 0.000000 0.317758 0.500000
O O11 0.000000 0.296424 0.000000
O O12 0.416851 0.314043 0.118488
O O13 0.000000 0.898432 0.500000
O O14 0.000000 0.887506 0.000000
O O15 0.886033 0.500000 0.393911
#
# Coordination Sequence:
#
# PCOD9212799 Si02
#       6
#     8   8   8   8   8   8
#     4  11  25  45  73  99 134 184 238 291 343 411
#     4  10  21  44  70 105 135 175 241 290 348 403
#     4  11  27  46  68 105 143 183 228 285 353 418
#     4  10  23  44  70 104 140 186 226 292 347 423
#     4  12  27  48  70 106 144 184 231 285 355 418
#     4  10  23  45  71  98 134 183 237 289 342 410
#
# _framework density 24.22805
#
# number of rings (size 3 to 8) (size 9 to 14) (size 15 to 20)
#    0.000    1.333    1.667    2.000    4.667    7.333 
#    3.000    0.000    0.000    0.000    0.000    0.000 
#    0.000    0.000    0.000    0.000    0.000    0.000 
#
# Total GULP energy -134327.811551 kJ/mol
# GULP energy per Si atom -5596.992148 kJ/mol
# Density = 2.417291 g / cm^3
# Si number density = 24.228050 Si / 1000 Ang^3
#
#
#
# Elastic Constant Matrix: (Units=GPa)
#
#
# Indices 1 2 3 4 5 6 
#
# 1 74.7651 5.4076 22.7223 0.0000 -2.8033 0.0000
# 2 5.4076 130.1347 40.6887 0.0000 1.7100 0.0000
# 3 22.7223 40.6887 133.3840 0.0000 10.4815 0.0000
# 4 0.0000 0.0000 0.0000 42.7041 0.0000 -18.3147
# 5 -2.8033 1.7100 10.4815 0.0000 31.4106 0.0000
# 6 0.0000 0.0000 0.0000 -18.3147 0.0000 -34.4613
#
#
#
# Elastic Compliance Matrix: (Units=1/GPa)
#
#
# Indices 1 2 3 4 5 6 
#
# 1 0.014249 0.000212 -0.002661 0.000000 0.002148 0.000000
# 2 0.000212 0.008503 -0.002665 0.000000 0.000445 0.000000
# 3 -0.002661 -0.002665 0.009007 0.000000 -0.003098 0.000000
# 4 0.000000 0.000000 0.000000 0.019070 0.000000 -0.010135
# 5 0.002148 0.000445 -0.003098 0.000000 0.033038 0.000000
# 6 0.000000 0.000000 0.000000 -0.010135 0.000000 -0.023632
#
#
# Mechanical properties :
#
#
# Convention : Reuss Voigt Hill
#
# Bulk Modulus (GPa) = 46.44500 52.88009 49.66255
# Shear Modulus (GPa) = 64.40004 25.89505 45.14754
#
# Velocity S-wave (km/s) = 5.16125 3.27280 4.32144
# Velocity P-wave (km/s) = 7.39794 6.01290 6.74109
#
# Compressibility (1/GPa) = 0.02153084
#
# Stress axis : x y z
#
# Youngs Moduli (GPa) = 70.17990 117.60681 111.02792
#
# Poissons Ratio (x) = -0.02488 0.29541
# Poissons Ratio (y) = -0.01485 0.29587
# Poissons Ratio (z) = 0.18673 0.31340
#
# Static dielectric constant tensor:
#      x y z
#    x 1.965680 0.000000 -0.045920 
#    y 0.000000 2.205010 0.000000 
#    z -0.045920 0.000000 2.048410 
# 
# From -- ./inp_files/25732.got.cif
#   From: 2010.05.17/outbox.cif.g08.bks.cpg/sg12_13_cif.got.tgz:25732.got - 2010.06.03 13:09:07.
