data_PCOD9212248
_publ_section_title
;
Structure prediction by ZEFSAII (Michael W. Deem and Ramdas Pophale) SiO2 
 PCOD9212248
Probable space group: C 2/M
;
_chemical_formula_sum "Si O2"
_cell_formula_units_Z 40
_cell_length_a 23.776489
_cell_length_b 8.002471
_cell_length_c 17.204033
_cell_angle_alpha 90.000000
_cell_angle_beta 146.155979
_cell_angle_gamma 90.000000
_cell_volume 1823.080134
_symmetry_space_group_name_H-M "C 2/M"
_symmetry_group_IT_number 12
_symmetry_cell_setting 'monoclinic'
loop_
_space_group_symop_operation_xyz
x,y,z
-x,y,-z
-x,-y,-z
x,-y,z
1/2+x,1/2+y,z
1/2-x,1/2+y,-z
1/2-x,1/2-y,-z
1/2+x,1/2-y,z
loop_
_atom_site_type_symbol
_atom_site_label
_atom_site_fract_x
_atom_site_fract_y
_atom_site_fract_z
Si Si1 0.796503 0.308573 0.634688
Si Si2 0.022949 0.194281 0.904281
Si Si3 0.286586 0.696446 0.791413
Si Si4 0.092119 0.295762 0.658823
Si Si5 0.366471 0.799487 0.122479
O O1 0.769252 0.500000 0.613907
O O2 0.750000 0.250000 0.500000
O O3 0.760548 0.215864 0.671316
O O4 0.917429 0.286665 0.773044
O O5 0.084337 0.209632 0.894326
O O6 0.998112 0.000000 0.893008
O O7 0.102122 0.262925 0.059158
O O8 0.293831 0.500000 0.817702
O O9 0.197921 0.765699 0.744087
O O10 0.094562 0.500000 0.658754
O O11 0.080924 0.251434 0.735929
O O12 0.000000 0.239105 0.500000
O O13 0.374110 0.000000 0.120456
O O14 0.250000 0.750000 0.000000
#
# Coordination Sequence:
#
# PCOD9212248 Si02
#       5
#     8   8   8   8   8
#     4  12  27  45  65  93 125 163 210 264 322 379
#     4  11  23  42  66  94 128 168 211 262 319 378
#     4  10  21  41  66  92 127 170 211 256 315 376
#     4   9  19  36  60  91 126 166 207 249 310 375
#     4  11  21  37  62  94 127 168 212 260 314 374
#
# _framework density 21.940888000000001
#
# number of rings (size 3 to 8) (size 9 to 14) (size 15 to 20)
#    0.000    1.400    2.000    3.600    2.800    4.000 
#    0.000    0.000    0.000    3.000    0.000    0.000 
#    0.000    0.000    0.000    0.000    0.000    0.000 
#
# Total GULP energy -111828.257796 kJ/mol
# GULP energy per Si atom -5591.412890 kJ/mol
# Density = 2.189095 g / cm^3
# Si number density = 21.940888 Si / 1000 Ang^3
#
#
#
# Elastic Constant Matrix: (Units=GPa)
#
#
# Indices 1 2 3 4 5 6 
#
# 1 74.6993 -13.4621 12.4560 0.0000 -17.9648 0.0000
# 2 -13.4621 32.7320 5.9201 0.0000 -0.5010 0.0000
# 3 12.4560 5.9201 116.5953 0.0000 -29.4491 0.0000
# 4 0.0000 0.0000 0.0000 21.8917 0.0000 -1.7701
# 5 -17.9648 -0.5010 -29.4491 0.0000 40.3047 0.0000
# 6 0.0000 0.0000 0.0000 -1.7701 0.0000 29.7376
#
#
#
# Elastic Compliance Matrix: (Units=1/GPa)
#
#
# Indices 1 2 3 4 5 6 
#
# 1 0.016410 0.006911 -0.000288 0.000000 0.007190 0.000000
# 2 0.006911 0.033774 -0.001924 0.000000 0.002094 0.000000
# 3 -0.000288 -0.001924 0.010628 0.000000 0.007613 0.000000
# 4 0.000000 0.000000 0.000000 0.045900 0.000000 0.002732
# 5 0.007190 0.002094 0.007613 0.000000 0.033604 0.000000
# 6 0.000000 0.000000 0.000000 0.002732 0.000000 0.033790
#
#
# Mechanical properties :
#
#
# Convention : Reuss Voigt Hill
#
# Bulk Modulus (GPa) = 14.24320 25.98386 20.11353
# Shear Modulus (GPa) = 26.58003 32.99432 29.78717
#
# Velocity S-wave (km/s) = 3.48435 3.88207 3.68857
# Velocity P-wave (km/s) = 4.76375 5.65352 5.22760
#
# Compressibility (1/GPa) = 0.07020896
#
# Stress axis : x y z
#
# Youngs Moduli (GPa) = 60.94001 29.60894 94.09055
#
# Poissons Ratio (x) = -0.20463 0.02710
# Poissons Ratio (y) = -0.42116 0.18105
# Poissons Ratio (z) = 0.01755 0.05697
#
# Static dielectric constant tensor:
#      x y z
#    x 1.965140 0.000000 -0.249640 
#    y 0.000000 1.845460 0.000000 
#    z -0.249640 0.000000 2.133730 
# 
# From -- ./inp_files/220565.got.cif
#   From: 2010.05.17/outbox.cif.g08.bks.cpg/sg12_111_cif.got.tgz:220565.got - 2010.06.03 13:09:07.
