data_PCOD9212402
_publ_section_title
;
Structure prediction by ZEFSAII (Michael W. Deem and Ramdas Pophale) SiO2 
 PCOD9212402
Probable space group: C 2/M
;
_chemical_formula_sum "Si O2"
_cell_formula_units_Z 60
_cell_length_a 24.586263
_cell_length_b 9.331619
_cell_length_c 26.483107
_cell_angle_alpha 90.000000
_cell_angle_beta 28.581408
_cell_angle_gamma 90.000000
_cell_volume 2906.805164
_symmetry_space_group_name_H-M "C 2/M"
_symmetry_group_IT_number 12
_symmetry_cell_setting 'monoclinic'
loop_
_space_group_symop_operation_xyz
x,y,z
-x,y,-z
-x,-y,-z
x,-y,z
1/2+x,1/2+y,z
1/2-x,1/2+y,-z
1/2-x,1/2-y,-z
1/2+x,1/2-y,z
loop_
_atom_site_type_symbol
_atom_site_label
_atom_site_fract_x
_atom_site_fract_y
_atom_site_fract_z
Si Si1 0.385006 0.830480 0.566990
Si Si2 0.431920 0.659845 0.741352
Si Si3 0.295083 0.000000 0.455454
Si Si4 0.953020 0.167763 0.912382
Si Si5 0.630340 0.828575 0.110572
Si Si6 0.803676 0.334005 0.112821
Si Si7 0.827961 0.768828 0.502466
Si Si8 0.163905 0.162931 0.815279
O O1 0.500000 0.777129 0.500000
O O2 0.349995 0.754734 0.543613
O O3 0.283303 0.819716 0.689915
O O4 0.401625 0.000000 0.541700
O O5 0.416745 0.500000 0.776710
O O6 0.411616 0.779221 0.800281
O O7 0.332780 0.676191 0.780754
O O8 0.555578 0.668811 0.616601
O O9 0.272262 0.124622 0.430974
O O10 0.306466 0.123028 0.490215
O O11 0.956075 0.261686 0.859594
O O12 0.066211 0.178155 0.853345
O O13 0.931309 0.000000 0.918945
O O14 0.854791 0.236302 0.026987
O O15 0.640415 0.000000 0.098599
O O16 0.750000 0.750000 0.000000
O O17 0.835769 0.500000 0.079129
O O18 0.846498 0.273490 0.130808
O O19 0.156338 0.000000 0.842244
#
# Coordination Sequence:
#
# PCOD9212402 Si02
#       8
#     8   8   4   8   8   8   8   8
#     4  10  21  41  69  96 130 170 221 280 331 393
#     4  11  24  42  66  94 130 174 216 267 325 391
#     4  10  24  40  68  92 134 172 218 274 334 394
#     4  11  23  41  65  92 131 176 214 265 323 391
#     4  12  25  42  65  97 134 170 218 266 325 386
#     4  11  23  40  65  93 130 167 216 270 326 383
#     4  11  22  45  66  98 132 174 221 273 336 400
#     4  10  23  42  63  95 124 170 217 263 331 389
#
# _framework density 20.641217000000001
#
# number of rings (size 3 to 8) (size 9 to 14) (size 15 to 20)
#    0.000    1.200    2.667    3.200    0.933    5.333 
#    3.600    0.333    0.000    0.000    0.000    0.000 
#    0.000    0.000    0.000    0.000    0.000    0.000 
#
# Total GULP energy -167187.263210 kJ/mol
# GULP energy per Si atom -5572.908774 kJ/mol
# Density = 2.059424 g / cm^3
# Si number density = 20.641217 Si / 1000 Ang^3
#
#
#
# Elastic Constant Matrix: (Units=GPa)
#
#
# Indices 1 2 3 4 5 6 
#
# 1 97.1203 45.6093 -8.9672 0.0004 4.7249 0.0000
# 2 45.6093 146.2568 10.5650 0.0012 -4.4928 0.0001
# 3 -8.9672 10.5650 19.3555 0.0016 2.1451 0.0001
# 4 0.0004 0.0012 0.0016 -2.3068 -0.0013 -1.3812
# 5 4.7249 -4.4928 2.1451 -0.0013 18.2091 0.0000
# 6 0.0000 0.0001 0.0001 -1.3812 0.0000 32.9551
#
#
#
# Elastic Compliance Matrix: (Units=1/GPa)
#
#
# Indices 1 2 3 4 5 6 
#
# 1 0.014001 -0.005280 0.010047 0.000010 -0.006119 0.000000
# 2 -0.005280 0.009201 -0.007976 -0.000004 0.004580 0.000000
# 3 0.010047 -0.007976 0.061989 0.000046 -0.011877 0.000002
# 4 0.000010 -0.000004 0.000046 -0.422883 -0.000039 -0.017724
# 5 -0.006119 0.004580 -0.011877 -0.000039 0.059035 -0.000002
# 6 0.000000 0.000000 0.000002 -0.017724 -0.000002 0.029601
#
#
# Mechanical properties :
#
#
# Convention : Reuss Voigt Hill
#
# Bulk Modulus (GPa) = 12.69461 39.68299 26.18880
# Shear Modulus (GPa) = -23.10747 24.13984 0.51619
#
# Velocity S-wave (km/s) = -3.34950 3.42350 0.50062
# Velocity P-wave (km/s) = 2.96570 5.90711 3.61239
#
# Compressibility (1/GPa) = 0.07877357
#
# Stress axis : x y z
#
# Youngs Moduli (GPa) = 71.42129 108.68801 16.13183
#
# Poissons Ratio (x) = 0.57387 -0.16207
# Poissons Ratio (y) = 0.37710 0.12866
# Poissons Ratio (z) = -0.71756 0.86687
#
# Static dielectric constant tensor:
#      x y z
#    x 1.733850 0.000000 -0.039160 
#    y 0.000000 1.722130 0.000000 
#    z -0.039160 0.000000 1.753850 
# 
# From -- ./inp_files/367557.got.cif
#   From: 2010.05.17/outbox.cif.g08.bks.cpg/sg12_184_cif.got.tgz:367557.got - 2010.06.03 13:09:07.
