data_PCOD9212511
_publ_section_title
;
Structure prediction by ZEFSAII (Michael W. Deem and Ramdas Pophale) SiO2 
 PCOD9212511
Probable space group: C 2/M
;
_chemical_formula_sum "Si O2"
_cell_formula_units_Z 44
_cell_length_a 22.118187
_cell_length_b 14.749663
_cell_length_c 16.159959
_cell_angle_alpha 90.000000
_cell_angle_beta 157.913611
_cell_angle_gamma 90.000000
_cell_volume 1982.277792
_symmetry_space_group_name_H-M "C 2/M"
_symmetry_group_IT_number 12
_symmetry_cell_setting 'monoclinic'
loop_
_space_group_symop_operation_xyz
x,y,z
-x,y,-z
-x,-y,-z
x,-y,z
1/2+x,1/2+y,z
1/2-x,1/2+y,-z
1/2-x,1/2-y,-z
1/2+x,1/2-y,z
loop_
_atom_site_type_symbol
_atom_site_label
_atom_site_fract_x
_atom_site_fract_y
_atom_site_fract_z
Si Si1 0.184247 0.269436 0.721139
Si Si2 0.874421 0.343826 0.534518
Si Si3 0.659706 0.898904 0.147706
Si Si4 0.728209 0.107066 0.935773
Si Si5 0.330275 0.500000 0.633134
Si Si6 0.927970 0.142877 0.621811
O O1 0.184734 0.323245 0.634503
O O2 0.304034 0.184293 0.866762
O O3 0.223091 0.337856 0.843569
O O4 0.000000 0.237399 0.500000
O O5 0.768418 0.420090 0.441969
O O6 0.874282 0.244438 0.574752
O O7 0.060352 0.373753 0.767337
O O8 0.805822 0.895034 0.398317
O O9 0.648853 0.000000 0.096089
O O10 0.500000 0.884986 0.000000
O O11 0.739539 0.000000 0.936964
O O12 0.891447 0.141626 0.185385
O O13 0.418653 0.578560 0.688520
#
# Coordination Sequence:
#
# PCOD9212511 Si02
#       6
#     8   8   8   8   4   8
#     4   9  22  39  63  93 122 161 204 255 305 365
#     4  10  23  40  64  90 127 166 204 252 309 368
#     4  10  21  42  65  85 125 166 204 250 311 368
#     4  11  21  41  67  93 124 159 206 260 310 363
#     4  12  22  38  61  92 123 168 204 246 311 362
#     4  11  23  43  62  93 127 160 209 259 300 364
#
# _framework density 22.196686
#
# number of rings (size 3 to 8) (size 9 to 14) (size 15 to 20)
#    0.000    1.636    2.727    1.091    1.273    5.818 
#    0.000    0.909    0.000    0.000    0.000    0.000 
#    0.000    0.000    0.000    0.000    0.000    0.000 
#
# Total GULP energy -122526.725818 kJ/mol
# GULP energy per Si atom -5569.396628 kJ/mol
# Density = 2.214616 g / cm^3
# Si number density = 22.196686 Si / 1000 Ang^3
#
#
#
# Elastic Constant Matrix: (Units=GPa)
#
#
# Indices 1 2 3 4 5 6 
#
# 1 44.5987 15.3635 4.6967 0.0000 7.5070 0.0001
# 2 15.3635 147.2865 -30.6431 0.0000 -15.3477 0.0000
# 3 4.6967 -30.6431 34.3275 0.0000 -31.7337 0.0001
# 4 0.0000 0.0000 0.0000 17.8335 0.0000 18.8739
# 5 7.5070 -15.3477 -31.7337 0.0000 -7.1883 0.0001
# 6 0.0001 0.0000 0.0001 18.8739 0.0001 34.8641
#
#
#
# Elastic Compliance Matrix: (Units=1/GPa)
#
#
# Indices 1 2 3 4 5 6 
#
# 1 0.020995 -0.000657 0.003564 0.000000 0.007596 0.000000
# 2 -0.000657 0.005829 -0.001347 0.000000 -0.007184 0.000000
# 3 0.003564 -0.001347 0.006601 0.000000 -0.022543 0.000000
# 4 0.000000 0.000000 0.000000 0.131303 0.000000 -0.071081
# 5 0.007596 -0.007184 -0.022543 0.000000 -0.016325 0.000000
# 6 0.000000 0.000000 0.000000 -0.071081 0.000000 0.067163
#
#
# Mechanical properties :
#
#
# Convention : Reuss Voigt Hill
#
# Bulk Modulus (GPa) = 27.36498 22.78300 25.07399
# Shear Modulus (GPa) = 22.25895 24.88823 23.57359
#
# Velocity S-wave (km/s) = 3.17015 3.35215 3.26242
# Velocity P-wave (km/s) = 5.07493 5.02683 5.05094
#
# Compressibility (1/GPa) = 0.03654305
#
# Stress axis : x y z
#
# Youngs Moduli (GPa) = 47.63136 171.55199 151.48969
#
# Poissons Ratio (x) = 0.11271 -0.53984
# Poissons Ratio (y) = 0.03129 0.20412
# Poissons Ratio (z) = -0.16973 0.23115
#
# Static dielectric constant tensor:
#      x y z
#    x 1.810880 0.000000 -0.019190 
#    y 0.000000 1.793590 0.000000 
#    z -0.019190 0.000000 1.834040 
# 
# From -- ./inp_files/73046.got.cif
#   From: 2010.05.17/outbox.cif.g08.bks.cpg/sg12_37_cif.got.tgz:73046.got - 2010.06.03 13:09:07.
