data_PCOD9212318
_publ_section_title
;
Structure prediction by ZEFSAII (Michael W. Deem and Ramdas Pophale) SiO2 
 PCOD9212318
Probable space group: C 2/M
;
_chemical_formula_sum "Si O2"
_cell_formula_units_Z 48
_cell_length_a 10.071205
_cell_length_b 15.105866
_cell_length_c 18.041091
_cell_angle_alpha 90.000000
_cell_angle_beta 74.563222
_cell_angle_gamma 90.000000
_cell_volume 2645.653662
_symmetry_space_group_name_H-M "C 2/M"
_symmetry_group_IT_number 12
_symmetry_cell_setting 'monoclinic'
loop_
_space_group_symop_operation_xyz
x,y,z
-x,y,-z
-x,-y,-z
x,-y,z
1/2+x,1/2+y,z
1/2-x,1/2+y,-z
1/2-x,1/2-y,-z
1/2+x,1/2-y,z
loop_
_atom_site_type_symbol
_atom_site_label
_atom_site_fract_x
_atom_site_fract_y
_atom_site_fract_z
Si Si1 0.365843 0.840012 0.346758
Si Si2 0.644262 0.603700 0.166167
Si Si3 0.901541 0.753583 0.944435
Si Si4 0.428313 0.500000 0.431133
Si Si5 0.457521 0.102255 0.168153
Si Si6 0.943161 0.172938 0.661701
Si Si7 0.372882 0.000000 0.462650
O O1 0.425181 0.875241 0.258975
O O2 0.205572 0.815577 0.355625
O O3 0.458431 0.757394 0.357579
O O4 0.372538 0.915620 0.407938
O O5 0.608898 0.500000 0.171189
O O6 0.587651 0.657083 0.104998
O O7 0.810512 0.610304 0.147684
O O8 0.587451 0.650392 0.248243
O O9 0.939190 0.671675 0.884706
O O10 0.750000 0.750000 0.000000
O O11 0.000000 0.752020 0.000000
O O12 0.500000 0.500000 0.500000
O O13 0.481302 0.587335 0.382322
O O14 0.266053 0.500000 0.468542
O O15 0.503108 0.000000 0.155773
O O16 0.500000 0.000000 0.500000
#
# Coordination Sequence:
#
# PCOD9212318 Si02
#       7
#     8   8   8   4   8   8   4
#     4  11  23  43  69  98 128 173 220 265 323 393
#     4  10  21  41  67  94 126 175 220 257 322 392
#     4  12  24  40  63  99 134 162 211 277 328 371
#     4  12  24  46  66  98 134 166 213 274 331 377
#     4  10  21  41  70  92 125 174 222 259 314 399
#     4  11  23  41  71  96 128 174 222 264 322 395
#     4  12  28  46  66 100 140 167 213 280 330 379
#
# _framework density 18.142963999999999
#
# number of rings (size 3 to 8) (size 9 to 14) (size 15 to 20)
#    0.000    1.000    6.667    0.000    2.333    2.667 
#    0.000    0.000    0.000    0.000    0.000    0.000 
#    0.000    0.000    0.000    0.000    0.000    0.000 
#
# Total GULP energy -134087.550926 kJ/mol
# GULP energy per Si atom -5586.981289 kJ/mol
# Density = 1.810167 g / cm^3
# Si number density = 18.142964 Si / 1000 Ang^3
#
#
#
# Elastic Constant Matrix: (Units=GPa)
#
#
# Indices 1 2 3 4 5 6 
#
# 1 136.8538 67.8413 64.8689 0.0000 -8.1839 0.0000
# 2 67.8413 151.1958 41.8906 0.0000 -9.1424 0.0000
# 3 64.8689 41.8906 82.6994 0.0000 -2.9313 0.0000
# 4 0.0000 0.0000 0.0000 60.7416 0.0000 5.8459
# 5 -8.1839 -9.1424 -2.9313 0.0000 33.4526 0.0000
# 6 0.0000 0.0000 0.0000 5.8459 0.0000 34.9152
#
#
#
# Elastic Compliance Matrix: (Units=1/GPa)
#
#
# Indices 1 2 3 4 5 6 
#
# 1 0.013139 -0.003446 -0.008506 0.000000 0.001527 0.000000
# 2 -0.003446 0.008703 -0.001656 0.000000 0.001390 0.000000
# 3 -0.008506 -0.001656 0.019574 0.000000 -0.000818 0.000000
# 4 0.000000 0.000000 0.000000 0.016733 0.000000 -0.002802
# 5 0.001527 0.001390 -0.000818 0.000000 0.030575 0.000000
# 6 0.000000 0.000000 0.000000 -0.002802 0.000000 0.029110
#
#
# Mechanical properties :
#
#
# Convention : Reuss Voigt Hill
#
# Bulk Modulus (GPa) = 70.42717 79.99451 75.21084
# Shear Modulus (GPa) = 33.38163 38.89844 36.14003
#
# Velocity S-wave (km/s) = 4.29408 4.63535 4.46798
# Velocity P-wave (km/s) = 7.96792 8.53438 8.25601
#
# Compressibility (1/GPa) = 0.01419907
#
# Stress axis : x y z
#
# Youngs Moduli (GPa) = 76.11124 114.90095 51.08834
#
# Poissons Ratio (x) = 0.39598 0.43456
# Poissons Ratio (y) = 0.26230 0.08460
# Poissons Ratio (z) = 0.64741 0.19028
#
# Static dielectric constant tensor:
#      x y z
#    x 1.579070 0.000000 0.021040 
#    y 0.000000 1.582580 0.000000 
#    z 0.021040 0.000000 1.570330 
# 
# From -- ./inp_files/262122.got.cif
#   From: 2010.05.17/outbox.cif.g08.bks.cpg/sg12_132_cif.got.tgz:262122.got - 2010.06.03 13:09:07.
