data_PCOD9212705
_publ_section_title
;
Structure prediction by ZEFSAII (Michael W. Deem and Ramdas Pophale) SiO2 
 PCOD9212705
Probable space group: C 2/M
;
_chemical_formula_sum "Si O2"
_cell_formula_units_Z 58
_cell_length_a 17.174852
_cell_length_b 15.831509
_cell_length_c 22.231358
_cell_angle_alpha 90.000000
_cell_angle_beta 151.065825
_cell_angle_gamma 90.000000
_cell_volume 2924.497103
_symmetry_space_group_name_H-M "C 2/M"
_symmetry_group_IT_number 12
_symmetry_cell_setting 'monoclinic'
loop_
_space_group_symop_operation_xyz
x,y,z
-x,y,-z
-x,-y,-z
x,-y,z
1/2+x,1/2+y,z
1/2-x,1/2+y,-z
1/2-x,1/2-y,-z
1/2+x,1/2-y,z
loop_
_atom_site_type_symbol
_atom_site_label
_atom_site_fract_x
_atom_site_fract_y
_atom_site_fract_z
Si Si1 0.167570 0.228823 0.581853
Si Si2 0.131401 0.280824 0.167033
Si Si3 0.236633 0.746546 0.062453
Si Si4 0.500000 0.500000 0.000000
Si Si5 0.777674 0.096074 0.176971
Si Si6 0.126701 0.406848 0.492782
Si Si7 0.144300 0.093619 0.466158
Si Si8 0.296025 0.135282 0.203571
O O1 0.307665 0.211782 0.724027
O O2 0.150446 0.327255 0.552445
O O3 0.192322 0.170922 0.540602
O O4 0.000000 0.203185 0.500000
O O5 0.156776 0.364596 0.144611
O O6 0.245181 0.212999 0.211713
O O7 0.950489 0.248122 0.045311
O O8 0.287975 0.657261 0.126163
O O9 0.324855 0.822295 0.157607
O O10 0.250000 0.750000 0.000000
O O11 0.644790 0.572644 0.098623
O O12 0.953843 0.097979 0.326138
O O13 0.737490 0.000000 0.134057
O O14 0.136851 0.500000 0.528930
O O15 0.264861 0.400940 0.535790
O O16 0.957513 0.400732 0.342647
O O17 0.181699 0.000000 0.517281
#
# Coordination Sequence:
#
# PCOD9212705 Si02
#       8
#     8   8   8   2   8   8   8   8
#     4  12  22  38  63  94 122 161 199 255 306 361
#     4  11  23  40  61  91 124 158 205 246 304 365
#     4  11  25  41  61  91 124 156 201 258 308 362
#     4  12  20  40  68  82 114 164 216 244 292 362
#     4  10  21  43  68  87 119 165 206 247 304 367
#     4  11  24  40  61  91 127 161 205 248 304 370
#     4  10  23  41  63  91 124 162 200 250 308 370
#     4  11  21  42  63  87 118 166 202 247 303 360
#
# _framework density 19.832470000000001
#
# number of rings (size 3 to 8) (size 9 to 14) (size 15 to 20)
#    0.000    1.103    4.828    2.483    3.862    2.207 
#    2.483    0.000    0.000    0.000    0.000    0.000 
#    0.000    0.000    0.000    0.000    0.000    0.000 
#
# Total GULP energy -161731.579692 kJ/mol
# GULP energy per Si atom -5576.951024 kJ/mol
# Density = 1.978733 g / cm^3
# Si number density = 19.832470 Si / 1000 Ang^3
#
#
#
# Elastic Constant Matrix: (Units=GPa)
#
#
# Indices 1 2 3 4 5 6 
#
# 1 59.7178 21.2148 0.8614 0.0009 -10.1682 0.0004
# 2 21.2148 121.0377 11.8670 -0.0009 -23.5989 -0.0008
# 3 0.8614 11.8670 53.3822 0.0010 -7.9204 0.0001
# 4 0.0009 -0.0009 0.0010 9.7170 0.0006 11.4963
# 5 -10.1682 -23.5989 -7.9204 0.0006 35.5822 0.0003
# 6 0.0004 -0.0008 0.0001 11.4963 0.0003 12.0150
#
#
#
# Elastic Compliance Matrix: (Units=1/GPa)
#
#
# Indices 1 2 3 4 5 6 
#
# 1 0.018275 -0.002561 0.000825 0.000009 0.003707 -0.000010
# 2 -0.002561 0.009925 -0.001341 -0.000001 0.005552 0.000002
# 3 0.000825 -0.001341 0.019567 0.000014 0.003702 -0.000014
# 4 0.000009 -0.000001 0.000014 -0.779398 0.000013 0.745750
# 5 0.003707 0.005552 0.003702 0.000013 0.033669 -0.000013
# 6 -0.000010 0.000002 -0.000014 0.745750 -0.000013 -0.630327
#
#
# Mechanical properties :
#
#
# Convention : Reuss Voigt Hill
#
# Bulk Modulus (GPa) = 24.03234 33.55823 28.79529
# Shear Modulus (GPa) = -3.82186 24.80913 10.49363
#
# Velocity S-wave (km/s) = -1.38970 3.54069 2.30274
# Velocity P-wave (km/s) = 3.09338 5.80284 4.64983
#
# Compressibility (1/GPa) = 0.04161059
#
# Stress axis : x y z
#
# Youngs Moduli (GPa) = 54.72075 100.75832 51.10668
#
# Poissons Ratio (x) = 0.25805 -0.04214
# Poissons Ratio (y) = 0.14015 0.06855
# Poissons Ratio (z) = -0.04512 0.13514
#
# Static dielectric constant tensor:
#      x y z
#    x 1.681100 0.000000 -0.008440 
#    y 0.000000 1.721640 0.000000 
#    z -0.008440 0.000000 1.717130 
# 
# From -- ./inp_files/343841.got.cif
#   From: 2010.05.17/outbox.cif.g08.bks.cpg/sg12_172_cif.got.tgz:343841.got - 2010.06.03 13:09:07.
