data_PCOD9212167
_publ_section_title
;
Structure prediction by ZEFSAII (Michael W. Deem and Ramdas Pophale) SiO2 
 PCOD9212167
Probable space group: C 2/M
;
_chemical_formula_sum "Si O2"
_cell_formula_units_Z 56
_cell_length_a 20.286946
_cell_length_b 22.765249
_cell_length_c 5.636941
_cell_angle_alpha 90.000000
_cell_angle_beta 77.952481
_cell_angle_gamma 90.000000
_cell_volume 2546.010819
_symmetry_space_group_name_H-M "C 2/M"
_symmetry_group_IT_number 12
_symmetry_cell_setting 'monoclinic'
loop_
_space_group_symop_operation_xyz
x,y,z
-x,y,-z
-x,-y,-z
x,-y,z
1/2+x,1/2+y,z
1/2-x,1/2+y,-z
1/2-x,1/2-y,-z
1/2+x,1/2-y,z
loop_
_atom_site_type_symbol
_atom_site_label
_atom_site_fract_x
_atom_site_fract_y
_atom_site_fract_z
Si Si1 0.144361 0.855404 0.354006
Si Si2 0.575817 0.792538 0.736162
Si Si3 0.459951 0.000000 0.776977
Si Si4 0.742237 0.065222 0.551515
Si Si5 0.675648 0.705871 0.836808
Si Si6 0.120353 0.600916 0.953903
Si Si7 0.688418 0.173346 0.283812
Si Si8 0.000000 0.200941 0.500000
O O1 0.189232 0.914647 0.363390
O O2 0.159738 0.822793 0.592552
O O3 0.063639 0.841832 0.402717
O O4 0.168631 0.832597 0.078874
O O5 0.620346 0.756132 0.888541
O O6 0.624172 0.803613 0.473144
O O7 0.517543 0.748210 0.696559
O O8 0.568463 0.858695 0.841920
O O9 0.500000 0.000000 0.500000
O O10 0.415521 0.941351 0.832450
O O11 0.500000 0.000000 0.000000
O O12 0.723001 0.117557 0.387057
O O13 0.751628 0.000000 0.442011
O O14 0.673683 0.064793 0.759032
O O15 0.754194 0.722640 0.763965
O O16 0.167344 0.646785 0.052891
#
# Coordination Sequence:
#
# PCOD9212167 Si02
#       8
#     8   8   4   8   8   8   8   4
#     4  10  22  42  65 101 134 183 224 278 342 413
#     4  10  24  39  66  96 132 182 226 271 335 415
#     4  12  32  52  68  92 138 185 219 283 339 400
#     4  10  21  41  71 100 132 172 232 290 345 390
#     4  10  21  41  64  98 137 170 215 283 350 394
#     4  11  24  43  70  96 129 174 235 278 338 401
#     4  10  22  39  64 101 132 168 221 288 337 408
#     4  10  24  46  65  93 150 190 222 274 352 414
#
# _framework density 21.995194000000001
#
# number of rings (size 3 to 8) (size 9 to 14) (size 15 to 20)
#    0.000    1.714    2.143    0.429    9.000    5.143 
#    0.000    0.357    0.000    0.000    0.000    6.000 
#    0.000    0.000    0.000    0.000    0.000    0.000 
#
# Total GULP energy -155990.446332 kJ/mol
# GULP energy per Si atom -5571.087369 kJ/mol
# Density = 2.194513 g / cm^3
# Si number density = 21.995194 Si / 1000 Ang^3
#
#
#
# Elastic Constant Matrix: (Units=GPa)
#
#
# Indices 1 2 3 4 5 6 
#
# 1 96.8159 29.2577 19.2009 0.0000 -9.0702 0.0000
# 2 29.2577 80.8873 11.7001 0.0000 1.9419 0.0000
# 3 19.2009 11.7001 85.8083 0.0000 -4.8457 0.0000
# 4 0.0000 0.0000 0.0000 23.4984 0.0000 -7.9733
# 5 -9.0702 1.9419 -4.8457 0.0000 35.4507 0.0000
# 6 0.0000 0.0000 0.0000 -7.9733 0.0000 -6.0020
#
#
#
# Elastic Compliance Matrix: (Units=1/GPa)
#
#
# Indices 1 2 3 4 5 6 
#
# 1 0.012295 -0.004233 -0.001999 0.000000 0.003104 0.000000
# 2 -0.004233 0.014099 -0.001089 0.000000 -0.002004 0.000000
# 3 -0.001999 -0.001089 0.012319 0.000000 0.001232 0.000000
# 4 0.000000 0.000000 0.000000 0.029334 0.000000 -0.038968
# 5 0.003104 -0.002004 0.001232 0.000000 0.029281 0.000000
# 6 0.000000 0.000000 0.000000 -0.038968 0.000000 -0.114844
#
#
# Mechanical properties :
#
#
# Convention : Reuss Voigt Hill
#
# Bulk Modulus (GPa) = 41.53896 42.64764 42.09330
# Shear Modulus (GPa) = 971.17935 24.14628 497.66281
#
# Velocity S-wave (km/s) = 21.03569 3.31690 15.05825
# Velocity P-wave (km/s) = 24.67644 5.83958 17.93080
#
# Compressibility (1/GPa) = 0.02407378
#
# Stress axis : x y z
#
# Youngs Moduli (GPa) = 81.33215 70.92471 81.17444
#
# Poissons Ratio (x) = 0.30020 0.16225
# Poissons Ratio (y) = 0.34426 0.08836
# Poissons Ratio (z) = 0.16257 0.07720
#
# Static dielectric constant tensor:
#      x y z
#    x 1.879450 0.000000 -0.004810 
#    y 0.000000 1.872410 0.000000 
#    z -0.004810 0.000000 1.865420 
# 
# From -- ./inp_files/21866.got.cif
#   From: 2010.05.17/outbox.cif.g08.bks.cpg/sg12_11_cif.got.tgz:21866.got - 2010.06.03 13:09:07.
