data_PCOD9212804
_publ_section_title
;
Structure prediction by ZEFSAII (Michael W. Deem and Ramdas Pophale) SiO2 
 PCOD9212804
Probable space group: C 2/M
;
_chemical_formula_sum "Si O2"
_cell_formula_units_Z 48
_cell_length_a 9.643147
_cell_length_b 17.701476
_cell_length_c 12.150324
_cell_angle_alpha 90.000000
_cell_angle_beta 85.753314
_cell_angle_gamma 90.000000
_cell_volume 2068.340892
_symmetry_space_group_name_H-M "C 2/M"
_symmetry_group_IT_number 12
_symmetry_cell_setting 'monoclinic'
loop_
_space_group_symop_operation_xyz
x,y,z
-x,y,-z
-x,-y,-z
x,-y,z
1/2+x,1/2+y,z
1/2-x,1/2+y,-z
1/2-x,1/2-y,-z
1/2+x,1/2-y,z
loop_
_atom_site_type_symbol
_atom_site_label
_atom_site_fract_x
_atom_site_fract_y
_atom_site_fract_z
Si Si1 0.064450 0.916606 0.873146
Si Si2 0.334036 0.327251 0.508316
Si Si3 0.386257 0.911967 0.593047
Si Si4 0.206770 0.292324 0.113545
Si Si5 0.005766 0.586798 0.832332
Si Si6 0.307253 0.639512 0.758563
O O1 0.170312 0.847905 0.856838
O O2 0.939361 0.904848 0.796134
O O3 0.129310 0.000000 0.854959
O O4 0.000000 0.913236 0.000000
O O5 0.500000 0.317967 0.500000
O O6 0.250000 0.250000 0.500000
O O7 0.265538 0.377125 0.416415
O O8 0.296523 0.363613 0.628180
O O9 0.500000 0.879325 0.500000
O O10 0.447243 0.904612 0.711089
O O11 0.372844 0.000000 0.568499
O O12 0.078571 0.348369 0.100733
O O13 0.177265 0.226856 0.204003
O O14 0.250000 0.250000 0.000000
O O15 0.982827 0.500000 0.868843
O O16 0.168287 0.605560 0.819828
#
# Coordination Sequence:
#
# PCOD9212804 Si02
#       6
#     8   8   8   8   8   8
#     4  11  25  48  71 101 142 186 235 301 367 426
#     4  12  28  44  70 108 148 189 242 300 362 441
#     4  10  21  44  71 100 144 190 234 292 362 434
#     4  12  26  47  71 102 139 188 241 302 364 434
#     4  11  25  46  74 107 144 192 244 299 363 439
#     4  12  26  44  77 105 142 189 246 298 364 436
#
# _framework density 23.207007000000001
#
# number of rings (size 3 to 8) (size 9 to 14) (size 15 to 20)
#    0.000    0.667    3.333    3.500    7.000    1.000 
#    0.000    0.833    0.000    0.000    0.000    0.000 
#    0.000    0.000    0.000    0.000    0.000    0.000 
#
# Total GULP energy -134475.740426 kJ/mol
# GULP energy per Si atom -5603.155851 kJ/mol
# Density = 2.315419 g / cm^3
# Si number density = 23.207007 Si / 1000 Ang^3
#
#
#
# Elastic Constant Matrix: (Units=GPa)
#
#
# Indices 1 2 3 4 5 6 
#
# 1 149.2492 40.2884 10.7481 0.0000 11.8999 0.0000
# 2 40.2884 129.2000 12.8637 0.0000 1.7662 0.0000
# 3 10.7481 12.8637 72.1418 0.0000 10.8818 0.0000
# 4 0.0000 0.0000 0.0000 -95.3063 0.0000 -8.4719
# 5 11.8999 1.7662 10.8818 0.0000 37.6947 0.0000
# 6 0.0000 0.0000 0.0000 -8.4719 0.0000 37.6012
#
#
#
# Elastic Compliance Matrix: (Units=1/GPa)
#
#
# Indices 1 2 3 4 5 6 
#
# 1 0.007514 -0.002275 -0.000389 0.000000 -0.002153 0.000000
# 2 -0.002275 0.008569 -0.001293 0.000000 0.000690 0.000000
# 3 -0.000389 -0.001293 0.014765 0.000000 -0.004079 0.000000
# 4 0.000000 0.000000 0.000000 -0.010286 0.000000 -0.002318
# 5 -0.002153 0.000690 -0.004079 0.000000 0.028354 0.000000
# 6 0.000000 0.000000 0.000000 -0.002318 0.000000 0.026073
#
#
# Mechanical properties :
#
#
# Convention : Reuss Voigt Hill
#
# Bulk Modulus (GPa) = 43.60331 53.15460 48.37895
# Shear Modulus (GPa) = 55.22003 15.11063 35.16533
#
# Velocity S-wave (km/s) = 4.88326 2.55448 3.89689
# Velocity P-wave (km/s) = 7.11510 5.62626 6.41402
#
# Compressibility (1/GPa) = 0.02293404
#
# Stress axis : x y z
#
# Youngs Moduli (GPa) = 133.08509 116.70473 67.72591
#
# Poissons Ratio (x) = 0.26549 0.02635
# Poissons Ratio (y) = 0.30276 0.08757
# Poissons Ratio (z) = 0.05178 0.15090
#
# Static dielectric constant tensor:
#      x y z
#    x 1.847080 0.000000 0.014160 
#    y 0.000000 1.852730 0.000000 
#    z 0.014160 0.000000 1.738360 
# 
# From -- ./inp_files/195923.got.cif
#   From: 2010.05.17/outbox.cif.g08.bks.cpg/sg12_98_cif.got.tgz:195923.got - 2010.06.03 13:09:07.
