data_PCOD9212957
_publ_section_title
;
Structure prediction by ZEFSAII (Michael W. Deem and Ramdas Pophale) SiO2 
 PCOD9212957
Probable space group: C 2/M
;
_chemical_formula_sum "Si O2"
_cell_formula_units_Z 64
_cell_length_a 19.306779
_cell_length_b 17.599937
_cell_length_c 14.698648
_cell_angle_alpha 90.000000
_cell_angle_beta 140.093497
_cell_angle_gamma 90.000000
_cell_volume 3204.201607
_symmetry_space_group_name_H-M "C 2/M"
_symmetry_group_IT_number 12
_symmetry_cell_setting 'monoclinic'
loop_
_space_group_symop_operation_xyz
x,y,z
-x,y,-z
-x,-y,-z
x,-y,z
1/2+x,1/2+y,z
1/2-x,1/2+y,-z
1/2-x,1/2-y,-z
1/2+x,1/2-y,z
loop_
_atom_site_type_symbol
_atom_site_label
_atom_site_fract_x
_atom_site_fract_y
_atom_site_fract_z
Si Si1 0.263555 0.915009 0.499219
Si Si2 0.182013 0.910528 0.983590
Si Si3 0.153661 0.688221 0.737662
Si Si4 0.828954 0.585649 0.771531
Si Si5 0.232613 0.659161 0.107912
Si Si6 0.550060 0.333150 0.289427
Si Si7 0.911038 0.298162 0.536885
Si Si8 0.004701 0.715322 0.100710
O O1 0.271740 0.913773 0.616785
O O2 0.139466 0.895352 0.357512
O O3 0.339448 0.851567 0.529983
O O4 0.293393 0.000000 0.498034
O O5 0.246157 0.896482 0.953868
O O6 0.067617 0.868612 0.848876
O O7 0.167696 0.000000 0.986582
O O8 0.254710 0.870023 0.134901
O O9 0.187312 0.769546 0.813169
O O10 0.142906 0.698788 0.617755
O O11 0.033192 0.669369 0.651238
O O12 0.861303 0.500000 0.826333
O O13 0.762343 0.618641 0.789056
O O14 0.929931 0.639826 0.855957
O O15 0.112700 0.694097 0.981447
O O16 0.573296 0.287613 0.407434
O O17 0.565856 0.265343 0.234052
O O18 0.000000 0.758765 0.000000
#
# Coordination Sequence:
#
# PCOD9212957 Si02
#       8
#     8   8   8   8   8   8   8   8
#     4  11  25  41  63  93 131 170 215 272 332 388
#     4  12  26  42  67  98 137 176 215 274 337 394
#     4  11  24  43  67 100 128 169 228 271 321 394
#     4  10  22  39  60  97 134 164 212 273 332 387
#     4  11  21  41  64  94 130 169 216 266 326 399
#     4  12  22  43  65  96 130 174 224 267 324 398
#     4  11  24  42  71  95 126 175 226 276 319 389
#     4  10  22  35  64  96 125 168 212 270 322 390
#
# _framework density 19.973773999999999
#
# number of rings (size 3 to 8) (size 9 to 14) (size 15 to 20)
#    0.000    1.000    3.750    3.000    3.500    3.750 
#    0.000    1.250    0.000    5.250    0.000    0.000 
#    0.000    0.000    0.000    0.000    0.000    0.000 
#
# Total GULP energy -178629.304537 kJ/mol
# GULP energy per Si atom -5582.165767 kJ/mol
# Density = 1.992831 g / cm^3
# Si number density = 19.973774 Si / 1000 Ang^3
#
#
#
# Elastic Constant Matrix: (Units=GPa)
#
#
# Indices 1 2 3 4 5 6 
#
# 1 44.9854 25.6271 39.9643 0.0000 -4.0985 0.0000
# 2 25.6271 107.1493 47.0667 0.0000 -5.0514 0.0000
# 3 39.9643 47.0667 103.8781 0.0000 -0.3381 0.0000
# 4 0.0000 0.0000 0.0000 7.4135 0.0000 -8.2476
# 5 -4.0985 -5.0514 -0.3381 0.0000 24.9840 0.0000
# 6 0.0000 0.0000 0.0000 -8.2476 0.0000 19.7923
#
#
#
# Elastic Compliance Matrix: (Units=1/GPa)
#
#
# Indices 1 2 3 4 5 6 
#
# 1 0.035156 -0.002793 -0.012244 0.000000 0.005037 0.000000
# 2 -0.002793 0.012006 -0.004359 0.000000 0.001910 0.000000
# 3 -0.012244 -0.004359 0.016303 0.000000 -0.002669 0.000000
# 4 0.000000 0.000000 0.000000 0.251466 0.000000 0.104787
# 5 0.005037 0.001910 -0.002669 0.000000 0.041202 0.000000
# 6 0.000000 0.000000 0.000000 0.104787 0.000000 0.094190
#
#
# Mechanical properties :
#
#
# Convention : Reuss Voigt Hill
#
# Bulk Modulus (GPa) = 40.52772 53.48099 47.00436
# Shear Modulus (GPa) = 10.05351 19.99494 15.02423
#
# Velocity S-wave (km/s) = 2.24595 3.16739 2.74560
# Velocity P-wave (km/s) = 5.20194 6.34115 5.79959
#
# Compressibility (1/GPa) = 0.02467447
#
# Stress axis : x y z
#
# Youngs Moduli (GPa) = 28.44437 83.29502 61.33673
#
# Poissons Ratio (x) = 0.23262 0.75099
# Poissons Ratio (y) = 0.07944 0.26737
# Poissons Ratio (z) = 0.34826 0.36308
#
# Static dielectric constant tensor:
#      x y z
#    x 1.734270 0.000000 -0.027160 
#    y 0.000000 1.692550 0.000000 
#    z -0.027160 0.000000 1.757130 
# 
# From -- ./inp_files/226901.got.cif
#   From: 2010.05.17/outbox.cif.g08.bks.cpg/sg12_114_cif.got.tgz:226901.got - 2010.06.03 13:09:07.
