data_PCOD9212994
_publ_section_title
;
Structure prediction by ZEFSAII (Michael W. Deem and Ramdas Pophale) SiO2 
 PCOD9212994
Probable space group: C 2/M
;
_chemical_formula_sum "Si O2"
_cell_formula_units_Z 58
_cell_length_a 13.612968
_cell_length_b 19.460447
_cell_length_c 14.275043
_cell_angle_alpha 90.000000
_cell_angle_beta 49.853028
_cell_angle_gamma 90.000000
_cell_volume 2890.678603
_symmetry_space_group_name_H-M "C 2/M"
_symmetry_group_IT_number 12
_symmetry_cell_setting 'monoclinic'
loop_
_space_group_symop_operation_xyz
x,y,z
-x,y,-z
-x,-y,-z
x,-y,z
1/2+x,1/2+y,z
1/2-x,1/2+y,-z
1/2-x,1/2-y,-z
1/2+x,1/2-y,z
loop_
_atom_site_type_symbol
_atom_site_label
_atom_site_fract_x
_atom_site_fract_y
_atom_site_fract_z
Si Si1 0.867218 0.220685 0.026142
Si Si2 0.525278 0.077395 0.088338
Si Si3 0.996359 0.299840 0.788793
Si Si4 0.281667 0.297662 0.392369
Si Si5 0.368774 0.238894 0.692114
Si Si6 0.003466 0.881736 0.656774
Si Si7 0.670584 0.421310 0.056621
Si Si8 0.000000 0.000000 0.500000
O O1 0.884217 0.270931 0.925743
O O2 0.849124 0.141639 0.003481
O O3 0.758440 0.245370 0.165034
O O4 0.000000 0.224409 0.000000
O O5 0.457390 0.128256 0.200793
O O6 0.475696 0.000000 0.125150
O O7 0.500000 0.103341 0.000000
O O8 0.677433 0.077379 0.013582
O O9 0.955251 0.308197 0.706836
O O10 0.102209 0.241758 0.729958
O O11 0.250000 0.250000 0.500000
O O12 0.168660 0.293933 0.384640
O O13 0.354064 0.364452 0.388939
O O14 0.441946 0.312077 0.649005
O O15 0.912219 0.902992 0.800157
O O16 0.006120 0.940139 0.578175
O O17 0.637504 0.500000 0.046299
#
# Coordination Sequence:
#
# PCOD9212994 Si02
#       8
#     8   8   8   8   8   8   8   2
#     4  12  20  36  61  94 125 161 204 256 322 381
#     4  10  22  36  54  87 126 162 199 250 312 383
#     4  11  21  34  62  88 118 159 201 255 309 382
#     4  11  24  41  61  89 120 155 215 268 306 369
#     4  11  21  38  65  91 124 156 203 261 319 370
#     4  11  23  41  61  94 121 169 210 262 319 376
#     4  11  21  37  58  88 132 162 203 254 323 393
#     4  12  24  44  68  84 132 170 218 260 312 372
#
# _framework density 20.064492999999999
#
# number of rings (size 3 to 8) (size 9 to 14) (size 15 to 20)
#    0.000    0.966    6.207    2.483    1.931    1.931 
#    0.000    0.000    1.517    0.000    0.000    0.966 
#    0.000    0.000    0.000    0.000    0.000    0.000 
#
# Total GULP energy -161589.594543 kJ/mol
# GULP energy per Si atom -5572.054984 kJ/mol
# Density = 2.001882 g / cm^3
# Si number density = 20.064493 Si / 1000 Ang^3
#
#
#
# Elastic Constant Matrix: (Units=GPa)
#
#
# Indices 1 2 3 4 5 6 
#
# 1 95.0678 36.0474 4.8882 0.0000 34.1708 0.0000
# 2 36.0474 121.7615 25.2890 0.0000 24.0782 0.0000
# 3 4.8882 25.2890 45.5255 0.0000 26.3560 0.0000
# 4 0.0000 0.0000 0.0000 29.1930 0.0000 14.4545
# 5 34.1708 24.0782 26.3560 0.0000 33.9985 0.0000
# 6 0.0000 0.0000 0.0000 14.4545 0.0000 23.8267
#
#
#
# Elastic Compliance Matrix: (Units=1/GPa)
#
#
# Indices 1 2 3 4 5 6 
#
# 1 0.025551 -0.004355 0.023144 0.000000 -0.040537 0.000000
# 2 -0.004355 0.010455 -0.006508 0.000000 0.002018 0.000000
# 3 0.023144 -0.006508 0.061490 0.000000 -0.066320 0.000000
# 4 0.000000 0.000000 0.000000 0.048961 0.000000 -0.029702
# 5 -0.040537 0.002018 -0.066320 0.000000 0.120139 0.000000
# 6 0.000000 0.000000 0.000000 -0.029702 0.000000 0.059989
#
#
# Mechanical properties :
#
#
# Convention : Reuss Voigt Hill
#
# Bulk Modulus (GPa) = 8.19287 43.86711 26.02999
# Shear Modulus (GPa) = 14.58966 30.47900 22.53433
#
# Velocity S-wave (km/s) = 2.69948 3.90173 3.35490
# Velocity P-wave (km/s) = 3.71596 6.49681 5.29230
#
# Compressibility (1/GPa) = 0.12205738
#
# Stress axis : x y z
#
# Youngs Moduli (GPa) = 39.13806 95.65113 16.26268
#
# Poissons Ratio (x) = 0.41654 -0.37638
# Poissons Ratio (y) = 0.17044 0.10584
# Poissons Ratio (z) = -0.90580 0.62251
#
# Static dielectric constant tensor:
#      x y z
#    x 1.432910 0.000000 0.198120 
#    y 0.000000 1.717440 0.000000 
#    z 0.198120 0.000000 1.591460 
# 
# From -- ./inp_files/217412.got.cif
#   From: 2010.05.17/outbox.cif.g08.bks.cpg/sg12_109_cif.got.tgz:217412.got - 2010.06.03 13:09:07.
