data_PCOD9212953
_publ_section_title
;
Structure prediction by ZEFSAII (Michael W. Deem and Ramdas Pophale) SiO2 
 PCOD9212953
Probable space group: C 2/M
;
_chemical_formula_sum "Si O2"
_cell_formula_units_Z 44
_cell_length_a 8.278605
_cell_length_b 18.155114
_cell_length_c 17.055340
_cell_angle_alpha 90.000000
_cell_angle_beta 126.978113
_cell_angle_gamma 90.000000
_cell_volume 2047.812102
_symmetry_space_group_name_H-M "C 2/M"
_symmetry_group_IT_number 12
_symmetry_cell_setting 'monoclinic'
loop_
_space_group_symop_operation_xyz
x,y,z
-x,y,-z
-x,-y,-z
x,-y,z
1/2+x,1/2+y,z
1/2-x,1/2+y,-z
1/2-x,1/2-y,-z
1/2+x,1/2-y,z
loop_
_atom_site_type_symbol
_atom_site_label
_atom_site_fract_x
_atom_site_fract_y
_atom_site_fract_z
Si Si1 0.251551 0.000000 0.852500
Si Si2 0.360756 0.848632 0.383258
Si Si3 0.491232 0.752206 0.275051
Si Si4 0.051844 0.263845 0.129791
Si Si5 0.322880 0.000000 0.114994
Si Si6 0.726221 0.500000 0.273311
Si Si7 0.218917 0.127550 0.969477
O O1 0.269736 0.073352 0.911819
O O2 0.435348 0.000000 0.841954
O O3 0.008944 0.000000 0.766787
O O4 0.500000 0.846347 0.500000
O O5 0.453521 0.799774 0.340191
O O6 0.330195 0.928782 0.339832
O O7 0.140349 0.814338 0.336846
O O8 0.282099 0.731749 0.170222
O O9 0.586579 0.793837 0.228763
O O10 0.982363 0.177955 0.100500
O O11 0.892337 0.313664 0.039890
O O12 0.263639 0.000000 0.189750
O O13 0.225509 0.928740 0.044554
#
# Coordination Sequence:
#
# PCOD9212953 Si02
#       7
#     4   8   8   8   4   4   8
#     4  11  24  41  67  95 137 194 234 269 344 401
#     4  11  24  47  74 101 131 172 226 294 370 430
#     4  10  22  40  66  99 132 174 222 280 344 419
#     4  10  22  35  62  95 140 175 229 271 329 389
#     4  11  26  41  67  96 144 187 241 273 338 400
#     4  12  27  47  72 101 141 183 231 298 355 414
#     4  10  22  37  60  96 140 189 227 275 313 397
#
# _framework density 21.486345
#
# number of rings (size 3 to 8) (size 9 to 14) (size 15 to 20)
#    0.000    1.455    0.000    5.182    7.636    5.091 
#    0.000    0.000    0.000    1.091    0.000    0.000 
#    0.000    0.000    0.000    0.000    0.000    0.000 
#
# Total GULP energy -122858.401389 kJ/mol
# GULP energy per Si atom -5584.472790 kJ/mol
# Density = 2.143744 g / cm^3
# Si number density = 21.486345 Si / 1000 Ang^3
#
#
#
# Elastic Constant Matrix: (Units=GPa)
#
#
# Indices 1 2 3 4 5 6 
#
# 1 88.3013 60.0875 45.6577 0.0000 0.8727 0.0000
# 2 60.0875 161.6284 62.2558 0.0000 -0.9039 0.0000
# 3 45.6577 62.2558 141.2498 0.0000 -3.0095 0.0000
# 4 0.0000 0.0000 0.0000 62.9204 0.0000 3.4270
# 5 0.8727 -0.9039 -3.0095 0.0000 30.7217 0.0000
# 6 0.0000 0.0000 0.0000 3.4270 0.0000 22.0944
#
#
#
# Elastic Compliance Matrix: (Units=1/GPa)
#
#
# Indices 1 2 3 4 5 6 
#
# 1 0.016248 -0.004836 -0.003140 0.000000 -0.000911 0.000000
# 2 -0.004836 0.008892 -0.002352 0.000000 0.000169 0.000000
# 3 -0.003140 -0.002352 0.009151 0.000000 0.000916 0.000000
# 4 0.000000 0.000000 0.000000 0.016029 0.000000 -0.002486
# 5 -0.000911 0.000169 0.000916 0.000000 0.032671 0.000000
# 6 0.000000 0.000000 0.000000 -0.002486 0.000000 0.045646
#
#
# Mechanical properties :
#
#
# Convention : Reuss Voigt Hill
#
# Bulk Modulus (GPa) = 73.34438 80.79794 77.07116
# Shear Modulus (GPa) = 32.50167 38.02588 35.26377
#
# Velocity S-wave (km/s) = 3.89352 4.21143 4.05559
# Velocity P-wave (km/s) = 7.37713 7.83161 7.60777
#
# Compressibility (1/GPa) = 0.01363431
#
# Stress axis : x y z
#
# Youngs Moduli (GPa) = 61.54451 112.46146 109.27852
#
# Poissons Ratio (x) = 0.54388 0.34314
# Poissons Ratio (y) = 0.29764 0.25705
# Poissons Ratio (z) = 0.19325 0.26454
#
# Static dielectric constant tensor:
#      x y z
#    x 1.931820 0.000000 0.033780 
#    y 0.000000 1.789230 0.000000 
#    z 0.033780 0.000000 1.760510 
# 
# From -- ./inp_files/257318.got.cif
#   From: 2010.05.17/outbox.cif.g08.bks.cpg/sg12_129_cif.got.tgz:257318.got - 2010.06.03 13:09:07.
