data_PCOD9212228
_publ_section_title
;
Structure prediction by ZEFSAII (Michael W. Deem and Ramdas Pophale) SiO2 
 PCOD9212228
Probable space group: C 2/M
;
_chemical_formula_sum "Si O2"
_cell_formula_units_Z 48
_cell_length_a 21.647402
_cell_length_b 14.515138
_cell_length_c 12.952217
_cell_angle_alpha 90.000000
_cell_angle_beta 37.341973
_cell_angle_gamma 90.000000
_cell_volume 2468.611163
_symmetry_space_group_name_H-M "C 2/M"
_symmetry_group_IT_number 12
_symmetry_cell_setting 'monoclinic'
loop_
_space_group_symop_operation_xyz
x,y,z
-x,y,-z
-x,-y,-z
x,-y,z
1/2+x,1/2+y,z
1/2-x,1/2+y,-z
1/2-x,1/2-y,-z
1/2+x,1/2-y,z
loop_
_atom_site_type_symbol
_atom_site_label
_atom_site_fract_x
_atom_site_fract_y
_atom_site_fract_z
Si Si1 0.882199 0.000000 0.792198
Si Si2 0.105324 0.611368 0.411799
Si Si3 0.626623 0.500000 0.434728
Si Si4 0.335011 0.394495 0.431094
Si Si5 0.206058 0.820922 0.973691
Si Si6 0.615314 0.889960 0.638323
Si Si7 0.508504 0.264622 0.110276
O O1 0.841316 0.909835 0.905040
O O2 0.848099 0.000000 0.718134
O O3 0.005289 0.000000 0.619405
O O4 0.108647 0.500000 0.402798
O O5 0.107709 0.637562 0.528621
O O6 0.000000 0.642681 0.500000
O O7 0.200588 0.648804 0.222398
O O8 0.669044 0.411542 0.440384
O O9 0.353110 0.500000 0.367106
O O10 0.226611 0.363575 0.532573
O O11 0.426270 0.330212 0.276003
O O12 0.117395 0.780949 0.018084
O O13 0.250000 0.750000 0.000000
O O14 0.529434 0.838295 0.816424
O O15 0.605879 0.000000 0.658530
O O16 0.500000 0.284168 0.000000
#
# Coordination Sequence:
#
# PCOD9212228 Si02
#       7
#     4   8   4   8   8   8   8
#     4  11  22  44  65  93 137 161 217 272 311 387
#     4  10  21  41  66  88 122 172 215 263 324 382
#     4   9  20  40  70  93 124 181 205 256 330 372
#     4   9  19  40  64  92 125 167 217 250 319 381
#     4  12  25  43  64 100 128 170 216 269 326 377
#     4  10  22  41  64  91 129 173 216 261 317 389
#     4  12  25  40  63  98 131 167 215 272 320 381
#
# _framework density 19.444130999999999
#
# number of rings (size 3 to 8) (size 9 to 14) (size 15 to 20)
#    0.500    1.000    2.500    2.500    0.000    3.333 
#    4.500    0.000    0.000    0.000    0.000    0.000 
#    0.000    0.000    0.000    0.000    0.000    0.000 
#
# Total GULP energy -134028.686991 kJ/mol
# GULP energy per Si atom -5584.528625 kJ/mol
# Density = 1.939988 g / cm^3
# Si number density = 19.444131 Si / 1000 Ang^3
#
#
#
# Elastic Constant Matrix: (Units=GPa)
#
#
# Indices 1 2 3 4 5 6 
#
# 1 187.6001 28.2609 57.1860 0.0000 -6.7619 0.0000
# 2 28.2609 53.0024 19.5227 0.0000 -3.7079 0.0000
# 3 57.1860 19.5227 76.1451 0.0000 -9.7666 0.0000
# 4 0.0000 0.0000 0.0000 24.9113 0.0000 8.8481
# 5 -6.7619 -3.7079 -9.7666 0.0000 36.9202 0.0000
# 6 0.0000 0.0000 0.0000 8.8481 0.0000 -6.4340
#
#
#
# Elastic Compliance Matrix: (Units=1/GPa)
#
#
# Indices 1 2 3 4 5 6 
#
# 1 0.007103 -0.002017 -0.004841 0.000000 -0.000182 0.000000
# 2 -0.002017 0.021425 -0.003881 0.000000 0.000756 0.000000
# 3 -0.004841 -0.003881 0.018218 0.000000 0.003543 0.000000
# 4 0.000000 0.000000 0.000000 0.026969 0.000000 0.037088
# 5 -0.000182 0.000756 0.003543 0.000000 0.028065 0.000000
# 6 0.000000 0.000000 0.000000 0.037088 0.000000 -0.104419
#
#
# Mechanical properties :
#
#
# Convention : Reuss Voigt Hill
#
# Bulk Modulus (GPa) = 39.57632 58.52074 49.04853
# Shear Modulus (GPa) = 183.39918 25.19804 104.29861
#
# Velocity S-wave (km/s) = 9.72244 3.60379 7.33189
# Velocity P-wave (km/s) = 12.10093 6.89048 9.84660
#
# Compressibility (1/GPa) = 0.02526763
#
# Stress axis : x y z
#
# Youngs Moduli (GPa) = 140.77615 46.67422 54.89079
#
# Poissons Ratio (x) = 0.09415 0.26573
# Poissons Ratio (y) = 0.28397 0.21305
# Poissons Ratio (z) = 0.68150 0.18116
#
# Static dielectric constant tensor:
#      x y z
#    x 1.694060 0.000000 0.009400 
#    y 0.000000 1.695340 0.000000 
#    z 0.009400 0.000000 1.628300 
# 
# From -- ./inp_files/167587.got.cif
#   From: 2010.05.17/outbox.cif.g08.bks.cpg/sg12_84_cif.got.tgz:167587.got - 2010.06.03 13:09:07.
