data_PCOD9212892
_publ_section_title
;
Structure prediction by ZEFSAII (Michael W. Deem and Ramdas Pophale) SiO2 
 PCOD9212892
Probable space group: C 2/M
;
_chemical_formula_sum "Si O2"
_cell_formula_units_Z 40
_cell_length_a 10.904059
_cell_length_b 19.132566
_cell_length_c 9.143677
_cell_angle_alpha 90.000000
_cell_angle_beta 95.149249
_cell_angle_gamma 90.000000
_cell_volume 1899.879494
_symmetry_space_group_name_H-M "C 2/M"
_symmetry_group_IT_number 12
_symmetry_cell_setting 'monoclinic'
loop_
_space_group_symop_operation_xyz
x,y,z
-x,y,-z
-x,-y,-z
x,-y,z
1/2+x,1/2+y,z
1/2-x,1/2+y,-z
1/2-x,1/2-y,-z
1/2+x,1/2-y,z
loop_
_atom_site_type_symbol
_atom_site_label
_atom_site_fract_x
_atom_site_fract_y
_atom_site_fract_z
Si Si1 0.674732 0.715619 0.268825
Si Si2 0.500000 0.313799 0.000000
Si Si3 0.328316 0.083493 0.340855
Si Si4 0.330598 0.345859 0.233685
Si Si5 0.598297 0.082580 0.311742
Si Si6 0.000000 0.183696 0.500000
O O1 0.584862 0.727631 0.122632
O O2 0.721051 0.635610 0.281025
O O3 0.791087 0.765516 0.260212
O O4 0.594071 0.727171 0.407131
O O5 0.593178 0.355095 0.905254
O O6 0.457184 0.105035 0.278393
O O7 0.356629 0.095047 0.516373
O O8 0.306124 0.000000 0.317723
O O9 0.201541 0.384703 0.221712
O O10 0.419309 0.362390 0.379734
O O11 0.596993 0.000000 0.292317
#
# Coordination Sequence:
#
# PCOD9212892 Si02
#       6
#     8   4   8   8   8   4
#     4  11  22  39  61  85 122 155 199 242 291 349
#     4  10  26  42  53  86 119 164 200 230 302 352
#     4   9  19  36  61  93 121 149 191 246 301 342
#     4  11  22  39  61  85 122 155 199 242 291 349
#     4   9  19  36  61  93 121 149 191 246 301 342
#     4  10  22  34  57  96 109 142 206 238 298 344
#
# _framework density 21.053965999999999
#
# number of rings (size 3 to 8) (size 9 to 14) (size 15 to 20)
#    0.000    2.000    2.000    2.400    5.600    0.000 
#    0.000    7.000    0.000    2.400    0.000    0.000 
#    0.000    0.000    0.000    0.000    0.000    0.000 
#
# Total GULP energy -111608.903962 kJ/mol
# GULP energy per Si atom -5580.445198 kJ/mol
# Density = 2.100605 g / cm^3
# Si number density = 21.053966 Si / 1000 Ang^3
#
#
#
# Elastic Constant Matrix: (Units=GPa)
#
#
# Indices 1 2 3 4 5 6 
#
# 1 119.0502 42.9262 53.8187 0.0000 -29.3354 0.0000
# 2 42.9262 45.3404 11.5496 0.0000 0.0457 0.0000
# 3 53.8187 11.5496 111.0380 0.0000 -20.7910 0.0000
# 4 0.0000 0.0000 0.0000 4.7748 0.0000 -7.6540
# 5 -29.3354 0.0457 -20.7910 0.0000 46.6913 0.0000
# 6 0.0000 0.0000 0.0000 -7.6540 0.0000 16.1447
#
#
#
# Elastic Compliance Matrix: (Units=1/GPa)
#
#
# Indices 1 2 3 4 5 6 
#
# 1 0.019630 -0.017087 -0.005918 0.000000 0.009715 0.000000
# 2 -0.017087 0.037588 0.002569 0.000000 -0.009628 0.000000
# 3 -0.005918 0.002569 0.011903 0.000000 0.001579 0.000000
# 4 0.000000 0.000000 0.000000 0.872476 0.000000 0.413628
# 5 0.009715 -0.009628 0.001579 0.000000 0.028234 0.000000
# 6 0.000000 0.000000 0.000000 0.413628 0.000000 0.258034
#
#
# Mechanical properties :
#
#
# Convention : Reuss Voigt Hill
#
# Bulk Modulus (GPa) = 35.39931 54.66862 45.03397
# Shear Modulus (GPa) = 3.91189 24.66443 14.28816
#
# Velocity S-wave (km/s) = 1.36457 3.42641 2.60791
# Velocity P-wave (km/s) = 4.39692 6.45570 5.52308
#
# Compressibility (1/GPa) = 0.02824914
#
# Stress axis : x y z
#
# Youngs Moduli (GPa) = 50.94157 26.60414 84.01341
#
# Poissons Ratio (x) = 0.45459 0.49721
# Poissons Ratio (y) = 0.87046 -0.21587
# Poissons Ratio (z) = 0.30148 -0.06836
#
# Static dielectric constant tensor:
#      x y z
#    x 1.794200 0.000000 -0.015310 
#    y 0.000000 1.747130 0.000000 
#    z -0.015310 0.000000 1.771430 
# 
# From -- ./inp_files/46982.got.cif
#   From: 2010.05.17/outbox.cif.g08.bks.cpg/sg12_24_cif.got.tgz:46982.got - 2010.06.03 13:09:07.
