data_PCOD9212034
_publ_section_title
;
Structure prediction by ZEFSAII (Michael W. Deem and Ramdas Pophale) SiO2 
 PCOD9212034
Probable space group: C 2/M
;
_chemical_formula_sum "Si O2"
_cell_formula_units_Z 40
_cell_length_a 15.206822
_cell_length_b 23.665973
_cell_length_c 9.168783
_cell_angle_alpha 90.000000
_cell_angle_beta 142.336041
_cell_angle_gamma 90.000000
_cell_volume 2016.213393
_symmetry_space_group_name_H-M "C 2/M"
_symmetry_group_IT_number 12
_symmetry_cell_setting 'monoclinic'
loop_
_space_group_symop_operation_xyz
x,y,z
-x,y,-z
-x,-y,-z
x,-y,z
1/2+x,1/2+y,z
1/2-x,1/2+y,-z
1/2-x,1/2-y,-z
1/2+x,1/2-y,z
loop_
_atom_site_type_symbol
_atom_site_label
_atom_site_fract_x
_atom_site_fract_y
_atom_site_fract_z
Si Si1 0.360695 0.345642 0.761883
Si Si2 0.028470 0.349367 0.368047
Si Si3 0.393984 0.229571 0.982046
Si Si4 0.137245 0.151808 0.576925
Si Si5 0.873883 0.435301 0.954918
O O1 0.367224 0.291540 0.880979
O O2 0.387091 0.333479 0.625208
O O3 0.195200 0.363745 0.555180
O O4 0.500000 0.380998 0.000000
O O5 0.000000 0.349822 0.500000
O O6 0.978367 0.288167 0.238330
O O7 0.930377 0.395864 0.159487
O O8 0.241546 0.199336 0.780569
O O9 0.500000 0.201710 0.000000
O O10 0.230890 0.094304 0.705193
O O11 0.000000 0.146805 0.500000
O O12 0.848499 0.500000 0.965104
O O13 0.000000 0.434732 0.000000
#
# Coordination Sequence:
#
# PCOD9212034 Si02
#       5
#     8   8   8   8   8
#     4  11  24  38  59  88 131 169 203 258 306 361
#     4  11  23  40  63  93 125 163 213 259 302 369
#     4  10  21  41  60  81 125 177 210 249 292 363
#     4  11  22  39  64  94 127 159 207 264 316 364
#     4  10  21  44  74  90 114 167 213 257 319 377
#
# _framework density 19.839169999999999
#
# number of rings (size 3 to 8) (size 9 to 14) (size 15 to 20)
#    0.000    1.400    4.000    1.800    8.400    2.400 
#    0.000    0.000    0.000    1.200    0.000    0.000 
#    0.000    0.000    0.000    0.000    0.000    0.000 
#
# Total GULP energy -111508.166677 kJ/mol
# GULP energy per Si atom -5575.408334 kJ/mol
# Density = 1.979401 g / cm^3
# Si number density = 19.839170 Si / 1000 Ang^3
#
#
#
# Elastic Constant Matrix: (Units=GPa)
#
#
# Indices 1 2 3 4 5 6 
#
# 1 128.8736 13.4970 48.4491 0.0000 -2.8313 0.0000
# 2 13.4970 87.9095 28.5723 0.0000 -6.5673 0.0000
# 3 48.4491 28.5723 128.2548 0.0000 -2.2581 0.0000
# 4 0.0000 0.0000 0.0000 13.2891 0.0000 4.9518
# 5 -2.8313 -6.5673 -2.2581 0.0000 48.4119 0.0000
# 6 0.0000 0.0000 0.0000 4.9518 0.0000 -2.8948
#
#
#
# Elastic Compliance Matrix: (Units=1/GPa)
#
#
# Indices 1 2 3 4 5 6 
#
# 1 0.009057 -0.000275 -0.003354 0.000000 0.000336 0.000000
# 2 -0.000275 0.012387 -0.002628 0.000000 0.001542 0.000000
# 3 -0.003354 -0.002628 0.009648 0.000000 -0.000103 0.000000
# 4 0.000000 0.000000 0.000000 0.045957 0.000000 0.078613
# 5 0.000336 0.001542 -0.000103 0.000000 0.020880 0.000000
# 6 0.000000 0.000000 0.000000 0.078613 0.000000 -0.210973
#
#
# Mechanical properties :
#
#
# Convention : Reuss Voigt Hill
#
# Bulk Modulus (GPa) = 53.83276 58.45275 56.14276
# Shear Modulus (GPa) = -53.00147 28.72920 -12.13614
#
# Velocity S-wave (km/s) = -5.17432 3.80953 -2.47599
# Velocity P-wave (km/s) = 2.91626 6.99123 4.49292
#
# Compressibility (1/GPa) = 0.01857605
#
# Stress axis : x y z
#
# Youngs Moduli (GPa) = 110.41606 80.72940 103.65159
#
# Poissons Ratio (x) = 0.02222 0.34764
# Poissons Ratio (y) = 0.03040 0.27244
# Poissons Ratio (z) = 0.37033 0.21219
#
# Static dielectric constant tensor:
#      x y z
#    x 1.698420 0.000000 0.032850 
#    y 0.000000 1.738470 0.000000 
#    z 0.032850 0.000000 1.769210 
# 
# From -- ./inp_files/66639.got.cif
#   From: 2010.05.17/outbox.cif.g08.bks.cpg/sg12_34_cif.got.tgz:66639.got - 2010.06.03 13:09:07.
