data_PCOD9212078
_publ_section_title
;
Structure prediction by ZEFSAII (Michael W. Deem and Ramdas Pophale) SiO2 
 PCOD9212078
Probable space group: C 2/M
;
_chemical_formula_sum "Si O2"
_cell_formula_units_Z 38
_cell_length_a 17.174682
_cell_length_b 18.886514
_cell_length_c 5.208638
_cell_angle_alpha 90.000000
_cell_angle_beta 77.654479
_cell_angle_gamma 90.000000
_cell_volume 1650.456686
_symmetry_space_group_name_H-M "C 2/M"
_symmetry_group_IT_number 12
_symmetry_cell_setting 'monoclinic'
loop_
_space_group_symop_operation_xyz
x,y,z
-x,y,-z
-x,-y,-z
x,-y,z
1/2+x,1/2+y,z
1/2-x,1/2+y,-z
1/2-x,1/2-y,-z
1/2+x,1/2-y,z
loop_
_atom_site_type_symbol
_atom_site_label
_atom_site_fract_x
_atom_site_fract_y
_atom_site_fract_z
Si Si1 0.500000 0.000000 0.000000
Si Si2 0.913939 0.921841 0.699600
Si Si3 0.164682 0.579042 0.795504
Si Si4 0.863457 0.796156 0.426131
Si Si5 0.205786 0.669578 0.263561
Si Si6 0.500000 0.323233 0.000000
O O1 0.429329 0.060874 0.096633
O O2 0.861847 0.873901 0.552296
O O3 0.000000 0.927190 0.500000
O O4 0.885297 0.000000 0.778159
O O5 0.933561 0.875726 0.932631
O O6 0.202336 0.500000 0.777857
O O7 0.181134 0.615874 0.511122
O O8 0.195731 0.629281 0.002935
O O9 0.849029 0.738155 0.654607
O O10 0.792897 0.798269 0.267877
O O11 0.950056 0.781659 0.244512
#
# Coordination Sequence:
#
# PCOD9212078 Si02
#       6
#     2   8   8   8   8   4
#     4   8  24  48  72 104 144 168 244 290 336 428
#     4   9  19  38  59  88 128 169 223 278 331 395
#     4  10  24  46  71 103 137 185 227 287 351 415
#     4  10  25  41  65  98 139 181 235 284 348 423
#     4  11  25  44  70 100 147 179 227 294 355 406
#     4  10  21  41  62  97 127 182 234 278 341 413
#
# _framework density 23.023931999999999
#
# number of rings (size 3 to 8) (size 9 to 14) (size 15 to 20)
#    0.632    1.474    0.000    0.947    5.895    6.737 
#    7.579    0.000    0.000    0.000    0.000    0.000 
#    0.000    0.000    0.000    0.000    0.000    0.000 
#
# Total GULP energy -105852.632663 kJ/mol
# GULP energy per Si atom -5571.191193 kJ/mol
# Density = 2.297153 g / cm^3
# Si number density = 23.023932 Si / 1000 Ang^3
#
#
#
# Elastic Constant Matrix: (Units=GPa)
#
#
# Indices 1 2 3 4 5 6 
#
# 1 65.4731 18.6069 19.3097 0.0000 -15.8126 0.0000
# 2 18.6069 102.3891 26.2557 0.0000 -16.0722 0.0000
# 3 19.3097 26.2557 98.9207 0.0000 -4.0200 0.0000
# 4 0.0000 0.0000 0.0000 24.5295 0.0000 -3.2806
# 5 -15.8126 -16.0722 -4.0200 0.0000 22.4958 0.0000
# 6 0.0000 0.0000 0.0000 -3.2806 0.0000 57.3539
#
#
#
# Elastic Compliance Matrix: (Units=1/GPa)
#
#
# Indices 1 2 3 4 5 6 
#
# 1 0.019434 -0.000771 -0.003079 0.000000 0.012559 0.000000
# 2 -0.000771 0.011749 -0.002668 0.000000 0.007375 0.000000
# 3 -0.003079 -0.002668 0.011335 0.000000 -0.002045 0.000000
# 4 0.000000 0.000000 0.000000 0.041082 0.000000 0.002350
# 5 0.012559 0.007375 -0.002045 0.000000 0.058185 0.000000
# 6 0.000000 0.000000 0.000000 0.002350 0.000000 0.017570
#
#
# Mechanical properties :
#
#
# Convention : Reuss Voigt Hill
#
# Bulk Modulus (GPa) = 33.91838 43.90306 38.91072
# Shear Modulus (GPa) = 27.43992 34.38322 30.91157
#
# Velocity S-wave (km/s) = 3.45599 3.86861 3.66810
# Velocity P-wave (km/s) = 5.53976 6.25017 5.90566
#
# Compressibility (1/GPa) = 0.02948254
#
# Stress axis : x y z
#
# Youngs Moduli (GPa) = 51.45708 85.11617 88.22104
#
# Poissons Ratio (x) = 0.06560 0.27160
# Poissons Ratio (y) = 0.03966 0.23539
# Poissons Ratio (z) = 0.15841 0.22711
#
# Static dielectric constant tensor:
#      x y z
#    x 1.892240 0.000000 0.006570 
#    y 0.000000 1.866820 0.000000 
#    z 0.006570 0.000000 1.901470 
# 
# From -- ./inp_files/15153.got.cif
#   From: 2010.05.17/outbox.cif.g08.bks.cpg/sg12_8_cif.got.tgz:15153.got - 2010.06.03 13:09:07.
