data_PCOD9212724
_publ_section_title
;
Structure prediction by ZEFSAII (Michael W. Deem and Ramdas Pophale) SiO2 
 PCOD9212724
Probable space group: C 2/M
;
_chemical_formula_sum "Si O2"
_cell_formula_units_Z 58
_cell_length_a 12.080246
_cell_length_b 30.727927
_cell_length_c 8.426370
_cell_angle_alpha 90.000000
_cell_angle_beta 75.412997
_cell_angle_gamma 90.000000
_cell_volume 3027.053326
_symmetry_space_group_name_H-M "C 2/M"
_symmetry_group_IT_number 12
_symmetry_cell_setting 'monoclinic'
loop_
_space_group_symop_operation_xyz
x,y,z
-x,y,-z
-x,-y,-z
x,-y,z
1/2+x,1/2+y,z
1/2-x,1/2+y,-z
1/2-x,1/2-y,-z
1/2+x,1/2-y,z
loop_
_atom_site_type_symbol
_atom_site_label
_atom_site_fract_x
_atom_site_fract_y
_atom_site_fract_z
Si Si1 0.111142 0.551275 0.858365
Si Si2 0.014028 0.308221 0.183221
Si Si3 0.965707 0.207840 0.197004
Si Si4 0.834192 0.921979 0.977697
Si Si5 0.411957 0.633433 0.668977
Si Si6 0.836462 0.625091 0.394004
Si Si7 0.500000 0.500000 0.000000
Si Si8 0.241686 0.653259 0.240956
O O1 0.104217 0.500000 0.827827
O O2 0.221096 0.561217 0.927731
O O3 0.122984 0.579282 0.694016
O O4 0.000000 0.564674 0.000000
O O5 0.142927 0.320302 0.185705
O O6 0.979501 0.258492 0.230789
O O7 0.929132 0.339734 0.307188
O O8 0.000000 0.315244 0.000000
O O9 0.840116 0.186855 0.260679
O O10 0.049493 0.179505 0.275109
O O11 0.000000 0.202599 0.000000
O O12 0.913188 0.900630 0.812491
O O13 0.900659 0.961646 0.031412
O O14 0.798372 0.883242 0.108623
O O15 0.500000 0.620411 0.500000
O O16 0.284653 0.635105 0.646457
O O17 0.814043 0.629030 0.588423
#
# Coordination Sequence:
#
# PCOD9212724 Si02
#       8
#     8   8   8   8   8   8   2   8
#     4  10  21  43  69  95 125 167 220 272 328 384
#     4  11  26  42  67  95 128 172 224 276 316 385
#     4  11  24  41  65  95 126 174 219 264 319 386
#     4  11  23  42  66  94 129 172 214 267 322 394
#     4  11  22  41  65  93 130 172 211 264 327 385
#     4  11  24  41  65  95 131 171 218 268 330 384
#     4  12  24  40  68  96 134 164 222 258 320 394
#     4  12  24  44  67  92 137 176 213 268 331 388
#
# _framework density 19.160547999999999
#
# number of rings (size 3 to 8) (size 9 to 14) (size 15 to 20)
#    0.000    0.966    3.448    4.138    1.931    2.759 
#    1.241    0.345    0.000    2.483    0.000    0.000 
#    0.000    0.000    0.000    0.000    0.000    0.000 
#
# Total GULP energy -161868.627520 kJ/mol
# GULP energy per Si atom -5581.676811 kJ/mol
# Density = 1.911694 g / cm^3
# Si number density = 19.160548 Si / 1000 Ang^3
#
#
#
# Elastic Constant Matrix: (Units=GPa)
#
#
# Indices 1 2 3 4 5 6 
#
# 1 70.2338 50.4867 21.9915 0.0000 -9.2717 0.0000
# 2 50.4867 134.2219 61.1617 0.0000 -10.2662 0.0000
# 3 21.9915 61.1617 101.0818 0.0000 -13.2925 0.0000
# 4 0.0000 0.0000 0.0000 10.4028 0.0000 -5.1931
# 5 -9.2717 -10.2662 -13.2925 0.0000 28.9342 0.0000
# 6 0.0000 0.0000 0.0000 -5.1931 0.0000 43.1833
#
#
#
# Elastic Compliance Matrix: (Units=1/GPa)
#
#
# Indices 1 2 3 4 5 6 
#
# 1 0.019959 -0.007540 0.000755 0.000000 0.004067 0.000000
# 2 -0.007540 0.013155 -0.006410 0.000000 -0.000694 0.000000
# 3 0.000755 -0.006410 0.014198 0.000000 0.004490 0.000000
# 4 0.000000 0.000000 0.000000 0.102267 0.000000 0.012298
# 5 0.004067 -0.000694 0.004490 0.000000 0.037681 0.000000
# 6 0.000000 0.000000 0.000000 0.012298 0.000000 0.024636
#
#
# Mechanical properties :
#
#
# Convention : Reuss Voigt Hill
#
# Bulk Modulus (GPa) = 47.80074 63.64639 55.72356
# Shear Modulus (GPa) = 20.38653 27.96389 24.17521
#
# Velocity S-wave (km/s) = 3.26542 3.82442 3.55592
# Velocity P-wave (km/s) = 6.26250 7.26575 6.78270
#
# Compressibility (1/GPa) = 0.02092018
#
# Stress axis : x y z
#
# Youngs Moduli (GPa) = 50.10273 76.01946 70.43358
#
# Poissons Ratio (x) = 0.57322 -0.05318
# Poissons Ratio (y) = 0.37780 0.45149
# Poissons Ratio (z) = -0.03783 0.48730
#
# Static dielectric constant tensor:
#      x y z
#    x 1.668380 0.000000 0.011650 
#    y 0.000000 1.636250 0.000000 
#    z 0.011650 0.000000 1.669100 
# 
# From -- ./inp_files/54227.got.cif
#   From: 2010.05.17/outbox.cif.g08.bks.cpg/sg12_28_cif.got.tgz:54227.got - 2010.06.03 13:09:07.
