data_PCOD9212237
_publ_section_title
;
Structure prediction by ZEFSAII (Michael W. Deem and Ramdas Pophale) SiO2 
 PCOD9212237
Probable space group: C 2/M
;
_chemical_formula_sum "Si O2"
_cell_formula_units_Z 64
_cell_length_a 15.079912
_cell_length_b 14.161379
_cell_length_c 18.246535
_cell_angle_alpha 90.000000
_cell_angle_beta 48.479154
_cell_angle_gamma 90.000000
_cell_volume 2917.434090
_symmetry_space_group_name_H-M "C 2/M"
_symmetry_group_IT_number 12
_symmetry_cell_setting 'monoclinic'
loop_
_space_group_symop_operation_xyz
x,y,z
-x,y,-z
-x,-y,-z
x,-y,z
1/2+x,1/2+y,z
1/2-x,1/2+y,-z
1/2-x,1/2-y,-z
1/2+x,1/2-y,z
loop_
_atom_site_type_symbol
_atom_site_label
_atom_site_fract_x
_atom_site_fract_y
_atom_site_fract_z
Si Si1 0.481182 0.112157 0.619730
Si Si2 0.443784 0.614217 0.702939
Si Si3 0.243915 0.160988 0.950413
Si Si4 0.495294 0.110382 0.223490
Si Si5 0.745811 0.385237 0.309285
Si Si6 0.358174 0.724458 0.494722
Si Si7 0.986401 0.892236 0.841542
Si Si8 0.782655 0.885378 0.199939
O O1 0.504100 0.142714 0.692353
O O2 0.570748 0.179000 0.527628
O O3 0.340230 0.127555 0.688984
O O4 0.504520 0.000000 0.596862
O O5 0.449275 0.500000 0.700061
O O6 0.322190 0.639524 0.728168
O O7 0.550539 0.656219 0.597454
O O8 0.454212 0.651205 0.780454
O O9 0.376488 0.120522 0.882413
O O10 0.223069 0.166977 0.874807
O O11 0.250000 0.250000 0.000000
O O12 0.129591 0.107516 0.044612
O O13 0.383503 0.143307 0.237941
O O14 0.475567 0.000000 0.243171
O O15 0.734346 0.500000 0.324790
O O16 0.684971 0.330749 0.409914
O O17 0.250000 0.750000 0.500000
O O18 0.101607 0.854164 0.819415
O O19 0.020230 0.000000 0.807279
O O20 0.788703 0.000000 0.180637
#
# Coordination Sequence:
#
# PCOD9212237 Si02
#       8
#     8   8   8   8   8   8   8   8
#     4   9  19  37  61  93 131 168 212 265 321 391
#     4  10  24  44  64  91 127 167 217 276 324 376
#     4  11  22  34  58  98 136 164 202 257 314 384
#     4   9  18  37  64  90 122 169 215 259 313 382
#     4  10  21  43  70  92 122 171 226 270 324 390
#     4  12  23  37  64  97 127 165 214 270 328 392
#     4  10  21  41  66  91 123 166 216 269 317 370
#     4   9  19  40  68  91 121 173 221 256 311 383
#
# _framework density 21.937083999999999
#
# number of rings (size 3 to 8) (size 9 to 14) (size 15 to 20)
#    0.000    2.000    1.250    3.000    3.500    2.500 
#    6.750    1.875    0.000    4.500    0.000    0.000 
#    0.000    0.000    0.000    0.000    0.000    0.000 
#
# Total GULP energy -178743.647005 kJ/mol
# GULP energy per Si atom -5585.738969 kJ/mol
# Density = 2.188715 g / cm^3
# Si number density = 21.937084 Si / 1000 Ang^3
#
#
#
# Elastic Constant Matrix: (Units=GPa)
#
#
# Indices 1 2 3 4 5 6 
#
# 1 222.4773 35.1031 92.6601 0.0000 -17.6573 0.0000
# 2 35.1031 77.7408 25.3603 0.0000 6.0591 0.0000
# 3 92.6601 25.3603 79.3630 0.0000 -7.9854 0.0000
# 4 0.0000 0.0000 0.0000 37.3147 0.0000 -0.2723
# 5 -17.6573 6.0591 -7.9854 0.0000 34.6848 0.0000
# 6 0.0000 0.0000 0.0000 -0.2723 0.0000 9.0071
#
#
#
# Elastic Compliance Matrix: (Units=1/GPa)
#
#
# Indices 1 2 3 4 5 6 
#
# 1 0.008978 -0.001013 -0.009910 0.000000 0.002466 0.000000
# 2 -0.001013 0.014940 -0.003998 0.000000 -0.004046 0.000000
# 3 -0.009910 -0.003998 0.025605 0.000000 0.001548 0.000000
# 4 0.000000 0.000000 0.000000 0.026805 0.000000 0.000810
# 5 0.002466 -0.004046 0.001548 0.000000 0.031150 0.000000
# 6 0.000000 0.000000 0.000000 0.000810 0.000000 0.111048
#
#
# Mechanical properties :
#
#
# Convention : Reuss Voigt Hill
#
# Bulk Modulus (GPa) = 50.81513 76.20314 63.50913
# Shear Modulus (GPa) = 19.61329 31.29850 25.45590
#
# Velocity S-wave (km/s) = 2.99334 3.78132 3.41017
# Velocity P-wave (km/s) = 5.92968 7.34010 6.67226
#
# Compressibility (1/GPa) = 0.01967918
#
# Stress axis : x y z
#
# Youngs Moduli (GPa) = 111.38318 66.93234 39.05544
#
# Poissons Ratio (x) = 0.06782 0.38705
# Poissons Ratio (y) = 0.11285 0.15616
# Poissons Ratio (z) = 1.10385 0.26762
#
# Static dielectric constant tensor:
#      x y z
#    x 1.836810 0.000000 0.038970 
#    y 0.000000 1.861470 0.000000 
#    z 0.038970 0.000000 1.559480 
# 
# From -- ./inp_files/270667.got.cif
#   From: 2010.05.17/outbox.cif.g08.bks.cpg/sg12_136_cif.got.tgz:270667.got - 2010.06.03 13:09:07.
