data_PCOD9212067
_publ_section_title
;
Structure prediction by ZEFSAII (Michael W. Deem and Ramdas Pophale) SiO2 
 PCOD9212067
Probable space group: C 2/M
;
_chemical_formula_sum "Si O2"
_cell_formula_units_Z 60
_cell_length_a 14.850863
_cell_length_b 18.916453
_cell_length_c 12.212073
_cell_angle_alpha 90.000000
_cell_angle_beta 61.311817
_cell_angle_gamma 90.000000
_cell_volume 3009.551533
_symmetry_space_group_name_H-M "C 2/M"
_symmetry_group_IT_number 12
_symmetry_cell_setting 'monoclinic'
loop_
_space_group_symop_operation_xyz
x,y,z
-x,y,-z
-x,-y,-z
x,-y,z
1/2+x,1/2+y,z
1/2-x,1/2+y,-z
1/2-x,1/2-y,-z
1/2+x,1/2-y,z
loop_
_atom_site_type_symbol
_atom_site_label
_atom_site_fract_x
_atom_site_fract_y
_atom_site_fract_z
Si Si1 0.186519 0.320448 0.682173
Si Si2 0.001632 0.193975 0.625746
Si Si3 0.846276 0.920704 0.180286
Si Si4 0.500000 0.310917 0.000000
Si Si5 0.727249 0.669512 0.595109
Si Si6 0.290996 0.079982 0.957068
Si Si7 0.328832 0.417207 0.746420
Si Si8 0.951996 0.706078 0.850352
O O1 0.190380 0.335420 0.549518
O O2 0.235794 0.241689 0.660552
O O3 0.253386 0.376966 0.707255
O O4 0.070755 0.317838 0.792758
O O5 0.936833 0.122317 0.675421
O O6 0.951038 0.251307 0.736585
O O7 0.000000 0.216081 0.500000
O O8 0.117321 0.179274 0.598519
O O9 0.778715 0.896999 0.322624
O O10 0.779190 0.917674 0.109781
O O11 0.934092 0.862059 0.115675
O O12 0.887765 0.000000 0.168929
O O13 0.567243 0.261159 0.039552
O O14 0.376085 0.140517 0.900551
O O15 0.334803 0.000000 0.939583
O O16 0.219425 0.090850 0.104662
O O17 0.337041 0.500000 0.716762
#
# Coordination Sequence:
#
# PCOD9212067 Si02
#       8
#     8   8   8   4   8   8   8   8
#     4  10  21  41  62  88 121 162 205 256 299 357
#     4  11  22  40  62  97 122 157 201 252 314 364
#     4  11  24  41  62  89 129 165 199 250 308 372
#     4  12  21  40  61 100 120 160 208 244 313 366
#     4  10  22  41  62  88 125 159 204 250 303 367
#     4  10  25  43  60  90 126 166 208 253 303 355
#     4  11  24  40  62  93 128 162 201 252 312 368
#     4  11  24  39  67  91 121 165 209 256 295 364
#
# _framework density 19.936526000000001
#
# number of rings (size 3 to 8) (size 9 to 14) (size 15 to 20)
#    0.000    1.333    4.000    1.800    1.867    2.933 
#    0.000    1.667    0.000    2.000    0.000    0.000 
#    0.000    0.000    0.000    0.000    0.000    0.000 
#
# Total GULP energy -167712.739965 kJ/mol
# GULP energy per Si atom -5590.424665 kJ/mol
# Density = 1.989115 g / cm^3
# Si number density = 19.936526 Si / 1000 Ang^3
#
#
#
# Elastic Constant Matrix: (Units=GPa)
#
#
# Indices 1 2 3 4 5 6 
#
# 1 34.2381 33.1957 -1.6944 0.0000 3.6495 0.0000
# 2 33.1957 110.9074 26.6167 0.0000 10.4854 0.0000
# 3 -1.6944 26.6167 69.8976 0.0000 18.6518 0.0000
# 4 0.0000 0.0000 0.0000 8.6989 0.0000 -4.6384
# 5 3.6495 10.4854 18.6518 0.0000 28.4113 0.0000
# 6 0.0000 0.0000 0.0000 -4.6384 0.0000 18.6784
#
#
#
# Elastic Compliance Matrix: (Units=1/GPa)
#
#
# Indices 1 2 3 4 5 6 
#
# 1 0.044533 -0.014765 0.008213 0.000000 -0.005663 0.000000
# 2 -0.014765 0.014867 -0.006136 0.000000 0.000438 0.000000
# 3 0.008213 -0.006136 0.020028 0.000000 -0.011939 0.000000
# 4 0.000000 0.000000 0.000000 0.132501 0.000000 0.032904
# 5 -0.005663 0.000438 -0.011939 0.000000 0.043601 0.000000
# 6 0.000000 0.000000 0.000000 0.032904 0.000000 0.061709
#
#
# Mechanical properties :
#
#
# Convention : Reuss Voigt Hill
#
# Bulk Modulus (GPa) = 18.50069 36.80880 27.65475
# Shear Modulus (GPa) = 13.86458 21.61939 17.74199
#
# Velocity S-wave (km/s) = 2.63997 3.29661 2.98640
# Velocity P-wave (km/s) = 4.31191 5.74398 5.07867
#
# Compressibility (1/GPa) = 0.05405203
#
# Stress axis : x y z
#
# Youngs Moduli (GPa) = 22.45550 67.26332 49.92977
#
# Poissons Ratio (x) = 0.99312 -0.41007
# Poissons Ratio (y) = 0.33155 0.30637
# Poissons Ratio (z) = -0.18443 0.41273
#
# Static dielectric constant tensor:
#      x y z
#    x 1.693890 0.000000 0.004290 
#    y 0.000000 1.700140 0.000000 
#    z 0.004290 0.000000 1.719170 
# 
# From -- ./inp_files/146097.got.cif
#   From: 2010.05.17/outbox.cif.g08.bks.cpg/sg12_74_cif.got.tgz:146097.got - 2010.06.03 13:09:07.
