data_PCOD9212433
_publ_section_title
;
Structure prediction by ZEFSAII (Michael W. Deem and Ramdas Pophale) SiO2 
 PCOD9212433
Probable space group: C 2/M
;
_chemical_formula_sum "Si O2"
_cell_formula_units_Z 56
_cell_length_a 10.350573
_cell_length_b 30.698408
_cell_length_c 9.141647
_cell_angle_alpha 90.000000
_cell_angle_beta 69.060294
_cell_angle_gamma 90.000000
_cell_volume 2712.886281
_symmetry_space_group_name_H-M "C 2/M"
_symmetry_group_IT_number 12
_symmetry_cell_setting 'monoclinic'
loop_
_space_group_symop_operation_xyz
x,y,z
-x,y,-z
-x,-y,-z
x,-y,z
1/2+x,1/2+y,z
1/2-x,1/2+y,-z
1/2-x,1/2-y,-z
1/2+x,1/2-y,z
loop_
_atom_site_type_symbol
_atom_site_label
_atom_site_fract_x
_atom_site_fract_y
_atom_site_fract_z
Si Si1 0.610968 0.919423 0.345458
Si Si2 0.822417 0.143453 0.413452
Si Si3 0.861262 0.711398 0.651896
Si Si4 0.288701 0.311170 0.711031
Si Si5 0.333925 0.452602 0.031819
Si Si6 0.420444 0.366218 0.882588
Si Si7 0.987141 0.655240 0.832513
O O1 0.500000 0.941416 0.500000
O O2 0.696572 0.887552 0.418656
O O3 0.727775 0.946628 0.210349
O O4 0.534940 0.888711 0.254467
O O5 0.773344 0.190044 0.368403
O O6 0.845877 0.153595 0.572216
O O7 0.955128 0.124800 0.279123
O O8 0.842351 0.762866 0.665862
O O9 0.875732 0.687803 0.803416
O O10 0.000000 0.701378 0.500000
O O11 0.333724 0.327129 0.851770
O O12 0.126913 0.317213 0.750953
O O13 0.305073 0.500000 0.975664
O O14 0.500000 0.452471 0.000000
O O15 0.323204 0.408263 0.943732
O O16 0.500000 0.355764 0.000000
O O17 0.000000 0.645500 0.000000
#
# Coordination Sequence:
#
# PCOD9212433 Si02
#       7
#     8   8   8   8   8   8   8
#     4  11  20  41  68  94 127 167 209 261 308 385
#     4  11  20  40  60  90 122 169 216 259 313 369
#     4  11  23  40  58  83 125 172 224 272 311 366
#     4  12  24  38  63  86 123 175 220 266 315 378
#     4  10  21  41  70  99 129 163 205 259 327 394
#     4  11  23  39  63  94 123 162 214 260 319 385
#     4  11  24  38  57  89 125 170 214 268 323 365
#
# _framework density 20.642220999999999
#
# number of rings (size 3 to 8) (size 9 to 14) (size 15 to 20)
#    0.000    1.000    5.714    3.429    4.000    1.429 
#    0.000    0.000    0.000    6.429    0.000    0.000 
#    0.000    0.000    0.000    0.000    0.000    0.000 
#
# Total GULP energy -156080.759112 kJ/mol
# GULP energy per Si atom -5574.312825 kJ/mol
# Density = 2.059524 g / cm^3
# Si number density = 20.642221 Si / 1000 Ang^3
#
#
#
# Elastic Constant Matrix: (Units=GPa)
#
#
# Indices 1 2 3 4 5 6 
#
# 1 71.0143 12.6459 39.3922 0.0000 7.1239 0.0000
# 2 12.6459 68.4575 23.6916 0.0000 2.0624 0.0000
# 3 39.3922 23.6916 122.6125 0.0000 -6.7931 0.0000
# 4 0.0000 0.0000 0.0000 13.1334 0.0000 0.0025
# 5 7.1239 2.0624 -6.7931 0.0000 46.4931 0.0000
# 6 0.0000 0.0000 0.0000 0.0025 0.0000 -2.2257
#
#
#
# Elastic Compliance Matrix: (Units=1/GPa)
#
#
# Indices 1 2 3 4 5 6 
#
# 1 0.017799 -0.001218 -0.005677 0.000000 -0.003503 0.000000
# 2 -0.001218 0.015798 -0.002712 0.000000 -0.000910 0.000000
# 3 -0.005677 -0.002712 0.010645 0.000000 0.002545 0.000000
# 4 0.000000 0.000000 0.000000 0.076142 0.000000 0.000086
# 5 -0.003503 -0.000910 0.002545 0.000000 0.022458 0.000000
# 6 0.000000 0.000000 0.000000 0.000086 0.000000 -0.449303
#
#
# Mechanical properties :
#
#
# Convention : Reuss Voigt Hill
#
# Bulk Modulus (GPa) = 39.95389 45.94929 42.95159
# Shear Modulus (GPa) = -17.92722 23.90382 2.98830
#
# Velocity S-wave (km/s) = -2.95018 3.40664 1.20449
# Velocity P-wave (km/s) = 2.79153 6.14669 4.77360
#
# Compressibility (1/GPa) = 0.02502886
#
# Stress axis : x y z
#
# Youngs Moduli (GPa) = 56.18276 63.29722 93.94324
#
# Poissons Ratio (x) = 0.07708 0.53333
# Poissons Ratio (y) = 0.06841 0.25476
# Poissons Ratio (z) = 0.31896 0.17165
#
# Static dielectric constant tensor:
#      x y z
#    x 2.410220 0.000000 -0.526960 
#    y 0.000000 1.715910 0.000000 
#    z -0.526960 0.000000 2.179100 
# 
# From -- ./inp_files/54191.got.cif
#   From: 2010.05.17/outbox.cif.g08.bks.cpg/sg12_28_cif.got.tgz:54191.got - 2010.06.03 13:09:07.
