data_PCOD9212149
_publ_section_title
;
Structure prediction by ZEFSAII (Michael W. Deem and Ramdas Pophale) SiO2 
 PCOD9212149
Probable space group: C 2/M
;
_chemical_formula_sum "Si O2"
_cell_formula_units_Z 48
_cell_length_a 15.294563
_cell_length_b 11.139590
_cell_length_c 22.758136
_cell_angle_alpha 90.000000
_cell_angle_beta 150.724834
_cell_angle_gamma 90.000000
_cell_volume 1896.076051
_symmetry_space_group_name_H-M "C 2/M"
_symmetry_group_IT_number 12
_symmetry_cell_setting 'monoclinic'
loop_
_space_group_symop_operation_xyz
x,y,z
-x,y,-z
-x,-y,-z
x,-y,z
1/2+x,1/2+y,z
1/2-x,1/2+y,-z
1/2-x,1/2-y,-z
1/2+x,1/2-y,z
loop_
_atom_site_type_symbol
_atom_site_label
_atom_site_fract_x
_atom_site_fract_y
_atom_site_fract_z
Si Si1 0.905431 0.254804 0.543513
Si Si2 0.412866 0.500000 0.321828
Si Si3 0.118713 0.500000 0.239271
Si Si4 0.733747 0.500000 0.895391
Si Si5 0.779244 0.139333 0.782839
Si Si6 0.308051 0.500000 0.001606
Si Si7 0.277650 0.259601 0.909175
Si Si8 0.367417 0.254408 0.710461
O O1 0.750000 0.250000 0.500000
O O2 0.799405 0.301205 0.424274
O O3 0.992352 0.120893 0.598479
O O4 0.066153 0.344325 0.651501
O O5 0.215837 0.500000 0.234195
O O6 0.383690 0.500000 0.233894
O O7 0.176747 0.614935 0.309194
O O8 0.905871 0.500000 0.112318
O O9 0.842287 0.625168 0.960723
O O10 0.619309 0.500000 0.889077
O O11 0.818588 0.208211 0.866191
O O12 0.863292 0.195237 0.773699
O O13 0.827040 0.000000 0.816401
O O14 0.333950 0.375378 0.980962
O O15 0.062612 0.242427 0.794832
#
# Coordination Sequence:
#
# PCOD9212149 Si02
#       8
#     8   4   4   4   8   4   8   8
#     4  12  24  39  60  95 131 181 221 268 327 397
#     4  12  23  39  62  93 130 169 222 296 321 389
#     4  10  21  41  64  92 126 171 221 280 344 391
#     4  12  22  42  70 101 126 170 240 282 339 401
#     4  12  25  42  64  92 139 183 220 273 335 401
#     4  10  24  42  72  96 127 181 222 282 355 421
#     4  11  23  45  68 100 139 176 219 284 347 403
#     4  11  23  40  65  97 135 180 225 265 331 409
#
# _framework density 25.315441
#
# number of rings (size 3 to 8) (size 9 to 14) (size 15 to 20)
#    0.000    0.667    5.833    1.500    2.333    2.333 
#    0.000    0.000    0.000    4.000    0.000    0.000 
#    0.000    0.000    0.000    0.000    0.000    0.000 
#
# Total GULP energy -134437.002862 kJ/mol
# GULP energy per Si atom -5601.541786 kJ/mol
# Density = 2.525782 g / cm^3
# Si number density = 25.315441 Si / 1000 Ang^3
#
#
#
# Elastic Constant Matrix: (Units=GPa)
#
#
# Indices 1 2 3 4 5 6 
#
# 1 153.8871 40.6390 36.4396 0.0000 -8.2583 0.0000
# 2 40.6390 183.5836 20.1375 0.0002 -1.7165 0.0000
# 3 36.4396 20.1375 126.8587 0.0019 -8.9226 0.0005
# 4 0.0000 0.0002 0.0019 13.2875 0.0005 6.9016
# 5 -8.2583 -1.7165 -8.9226 0.0005 46.3979 0.0001
# 6 0.0000 0.0000 0.0005 6.9016 0.0001 47.2319
#
#
#
# Elastic Compliance Matrix: (Units=1/GPa)
#
#
# Indices 1 2 3 4 5 6 
#
# 1 0.007353 -0.001419 -0.001823 0.000000 0.000906 0.000000
# 2 -0.001419 0.005818 -0.000526 0.000000 -0.000138 0.000000
# 3 -0.001823 -0.000526 0.008582 -0.000001 0.001306 0.000000
# 4 0.000000 0.000000 -0.000001 0.081440 -0.000001 -0.011900
# 5 0.000906 -0.000138 0.001306 -0.000001 0.021960 0.000000
# 6 0.000000 0.000000 0.000000 -0.011900 0.000000 0.022911
#
#
# Mechanical properties :
#
#
# Convention : Reuss Voigt Hill
#
# Bulk Modulus (GPa) = 70.33985 73.19573 71.76779
# Shear Modulus (GPa) = 31.18394 45.85768 38.52081
#
# Velocity S-wave (km/s) = 3.51353 4.26073 3.90504
# Velocity P-wave (km/s) = 6.65624 7.29255 6.98165
#
# Compressibility (1/GPa) = 0.01421669
#
# Stress axis : x y z
#
# Youngs Moduli (GPa) = 135.99094 171.89065 116.52551
#
# Poissons Ratio (x) = 0.24397 0.21245
# Poissons Ratio (y) = 0.19302 0.06124
# Poissons Ratio (z) = 0.24794 0.09033
#
# Static dielectric constant tensor:
#      x y z
#    x 2.008570 0.000000 -0.028450 
#    y 0.000000 1.980460 0.000000 
#    z -0.028450 0.000000 2.080330 
# 
# From -- ./inp_files/310258.got.cif
#   From: 2010.05.17/outbox.cif.g08.bks.cpg/sg12_156_cif.got.tgz:310258.got - 2010.06.03 13:09:07.
