data_PCOD9212283
_publ_section_title
;
Structure prediction by ZEFSAII (Michael W. Deem and Ramdas Pophale) SiO2 
 PCOD9212283
Probable space group: C 2/M
;
_chemical_formula_sum "Si O2"
_cell_formula_units_Z 56
_cell_length_a 15.902862
_cell_length_b 18.479119
_cell_length_c 17.648546
_cell_angle_alpha 90.000000
_cell_angle_beta 149.341009
_cell_angle_gamma 90.000000
_cell_volume 2644.684036
_symmetry_space_group_name_H-M "C 2/M"
_symmetry_group_IT_number 12
_symmetry_cell_setting 'monoclinic'
loop_
_space_group_symop_operation_xyz
x,y,z
-x,y,-z
-x,-y,-z
x,-y,z
1/2+x,1/2+y,z
1/2-x,1/2+y,-z
1/2-x,1/2-y,-z
1/2+x,1/2-y,z
loop_
_atom_site_type_symbol
_atom_site_label
_atom_site_fract_x
_atom_site_fract_y
_atom_site_fract_z
Si Si1 0.342878 0.239915 0.478854
Si Si2 0.746714 0.084142 0.002717
Si Si3 0.020987 0.283201 0.814530
Si Si4 0.335910 0.392032 0.908057
Si Si5 0.358649 0.321604 0.215353
Si Si6 0.324728 0.754575 0.804143
Si Si7 0.525387 0.920632 0.428877
O O1 0.159754 0.266931 0.361563
O O2 0.478886 0.296043 0.613859
O O3 0.318548 0.245282 0.368905
O O4 0.386754 0.154883 0.527184
O O5 0.841432 0.106179 0.153013
O O6 0.707983 0.000000 0.970744
O O7 0.586333 0.135372 0.869457
O O8 0.854658 0.104625 0.012771
O O9 0.982668 0.261211 0.871909
O O10 0.142607 0.237612 0.854722
O O11 0.326331 0.315255 0.858061
O O12 0.155489 0.422583 0.749256
O O13 0.500000 0.425740 0.000000
O O14 0.218344 0.317859 0.170894
O O15 0.500000 0.916769 0.500000
O O16 0.605650 0.000000 0.475059
#
# Coordination Sequence:
#
# PCOD9212283 Si02
#       7
#     8   8   8   8   8   8   8
#     4  10  21  41  67 104 130 179 244 282 341 410
#     4  12  28  46  64  99 146 190 229 287 359 412
#     4  10  23  41  70 102 133 181 236 287 337 418
#     4  12  24  42  66 100 140 183 229 280 344 423
#     4  12  21  42  68  96 137 174 235 294 330 409
#     4  10  22  36  72 100 125 170 236 283 336 398
#     4  11  20  36  61  96 143 181 217 279 348 415
#
# _framework density 21.174551999999998
#
# number of rings (size 3 to 8) (size 9 to 14) (size 15 to 20)
#    0.857    0.143    4.286    2.571    2.000    1.143 
#    0.000    4.286    0.000    0.857    0.000    0.000 
#    0.000    0.000    0.000    0.000    0.000    0.000 
#
# Total GULP energy -156001.240317 kJ/mol
# GULP energy per Si atom -5571.472868 kJ/mol
# Density = 2.112636 g / cm^3
# Si number density = 21.174552 Si / 1000 Ang^3
#
#
#
# Elastic Constant Matrix: (Units=GPa)
#
#
# Indices 1 2 3 4 5 6 
#
# 1 139.9238 51.8445 25.0569 -0.0022 0.0376 0.0014
# 2 51.8445 139.2611 30.7425 -0.0062 5.9475 -0.0010
# 3 25.0569 30.7425 104.0653 -0.0103 -8.4954 -0.0004
# 4 -0.0022 -0.0062 -0.0103 -2.1615 -0.0050 7.6768
# 5 0.0376 5.9475 -8.4954 -0.0050 33.5518 0.0010
# 6 0.0014 -0.0010 -0.0004 7.6768 0.0010 -59.6285
#
#
#
# Elastic Compliance Matrix: (Units=1/GPa)
#
#
# Indices 1 2 3 4 5 6 
#
# 1 0.008425 -0.002890 -0.001158 0.000010 0.000210 0.000002
# 2 -0.002890 0.008804 -0.002075 -0.000015 -0.002083 -0.000002
# 3 -0.001158 -0.002075 0.010753 -0.000095 0.003092 -0.000012
# 4 0.000010 -0.000015 -0.000095 -0.852418 -0.000146 -0.109744
# 5 0.000210 -0.002083 0.003092 -0.000146 0.030956 -0.000018
# 6 0.000002 -0.000002 -0.000012 -0.109744 -0.000018 -0.030899
#
#
# Mechanical properties :
#
#
# Convention : Reuss Voigt Hill
#
# Bulk Modulus (GPa) = 63.54476 66.50423 65.02449
# Shear Modulus (GPa) = -6.19664 12.72612 3.26474
#
# Velocity S-wave (km/s) = -1.71254 2.45421 1.24305
# Velocity P-wave (km/s) = 5.11514 6.28543 5.73024
#
# Compressibility (1/GPa) = 0.01573694
#
# Stress axis : x y z
#
# Youngs Moduli (GPa) = 118.69822 113.59038 92.99329
#
# Poissons Ratio (x) = 0.32825 0.10766
# Poissons Ratio (y) = 0.34301 0.19295
# Poissons Ratio (z) = 0.13742 0.23569
#
# Static dielectric constant tensor:
#      x y z
#    x 1.854060 0.000000 0.002980 
#    y 0.000000 1.774260 0.000000 
#    z 0.002980 0.000000 1.870610 
# 
# From -- ./inp_files/317179.got.cif
#   From: 2010.05.17/outbox.cif.g08.bks.cpg/sg12_159_cif.got.tgz:317179.got - 2010.06.03 13:09:07.
