data_PCOD9212759
_publ_section_title
;
Structure prediction by ZEFSAII (Michael W. Deem and Ramdas Pophale) SiO2 
 PCOD9212759
Probable space group: C 2/M
;
_chemical_formula_sum "Si O2"
_cell_formula_units_Z 42
_cell_length_a 20.701359
_cell_length_b 13.254149
_cell_length_c 7.025011
_cell_angle_alpha 90.000000
_cell_angle_beta 120.323204
_cell_angle_gamma 90.000000
_cell_volume 1663.813695
_symmetry_space_group_name_H-M "C 2/M"
_symmetry_group_IT_number 12
_symmetry_cell_setting 'monoclinic'
loop_
_space_group_symop_operation_xyz
x,y,z
-x,y,-z
-x,-y,-z
x,-y,z
1/2+x,1/2+y,z
1/2-x,1/2+y,-z
1/2-x,1/2-y,-z
1/2+x,1/2-y,z
loop_
_atom_site_type_symbol
_atom_site_label
_atom_site_fract_x
_atom_site_fract_y
_atom_site_fract_z
Si Si1 0.603845 0.653895 0.507120
Si Si2 0.192651 0.325315 0.808386
Si Si3 0.565118 0.387500 0.871252
Si Si4 0.377504 0.169369 0.914510
Si Si5 0.000000 0.500000 0.000000
Si Si6 0.252381 0.609482 0.516028
O O1 0.627603 0.768832 0.590633
O O2 0.522794 0.631454 0.302123
O O3 0.667058 0.615385 0.459856
O O4 0.604013 0.609188 0.720785
O O5 0.242029 0.382863 0.726794
O O6 0.250000 0.250000 0.000000
O O7 0.149423 0.373929 0.920491
O O8 0.575201 0.500000 0.972718
O O9 0.591037 0.282942 0.006551
O O10 0.303581 0.183357 0.676975
O O11 0.435544 0.090584 0.914761
O O12 0.221992 0.500000 0.416746
#
# Coordination Sequence:
#
# PCOD9212759 Si02
#       6
#     8   8   8   8   2   8
#     4  10  21  43  78 111 157 200 259 324 391 473
#     4  11  25  46  75 111 156 200 260 327 390 461
#     4  10  22  44  77 117 156 206 255 319 405 468
#     4  11  27  48  79 112 157 208 256 330 390 471
#     4  12  28  52  76 108 168 208 262 322 400 480
#     4  12  25  44  78 115 150 203 265 322 393 469
#
# _framework density 25.243210999999999
#
# number of rings (size 3 to 8) (size 9 to 14) (size 15 to 20)
#    0.000    1.143    2.857    2.857    4.000    0.000 
#    0.000    2.381    0.000    2.286    0.000    0.000 
#    0.000    0.000    0.000    0.000    0.000    0.000 
#
# Total GULP energy -117232.930049 kJ/mol
# GULP energy per Si atom -5582.520479 kJ/mol
# Density = 2.518576 g / cm^3
# Si number density = 25.243211 Si / 1000 Ang^3
#
#
#
# Elastic Constant Matrix: (Units=GPa)
#
#
# Indices 1 2 3 4 5 6 
#
# 1 158.6865 47.5859 59.2129 0.0000 0.5250 0.0000
# 2 47.5859 151.4418 51.8851 0.0000 15.6473 0.0000
# 3 59.2129 51.8851 108.3065 0.0000 -3.0425 0.0000
# 4 0.0000 0.0000 0.0000 19.8726 0.0000 1.0864
# 5 0.5250 15.6473 -3.0425 0.0000 40.2933 0.0000
# 6 0.0000 0.0000 0.0000 1.0864 0.0000 26.5956
#
#
#
# Elastic Compliance Matrix: (Units=1/GPa)
#
#
# Indices 1 2 3 4 5 6 
#
# 1 0.008104 -0.001242 -0.003833 0.000000 0.000087 0.000000
# 2 -0.001242 0.008572 -0.003528 0.000000 -0.003579 0.000000
# 3 -0.003833 -0.003528 0.013086 0.000000 0.002408 0.000000
# 4 0.000000 0.000000 0.000000 0.050433 0.000000 -0.002060
# 5 0.000087 -0.003579 0.002408 0.000000 0.026389 0.000000
# 6 0.000000 0.000000 0.000000 -0.002060 0.000000 0.037684
#
#
# Mechanical properties :
#
#
# Convention : Reuss Voigt Hill
#
# Bulk Modulus (GPa) = 79.64257 81.75584 80.69920
# Shear Modulus (GPa) = 30.18216 34.66903 32.42559
#
# Velocity S-wave (km/s) = 3.46158 3.70996 3.58792
# Velocity P-wave (km/s) = 6.89893 7.12807 7.01443
#
# Compressibility (1/GPa) = 0.01255610
#
# Stress axis : x y z
#
# Youngs Moduli (GPa) = 123.39144 116.65876 76.41524
#
# Poissons Ratio (x) = 0.14492 0.29291
# Poissons Ratio (y) = 0.15329 0.26958
# Poissons Ratio (z) = 0.47298 0.41156
#
# Static dielectric constant tensor:
#      x y z
#    x 1.975600 0.000000 -0.012200 
#    y 0.000000 2.038610 0.000000 
#    z -0.012200 0.000000 2.034850 
# 
# From -- ./inp_files/24333.got.cif
#   From: 2010.05.17/outbox.cif.g08.bks.cpg/sg12_13_cif.got.tgz:24333.got - 2010.06.03 13:09:07.
