data_PCOD9212109
_publ_section_title
;
Structure prediction by ZEFSAII (Michael W. Deem and Ramdas Pophale) SiO2 
 PCOD9212109
Probable space group: C 2/M
;
_chemical_formula_sum "Si O2"
_cell_formula_units_Z 56
_cell_length_a 16.269875
_cell_length_b 22.799082
_cell_length_c 13.432082
_cell_angle_alpha 90.000000
_cell_angle_beta 33.204295
_cell_angle_gamma 90.000000
_cell_volume 2728.531229
_symmetry_space_group_name_H-M "C 2/M"
_symmetry_group_IT_number 12
_symmetry_cell_setting 'monoclinic'
loop_
_space_group_symop_operation_xyz
x,y,z
-x,y,-z
-x,-y,-z
x,-y,z
1/2+x,1/2+y,z
1/2-x,1/2+y,-z
1/2-x,1/2-y,-z
1/2+x,1/2-y,z
loop_
_atom_site_type_symbol
_atom_site_label
_atom_site_fract_x
_atom_site_fract_y
_atom_site_fract_z
Si Si1 0.967498 0.660456 0.270391
Si Si2 0.594699 0.064665 0.003759
Si Si3 0.839355 0.932383 0.615104
Si Si4 0.144434 0.665536 0.296725
Si Si5 0.635868 0.636280 0.616789
Si Si6 0.835206 0.931759 0.213942
Si Si7 0.118523 0.772289 0.059275
O O1 0.793981 0.669634 0.472899
O O2 0.072754 0.653834 0.260799
O O3 0.017614 0.714854 0.151555
O O4 0.999693 0.601913 0.176350
O O5 0.742234 0.093049 0.805914
O O6 0.631688 0.000000 0.006873
O O7 0.500000 0.058944 0.000000
O O8 0.852168 0.892449 0.504514
O O9 0.000000 0.938158 0.500000
O O10 0.787059 0.000000 0.644325
O O11 0.209987 0.609087 0.288182
O O12 0.000000 0.691660 0.500000
O O13 0.290900 0.705342 0.128569
O O14 0.644122 0.586024 0.692188
O O15 0.489901 0.676901 0.785455
O O16 0.796606 0.000000 0.241926
O O17 0.000000 0.921546 0.000000
O O18 0.250000 0.750000 0.000000
#
# Coordination Sequence:
#
# PCOD9212109 Si02
#       7
#     8   8   8   8   8   8   8
#     4  11  24  43  67 100 131 176 226 268 335 396
#     4  10  21  41  63  94 133 167 211 271 327 395
#     4  10  23  40  64  97 131 170 220 267 330 398
#     4  11  23  46  67  97 139 173 220 276 328 394
#     4  12  22  44  69  93 137 174 218 284 332 392
#     4  11  24  42  68 102 136 179 225 272 340 406
#     4  10  25  45  65  93 132 167 225 277 323 392
#
# _framework density 20.523861
#
# number of rings (size 3 to 8) (size 9 to 14) (size 15 to 20)
#    0.000    1.286    4.286    0.857    4.000    1.429 
#    7.714    0.000    0.000    0.000    0.000    0.000 
#    0.000    0.000    0.000    0.000    0.000    0.000 
#
# Total GULP energy -156046.027350 kJ/mol
# GULP energy per Si atom -5573.072405 kJ/mol
# Density = 2.047715 g / cm^3
# Si number density = 20.523861 Si / 1000 Ang^3
#
#
#
# Elastic Constant Matrix: (Units=GPa)
#
#
# Indices 1 2 3 4 5 6 
#
# 1 54.7495 12.4068 7.0314 0.0039 -3.7599 -0.0242
# 2 12.4068 61.0374 34.1427 0.0060 5.1526 -0.0236
# 3 7.0314 34.1427 141.1070 0.0075 -9.8475 -0.0232
# 4 0.0039 0.0060 0.0075 24.7974 -0.0029 -5.5184
# 5 -3.7599 5.1526 -9.8475 -0.0029 31.1181 0.0160
# 6 -0.0242 -0.0236 -0.0232 -5.5184 0.0160 7.2097
#
#
#
# Elastic Compliance Matrix: (Units=1/GPa)
#
#
# Indices 1 2 3 4 5 6 
#
# 1 0.019439 -0.004397 0.000317 0.000010 0.003177 0.000052
# 2 -0.004397 0.020637 -0.005164 0.000009 -0.005582 0.000055
# 3 0.000317 -0.005164 0.008572 0.000000 0.003606 0.000004
# 4 0.000010 0.000009 0.000000 0.048606 -0.000015 0.037204
# 5 0.003177 -0.005582 0.003606 -0.000015 0.034585 -0.000084
# 6 0.000052 0.000055 0.000004 0.037204 -0.000084 0.167178
#
#
# Mechanical properties :
#
#
# Convention : Reuss Voigt Hill
#
# Bulk Modulus (GPa) = 33.15582 40.45063 36.80323
# Shear Modulus (GPa) = 15.26449 26.17925 20.72187
#
# Velocity S-wave (km/s) = 2.73012 3.57536 3.18094
# Velocity P-wave (km/s) = 5.11155 6.06598 5.60910
#
# Compressibility (1/GPa) = 0.03016062
#
# Stress axis : x y z
#
# Youngs Moduli (GPa) = 51.44339 48.45686 116.65679
#
# Poissons Ratio (x) = 0.21305 -0.03697
# Poissons Ratio (y) = 0.22618 0.60240
# Poissons Ratio (z) = -0.01630 0.25022
#
# Static dielectric constant tensor:
#      x y z
#    x 1.382690 -0.000060 1.922950 
#    y -0.000060 1.755220 0.000310 
#    z 1.922950 0.000310 -9.166140 
# 
# From -- ./inp_files/227564.got.cif
#   From: 2010.05.17/outbox.cif.g08.bks.cpg/sg12_114_cif.got.tgz:227564.got - 2010.06.03 13:09:07.
