data_PCOD9212416
_publ_section_title
;
Structure prediction by ZEFSAII (Michael W. Deem and Ramdas Pophale) SiO2 
 PCOD9212416
Probable space group: C 2/M
;
_chemical_formula_sum "Si O2"
_cell_formula_units_Z 58
_cell_length_a 9.326937
_cell_length_b 17.509676
_cell_length_c 19.518544
_cell_angle_alpha 90.000000
_cell_angle_beta 61.315635
_cell_angle_gamma 90.000000
_cell_volume 2796.413574
_symmetry_space_group_name_H-M "C 2/M"
_symmetry_group_IT_number 12
_symmetry_cell_setting 'monoclinic'
loop_
_space_group_symop_operation_xyz
x,y,z
-x,y,-z
-x,-y,-z
x,-y,z
1/2+x,1/2+y,z
1/2-x,1/2+y,-z
1/2-x,1/2-y,-z
1/2+x,1/2-y,z
loop_
_atom_site_type_symbol
_atom_site_label
_atom_site_fract_x
_atom_site_fract_y
_atom_site_fract_z
Si Si1 0.732012 0.681740 0.245382
Si Si2 0.509262 0.298412 0.575427
Si Si3 0.894531 0.666552 0.801024
Si Si4 0.660141 0.590676 0.126652
Si Si5 0.000000 0.500000 0.500000
Si Si6 0.309339 0.848416 0.591120
Si Si7 0.308091 0.412637 0.249124
Si Si8 0.804886 0.908149 0.032102
O O1 0.615353 0.668702 0.338344
O O2 0.681717 0.760541 0.219880
O O3 0.718875 0.622305 0.185665
O O4 0.917146 0.681667 0.228705
O O5 0.500000 0.331010 0.500000
O O6 0.451961 0.210216 0.580322
O O7 0.689984 0.311281 0.562899
O O8 0.855903 0.598651 0.756503
O O9 0.800464 0.641566 0.891231
O O10 0.680060 0.500000 0.122536
O O11 0.465941 0.607860 0.168334
O O12 0.733535 0.616502 0.037409
O O13 0.876100 0.431030 0.554894
O O14 0.199333 0.860189 0.683367
O O15 0.327913 0.500000 0.265046
O O16 0.771346 0.000000 0.048161
O O17 0.000000 0.899446 0.000000
#
# Coordination Sequence:
#
# PCOD9212416 Si02
#       8
#     8   8   8   8   2   8   8   8
#     4  12  26  44  68 101 136 184 231 283 349 419
#     4  12  26  46  77 101 142 189 235 287 359 425
#     4  12  25  41  67 101 140 174 235 285 338 415
#     4  10  22  43  70  96 136 185 228 278 350 416
#     4  12  28  44  74 108 136 176 244 294 338 424
#     4  12  25  46  75 104 141 183 237 287 360 424
#     4  11  21  40  71  99 135 185 225 282 342 416
#     4  10  21  41  70 100 132 179 231 280 342 416
#
# _framework density 20.740852
#
# number of rings (size 3 to 8) (size 9 to 14) (size 15 to 20)
#    0.000    0.690    5.517    2.483    0.000    2.207 
#    0.000    1.724    0.000    0.000    0.000    0.000 
#    0.000    0.000    0.000    0.000    0.000    0.000 
#
# Total GULP energy -161682.443790 kJ/mol
# GULP energy per Si atom -5575.256682 kJ/mol
# Density = 2.069364 g / cm^3
# Si number density = 20.740852 Si / 1000 Ang^3
#
#
#
# Elastic Constant Matrix: (Units=GPa)
#
#
# Indices 1 2 3 4 5 6 
#
# 1 123.8748 33.7154 42.3343 0.0000 6.9198 0.0000
# 2 33.7154 25.7657 30.5666 0.0000 9.5340 0.0000
# 3 42.3343 30.5666 154.4580 0.0000 21.9419 0.0000
# 4 0.0000 0.0000 0.0000 32.8153 0.0000 7.0505
# 5 6.9198 9.5340 21.9419 0.0000 35.6608 0.0000
# 6 0.0000 0.0000 0.0000 7.0505 0.0000 23.3401
#
#
#
# Elastic Compliance Matrix: (Units=1/GPa)
#
#
# Indices 1 2 3 4 5 6 
#
# 1 0.012715 -0.016960 -0.000463 0.000000 0.002352 0.000000
# 2 -0.016960 0.075563 -0.008660 0.000000 -0.011583 0.000000
# 3 -0.000463 -0.008660 0.008737 0.000000 -0.002971 0.000000
# 4 0.000000 0.000000 0.000000 0.032589 0.000000 -0.009844
# 5 0.002352 -0.011583 -0.002971 0.000000 0.032510 0.000000
# 6 0.000000 0.000000 0.000000 -0.009844 0.000000 0.045818
#
#
# Mechanical properties :
#
#
# Convention : Reuss Voigt Hill
#
# Bulk Modulus (GPa) = 22.29629 57.48125 39.88877
# Shear Modulus (GPa) = 18.17864 31.52872 24.85368
#
# Velocity S-wave (km/s) = 2.96373 3.90311 3.46540
# Velocity P-wave (km/s) = 4.74182 6.93445 5.94018
#
# Compressibility (1/GPa) = 0.04485052
#
# Stress axis : x y z
#
# Youngs Moduli (GPa) = 78.64419 13.23395 114.45724
#
# Poissons Ratio (x) = 0.22444 0.05298
# Poissons Ratio (y) = 1.33379 0.99118
# Poissons Ratio (z) = 0.03640 0.11460
#
# Static dielectric constant tensor:
#      x y z
#    x 1.762940 0.000000 0.007700 
#    y 0.000000 1.745120 0.000000 
#    z 0.007700 0.000000 1.812570 
# 
# From -- ./inp_files/301103.got.cif
#   From: 2010.05.17/outbox.cif.g08.bks.cpg/sg12_151_cif.got.tgz:301103.got - 2010.06.03 13:09:07.
