data_PCOD9212962
_publ_section_title
;
Structure prediction by ZEFSAII (Michael W. Deem and Ramdas Pophale) SiO2 
 PCOD9212962
Probable space group: C 2/M
;
_chemical_formula_sum "Si O2"
_cell_formula_units_Z 56
_cell_length_a 20.937498
_cell_length_b 7.549011
_cell_length_c 15.080108
_cell_angle_alpha 90.000000
_cell_angle_beta 90.392920
_cell_angle_gamma 90.000000
_cell_volume 2383.466656
_symmetry_space_group_name_H-M "C 2/M"
_symmetry_group_IT_number 12
_symmetry_cell_setting 'monoclinic'
loop_
_space_group_symop_operation_xyz
x,y,z
-x,y,-z
-x,-y,-z
x,-y,z
1/2+x,1/2+y,z
1/2-x,1/2+y,-z
1/2-x,1/2-y,-z
1/2+x,1/2-y,z
loop_
_atom_site_type_symbol
_atom_site_label
_atom_site_fract_x
_atom_site_fract_y
_atom_site_fract_z
Si Si1 0.442350 0.707416 0.266634
Si Si2 0.620488 0.215591 0.111690
Si Si3 0.116948 0.500000 0.502432
Si Si4 0.261981 0.206007 0.769728
Si Si5 0.687862 0.209667 0.938814
Si Si6 0.181927 0.792184 0.609775
Si Si7 0.990409 0.500000 0.629848
Si Si8 0.517342 0.703847 0.908222
O O1 0.458609 0.500000 0.262713
O O2 0.378875 0.719476 0.324352
O O3 0.435020 0.775762 0.165389
O O4 0.495617 0.825549 0.313670
O O5 0.676521 0.279506 0.177905
O O6 0.552234 0.287303 0.138481
O O7 0.621074 0.000000 0.112915
O O8 0.633933 0.270058 0.008688
O O9 0.160621 0.668589 0.528259
O O10 0.081335 0.500000 0.408249
O O11 0.051542 0.500000 0.562148
O O12 0.205574 0.212289 0.843405
O O13 0.238729 0.276701 0.674417
O O14 0.274849 0.000000 0.752829
O O15 0.682210 0.000000 0.927589
O O16 0.750000 0.250000 0.000000
O O17 0.191084 0.000000 0.586715
O O18 0.534387 0.500000 0.925201
O O19 0.500000 0.797423 0.000000
#
# Coordination Sequence:
#
# PCOD9212962 Si02
#       8
#     8   8   4   8   8   8   4   8
#     4   9  19  35  52  76 104 138 180 207 255 311
#     4   9  19  33  45  68  96 127 177 215 252 297
#     4   9  18  32  52  84 110 128 171 200 253 339
#     4   9  18  31  48  69  99 131 167 206 259 310
#     4   9  17  28  42  63  90 125 166 209 248 296
#     4   9  18  32  51  77 111 138 160 209 265 308
#     4   9  18  34  55  78 108 138 161 214 257 306
#     4  10  22  36  49  69 100 136 181 221 249 292
#
# _framework density 23.495187000000001
#
# number of rings (size 3 to 8) (size 9 to 14) (size 15 to 20)
#    0.000    2.857    0.000    1.286    4.000    3.714 
#    0.000    2.857    0.000    0.000    0.000    1.000 
#    0.000    0.000    0.000    0.000    0.000    0.000 
#
# Total GULP energy -156161.417373 kJ/mol
# GULP energy per Si atom -5577.193478 kJ/mol
# Density = 2.344171 g / cm^3
# Si number density = 23.495187 Si / 1000 Ang^3
#
#
#
# Elastic Constant Matrix: (Units=GPa)
#
#
# Indices 1 2 3 4 5 6 
#
# 1 61.5791 15.4448 1.7500 0.0000 19.1768 0.0000
# 2 15.4448 97.2717 22.6234 0.0000 24.6979 0.0000
# 3 1.7500 22.6234 42.0945 0.0000 32.6128 0.0000
# 4 0.0000 0.0000 0.0000 17.5038 0.0000 10.5317
# 5 19.1768 24.6979 32.6128 0.0000 44.9757 0.0000
# 6 0.0000 0.0000 0.0000 10.5317 0.0000 21.7102
#
#
#
# Elastic Compliance Matrix: (Units=1/GPa)
#
#
# Indices 1 2 3 4 5 6 
#
# 1 0.022415 -0.002179 0.015328 0.000000 -0.019475 0.000000
# 2 -0.002179 0.012332 -0.004588 0.000000 -0.002516 0.000000
# 3 0.015328 -0.004588 0.065484 0.000000 -0.051500 0.000000
# 4 0.000000 0.000000 0.000000 0.080679 0.000000 -0.039137
# 5 -0.019475 -0.002516 -0.051500 0.000000 0.069263 0.000000
# 6 0.000000 0.000000 0.000000 -0.039137 0.000000 0.065047
#
#
# Mechanical properties :
#
#
# Convention : Reuss Voigt Hill
#
# Bulk Modulus (GPa) = 8.52130 31.17577 19.84854
# Shear Modulus (GPa) = 14.82725 27.57975 21.20350
#
# Velocity S-wave (km/s) = 2.51485 3.42986 3.00736
# Velocity P-wave (km/s) = 3.47380 5.38359 4.53047
#
# Compressibility (1/GPa) = 0.11735292
#
# Stress axis : x y z
#
# Youngs Moduli (GPa) = 44.61284 81.08692 15.27086
#
# Poissons Ratio (x) = 0.17670 -0.23407
# Poissons Ratio (y) = 0.09722 0.07006
# Poissons Ratio (z) = -0.68381 0.37202
#
# Static dielectric constant tensor:
#      x y z
#    x 1.990050 0.000000 0.017800 
#    y 0.000000 1.849640 0.000000 
#    z 0.017800 0.000000 1.957730 
# 
# From -- ./inp_files/231084.got.cif
#   From: 2010.05.17/outbox.cif.g08.bks.cpg/sg12_116_cif.got.tgz:231084.got - 2010.06.03 13:09:07.
