data_PCOD9212985
_publ_section_title
;
Structure prediction by ZEFSAII (Michael W. Deem and Ramdas Pophale) SiO2 
 PCOD9212985
Probable space group: C 2/M
;
_chemical_formula_sum "Si O2"
_cell_formula_units_Z 32
_cell_length_a 12.636705
_cell_length_b 20.362044
_cell_length_c 9.383245
_cell_angle_alpha 90.000000
_cell_angle_beta 146.415182
_cell_angle_gamma 90.000000
_cell_volume 1335.572727
_symmetry_space_group_name_H-M "C 2/M"
_symmetry_group_IT_number 12
_symmetry_cell_setting 'monoclinic'
loop_
_space_group_symop_operation_xyz
x,y,z
-x,y,-z
-x,-y,-z
x,-y,z
1/2+x,1/2+y,z
1/2-x,1/2+y,-z
1/2-x,1/2-y,-z
1/2+x,1/2-y,z
loop_
_atom_site_type_symbol
_atom_site_label
_atom_site_fract_x
_atom_site_fract_y
_atom_site_fract_z
Si Si1 0.060327 0.322703 0.723502
Si Si2 0.302151 0.073376 0.917290
Si Si3 0.620608 0.425272 0.412502
Si Si4 0.505296 0.292647 0.167279
O O1 0.943246 0.260047 0.651981
O O2 0.000000 0.345247 0.500000
O O3 0.063905 0.377282 0.848777
O O4 0.282709 0.305199 0.952012
O O5 0.254600 0.087664 0.699791
O O6 0.094681 0.073627 0.762486
O O7 0.379074 0.000000 0.013649
O O8 0.655083 0.500000 0.395726
O O9 0.615588 0.362314 0.303074
O O10 0.500000 0.266701 0.000000
#
# Coordination Sequence:
#
# PCOD9212985 Si02
#       4
#     8   8   8   8
#     4  10  22  36  54  81 113 144 176 222 273 323
#     4   8  15  31  55  79 104 141 181 218 265 317
#     4   8  15  30  55  80 104 137 181 226 262 309
#     4  10  22  36  55  82 110 143 182 223 267 319
#
# _framework density 23.959761
#
# number of rings (size 3 to 8) (size 9 to 14) (size 15 to 20)
#    0.000    3.000    0.000    1.500   10.500    2.000 
#    0.000    0.000    0.000    0.750    0.000    0.000 
#    0.000    0.000    0.000    0.000    0.000    0.000 
#
# Total GULP energy -89422.982274 kJ/mol
# GULP energy per Si atom -5588.936392 kJ/mol
# Density = 2.390523 g / cm^3
# Si number density = 23.959761 Si / 1000 Ang^3
#
#
#
# Elastic Constant Matrix: (Units=GPa)
#
#
# Indices 1 2 3 4 5 6 
#
# 1 81.9898 27.4259 9.2378 0.0000 -2.3457 0.0000
# 2 27.4259 107.0827 64.0538 0.0000 -15.0959 0.0000
# 3 9.2378 64.0538 90.7010 0.0000 -5.1518 0.0000
# 4 0.0000 0.0000 0.0000 21.1457 0.0000 -11.5208
# 5 -2.3457 -15.0959 -5.1518 0.0000 25.1318 0.0000
# 6 0.0000 0.0000 0.0000 -11.5208 0.0000 22.1220
#
#
#
# Elastic Compliance Matrix: (Units=1/GPa)
#
#
# Indices 1 2 3 4 5 6 
#
# 1 0.013550 -0.004806 0.001945 0.000000 -0.001224 0.000000
# 2 -0.004806 0.019384 -0.012712 0.000000 0.008589 0.000000
# 3 0.001945 -0.012712 0.019609 0.000000 -0.003434 0.000000
# 4 0.000000 0.000000 0.000000 0.066024 0.000000 0.034384
# 5 -0.001224 0.008589 -0.003434 0.000000 0.044131 0.000000
# 6 0.000000 0.000000 0.000000 0.034384 0.000000 0.063111
#
#
# Mechanical properties :
#
#
# Convention : Reuss Voigt Hill
#
# Bulk Modulus (GPa) = 46.73597 53.46763 50.10180
# Shear Modulus (GPa) = 18.93295 25.61697 22.27496
#
# Velocity S-wave (km/s) = 2.81409 3.27336 3.05238
# Velocity P-wave (km/s) = 5.48700 6.05397 5.77745
#
# Compressibility (1/GPa) = 0.02139679
#
# Stress axis : x y z
#
# Youngs Moduli (GPa) = 73.79961 51.58802 50.99581
#
# Poissons Ratio (x) = 0.24794 -0.09916
# Poissons Ratio (y) = 0.35469 0.64826
# Poissons Ratio (z) = -0.14351 0.65579
#
# Static dielectric constant tensor:
#      x y z
#    x 1.922950 0.000000 0.070290 
#    y 0.000000 1.944520 0.000000 
#    z 0.070290 0.000000 1.903960 
# 
# From -- ./inp_files/46726.got.cif
#   From: 2010.05.17/outbox.cif.g08.bks.cpg/sg12_24_cif.got.tgz:46726.got - 2010.06.03 13:09:07.
