data_PCOD9212338
_publ_section_title
;
Structure prediction by ZEFSAII (Michael W. Deem and Ramdas Pophale) SiO2 
 PCOD9212338
Probable space group: C 2/M
;
_chemical_formula_sum "Si O2"
_cell_formula_units_Z 42
_cell_length_a 13.952496
_cell_length_b 18.273504
_cell_length_c 10.017406
_cell_angle_alpha 90.000000
_cell_angle_beta 48.127395
_cell_angle_gamma 90.000000
_cell_volume 1901.822564
_symmetry_space_group_name_H-M "C 2/M"
_symmetry_group_IT_number 12
_symmetry_cell_setting 'monoclinic'
loop_
_space_group_symop_operation_xyz
x,y,z
-x,y,-z
-x,-y,-z
x,-y,z
1/2+x,1/2+y,z
1/2-x,1/2+y,-z
1/2-x,1/2-y,-z
1/2+x,1/2-y,z
loop_
_atom_site_type_symbol
_atom_site_label
_atom_site_fract_x
_atom_site_fract_y
_atom_site_fract_z
Si Si1 0.500000 0.500000 0.500000
Si Si2 0.091904 0.272594 0.530842
Si Si3 0.227276 0.578788 0.322468
Si Si4 0.327372 0.642623 0.969837
Si Si5 0.914632 0.302105 0.949870
Si Si6 0.394558 0.617848 0.416292
O O1 0.402601 0.563885 0.532010
O O2 0.149593 0.345980 0.414262
O O3 0.167259 0.197960 0.498771
O O4 0.000000 0.242528 0.500000
O O5 0.010740 0.296370 0.735075
O O6 0.158402 0.500000 0.390435
O O7 0.323414 0.582359 0.357382
O O8 0.298891 0.586553 0.114613
O O9 0.351123 0.721222 0.020244
O O10 0.458012 0.627342 0.770028
O O11 0.205210 0.648089 0.984585
O O12 0.000000 0.320270 0.000000
#
# Coordination Sequence:
#
# PCOD9212338 Si02
#       6
#     2   8   8   8   8   8
#     4  12  24  40  62  96 138 170 214 286 342 392
#     4  11  22  43  68  96 134 179 222 274 331 406
#     4  12  25  42  69 100 133 179 224 281 338 407
#     4  10  22  40  66  97 133 169 220 282 339 398
#     4  10  21  41  67  98 129 174 228 274 331 400
#     4  11  24  42  66  99 137 172 223 279 347 401
#
# _framework density 22.084078999999999
#
# number of rings (size 3 to 8) (size 9 to 14) (size 15 to 20)
#    0.000    1.143    3.810    3.429    1.333    2.667 
#    0.000    0.000    0.000    1.143    0.000    0.000 
#    0.000    0.000    0.000    0.000    0.000    0.000 
#
# Total GULP energy -117002.369277 kJ/mol
# GULP energy per Si atom -5571.541394 kJ/mol
# Density = 2.203381 g / cm^3
# Si number density = 22.084079 Si / 1000 Ang^3
#
#
#
# Elastic Constant Matrix: (Units=GPa)
#
#
# Indices 1 2 3 4 5 6 
#
# 1 83.3096 7.2607 -5.4104 0.0000 20.6641 0.0000
# 2 7.2607 157.7286 26.5753 0.0000 -5.4766 0.0000
# 3 -5.4104 26.5753 55.2906 0.0000 9.5716 0.0000
# 4 0.0000 0.0000 0.0000 30.7593 0.0000 0.7520
# 5 20.6641 -5.4766 9.5716 0.0000 33.7146 0.0000
# 6 0.0000 0.0000 0.0000 0.7520 0.0000 21.6658
#
#
#
# Elastic Compliance Matrix: (Units=1/GPa)
#
#
# Indices 1 2 3 4 5 6 
#
# 1 0.015090 -0.001772 0.004185 0.000000 -0.010725 0.000000
# 2 -0.001772 0.007261 -0.004265 0.000000 0.003477 0.000000
# 3 0.004185 -0.004265 0.022201 0.000000 -0.009561 0.000000
# 4 0.000000 0.000000 0.000000 0.032538 0.000000 -0.001129
# 5 -0.010725 0.003477 -0.009561 0.000000 0.039513 0.000000
# 6 0.000000 0.000000 0.000000 -0.001129 0.000000 0.046195
#
#
# Mechanical properties :
#
#
# Convention : Reuss Voigt Hill
#
# Bulk Modulus (GPa) = 24.48168 39.24224 31.86196
# Shear Modulus (GPa) = 27.75956 35.08814 31.42385
#
# Velocity S-wave (km/s) = 3.54926 3.99035 3.77625
# Velocity P-wave (km/s) = 5.28262 6.24809 5.78553
#
# Compressibility (1/GPa) = 0.04084688
#
# Stress axis : x y z
#
# Youngs Moduli (GPa) = 66.27003 137.72366 45.04321
#
# Poissons Ratio (x) = 0.24406 -0.18850
# Poissons Ratio (y) = 0.11744 0.19212
# Poissons Ratio (z) = -0.27734 0.58742
#
# Static dielectric constant tensor:
#      x y z
#    x 1.838210 0.000000 -0.007900 
#    y 0.000000 1.836280 0.000000 
#    z -0.007900 0.000000 1.812630 
# 
# From -- ./inp_files/61590.got.cif
#   From: 2010.05.17/outbox.cif.g08.bks.cpg/sg12_31_cif.got.tgz:61590.got - 2010.06.03 13:09:07.
