data_PCOD9212905
_publ_section_title
;
Structure prediction by ZEFSAII (Michael W. Deem and Ramdas Pophale) SiO2 
 PCOD9212905
Probable space group: C 2/M
;
_chemical_formula_sum "Si O2"
_cell_formula_units_Z 52
_cell_length_a 22.156428
_cell_length_b 16.723832
_cell_length_c 7.988960
_cell_angle_alpha 90.000000
_cell_angle_beta 97.423955
_cell_angle_gamma 90.000000
_cell_volume 2935.417316
_symmetry_space_group_name_H-M "C 2/M"
_symmetry_group_IT_number 12
_symmetry_cell_setting 'monoclinic'
loop_
_space_group_symop_operation_xyz
x,y,z
-x,y,-z
-x,-y,-z
x,-y,z
1/2+x,1/2+y,z
1/2-x,1/2+y,-z
1/2-x,1/2-y,-z
1/2+x,1/2-y,z
loop_
_atom_site_type_symbol
_atom_site_label
_atom_site_fract_x
_atom_site_fract_y
_atom_site_fract_z
Si Si1 0.139704 0.912430 0.460297
Si Si2 0.009495 0.091027 0.305159
Si Si3 0.500000 0.706783 0.000000
Si Si4 0.368784 0.771311 0.941955
Si Si5 0.268158 0.341666 0.737030
Si Si6 0.821869 0.792002 0.276837
Si Si7 0.222319 0.593972 0.074192
O O1 0.082940 0.909788 0.314057
O O2 0.203184 0.899665 0.388602
O O3 0.134274 0.839137 0.584948
O O4 0.137574 0.000000 0.541450
O O5 0.000000 0.109189 0.500000
O O6 0.987090 0.000000 0.270204
O O7 0.985455 0.150581 0.155581
O O8 0.560221 0.757750 0.064513
O O9 0.354390 0.742692 0.125744
O O10 0.324517 0.714697 0.815784
O O11 0.341407 0.860358 0.916956
O O12 0.215436 0.281645 0.657145
O O13 0.242645 0.387693 0.889869
O O14 0.772596 0.858032 0.199567
O O15 0.221118 0.500000 0.106251
#
# Coordination Sequence:
#
# PCOD9212905 Si02
#       7
#     8   8   4   8   8   8   8
#     4  11  19  29  45  72  99 124 162 200 241 299
#     4  10  22  35  48  71 103 134 171 211 245 294
#     4  12  19  36  55  68 102 142 174 206 251 292
#     4   9  19  32  50  71  94 129 172 200 239 304
#     4   9  17  32  47  71  97 126 159 198 246 302
#     4   9  18  31  49  70 100 127 156 201 251 300
#     4   9  17  32  51  73  99 125 157 206 256 295
#
# _framework density 17.714687000000001
#
# number of rings (size 3 to 8) (size 9 to 14) (size 15 to 20)
#    0.000    2.308    1.538    4.385    0.000    0.000 
#    0.000    1.923    0.000    0.000    0.000    0.000 
#    0.000    4.000    0.000    0.000    0.000    0.000 
#
# Total GULP energy -144913.919976 kJ/mol
# GULP energy per Si atom -5573.612307 kJ/mol
# Density = 1.767437 g / cm^3
# Si number density = 17.714687 Si / 1000 Ang^3
#
#
#
# Elastic Constant Matrix: (Units=GPa)
#
#
# Indices 1 2 3 4 5 6 
#
# 1 67.0368 28.6600 -8.4870 0.0000 0.8706 0.0000
# 2 28.6600 77.9036 -2.1507 0.0000 0.8112 0.0000
# 3 -8.4870 -2.1507 21.0663 0.0000 -4.7995 0.0000
# 4 0.0000 0.0000 0.0000 21.4080 0.0000 1.3617
# 5 0.8706 0.8112 -4.7995 0.0000 22.3190 0.0000
# 6 0.0000 0.0000 0.0000 1.3617 0.0000 17.1805
#
#
#
# Elastic Compliance Matrix: (Units=1/GPa)
#
#
# Indices 1 2 3 4 5 6 
#
# 1 0.018654 -0.006678 0.007069 0.000000 0.001035 0.000000
# 2 -0.006678 0.015264 -0.001261 0.000000 -0.000565 0.000000
# 3 0.007069 -0.001261 0.052719 0.000000 0.011107 0.000000
# 4 0.000000 0.000000 0.000000 0.046948 0.000000 -0.003721
# 5 0.001035 -0.000565 0.011107 0.000000 0.047174 0.000000
# 6 0.000000 0.000000 0.000000 -0.003721 0.000000 0.058500
#
#
# Mechanical properties :
#
#
# Convention : Reuss Voigt Hill
#
# Bulk Modulus (GPa) = 11.77895 22.45013 17.11454
# Shear Modulus (GPa) = 18.56678 22.04711 20.30694
#
# Velocity S-wave (km/s) = 3.24095 3.53167 3.38943
# Velocity P-wave (km/s) = 4.54628 5.41580 4.99998
#
# Compressibility (1/GPa) = 0.08489724
#
# Stress axis : x y z
#
# Youngs Moduli (GPa) = 53.60830 65.51234 18.96852
#
# Poissons Ratio (x) = 0.43750 -0.13409
# Poissons Ratio (y) = 0.35801 0.02392
# Poissons Ratio (z) = -0.37897 0.08260
#
# Static dielectric constant tensor:
#      x y z
#    x 1.623770 0.000000 -0.017730 
#    y 0.000000 1.594100 0.000000 
#    z -0.017730 0.000000 1.635600 
# 
# From -- ./inp_files/95818.got.cif
#   From: 2010.05.17/outbox.cif.g08.bks.cpg/sg12_48_cif.got.tgz:95818.got - 2010.06.03 13:09:07.
