data_PCOD9212533
_publ_section_title
;
Structure prediction by ZEFSAII (Michael W. Deem and Ramdas Pophale) SiO2 
 PCOD9212533
Probable space group: C 2/M
;
_chemical_formula_sum "Si O2"
_cell_formula_units_Z 40
_cell_length_a 24.072762
_cell_length_b 9.019738
_cell_length_c 17.174413
_cell_angle_alpha 90.000000
_cell_angle_beta 147.262132
_cell_angle_gamma 90.000000
_cell_volume 2016.673162
_symmetry_space_group_name_H-M "C 2/M"
_symmetry_group_IT_number 12
_symmetry_cell_setting 'monoclinic'
loop_
_space_group_symop_operation_xyz
x,y,z
-x,y,-z
-x,-y,-z
x,-y,z
1/2+x,1/2+y,z
1/2-x,1/2+y,-z
1/2-x,1/2-y,-z
1/2+x,1/2-y,z
loop_
_atom_site_type_symbol
_atom_site_label
_atom_site_fract_x
_atom_site_fract_y
_atom_site_fract_z
Si Si1 0.138817 0.675373 0.373699
Si Si2 0.723044 0.822188 0.732816
Si Si3 0.524351 0.822798 0.400409
Si Si4 0.197701 0.823147 0.862779
Si Si5 0.595854 0.327453 0.170418
O O1 0.151941 0.500000 0.386635
O O2 0.250000 0.750000 0.500000
O O3 0.080369 0.710027 0.384610
O O4 0.079700 0.732508 0.228225
O O5 0.608060 0.791541 0.566165
O O6 0.746348 0.737799 0.839911
O O7 0.802875 0.782674 0.758558
O O8 0.731620 0.000000 0.755310
O O9 0.420223 0.731233 0.281121
O O10 0.501190 0.000000 0.376304
O O11 0.205006 0.000000 0.875955
O O12 0.250000 0.750000 0.000000
O O13 0.609523 0.500000 0.209247
O O14 0.500000 0.317194 0.000000
#
# Coordination Sequence:
#
# PCOD9212533 Si02
#       5
#     8   8   8   8   8
#     4  11  22  39  64  95 129 164 208 254 305 367
#     4  10  21  42  66  91 127 167 205 251 311 369
#     4  10  22  42  66  92 126 166 206 253 311 369
#     4  12  27  44  64  92 124 160 209 260 314 370
#     4  10  22  40  63  94 130 168 207 249 308 372
#
# _framework density 19.834645999999999
#
# number of rings (size 3 to 8) (size 9 to 14) (size 15 to 20)
#    0.000    1.400    2.000    3.000    2.800    6.000 
#    0.000    0.000    0.000    0.000    0.000    0.000 
#    0.000    0.000    0.000    0.000    0.000    0.000 
#
# Total GULP energy -111849.904005 kJ/mol
# GULP energy per Si atom -5592.495200 kJ/mol
# Density = 1.978950 g / cm^3
# Si number density = 19.834646 Si / 1000 Ang^3
#
#
#
# Elastic Constant Matrix: (Units=GPa)
#
#
# Indices 1 2 3 4 5 6 
#
# 1 83.4642 44.9294 20.8494 0.0000 -27.9223 0.0000
# 2 44.9294 56.0973 28.2822 0.0000 -13.6804 0.0000
# 3 20.8494 28.2822 67.9650 0.0000 -15.5491 0.0000
# 4 0.0000 0.0000 0.0000 31.0624 0.0000 -3.7843
# 5 -27.9223 -13.6804 -15.5491 0.0000 36.4729 0.0000
# 6 0.0000 0.0000 0.0000 -3.7843 0.0000 34.9037
#
#
#
# Elastic Compliance Matrix: (Units=1/GPa)
#
#
# Indices 1 2 3 4 5 6 
#
# 1 0.026289 -0.019176 0.003185 0.000000 0.014291 0.000000
# 2 -0.019176 0.037380 -0.010885 0.000000 -0.005300 0.000000
# 3 0.003185 -0.010885 0.019823 0.000000 0.006806 0.000000
# 4 0.000000 0.000000 0.000000 0.032624 0.000000 0.003537
# 5 0.014291 -0.005300 0.006806 0.000000 0.039272 0.000000
# 6 0.000000 0.000000 0.000000 0.003537 0.000000 0.029034
#
#
# Mechanical properties :
#
#
# Convention : Reuss Voigt Hill
#
# Bulk Modulus (GPa) = 33.62515 43.96095 38.79305
# Shear Modulus (GPa) = 20.15419 28.05218 24.10319
#
# Velocity S-wave (km/s) = 3.19111 3.76480 3.48976
# Velocity P-wave (km/s) = 5.52875 6.41172 5.98654
#
# Compressibility (1/GPa) = 0.02973964
#
# Stress axis : x y z
#
# Youngs Moduli (GPa) = 38.03847 26.75252 50.44602
#
# Poissons Ratio (x) = 0.51300 -0.16065
# Poissons Ratio (y) = 0.72942 0.54910
# Poissons Ratio (z) = -0.12113 0.29120
#
# Static dielectric constant tensor:
#      x y z
#    x 1.706340 0.000000 -0.001510 
#    y 0.000000 1.665040 0.000000 
#    z -0.001510 0.000000 1.701900 
# 
# From -- ./inp_files/220586.got.cif
#   From: 2010.05.17/outbox.cif.g08.bks.cpg/sg12_111_cif.got.tgz:220586.got - 2010.06.03 13:09:07.
