data_PCOD9212918
_publ_section_title
;
Structure prediction by ZEFSAII (Michael W. Deem and Ramdas Pophale) SiO2 
 PCOD9212918
Probable space group: C 2/M
;
_chemical_formula_sum "Si O2"
_cell_formula_units_Z 64
_cell_length_a 9.774063
_cell_length_b 25.097512
_cell_length_c 22.405574
_cell_angle_alpha 90.000000
_cell_angle_beta 136.695217
_cell_angle_gamma 90.000000
_cell_volume 3769.723102
_symmetry_space_group_name_H-M "C 2/M"
_symmetry_group_IT_number 12
_symmetry_cell_setting 'monoclinic'
loop_
_space_group_symop_operation_xyz
x,y,z
-x,y,-z
-x,-y,-z
x,-y,z
1/2+x,1/2+y,z
1/2-x,1/2+y,-z
1/2-x,1/2-y,-z
1/2+x,1/2-y,z
loop_
_atom_site_type_symbol
_atom_site_label
_atom_site_fract_x
_atom_site_fract_y
_atom_site_fract_z
Si Si1 0.232912 0.256196 0.064741
Si Si2 0.492015 0.163823 0.808479
Si Si3 0.151563 0.195568 0.492743
Si Si4 0.008448 0.684523 0.680526
Si Si5 0.013668 0.938639 0.107396
Si Si6 0.948033 0.808900 0.305940
Si Si7 0.673715 0.061030 0.901969
Si Si8 0.543686 0.655757 0.210479
O O1 0.316067 0.201417 0.119723
O O2 0.377151 0.302537 0.134336
O O3 0.250000 0.250000 0.000000
O O4 0.000000 0.266293 0.000000
O O5 0.477574 0.155668 0.733298
O O6 0.291408 0.192334 0.766439
O O7 0.515396 0.107979 0.849228
O O8 0.250000 0.250000 0.500000
O O9 0.342577 0.165565 0.580724
O O10 0.000000 0.204187 0.500000
O O11 0.035614 0.173830 0.398057
O O12 0.979989 0.748128 0.683359
O O13 0.232649 0.676898 0.729454
O O14 0.189632 0.931565 0.114113
O O15 0.023462 0.897375 0.164501
O O16 0.021454 0.000000 0.130268
O O17 0.814961 0.931727 0.004324
O O18 0.012302 0.846047 0.271646
O O19 0.600952 0.000000 0.878859
#
# Coordination Sequence:
#
# PCOD9212918 Si02
#       8
#     8   8   8   8   8   8   8   8
#     4  12  24  34  48  73 115 151 178 215 269 329
#     4  12  20  35  56  78 110 147 185 229 270 323
#     4  10  22  35  54  80 113 152 184 219 280 331
#     4  11  20  36  55  79 115 148 182 228 264 335
#     4   9  19  36  56  79 107 142 191 239 269 318
#     4  11  22  36  52  82 118 145 179 228 274 341
#     4   9  19  35  57  81 104 142 195 237 271 313
#     4  12  22  36  55  83 112 147 186 228 279 325
#
# _framework density 16.977374000000001
#
# number of rings (size 3 to 8) (size 9 to 14) (size 15 to 20)
#    0.000    1.250    5.000    3.000    7.000    0.000 
#    0.000    0.625    0.000    1.875    0.000    5.250 
#    0.000    0.000    0.000    0.000    0.000    0.000 
#
# Total GULP energy -178491.917257 kJ/mol
# GULP energy per Si atom -5577.872414 kJ/mol
# Density = 1.693873 g / cm^3
# Si number density = 16.977374 Si / 1000 Ang^3
#
#
#
# Elastic Constant Matrix: (Units=GPa)
#
#
# Indices 1 2 3 4 5 6 
#
# 1 88.2819 13.2327 38.3038 0.0000 -6.0541 0.0000
# 2 13.2327 74.1953 45.3734 0.0000 -4.1343 0.0000
# 3 38.3038 45.3734 108.1581 0.0000 -8.8316 0.0000
# 4 0.0000 0.0000 0.0000 17.0023 0.0000 -3.5929
# 5 -6.0541 -4.1343 -8.8316 0.0000 35.9938 0.0000
# 6 0.0000 0.0000 0.0000 -3.5929 0.0000 17.1211
#
#
#
# Elastic Compliance Matrix: (Units=1/GPa)
#
#
# Indices 1 2 3 4 5 6 
#
# 1 0.013455 0.000701 -0.004967 0.000000 0.001125 0.000000
# 2 0.000701 0.018167 -0.007847 0.000000 0.000279 0.000000
# 3 -0.004967 -0.007847 0.014444 0.000000 0.001807 0.000000
# 4 0.000000 0.000000 0.000000 0.061545 0.000000 0.012915
# 5 0.001125 0.000279 0.001807 0.000000 0.028447 0.000000
# 6 0.000000 0.000000 0.000000 0.012915 0.000000 0.061118
#
#
# Mechanical properties :
#
#
# Convention : Reuss Voigt Hill
#
# Bulk Modulus (GPa) = 45.78807 51.60611 48.69709
# Shear Modulus (GPa) = 21.86448 25.60513 23.73480
#
# Velocity S-wave (km/s) = 3.59257 3.88776 3.74307
# Velocity P-wave (km/s) = 6.65112 7.11448 6.88670
#
# Compressibility (1/GPa) = 0.02183975
#
# Stress axis : x y z
#
# Youngs Moduli (GPa) = 74.32448 55.04473 69.23280
#
# Poissons Ratio (x) = -0.03856 0.34387
# Poissons Ratio (y) = -0.05207 0.54324
# Poissons Ratio (z) = 0.36916 0.43191
#
# Static dielectric constant tensor:
#      x y z
#    x 1.541360 0.000000 0.044260 
#    y 0.000000 1.606990 0.000000 
#    z 0.044260 0.000000 1.566470 
# 
# From -- ./inp_files/302650.got.cif
#   From: 2010.05.17/outbox.cif.g08.bks.cpg/sg12_152_cif.got.tgz:302650.got - 2010.06.03 13:09:07.
