data_PCOD9212894
_publ_section_title
;
Structure prediction by ZEFSAII (Michael W. Deem and Ramdas Pophale) SiO2 
 PCOD9212894
Probable space group: C 2/M
;
_chemical_formula_sum "Si O2"
_cell_formula_units_Z 56
_cell_length_a 9.503660
_cell_length_b 30.824480
_cell_length_c 21.360132
_cell_angle_alpha 90.000000
_cell_angle_beta 27.166675
_cell_angle_gamma 90.000000
_cell_volume 2856.985110
_symmetry_space_group_name_H-M "C 2/M"
_symmetry_group_IT_number 12
_symmetry_cell_setting 'monoclinic'
loop_
_space_group_symop_operation_xyz
x,y,z
-x,y,-z
-x,-y,-z
x,-y,z
1/2+x,1/2+y,z
1/2-x,1/2+y,-z
1/2-x,1/2-y,-z
1/2+x,1/2-y,z
loop_
_atom_site_type_symbol
_atom_site_label
_atom_site_fract_x
_atom_site_fract_y
_atom_site_fract_z
Si Si1 0.223762 0.647372 0.768150
Si Si2 0.174529 0.406078 0.668955
Si Si3 0.714616 0.204407 0.977285
Si Si4 0.375822 0.000000 0.357505
Si Si5 0.677669 0.849144 0.277957
Si Si6 0.103185 0.206841 0.531210
Si Si7 0.762127 0.500000 0.651580
Si Si8 0.314353 0.406039 0.335106
O O1 0.215607 0.605873 0.724988
O O2 0.340690 0.687313 0.679145
O O3 0.466148 0.630401 0.723108
O O4 0.936045 0.667060 0.919196
O O5 0.500000 0.401459 0.500000
O O6 0.048353 0.454129 0.705269
O O7 0.934883 0.368992 0.742567
O O8 0.500000 0.209461 0.000000
O O9 0.750000 0.250000 0.000000
O O10 0.052531 0.185817 0.828350
O O11 0.534361 0.000000 0.364158
O O12 0.000000 0.000000 0.500000
O O13 0.374473 0.827969 0.426672
O O14 0.752544 0.890444 0.289840
O O15 0.250000 0.250000 0.500000
O O16 0.000000 0.212112 0.500000
O O17 0.575046 0.455570 0.715667
O O18 0.000000 0.500000 0.500000
O O19 0.000000 0.406109 0.500000
#
# Coordination Sequence:
#
# PCOD9212894 Si02
#       8
#     8   8   8   4   8   8   4   8
#     4  12  24  43  66  92 130 166 217 264 320 388
#     4  11  21  41  67 101 133 170 213 263 322 381
#     4  12  30  47  65  94 128 171 222 268 325 390
#     4  10  22  34  60  99 142 166 206 269 317 380
#     4  12  22  43  67  89 132 169 212 264 320 384
#     4  12  26  41  63  95 124 160 210 271 326 377
#     4  10  22  34  58 103 137 171 209 260 322 381
#     4  11  21  37  67  97 132 170 213 259 322 379
#
# _framework density 19.601082000000002
#
# number of rings (size 3 to 8) (size 9 to 14) (size 15 to 20)
#    0.000    0.571    7.143    0.857   10.000    2.286 
#    0.000    0.000    0.000    5.143    0.000    0.000 
#    0.000    0.000    0.000    0.000    0.000    0.000 
#
# Total GULP energy -156105.652731 kJ/mol
# GULP energy per Si atom -5575.201883 kJ/mol
# Density = 1.955647 g / cm^3
# Si number density = 19.601082 Si / 1000 Ang^3
#
#
#
# Elastic Constant Matrix: (Units=GPa)
#
#
# Indices 1 2 3 4 5 6 
#
# 1 63.6842 7.0995 11.4397 -0.0009 1.1508 -0.0006
# 2 7.0995 95.1448 -13.4943 0.0006 2.2483 0.0026
# 3 11.4397 -13.4943 24.2478 -0.0027 3.9943 -0.0076
# 4 -0.0009 0.0006 -0.0027 13.4183 0.0010 -5.7973
# 5 1.1508 2.2483 3.9943 0.0010 20.1878 0.0019
# 6 -0.0006 0.0026 -0.0076 -5.7973 0.0019 -8.7200
#
#
#
# Elastic Compliance Matrix: (Units=1/GPa)
#
#
# Indices 1 2 3 4 5 6 
#
# 1 0.017821 -0.002805 -0.010185 0.000002 0.001312 0.000006
# 2 -0.002805 0.011987 0.008464 -0.000001 -0.002850 -0.000004
# 3 -0.010185 0.008464 0.052528 -0.000007 -0.010755 -0.000040
# 4 0.000002 -0.000001 -0.000007 0.057896 0.000002 -0.038490
# 5 0.001312 -0.002850 -0.010755 0.000002 0.051906 0.000019
# 6 0.000006 -0.000004 -0.000040 -0.038490 0.000019 -0.089089
#
#
# Mechanical properties :
#
#
# Convention : Reuss Voigt Hill
#
# Bulk Modulus (GPa) = 13.64546 21.46296 17.55421
# Shear Modulus (GPa) = 36.62226 16.84600 26.73413
#
# Velocity S-wave (km/s) = 4.32716 2.93481 3.69712
# Velocity P-wave (km/s) = 5.65177 4.73896 5.21537
#
# Compressibility (1/GPa) = 0.07328446
#
# Stress axis : x y z
#
# Youngs Moduli (GPa) = 56.11342 83.42078 19.03741
#
# Poissons Ratio (x) = 0.23402 0.19389
# Poissons Ratio (y) = 0.15741 -0.16114
# Poissons Ratio (z) = 0.57151 -0.70609
#
# Static dielectric constant tensor:
#      x y z
#    x 1.768880 0.000000 0.051200 
#    y 0.000000 1.711450 0.000000 
#    z 0.051200 0.000000 1.714330 
# 
# From -- ./inp_files/303022.got.cif
#   From: 2010.05.17/outbox.cif.g08.bks.cpg/sg12_152_cif.got.tgz:303022.got - 2010.06.03 13:09:07.
