data_PCOD9212091
_publ_section_title
;
Structure prediction by ZEFSAII (Michael W. Deem and Ramdas Pophale) SiO2 
 PCOD9212091
Probable space group: C 2/M
;
_chemical_formula_sum "Si O2"
_cell_formula_units_Z 58
_cell_length_a 17.892632
_cell_length_b 10.131521
_cell_length_c 20.379277
_cell_angle_alpha 90.000000
_cell_angle_beta 49.506923
_cell_angle_gamma 90.000000
_cell_volume 2809.493161
_symmetry_space_group_name_H-M "C 2/M"
_symmetry_group_IT_number 12
_symmetry_cell_setting 'monoclinic'
loop_
_space_group_symop_operation_xyz
x,y,z
-x,y,-z
-x,-y,-z
x,-y,z
1/2+x,1/2+y,z
1/2-x,1/2+y,-z
1/2-x,1/2-y,-z
1/2+x,1/2-y,z
loop_
_atom_site_type_symbol
_atom_site_label
_atom_site_fract_x
_atom_site_fract_y
_atom_site_fract_z
Si Si1 0.396290 0.849674 0.775654
Si Si2 0.500000 0.500000 0.000000
Si Si3 0.677324 0.289600 0.907841
Si Si4 0.441507 0.657437 0.371221
Si Si5 0.602108 0.857559 0.837830
Si Si6 0.376727 0.148982 0.940965
Si Si7 0.686252 0.349004 0.687865
Si Si8 0.598889 0.846691 0.486411
O O1 0.281314 0.844008 0.824123
O O2 0.459837 0.737685 0.704352
O O3 0.398556 0.823063 0.852501
O O4 0.432945 0.000000 0.742750
O O5 0.587053 0.387182 0.949411
O O6 0.652856 0.161902 0.878678
O O7 0.683321 0.251347 0.980978
O O8 0.456225 0.500000 0.374535
O O9 0.367361 0.670018 0.351733
O O10 0.400835 0.737924 0.456637
O O11 0.485135 0.849718 0.911394
O O12 0.640044 0.745906 0.767683
O O13 0.625732 0.000000 0.795260
O O14 0.335381 0.000000 0.967807
O O15 0.668121 0.500000 0.718529
O O16 0.802549 0.329416 0.612436
O O17 0.500000 0.832270 0.500000
O O18 0.601272 0.000000 0.509667
#
# Coordination Sequence:
#
# PCOD9212091 Si02
#       8
#     8   2   8   8   8   8   8   8
#     4  11  24  42  65  93 124 171 218 263 323 387
#     4  12  24  40  58  92 120 166 220 260 324 384
#     4  12  24  41  62  91 127 168 218 272 322 379
#     4  11  24  43  66  97 133 169 210 268 321 379
#     4  11  23  39  65  93 128 170 214 263 322 384
#     4  10  21  41  63  88 122 164 215 266 319 375
#     4  10  23  42  67  96 130 171 216 262 318 381
#     4  10  23  44  69  99 129 168 212 261 318 385
#
# _framework density 20.644293000000001
#
# number of rings (size 3 to 8) (size 9 to 14) (size 15 to 20)
#    0.000    1.241    3.448    1.655    2.897    3.586 
#    1.241    0.000    0.000    0.000    0.000    0.000 
#    0.000    0.000    0.000    0.000    0.000    0.000 
#
# Total GULP energy -161755.262798 kJ/mol
# GULP energy per Si atom -5577.767683 kJ/mol
# Density = 2.059731 g / cm^3
# Si number density = 20.644293 Si / 1000 Ang^3
#
#
#
# Elastic Constant Matrix: (Units=GPa)
#
#
# Indices 1 2 3 4 5 6 
#
# 1 51.6443 10.1034 3.1518 0.0000 -13.6430 0.0000
# 2 10.1034 122.4659 54.5127 0.0000 1.9785 0.0000
# 3 3.1518 54.5127 63.7119 0.0000 -9.2427 0.0000
# 4 0.0000 0.0000 0.0000 12.1264 0.0000 -9.6678
# 5 -13.6430 1.9785 -9.2427 0.0000 34.4324 0.0000
# 6 0.0000 0.0000 0.0000 -9.6678 0.0000 14.6693
#
#
#
# Elastic Compliance Matrix: (Units=1/GPa)
#
#
# Indices 1 2 3 4 5 6 
#
# 1 0.022488 -0.003501 0.003335 0.000000 0.010007 0.000000
# 2 -0.003501 0.014268 -0.012856 0.000000 -0.005658 0.000000
# 3 0.003335 -0.012856 0.027916 0.000000 0.009554 0.000000
# 4 0.000000 0.000000 0.000000 0.173767 0.000000 0.114521
# 5 0.010007 -0.005658 0.009554 0.000000 0.035897 0.000000
# 6 0.000000 0.000000 0.000000 0.114521 0.000000 0.143644
#
#
# Mechanical properties :
#
#
# Convention : Reuss Voigt Hill
#
# Bulk Modulus (GPa) = 25.88763 41.48420 33.68591
# Shear Modulus (GPa) = 10.94329 23.58257 17.26293
#
# Velocity S-wave (km/s) = 2.30486 3.38350 2.89486
# Velocity P-wave (km/s) = 4.43286 5.95000 5.24656
#
# Compressibility (1/GPa) = 0.03862848
#
# Stress axis : x y z
#
# Youngs Moduli (GPa) = 44.46771 70.08590 35.82163
#
# Poissons Ratio (x) = 0.24540 -0.11947
# Poissons Ratio (y) = 0.15570 0.46051
# Poissons Ratio (z) = -0.14831 0.90100
#
# Static dielectric constant tensor:
#      x y z
#    x 1.770290 0.000000 0.003500 
#    y 0.000000 1.712710 0.000000 
#    z 0.003500 0.000000 1.713180 
# 
# From -- ./inp_files/346499.got.cif
#   From: 2010.05.17/outbox.cif.g08.bks.cpg/sg12_174_cif.got.tgz:346499.got - 2010.06.03 13:09:07.
