data_PCOD9212483
_publ_section_title
;
Structure prediction by ZEFSAII (Michael W. Deem and Ramdas Pophale) SiO2 
 PCOD9212483
Probable space group: C 2/M
;
_chemical_formula_sum "Si O2"
_cell_formula_units_Z 36
_cell_length_a 9.466633
_cell_length_b 27.106813
_cell_length_c 8.275506
_cell_angle_alpha 90.000000
_cell_angle_beta 132.059830
_cell_angle_gamma 90.000000
_cell_volume 1576.642580
_symmetry_space_group_name_H-M "C 2/M"
_symmetry_group_IT_number 12
_symmetry_cell_setting 'monoclinic'
loop_
_space_group_symop_operation_xyz
x,y,z
-x,y,-z
-x,-y,-z
x,-y,z
1/2+x,1/2+y,z
1/2-x,1/2+y,-z
1/2-x,1/2-y,-z
1/2+x,1/2-y,z
loop_
_atom_site_type_symbol
_atom_site_label
_atom_site_fract_x
_atom_site_fract_y
_atom_site_fract_z
Si Si1 0.000000 0.097541 0.000000
Si Si2 0.839232 0.734750 0.249694
Si Si3 0.566096 0.154356 0.232905
Si Si4 0.565829 0.314445 0.290087
Si Si5 0.413267 0.055427 0.254108
O O1 0.972122 0.134023 0.826660
O O2 0.810158 0.067275 0.893769
O O3 0.669243 0.720725 0.237488
O O4 0.000000 0.751296 0.500000
O O5 0.931239 0.685356 0.248308
O O6 0.868794 0.783171 0.160252
O O7 0.779377 0.171078 0.451323
O O8 0.520342 0.097254 0.233188
O O9 0.500000 0.165489 0.000000
O O10 0.500000 0.058066 0.500000
O O11 0.438949 0.000000 0.210129
#
# Coordination Sequence:
#
# PCOD9212483 Si02
#       5
#     4   8   8   8   8
#     4  12  23  42  74  98 132 170 235 276 334 412
#     4  10  21  42  62  94 137 186 229 272 331 407
#     4  11  22  42  67  95 136 178 221 280 343 402
#     4  11  24  42  67  97 141 183 233 274 337 410
#     4  11  23  45  73  99 131 173 227 287 346 407
#
# _framework density 22.833331000000001
#
# number of rings (size 3 to 8) (size 9 to 14) (size 15 to 20)
#    0.000    1.111    4.444    3.667    1.556    4.889 
#    0.000    3.333    0.000    1.333    0.000    0.000 
#    0.000    0.000    0.000    0.000    0.000    0.000 
#
# Total GULP energy -100562.787855 kJ/mol
# GULP energy per Si atom -5586.821548 kJ/mol
# Density = 2.278136 g / cm^3
# Si number density = 22.833331 Si / 1000 Ang^3
#
#
#
# Elastic Constant Matrix: (Units=GPa)
#
#
# Indices 1 2 3 4 5 6 
#
# 1 76.4445 57.2709 34.2462 0.0000 16.7924 0.0000
# 2 57.2709 160.2278 48.8962 0.0000 10.3001 0.0000
# 3 34.2462 48.8962 112.1170 0.0000 27.7682 0.0000
# 4 0.0000 0.0000 0.0000 6.9767 0.0000 -1.4751
# 5 16.7924 10.3001 27.7682 0.0000 32.1686 0.0000
# 6 0.0000 0.0000 0.0000 -1.4751 0.0000 48.8940
#
#
#
# Elastic Compliance Matrix: (Units=1/GPa)
#
#
# Indices 1 2 3 4 5 6 
#
# 1 0.020011 -0.006191 -0.001674 0.000000 -0.007019 0.000000
# 2 -0.006191 0.009121 -0.002752 0.000000 0.002687 0.000000
# 3 -0.001674 -0.002752 0.012969 0.000000 -0.009440 0.000000
# 4 0.000000 0.000000 0.000000 0.144254 0.000000 0.004352
# 5 -0.007019 0.002687 -0.009440 0.000000 0.042038 0.000000
# 6 0.000000 0.000000 0.000000 0.004352 0.000000 0.020584
#
#
# Mechanical properties :
#
#
# Convention : Reuss Voigt Hill
#
# Bulk Modulus (GPa) = 47.92350 69.95733 58.94041
# Shear Modulus (GPa) = 18.03967 31.49961 24.76964
#
# Velocity S-wave (km/s) = 2.81385 3.71825 3.29721
# Velocity P-wave (km/s) = 5.62058 7.00989 6.35333
#
# Compressibility (1/GPa) = 0.02086659
#
# Stress axis : x y z
#
# Youngs Moduli (GPa) = 49.97245 109.63671 77.10717
#
# Poissons Ratio (x) = 0.67871 0.12910
# Poissons Ratio (y) = 0.30935 0.21223
# Poissons Ratio (z) = 0.08367 0.30177
#
# Static dielectric constant tensor:
#      x y z
#    x 1.543130 0.000000 0.181940 
#    y 0.000000 1.821690 0.000000 
#    z 0.181940 0.000000 1.870630 
# 
# From -- ./inp_files/41975.got.cif
#   From: 2010.05.17/outbox.cif.g08.bks.cpg/sg12_21_cif.got.tgz:41975.got - 2010.06.03 13:09:07.
