data_PCOD9212060
_publ_section_title
;
Structure prediction by ZEFSAII (Michael W. Deem and Ramdas Pophale) SiO2 
 PCOD9212060
Probable space group: C 2/M
;
_chemical_formula_sum "Si O2"
_cell_formula_units_Z 44
_cell_length_a 18.366615
_cell_length_b 21.264480
_cell_length_c 5.631822
_cell_angle_alpha 90.000000
_cell_angle_beta 125.339782
_cell_angle_gamma 90.000000
_cell_volume 1794.248243
_symmetry_space_group_name_H-M "C 2/M"
_symmetry_group_IT_number 12
_symmetry_cell_setting 'monoclinic'
loop_
_space_group_symop_operation_xyz
x,y,z
-x,y,-z
-x,-y,-z
x,-y,z
1/2+x,1/2+y,z
1/2-x,1/2+y,-z
1/2-x,1/2-y,-z
1/2+x,1/2-y,z
loop_
_atom_site_type_symbol
_atom_site_label
_atom_site_fract_x
_atom_site_fract_y
_atom_site_fract_z
Si Si1 0.000000 0.838535 0.000000
Si Si2 0.279878 0.829261 0.431099
Si Si3 0.763982 0.070137 0.276648
Si Si4 0.417051 0.573041 0.176080
Si Si5 0.623041 0.750896 0.010373
Si Si6 0.602273 0.883886 0.715250
O O1 0.031282 0.787473 0.860474
O O2 0.926671 0.889771 0.948354
O O3 0.232831 0.868305 0.552259
O O4 0.343929 0.776942 0.670124
O O5 0.207043 0.795797 0.122361
O O6 0.344417 0.879055 0.428965
O O7 0.829737 0.079025 0.175134
O O8 0.783296 0.000000 0.413997
O O9 0.662087 0.072616 0.993764
O O10 0.500000 0.593220 0.500000
O O11 0.428833 0.500000 0.146071
O O12 0.609926 0.811988 0.827307
O O13 0.500000 0.901649 0.500000
#
# Coordination Sequence:
#
# PCOD9212060 Si02
#       6
#     4   8   8   8   8   8
#     4  12  21  34  60  90 119 158 196 244 314 382
#     4  10  21  41  62  85 123 166 209 269 328 371
#     4  10  23  42  64  93 127 167 218 268 316 381
#     4  10  22  39  59  88 124 160 204 257 314 380
#     4  10  22  36  58  91 122 160 211 260 318 386
#     4  11  23  40  62  90 127 168 214 268 319 377
#
# _framework density 24.522805999999999
#
# number of rings (size 3 to 8) (size 9 to 14) (size 15 to 20)
#    0.000    1.636    0.000    4.091    0.000    8.364 
#    0.000    5.455    0.000    0.000    0.000    0.000 
#    0.000    0.000    0.000    0.000    0.000    0.000 
#
# Total GULP energy -122594.799009 kJ/mol
# GULP energy per Si atom -5572.490864 kJ/mol
# Density = 2.446699 g / cm^3
# Si number density = 24.522806 Si / 1000 Ang^3
#
#
#
# Elastic Constant Matrix: (Units=GPa)
#
#
# Indices 1 2 3 4 5 6 
#
# 1 113.1545 23.7107 33.1878 0.0000 17.8146 0.0000
# 2 23.7107 125.9116 7.4587 0.0000 -5.2806 0.0000
# 3 33.1878 7.4587 72.2641 0.0000 34.5474 0.0000
# 4 0.0000 0.0000 0.0000 29.0650 0.0000 -4.4293
# 5 17.8146 -5.2806 34.5474 0.0000 38.2747 0.0000
# 6 0.0000 0.0000 0.0000 -4.4293 0.0000 46.7450
#
#
#
# Elastic Compliance Matrix: (Units=1/GPa)
#
#
# Indices 1 2 3 4 5 6 
#
# 1 0.010629 -0.001843 -0.003878 0.000000 -0.001701 0.000000
# 2 -0.001843 0.008547 -0.001776 0.000000 0.003640 0.000000
# 3 -0.003878 -0.001776 0.026486 0.000000 -0.022346 0.000000
# 4 0.000000 0.000000 0.000000 0.034910 0.000000 0.003308
# 5 -0.001701 0.003640 -0.022346 0.000000 0.047591 0.000000
# 6 0.000000 0.000000 0.000000 0.003308 0.000000 0.021706
#
#
# Mechanical properties :
#
#
# Convention : Reuss Voigt Hill
#
# Bulk Modulus (GPa) = 32.60765 48.89386 40.75076
# Shear Modulus (GPa) = 28.55755 39.28180 33.91968
#
# Velocity S-wave (km/s) = 3.41622 4.00665 3.72316
# Velocity P-wave (km/s) = 5.37462 6.43317 5.92757
#
# Compressibility (1/GPa) = 0.03066765
#
# Stress axis : x y z
#
# Youngs Moduli (GPa) = 94.08316 116.99963 37.75638
#
# Poissons Ratio (x) = 0.21565 0.14641
# Poissons Ratio (y) = 0.17341 0.06705
# Poissons Ratio (z) = 0.36484 0.20778
#
# Static dielectric constant tensor:
#      x y z
#    x 1.936680 0.000000 0.016390 
#    y 0.000000 1.928520 0.000000 
#    z 0.016390 0.000000 2.059060 
# 
# From -- ./inp_files/17009.got.cif
#   From: 2010.05.17/outbox.cif.g08.bks.cpg/sg12_9_cif.got.tgz:17009.got - 2010.06.03 13:09:07.
