data_PCOD9212826
_publ_section_title
;
Structure prediction by ZEFSAII (Michael W. Deem and Ramdas Pophale) SiO2 
 PCOD9212826
Probable space group: C 2/M
;
_chemical_formula_sum "Si O2"
_cell_formula_units_Z 58
_cell_length_a 8.804120
_cell_length_b 27.744237
_cell_length_c 24.492498
_cell_angle_alpha 90.000000
_cell_angle_beta 151.943308
_cell_angle_gamma 90.000000
_cell_volume 2813.897864
_symmetry_space_group_name_H-M "C 2/M"
_symmetry_group_IT_number 12
_symmetry_cell_setting 'monoclinic'
loop_
_space_group_symop_operation_xyz
x,y,z
-x,y,-z
-x,-y,-z
x,-y,z
1/2+x,1/2+y,z
1/2-x,1/2+y,-z
1/2-x,1/2-y,-z
1/2+x,1/2-y,z
loop_
_atom_site_type_symbol
_atom_site_label
_atom_site_fract_x
_atom_site_fract_y
_atom_site_fract_z
Si Si1 0.650118 0.233533 0.408995
Si Si2 0.233025 0.150860 0.232345
Si Si3 0.223080 0.376543 0.154716
Si Si4 0.000000 0.000000 0.500000
Si Si5 0.235940 0.088085 0.652810
Si Si6 0.862265 0.802637 0.017387
Si Si7 0.116456 0.159121 0.379915
Si Si8 0.364006 0.943122 0.112725
O O1 0.750000 0.250000 0.500000
O O2 0.385641 0.192564 0.318572
O O3 0.524493 0.284295 0.344495
O O4 0.000000 0.215781 0.500000
O O5 0.506916 0.111897 0.306862
O O6 0.917594 0.128074 0.160457
O O7 0.131373 0.176416 0.143758
O O8 0.480084 0.368145 0.284347
O O9 0.950700 0.336079 0.075109
O O10 0.040012 0.424894 0.113947
O O11 0.068489 0.043332 0.568694
O O12 0.439556 0.071354 0.770754
O O13 0.011207 0.130893 0.606812
O O14 0.750000 0.750000 0.000000
O O15 0.000000 0.802030 0.000000
O O16 0.500000 0.158333 0.500000
O O17 0.344115 0.000000 0.105193
O O18 0.000000 0.922443 0.000000
#
# Coordination Sequence:
#
# PCOD9212826 Si02
#       8
#     8   8   8   2   8   8   8   8
#     4  11  23  38  60  93 128 173 218 261 324 402
#     4  12  25  41  68  99 141 183 224 281 348 424
#     4  11  23  40  64  96 131 167 221 274 339 407
#     4  12  28  44  68  92 142 176 254 294 368 420
#     4  11  25  44  67  98 134 187 229 293 360 413
#     4  12  25  43  68 100 140 183 228 277 339 417
#     4  10  22  41  65  93 132 174 224 275 337 409
#     4  10  21  45  72  95 124 170 230 287 352 416
#
# _framework density 20.611978000000001
#
# number of rings (size 3 to 8) (size 9 to 14) (size 15 to 20)
#    0.000    0.966    0.690    7.448    4.828    2.207 
#    1.241    0.345    0.000    2.483    0.000    0.000 
#    0.000    0.000    0.000    0.000    0.000    0.000 
#
# Total GULP energy -161778.822104 kJ/mol
# GULP energy per Si atom -5578.580073 kJ/mol
# Density = 2.056506 g / cm^3
# Si number density = 20.611978 Si / 1000 Ang^3
#
#
#
# Elastic Constant Matrix: (Units=GPa)
#
#
# Indices 1 2 3 4 5 6 
#
# 1 130.4493 39.1642 20.5122 0.0007 7.3621 -0.0001
# 2 39.1642 110.2343 23.3059 -0.0001 14.5518 0.0000
# 3 20.5122 23.3059 64.0785 -0.0039 -5.5437 -0.0019
# 4 0.0007 -0.0001 -0.0039 28.5035 -0.0020 -2.1011
# 5 7.3621 14.5518 -5.5437 -0.0020 36.6972 -0.0002
# 6 -0.0001 0.0000 -0.0019 -2.1011 -0.0002 29.6988
#
#
#
# Elastic Compliance Matrix: (Units=1/GPa)
#
#
# Indices 1 2 3 4 5 6 
#
# 1 0.008808 -0.002574 -0.001974 -0.000001 -0.001044 0.000000
# 2 -0.002574 0.011370 -0.003705 -0.000001 -0.004552 0.000000
# 3 -0.001974 -0.003705 0.017982 0.000003 0.004582 0.000001
# 4 -0.000001 -0.000001 0.000003 0.035267 0.000003 0.002495
# 5 -0.001044 -0.004552 0.004582 0.000003 0.029957 0.000001
# 6 0.000000 0.000000 0.000001 0.002495 0.000001 0.033848
#
#
# Mechanical properties :
#
#
# Convention : Reuss Voigt Hill
#
# Bulk Modulus (GPa) = 46.18123 52.30295 49.24209
# Shear Modulus (GPa) = 31.06433 33.76520 32.41477
#
# Velocity S-wave (km/s) = 3.88635 4.05178 3.96993
# Velocity P-wave (km/s) = 6.52625 6.87890 6.70490
#
# Compressibility (1/GPa) = 0.02165382
#
# Stress axis : x y z
#
# Youngs Moduli (GPa) = 113.53415 87.94729 55.61222
#
# Poissons Ratio (x) = 0.22639 0.10976
# Poissons Ratio (y) = 0.29225 0.20606
# Poissons Ratio (z) = 0.22407 0.32587
#
# Static dielectric constant tensor:
#      x y z
#    x 1.646780 0.000010 -0.022310 
#    y 0.000010 1.646090 -0.000010 
#    z -0.022310 -0.000010 1.762590 
# 
# From -- ./inp_files/334232.got.cif
#   From: 2010.05.17/outbox.cif.g08.bks.cpg/sg12_168_cif.got.tgz:334232.got - 2010.06.03 13:09:07.
