data_PCOD9212023
_publ_section_title
;
Structure prediction by ZEFSAII (Michael W. Deem and Ramdas Pophale) SiO2 
 PCOD9212023
Probable space group: C 2/M
;
_chemical_formula_sum "Si O2"
_cell_formula_units_Z 64
_cell_length_a 13.068892
_cell_length_b 26.835741
_cell_length_c 15.905283
_cell_angle_alpha 90.000000
_cell_angle_beta 143.877590
_cell_angle_gamma 90.000000
_cell_volume 3288.415314
_symmetry_space_group_name_H-M "C 2/M"
_symmetry_group_IT_number 12
_symmetry_cell_setting 'monoclinic'
loop_
_space_group_symop_operation_xyz
x,y,z
-x,y,-z
-x,-y,-z
x,-y,z
1/2+x,1/2+y,z
1/2-x,1/2+y,-z
1/2-x,1/2-y,-z
1/2+x,1/2-y,z
loop_
_atom_site_type_symbol
_atom_site_label
_atom_site_fract_x
_atom_site_fract_y
_atom_site_fract_z
Si Si1 0.457003 0.298840 0.873520
Si Si2 0.168455 0.310511 0.263549
Si Si3 0.644785 0.443908 0.023793
Si Si4 0.670708 0.642248 0.789070
Si Si5 0.306159 0.132178 0.404159
Si Si6 0.548747 0.444447 0.284909
Si Si7 0.694202 0.150972 0.940799
Si Si8 0.832152 0.803477 0.540845
O O1 0.372693 0.245403 0.796165
O O2 0.326180 0.340563 0.749171
O O3 0.647420 0.310238 0.962956
O O4 0.500000 0.302336 0.000000
O O5 0.219061 0.346369 0.220314
O O6 0.317225 0.313168 0.432189
O O7 0.994192 0.326787 0.196035
O O8 0.718063 0.500000 0.087443
O O9 0.500000 0.435481 0.000000
O O10 0.556849 0.445027 0.873148
O O11 0.769712 0.396239 0.096073
O O12 0.547588 0.593468 0.715448
O O13 0.791626 0.637896 0.950786
O O14 0.530438 0.687549 0.700452
O O15 0.500000 0.133031 0.500000
O O16 0.231962 0.078060 0.377500
O O17 0.282129 0.161710 0.475058
O O18 0.559138 0.500000 0.325417
O O19 0.750000 0.750000 0.500000
#
# Coordination Sequence:
#
# PCOD9212023 Si02
#       8
#     8   8   8   8   8   8   8   8
#     4  12  24  39  57  87 126 166 196 242 305 363
#     4  12  25  36  61  86 120 165 207 251 289 352
#     4   9  17  32  59  86 115 155 194 243 314 369
#     4  10  21  41  58  86 118 158 208 245 301 354
#     4  11  24  39  61  93 122 154 202 252 299 370
#     4   9  19  39  64  85 118 160 200 253 310 360
#     4  11  21  39  56  85 123 154 205 248 298 354
#     4  11  22  40  59  83 121 161 204 244 298 357
#
# _framework density 19.462261999999999
#
# number of rings (size 3 to 8) (size 9 to 14) (size 15 to 20)
#    0.000    1.375    5.000    2.250    3.500    0.250 
#    0.000    0.625    0.000   12.000    0.000    0.000 
#    0.000    0.000    0.000    0.000    0.000    0.000 
#
# Total GULP energy -178450.531590 kJ/mol
# GULP energy per Si atom -5576.579112 kJ/mol
# Density = 1.941796 g / cm^3
# Si number density = 19.462262 Si / 1000 Ang^3
#
#
#
# Elastic Constant Matrix: (Units=GPa)
#
#
# Indices 1 2 3 4 5 6 
#
# 1 92.0862 23.8261 25.1031 0.0000 -0.8592 0.0000
# 2 23.8261 94.4449 17.4323 0.0000 -0.6454 0.0000
# 3 25.1031 17.4323 51.0339 0.0000 -1.0257 0.0000
# 4 0.0000 0.0000 0.0000 6.3534 0.0000 -7.0589
# 5 -0.8592 -0.6454 -1.0257 0.0000 40.7255 0.0000
# 6 0.0000 0.0000 0.0000 -7.0589 0.0000 21.6608
#
#
#
# Elastic Compliance Matrix: (Units=1/GPa)
#
#
# Indices 1 2 3 4 5 6 
#
# 1 0.012969 -0.002235 -0.005614 0.000000 0.000097 0.000000
# 2 -0.002235 0.011686 -0.002891 0.000000 0.000065 0.000000
# 3 -0.005614 -0.002891 0.023352 0.000000 0.000424 0.000000
# 4 0.000000 0.000000 0.000000 0.246731 0.000000 0.080406
# 5 0.000097 0.000065 0.000424 0.000000 0.024568 0.000000
# 6 0.000000 0.000000 0.000000 0.080406 0.000000 0.072369
#
#
# Mechanical properties :
#
#
# Convention : Reuss Voigt Hill
#
# Bulk Modulus (GPa) = 37.69683 41.14310 39.41996
# Shear Modulus (GPa) = 11.84839 25.16149 18.50494
#
# Velocity S-wave (km/s) = 2.47004 3.59950 3.08687
# Velocity P-wave (km/s) = 5.24843 6.20170 5.74487
#
# Compressibility (1/GPa) = 0.02652743
#
# Stress axis : x y z
#
# Youngs Moduli (GPa) = 77.10744 85.57195 42.82226
#
# Poissons Ratio (x) = 0.19124 0.24040
# Poissons Ratio (y) = 0.17233 0.12380
# Poissons Ratio (z) = 0.43288 0.24740
#
# Static dielectric constant tensor:
#      x y z
#    x 1.663680 0.000000 0.013610 
#    y 0.000000 1.723440 0.000000 
#    z 0.013610 0.000000 1.674210 
# 
# From -- ./inp_files/209411.got.cif
#   From: 2010.05.17/outbox.cif.g08.bks.cpg/sg12_105_cif.got.tgz:209411.got - 2010.06.03 13:09:07.
