data_PCOD9212837
_publ_section_title
;
Structure prediction by ZEFSAII (Michael W. Deem and Ramdas Pophale) SiO2 
 PCOD9212837
Probable space group: C 2/M
;
_chemical_formula_sum "Si O2"
_cell_formula_units_Z 28
_cell_length_a 12.434374
_cell_length_b 19.942832
_cell_length_c 5.367689
_cell_angle_alpha 90.000000
_cell_angle_beta 124.207046
_cell_angle_gamma 90.000000
_cell_volume 1100.803044
_symmetry_space_group_name_H-M "C 2/M"
_symmetry_group_IT_number 12
_symmetry_cell_setting 'monoclinic'
loop_
_space_group_symop_operation_xyz
x,y,z
-x,y,-z
-x,-y,-z
x,-y,z
1/2+x,1/2+y,z
1/2-x,1/2+y,-z
1/2-x,1/2-y,-z
1/2+x,1/2-y,z
loop_
_atom_site_type_symbol
_atom_site_label
_atom_site_fract_x
_atom_site_fract_y
_atom_site_fract_z
Si Si1 0.500000 0.249651 0.000000
Si Si2 0.638791 0.500000 0.475073
Si Si3 0.200183 0.500000 0.803426
Si Si4 0.112104 0.146485 0.457957
Si Si5 0.397084 0.876733 0.058435
O O1 0.611293 0.300754 0.232543
O O2 0.541718 0.197370 0.838950
O O3 0.748980 0.500000 0.408510
O O4 0.569035 0.570435 0.338875
O O5 0.694638 0.500000 0.830261
O O6 0.128414 0.429540 0.758327
O O7 0.255887 0.138368 0.754350
O O8 0.000000 0.170263 0.500000
O O9 0.500000 0.909769 0.000000
#
# Coordination Sequence:
#
# PCOD9212837 Si02
#       5
#     4   4   4   8   8
#     4  10  24  42  72  96 146 178 232 282 352 424
#     4  10  25  43  76 101 141 181 240 293 346 414
#     4  10  21  48  73 103 137 185 237 294 344 412
#     4  11  24  44  68 104 136 183 232 287 351 413
#     4   9  22  45  69 102 139 178 237 283 350 412
#
# _framework density 25.435974999999999
#
# number of rings (size 3 to 8) (size 9 to 14) (size 15 to 20)
#    0.857    1.143    0.000    1.714    8.000    1.714 
#   10.286   11.429    0.000    0.000    0.000    0.000 
#    0.000    0.000    0.000    0.000    0.000    0.000 
#
# Total GULP energy -78137.824205 kJ/mol
# GULP energy per Si atom -5581.273157 kJ/mol
# Density = 2.537808 g / cm^3
# Si number density = 25.435975 Si / 1000 Ang^3
#
#
#
# Elastic Constant Matrix: (Units=GPa)
#
#
# Indices 1 2 3 4 5 6 
#
# 1 129.0865 14.1387 27.7340 0.0000 -1.1850 0.0000
# 2 14.1387 215.6012 18.4056 0.0000 -7.5246 0.0000
# 3 27.7340 18.4056 87.7501 0.0000 18.3205 0.0000
# 4 0.0000 0.0000 0.0000 26.6597 0.0000 -51.5419
# 5 -1.1850 -7.5246 18.3205 0.0000 25.5889 0.0000
# 6 0.0000 0.0000 0.0000 -51.5419 0.0000 84.3446
#
#
#
# Elastic Compliance Matrix: (Units=1/GPa)
#
#
# Indices 1 2 3 4 5 6 
#
# 1 0.008476 -0.000193 -0.003185 0.000000 0.002616 0.000000
# 2 -0.000193 0.004863 -0.001477 0.000000 0.002478 0.000000
# 3 -0.003185 -0.001477 0.015089 0.000000 -0.011385 0.000000
# 4 0.000000 0.000000 0.000000 -0.206746 0.000000 -0.126340
# 5 0.002616 0.002478 -0.011385 0.000000 0.048080 0.000000
# 6 0.000000 0.000000 0.000000 -0.126340 0.000000 -0.065348
#
#
# Mechanical properties :
#
#
# Convention : Reuss Voigt Hill
#
# Bulk Modulus (GPa) = 53.41682 61.44383 57.43033
# Shear Modulus (GPa) = -27.83386 52.12929 12.14772
#
# Velocity S-wave (km/s) = -3.31157 4.53198 2.18773
# Velocity P-wave (km/s) = 2.53459 7.18288 5.38600
#
# Compressibility (1/GPa) = 0.01872070
#
# Stress axis : x y z
#
# Youngs Moduli (GPa) = 117.97904 205.61812 66.27254
#
# Poissons Ratio (x) = 0.03962 0.21106
# Poissons Ratio (y) = 0.02273 0.09786
# Poissons Ratio (z) = 0.37572 0.30362
#
# Static dielectric constant tensor:
#      x y z
#    x 2.055070 0.000000 0.029800 
#    y 0.000000 1.975370 0.000000 
#    z 0.029800 0.000000 2.074430 
# 
# From -- ./inp_files/10594.got.cif
#   From: 2010.05.17/outbox.cif.g08.bks.cpg/sg12_6_cif.got.tgz:10594.got - 2010.06.03 13:09:07.
