data_PCOD9212601
_publ_section_title
;
Structure prediction by ZEFSAII (Michael W. Deem and Ramdas Pophale) SiO2 
 PCOD9212601
Probable space group: C 2/M
;
_chemical_formula_sum "Si O2"
_cell_formula_units_Z 48
_cell_length_a 14.462278
_cell_length_b 29.322287
_cell_length_c 5.069171
_cell_angle_alpha 90.000000
_cell_angle_beta 112.799885
_cell_angle_gamma 90.000000
_cell_volume 1981.701826
_symmetry_space_group_name_H-M "C 2/M"
_symmetry_group_IT_number 12
_symmetry_cell_setting 'monoclinic'
loop_
_space_group_symop_operation_xyz
x,y,z
-x,y,-z
-x,-y,-z
x,-y,z
1/2+x,1/2+y,z
1/2-x,1/2+y,-z
1/2-x,1/2-y,-z
1/2+x,1/2-y,z
loop_
_atom_site_type_symbol
_atom_site_label
_atom_site_fract_x
_atom_site_fract_y
_atom_site_fract_z
Si Si1 0.600893 0.861155 0.779431
Si Si2 0.566999 0.364207 0.316288
Si Si3 0.255433 0.688970 0.653911
Si Si4 0.812486 0.050885 0.763498
Si Si5 0.113203 0.265102 0.095191
Si Si6 0.821759 0.551041 0.882697
O O1 0.500000 0.864663 0.500000
O O2 0.701668 0.854804 0.718338
O O3 0.611275 0.905169 0.975426
O O4 0.603612 0.812108 0.925006
O O5 0.500000 0.368489 0.500000
O O6 0.661805 0.330404 0.456922
O O7 0.611793 0.411615 0.259322
O O8 0.500000 0.347269 0.000000
O O9 0.167329 0.718180 0.423055
O O10 0.317805 0.722535 0.913862
O O11 0.772411 0.055514 0.018315
O O12 0.855794 0.000000 0.785696
O O13 0.717499 0.052469 0.458663
O O14 0.000000 0.249580 0.000000
O O15 0.865005 0.500000 0.979490
#
# Coordination Sequence:
#
# PCOD9212601 Si02
#       6
#     8   8   8   8   8   8
#     4  12  24  42  73 101 138 184 237 285 356 422
#     4  12  26  43  68 104 138 186 239 287 356 420
#     4  11  25  46  67  97 140 183 222 303 345 415
#     4  10  21  42  68  97 139 186 232 288 354 416
#     4  11  24  46  69 100 134 181 240 281 359 418
#     4  10  22  41  71 103 141 186 230 288 356 416
#
# _framework density 24.221606000000001
#
# number of rings (size 3 to 8) (size 9 to 14) (size 15 to 20)
#    0.000    1.000    3.333    3.000    2.333    1.000 
#    6.000    0.000    0.000    3.500    0.000    0.000 
#    0.000    0.000    0.000    0.000    0.000    0.000 
#
# Total GULP energy -134237.102690 kJ/mol
# GULP energy per Si atom -5593.212612 kJ/mol
# Density = 2.416648 g / cm^3
# Si number density = 24.221606 Si / 1000 Ang^3
#
#
#
# Elastic Constant Matrix: (Units=GPa)
#
#
# Indices 1 2 3 4 5 6 
#
# 1 97.5529 29.0455 18.6042 0.0000 10.4876 0.0000
# 2 29.0455 153.7870 10.3397 0.0000 17.1808 0.0000
# 3 18.6042 10.3397 65.9681 0.0000 15.0916 0.0000
# 4 0.0000 0.0000 0.0000 36.1420 0.0000 -5.9085
# 5 10.4876 17.1808 15.0916 0.0000 40.9061 0.0000
# 6 0.0000 0.0000 0.0000 -5.9085 0.0000 77.1791
#
#
#
# Elastic Compliance Matrix: (Units=1/GPa)
#
#
# Indices 1 2 3 4 5 6 
#
# 1 0.011436 -0.001850 -0.002667 0.000000 -0.001171 0.000000
# 2 -0.001850 0.007134 -0.000021 0.000000 -0.002514 0.000000
# 3 -0.002667 -0.000021 0.017208 0.000000 -0.005656 0.000000
# 4 0.000000 0.000000 0.000000 0.028019 0.000000 0.002145
# 5 -0.001171 -0.002514 -0.005656 0.000000 0.027889 0.000000
# 6 0.000000 0.000000 0.000000 0.002145 0.000000 0.013121
#
#
# Mechanical properties :
#
#
# Convention : Reuss Voigt Hill
#
# Bulk Modulus (GPa) = 37.45074 48.14297 42.79685
# Shear Modulus (GPa) = 40.72133 48.13335 44.42734
#
# Velocity S-wave (km/s) = 4.10469 4.46265 4.28741
# Velocity P-wave (km/s) = 6.16116 6.81710 6.49741
#
# Compressibility (1/GPa) = 0.02670175
#
# Stress axis : x y z
#
# Youngs Moduli (GPa) = 87.44175 140.17007 58.11135
#
# Poissons Ratio (x) = 0.25928 0.15501
# Poissons Ratio (y) = 0.16175 0.00124
# Poissons Ratio (z) = 0.23324 0.00299
#
# Static dielectric constant tensor:
#      x y z
#    x 1.907060 0.000000 -0.118890 
#    y 0.000000 1.957130 0.000000 
#    z -0.118890 0.000000 1.848260 
# 
# From -- ./inp_files/13232.got.cif
#   From: 2010.05.17/outbox.cif.g08.bks.cpg/sg12_7_cif.got.tgz:13232.got - 2010.06.03 13:09:07.
