data_PCOD9212855
_publ_section_title
;
Structure prediction by ZEFSAII (Michael W. Deem and Ramdas Pophale) SiO2 
 PCOD9212855
Probable space group: C 2/M
;
_chemical_formula_sum "Si O2"
_cell_formula_units_Z 52
_cell_length_a 8.963472
_cell_length_b 18.188809
_cell_length_c 18.697506
_cell_angle_alpha 90.000000
_cell_angle_beta 90.672674
_cell_angle_gamma 90.000000
_cell_volume 3048.135566
_symmetry_space_group_name_H-M "C 2/M"
_symmetry_group_IT_number 12
_symmetry_cell_setting 'monoclinic'
loop_
_space_group_symop_operation_xyz
x,y,z
-x,y,-z
-x,-y,-z
x,-y,z
1/2+x,1/2+y,z
1/2-x,1/2+y,-z
1/2-x,1/2-y,-z
1/2+x,1/2-y,z
loop_
_atom_site_type_symbol
_atom_site_label
_atom_site_fract_x
_atom_site_fract_y
_atom_site_fract_z
Si Si1 0.452102 0.805047 0.183062
Si Si2 0.339086 0.303984 0.724985
Si Si3 0.104960 0.086126 0.707766
Si Si4 0.746756 0.303421 0.599800
Si Si5 0.000000 0.731040 0.500000
Si Si6 0.704397 0.913904 0.145407
Si Si7 0.138101 0.202884 0.951124
O O1 0.558286 0.756256 0.234479
O O2 0.300594 0.821375 0.224908
O O3 0.545749 0.876449 0.161569
O O4 0.415883 0.755285 0.113884
O O5 0.446189 0.372803 0.711225
O O6 0.280581 0.265237 0.652678
O O7 0.201148 0.128510 0.648732
O O8 0.190837 0.094835 0.783840
O O9 0.089791 0.000000 0.692743
O O10 0.892268 0.314500 0.551749
O O11 0.609407 0.280799 0.548525
O O12 0.779816 0.866596 0.083196
O O13 0.691754 0.000000 0.129183
O O14 0.250000 0.250000 0.000000
O O15 0.000000 0.180810 0.000000
#
# Coordination Sequence:
#
# PCOD9212855 Si02
#       7
#     8   8   8   8   4   8   8
#     4  12  20  37  62  91 111 153 205 250 285 344
#     4  12  19  36  67  87 113 153 207 245 283 345
#     4  11  23  39  61  91 123 151 192 256 307 334
#     4  11  19  37  59  91 114 157 195 244 282 352
#     4  10  22  32  62  90 118 150 208 232 278 350
#     4  11  24  41  60  90 122 151 195 256 303 338
#     4  12  22  37  62  87 114 158 200 237 291 363
#
# _framework density 17.059608000000001
#
# number of rings (size 3 to 8) (size 9 to 14) (size 15 to 20)
#    0.000    0.615    9.231    0.000    0.000    0.923 
#    0.000    2.308    0.000    0.000    0.000    0.000 
#    0.000    0.000    0.000    0.000    0.000    0.000 
#
# Total GULP energy -145251.874547 kJ/mol
# GULP energy per Si atom -5586.610560 kJ/mol
# Density = 1.702078 g / cm^3
# Si number density = 17.059608 Si / 1000 Ang^3
#
#
#
# Elastic Constant Matrix: (Units=GPa)
#
#
# Indices 1 2 3 4 5 6 
#
# 1 131.3445 68.1229 54.5803 0.0000 -37.8564 0.0000
# 2 68.1229 143.5105 55.4900 0.0000 -23.1189 0.0000
# 3 54.5803 55.4900 96.2421 0.0000 -21.9836 0.0000
# 4 0.0000 0.0000 0.0000 13.5247 0.0000 -3.2192
# 5 -37.8564 -23.1189 -21.9836 0.0000 51.3457 0.0000
# 6 0.0000 0.0000 0.0000 -3.2192 0.0000 28.9224
#
#
#
# Elastic Compliance Matrix: (Units=1/GPa)
#
#
# Indices 1 2 3 4 5 6 
#
# 1 0.012868 -0.003646 -0.003772 0.000000 0.006231 0.000000
# 2 -0.003646 0.010194 -0.003741 0.000000 0.000300 0.000000
# 3 -0.003772 -0.003741 0.015148 0.000000 0.002020 0.000000
# 4 0.000000 0.000000 0.000000 0.075951 0.000000 0.008454
# 5 0.006231 0.000300 0.002020 0.000000 0.025069 0.000000
# 6 0.000000 0.000000 0.000000 0.008454 0.000000 0.035516
#
#
# Mechanical properties :
#
#
# Convention : Reuss Voigt Hill
#
# Bulk Modulus (GPa) = 62.92839 80.83149 71.87994
# Shear Modulus (GPa) = 24.70818 31.61883 28.16351
#
# Velocity S-wave (km/s) = 3.80984 4.30982 4.06752
# Velocity P-wave (km/s) = 7.50471 8.50004 8.01783
#
# Compressibility (1/GPa) = 0.01589108
#
# Stress axis : x y z
#
# Youngs Moduli (GPa) = 77.71249 98.09967 66.01452
#
# Poissons Ratio (x) = 0.35767 0.24902
# Poissons Ratio (y) = 0.28334 0.24697
# Poissons Ratio (z) = 0.29315 0.36701
#
# Static dielectric constant tensor:
#      x y z
#    x 1.584720 0.000000 -0.005510 
#    y 0.000000 1.539270 0.000000 
#    z -0.005510 0.000000 1.589190 
# 
# From -- ./inp_files/256617.got.cif
#   From: 2010.05.17/outbox.cif.g08.bks.cpg/sg12_129_cif.got.tgz:256617.got - 2010.06.03 13:09:07.
