data_PCOD9212925
_publ_section_title
;
Structure prediction by ZEFSAII (Michael W. Deem and Ramdas Pophale) SiO2 
 PCOD9212925
Probable space group: C 2/M
;
_chemical_formula_sum "Si O2"
_cell_formula_units_Z 64
_cell_length_a 9.813640
_cell_length_b 24.589641
_cell_length_c 31.600270
_cell_angle_alpha 90.000000
_cell_angle_beta 150.921664
_cell_angle_gamma 90.000000
_cell_volume 3706.071641
_symmetry_space_group_name_H-M "C 2/M"
_symmetry_group_IT_number 12
_symmetry_cell_setting 'monoclinic'
loop_
_space_group_symop_operation_xyz
x,y,z
-x,y,-z
-x,-y,-z
x,-y,z
1/2+x,1/2+y,z
1/2-x,1/2+y,-z
1/2-x,1/2-y,-z
1/2+x,1/2-y,z
loop_
_atom_site_type_symbol
_atom_site_label
_atom_site_fract_x
_atom_site_fract_y
_atom_site_fract_z
Si Si1 0.337851 0.937338 0.911630
Si Si2 0.676492 0.157565 0.214188
Si Si3 0.331832 0.182924 0.689444
Si Si4 0.799062 0.255603 0.063084
Si Si5 0.664218 0.694402 0.500484
Si Si6 0.171716 0.435509 0.916402
Si Si7 0.080237 0.840577 0.188292
Si Si8 0.706893 0.690151 0.316007
O O1 0.547813 0.923920 0.929757
O O2 0.080850 0.895932 0.844958
O O3 0.247442 0.000000 0.881191
O O4 0.500000 0.933734 0.000000
O O5 0.679725 0.177000 0.263329
O O6 0.525047 0.201049 0.141667
O O7 0.507591 0.101843 0.163406
O O8 0.993099 0.153109 0.283772
O O9 0.613481 0.154831 0.749259
O O10 0.340710 0.247705 0.681340
O O11 0.051112 0.163668 0.589057
O O12 0.892748 0.197573 0.107337
O O13 0.500000 0.272648 0.000000
O O14 0.750000 0.250000 0.000000
O O15 0.500000 0.703999 0.500000
O O16 0.750000 0.750000 0.500000
O O17 0.972173 0.670752 0.593215
O O18 0.139883 0.500000 0.900046
O O19 0.500000 0.422367 0.000000
O O20 0.123304 0.810289 0.244368
#
# Coordination Sequence:
#
# PCOD9212925 Si02
#       8
#     8   8   8   8   8   8   8   8
#     4  10  23  40  59  83 109 148 200 243 283 327
#     4  12  23  37  56  84 112 151 195 231 282 337
#     4  11  22  36  55  85 119 149 185 233 279 348
#     4  12  24  35  50  75 116 155 185 222 278 336
#     4  10  22  35  55  82 116 156 187 224 289 340
#     4  10  23  42  60  80 111 150 196 245 283 327
#     4  12  21  37  58  80 114 152 188 240 278 328
#     4  11  20  38  56  81 120 150 186 234 275 347
#
# _framework density 17.268958000000001
#
# number of rings (size 3 to 8) (size 9 to 14) (size 15 to 20)
#    0.000    1.000    5.000    2.250    8.750    0.000 
#    0.000    0.000    0.000    0.000    0.000    5.250 
#    0.000    0.000    0.000    0.000    0.000    0.000 
#
# Total GULP energy -178604.937881 kJ/mol
# GULP energy per Si atom -5581.404309 kJ/mol
# Density = 1.722965 g / cm^3
# Si number density = 17.268958 Si / 1000 Ang^3
#
#
#
# Elastic Constant Matrix: (Units=GPa)
#
#
# Indices 1 2 3 4 5 6 
#
# 1 106.7556 28.0014 58.8312 0.0001 12.5181 0.0004
# 2 28.0014 53.1939 43.6096 0.0031 7.9769 -0.0001
# 3 58.8312 43.6096 119.4318 -0.0006 16.5508 -0.0016
# 4 0.0001 0.0031 -0.0006 14.0790 0.0008 5.9571
# 5 12.5181 7.9769 16.5508 0.0008 40.0991 -0.0007
# 6 0.0004 -0.0001 -0.0016 5.9571 -0.0007 22.1692
#
#
#
# Elastic Compliance Matrix: (Units=1/GPa)
#
#
# Indices 1 2 3 4 5 6 
#
# 1 0.013122 -0.002223 -0.005458 0.000001 -0.001402 -0.000001
# 2 -0.002223 0.027279 -0.008708 -0.000007 -0.001138 0.000001
# 3 -0.005458 -0.008708 0.014600 0.000003 -0.002590 0.000000
# 4 0.000001 -0.000007 0.000003 0.080140 -0.000002 -0.021535
# 5 -0.001402 -0.001138 -0.002590 -0.000002 0.026671 0.000001
# 6 -0.000001 0.000001 0.000000 -0.021535 0.000001 0.050894
#
#
# Mechanical properties :
#
#
# Convention : Reuss Voigt Hill
#
# Bulk Modulus (GPa) = 44.99695 60.02954 52.51324
# Shear Modulus (GPa) = 19.77122 25.19872 22.48497
#
# Velocity S-wave (km/s) = 3.38731 3.82408 3.61230
# Velocity P-wave (km/s) = 6.43518 7.37124 6.91906
#
# Compressibility (1/GPa) = 0.02222373
#
# Stress axis : x y z
#
# Youngs Moduli (GPa) = 76.20516 36.65818 68.49210
#
# Poissons Ratio (x) = 0.08148 0.37384
# Poissons Ratio (y) = 0.16939 0.59643
# Poissons Ratio (z) = 0.41594 0.31922
#
# Static dielectric constant tensor:
#      x y z
#    x 1.599130 0.000000 0.006260 
#    y 0.000000 1.590650 0.000000 
#    z 0.006260 0.000000 1.616460 
# 
# From -- ./inp_files/373282.got.cif
#   From: 2010.05.17/outbox.cif.g08.bks.cpg/sg12_187_cif.got.tgz:373282.got - 2010.06.03 13:09:07.
