data_PCOD9212330
_publ_section_title
;
Structure prediction by ZEFSAII (Michael W. Deem and Ramdas Pophale) SiO2 
 PCOD9212330
Probable space group: C 2/M
;
_chemical_formula_sum "Si O2"
_cell_formula_units_Z 52
_cell_length_a 19.424902
_cell_length_b 12.129208
_cell_length_c 12.130180
_cell_angle_alpha 90.000000
_cell_angle_beta 121.961712
_cell_angle_gamma 90.000000
_cell_volume 2424.712339
_symmetry_space_group_name_H-M "C 2/M"
_symmetry_group_IT_number 12
_symmetry_cell_setting 'monoclinic'
loop_
_space_group_symop_operation_xyz
x,y,z
-x,y,-z
-x,-y,-z
x,-y,z
1/2+x,1/2+y,z
1/2-x,1/2+y,-z
1/2-x,1/2-y,-z
1/2+x,1/2-y,z
loop_
_atom_site_type_symbol
_atom_site_label
_atom_site_fract_x
_atom_site_fract_y
_atom_site_fract_z
Si Si1 0.072613 0.500000 0.307008
Si Si2 0.187937 0.125578 0.330100
Si Si3 0.116508 0.262886 0.840630
Si Si4 0.183467 0.218836 0.665396
Si Si5 0.416537 0.625109 0.978605
Si Si6 0.933375 0.256685 0.610602
Si Si7 0.603020 0.000000 0.931205
Si Si8 0.709644 0.000000 0.244800
O O1 0.070812 0.388910 0.376853
O O2 0.151907 0.500000 0.300684
O O3 0.995566 0.500000 0.157074
O O4 0.269086 0.191126 0.368487
O O5 0.129478 0.194443 0.361029
O O6 0.200999 0.000000 0.380961
O O7 0.142219 0.120080 0.174690
O O8 0.174489 0.244613 0.786478
O O9 0.124798 0.190626 0.957706
O O10 0.124435 0.389265 0.883931
O O11 0.025382 0.232166 0.723311
O O12 0.095340 0.217716 0.533657
O O13 0.233867 0.106887 0.702193
O O14 0.436348 0.500000 0.032729
O O15 0.500000 0.676299 0.000000
O O16 0.650867 0.000000 0.087320
#
# Coordination Sequence:
#
# PCOD9212330 Si02
#       8
#     4   8   8   8   8   8   4   4
#     4  10  23  43  72 100 124 184 232 279 327 385
#     4  11  24  41  70  99 130 179 220 279 333 393
#     4  11  25  45  69  98 134 180 223 278 335 396
#     4  12  28  43  64 101 141 179 216 275 341 405
#     4  10  21  41  67  96 127 168 224 269 327 397
#     4  11  24  45  69  95 134 181 231 271 322 407
#     4  10  25  43  72  96 133 176 230 284 330 400
#     4  12  25  44  67 104 138 172 223 284 350 385
#
# _framework density 21.445843
#
# number of rings (size 3 to 8) (size 9 to 14) (size 15 to 20)
#    0.000    1.077    3.077    2.077    4.308    2.462 
#    0.000    3.077    0.000    0.000    0.000    0.000 
#    0.000    0.000    0.000    0.000    0.000    0.000 
#
# Total GULP energy -145351.578697 kJ/mol
# GULP energy per Si atom -5590.445334 kJ/mol
# Density = 2.139703 g / cm^3
# Si number density = 21.445843 Si / 1000 Ang^3
#
#
#
# Elastic Constant Matrix: (Units=GPa)
#
#
# Indices 1 2 3 4 5 6 
#
# 1 53.5752 30.2890 1.4698 0.0000 -5.6041 0.0000
# 2 30.2890 115.6439 23.6750 0.0000 -8.2165 0.0000
# 3 1.4698 23.6750 101.8732 0.0000 7.2479 0.0000
# 4 0.0000 0.0000 0.0000 49.9462 0.0000 54.6266
# 5 -5.6041 -8.2165 7.2479 0.0000 38.1359 0.0000
# 6 0.0000 0.0000 0.0000 54.6266 0.0000 59.1166
#
#
#
# Elastic Compliance Matrix: (Units=1/GPa)
#
#
# Indices 1 2 3 4 5 6 
#
# 1 0.022142 -0.005857 0.000912 0.000000 0.001818 0.000000
# 2 -0.005857 0.010848 -0.002577 0.000000 0.001966 0.000000
# 3 0.000912 -0.002577 0.010575 0.000000 -0.002431 0.000000
# 4 0.000000 0.000000 0.000000 -1.881623 0.000000 1.738711
# 5 0.001818 0.001966 -0.002431 0.000000 0.027375 0.000000
# 6 0.000000 0.000000 0.000000 1.738711 0.000000 -1.589737
#
#
# Mechanical properties :
#
#
# Convention : Reuss Voigt Hill
#
# Bulk Modulus (GPa) = 35.05985 42.43999 38.74992
# Shear Modulus (GPa) = -1.48110 43.81697 21.16794
#
# Velocity S-wave (km/s) = -0.83194 4.52502 3.14513
# Velocity P-wave (km/s) = 3.93202 6.86538 5.59438
#
# Compressibility (1/GPa) = 0.02852265
#
# Stress axis : x y z
#
# Youngs Moduli (GPa) = 45.16360 92.17936 94.56544
#
# Poissons Ratio (x) = 0.53988 -0.08627
# Poissons Ratio (y) = 0.26452 0.24365
# Poissons Ratio (z) = -0.04120 0.23750
#
# Static dielectric constant tensor:
#      x y z
#    x 1.792720 0.000000 0.043130 
#    y 0.000000 1.757660 0.000000 
#    z 0.043130 0.000000 1.786010 
# 
# From -- ./inp_files/165802.got.cif
#   From: 2010.05.17/outbox.cif.g08.bks.cpg/sg12_83_cif.got.tgz:165802.got - 2010.06.03 13:09:07.
