data_PCOD9212788
_publ_section_title
;
Structure prediction by ZEFSAII (Michael W. Deem and Ramdas Pophale) SiO2 
 PCOD9212788
Probable space group: C 2/M
;
_chemical_formula_sum "Si O2"
_cell_formula_units_Z 34
_cell_length_a 14.270017
_cell_length_b 8.527768
_cell_length_c 15.089263
_cell_angle_alpha 90.000000
_cell_angle_beta 48.884332
_cell_angle_gamma 90.000000
_cell_volume 1383.388169
_symmetry_space_group_name_H-M "C 2/M"
_symmetry_group_IT_number 12
_symmetry_cell_setting 'monoclinic'
loop_
_space_group_symop_operation_xyz
x,y,z
-x,y,-z
-x,-y,-z
x,-y,z
1/2+x,1/2+y,z
1/2-x,1/2+y,-z
1/2-x,1/2-y,-z
1/2+x,1/2-y,z
loop_
_atom_site_type_symbol
_atom_site_label
_atom_site_fract_x
_atom_site_fract_y
_atom_site_fract_z
Si Si1 0.212082 0.818888 0.207476
Si Si2 0.916107 0.817360 0.963488
Si Si3 0.500000 0.000000 0.500000
Si Si4 0.978391 0.678853 0.280281
Si Si5 0.754260 0.670610 0.625810
O O1 0.285566 0.753878 0.076935
O O2 0.066427 0.790763 0.282331
O O3 0.252457 0.719050 0.267064
O O4 0.241149 0.000000 0.203590
O O5 0.902986 0.000000 0.944747
O O6 0.979287 0.717272 0.846746
O O7 0.000000 0.811683 0.000000
O O8 0.599773 0.865583 0.474511
O O9 0.009873 0.500000 0.284587
O O10 0.830745 0.708549 0.374587
O O11 0.691532 0.500000 0.652811
#
# Coordination Sequence:
#
# PCOD9212788 Si02
#       5
#     8   8   2   8   8
#     4  12  24  39  64  96 134 172 214 259 310 382
#     4  11  22  37  60  94 133 181 213 253 308 372
#     4   8  24  44  78  86 128 154 206 288 336 378
#     4  12  24  39  64  96 134 172 214 259 310 382
#     4  10  21  44  68  92 121 163 206 265 334 375
#
# _framework density 24.577338000000001
#
# number of rings (size 3 to 8) (size 9 to 14) (size 15 to 20)
#    0.706    0.235    2.353    6.353    0.000    0.941 
#    0.000    3.529    0.000    0.000    0.000    0.000 
#    0.000    0.000    0.000    0.000    0.000    0.000 
#
# Total GULP energy -94878.679535 kJ/mol
# GULP energy per Si atom -5581.098796 kJ/mol
# Density = 2.452140 g / cm^3
# Si number density = 24.577338 Si / 1000 Ang^3
#
#
#
# Elastic Constant Matrix: (Units=GPa)
#
#
# Indices 1 2 3 4 5 6 
#
# 1 85.3090 -25.4536 -2.4850 0.0000 -32.3444 0.0000
# 2 -25.4536 92.0590 5.3823 0.0000 -5.5112 0.0000
# 3 -2.4850 5.3823 100.6667 0.0000 -14.7490 0.0000
# 4 0.0000 0.0000 0.0000 25.6543 0.0000 -8.8559
# 5 -32.3444 -5.5112 -14.7490 0.0000 40.0942 0.0000
# 6 0.0000 0.0000 0.0000 -8.8559 0.0000 41.5207
#
#
#
# Elastic Compliance Matrix: (Units=1/GPa)
#
#
# Indices 1 2 3 4 5 6 
#
# 1 0.021022 0.006776 0.002936 0.000000 0.018970 0.000000
# 2 0.006776 0.013151 0.000560 0.000000 0.007480 0.000000
# 3 0.002936 0.000560 0.010923 0.000000 0.006464 0.000000
# 4 0.000000 0.000000 0.000000 0.042078 0.000000 0.008975
# 5 0.018970 0.007480 0.006464 0.000000 0.043650 0.000000
# 6 0.000000 0.000000 0.000000 0.008975 0.000000 0.025999
#
#
# Mechanical properties :
#
#
# Convention : Reuss Voigt Hill
#
# Bulk Modulus (GPa) = 15.23435 25.88025 20.55730
# Shear Modulus (GPa) = 31.61376 41.49323 36.55349
#
# Velocity S-wave (km/s) = 3.59039 4.11332 3.86072
# Velocity P-wave (km/s) = 4.83734 5.75432 5.31564
#
# Compressibility (1/GPa) = 0.06564113
#
# Stress axis : x y z
#
# Youngs Moduli (GPa) = 47.56970 76.03833 91.54732
#
# Poissons Ratio (x) = -0.51526 -0.26878
# Poissons Ratio (y) = -0.32235 -0.05127
# Poissons Ratio (z) = -0.13966 -0.04259
#
# Static dielectric constant tensor:
#      x y z
#    x 1.952160 0.000000 -0.011320 
#    y 0.000000 1.858010 0.000000 
#    z -0.011320 0.000000 2.086270 
# 
# From -- ./inp_files/210966.got.cif
#   From: 2010.05.17/outbox.cif.g08.bks.cpg/sg12_106_cif.got.tgz:210966.got - 2010.06.03 13:09:07.
