data_PCOD9212672
_publ_section_title
;
Structure prediction by ZEFSAII (Michael W. Deem and Ramdas Pophale) SiO2 
 PCOD9212672
Probable space group: C 2/M
;
_chemical_formula_sum "Si O2"
_cell_formula_units_Z 36
_cell_length_a 9.249169
_cell_length_b 29.530978
_cell_length_c 7.731052
_cell_angle_alpha 90.000000
_cell_angle_beta 49.474183
_cell_angle_gamma 90.000000
_cell_volume 1605.082811
_symmetry_space_group_name_H-M "C 2/M"
_symmetry_group_IT_number 12
_symmetry_cell_setting 'monoclinic'
loop_
_space_group_symop_operation_xyz
x,y,z
-x,y,-z
-x,-y,-z
x,-y,z
1/2+x,1/2+y,z
1/2-x,1/2+y,-z
1/2-x,1/2-y,-z
1/2+x,1/2-y,z
loop_
_atom_site_type_symbol
_atom_site_label
_atom_site_fract_x
_atom_site_fract_y
_atom_site_fract_z
Si Si1 0.818130 0.949421 0.013944
Si Si2 0.162255 0.855499 0.167521
Si Si3 0.000000 0.591420 0.500000
Si Si4 0.574281 0.215969 0.135246
Si Si5 0.748018 0.165695 0.500811
O O1 0.627804 0.938297 0.270596
O O2 0.807597 0.000000 0.947749
O O3 0.847641 0.908709 0.856433
O O4 0.000000 0.947681 0.000000
O O5 0.217751 0.845098 0.322203
O O6 0.964751 0.831118 0.268702
O O7 0.327117 0.833375 0.925375
O O8 0.148212 0.623715 0.485636
O O9 0.390277 0.209583 0.400922
O O10 0.500000 0.221915 0.000000
O O11 0.750000 0.250000 0.000000
#
# Coordination Sequence:
#
# PCOD9212672 Si02
#       5
#     8   8   4   8   8
#     4  11  23  39  62  95 128 165 210 263 312 367
#     4  10  21  43  62  85 130 168 204 253 314 374
#     4  12  21  38  64  94 120 162 212 262 309 366
#     4  10  22  39  63  91 124 158 207 256 308 373
#     4  10  22  38  64  90 121 166 205 251 312 371
#
# _framework density 22.428747000000001
#
# number of rings (size 3 to 8) (size 9 to 14) (size 15 to 20)
#    0.000    1.556    4.444    0.333    0.000    3.556 
#    0.000    7.778    0.000    0.000    0.000    0.000 
#    0.000    0.000    0.000    0.000    0.000    0.000 
#
# Total GULP energy -100498.813935 kJ/mol
# GULP energy per Si atom -5583.267441 kJ/mol
# Density = 2.237770 g / cm^3
# Si number density = 22.428747 Si / 1000 Ang^3
#
#
#
# Elastic Constant Matrix: (Units=GPa)
#
#
# Indices 1 2 3 4 5 6 
#
# 1 105.9005 38.4942 24.0894 0.0000 -32.6011 0.0000
# 2 38.4942 108.1099 12.1485 0.0000 -14.7021 0.0000
# 3 24.0894 12.1485 70.5026 0.0000 -26.7429 0.0000
# 4 0.0000 0.0000 0.0000 25.5618 0.0000 -10.5692
# 5 -32.6011 -14.7021 -26.7429 0.0000 24.8578 0.0000
# 6 0.0000 0.0000 0.0000 -10.5692 0.0000 17.7916
#
#
#
# Elastic Compliance Matrix: (Units=1/GPa)
#
#
# Indices 1 2 3 4 5 6 
#
# 1 0.017577 -0.003237 0.004342 0.000000 0.025809 0.000000
# 2 -0.003237 0.010688 0.000088 0.000000 0.002171 0.000000
# 3 0.004342 0.000088 0.025113 0.000000 0.032764 0.000000
# 4 0.000000 0.000000 0.000000 0.051859 0.000000 0.030807
# 5 0.025809 0.002171 0.032764 0.000000 0.110610 0.000000
# 6 0.000000 0.000000 0.000000 0.030807 0.000000 0.074508
#
#
# Mechanical properties :
#
#
# Convention : Reuss Voigt Hill
#
# Bulk Modulus (GPa) = 17.93295 48.21969 33.07632
# Shear Modulus (GPa) = 16.31025 27.62761 21.96893
#
# Velocity S-wave (km/s) = 2.69960 3.51350 3.13309
# Velocity P-wave (km/s) = 4.21070 6.16484 5.27898
#
# Compressibility (1/GPa) = 0.05576327
#
# Stress axis : x y z
#
# Youngs Moduli (GPa) = 56.89304 93.56609 39.81984
#
# Poissons Ratio (x) = 0.30283 -0.17289
# Poissons Ratio (y) = 0.18414 -0.00349
# Poissons Ratio (z) = -0.24702 -0.00820
#
# Static dielectric constant tensor:
#      x y z
#    x 1.820860 0.000000 -0.031530 
#    y 0.000000 1.852130 0.000000 
#    z -0.031530 0.000000 1.882790 
# 
# From -- ./inp_files/41346.got.cif
#   From: 2010.05.17/outbox.cif.g08.bks.cpg/sg12_21_cif.got.tgz:41346.got - 2010.06.03 13:09:07.
