data_PCOD9212833
_publ_section_title
;
Structure prediction by ZEFSAII (Michael W. Deem and Ramdas Pophale) SiO2 
 PCOD9212833
Probable space group: C 2/M
;
_chemical_formula_sum "Si O2"
_cell_formula_units_Z 44
_cell_length_a 22.272686
_cell_length_b 15.346895
_cell_length_c 9.632298
_cell_angle_alpha 90.000000
_cell_angle_beta 147.300053
_cell_angle_gamma 90.000000
_cell_volume 1778.727399
_symmetry_space_group_name_H-M "C 2/M"
_symmetry_group_IT_number 12
_symmetry_cell_setting 'monoclinic'
loop_
_space_group_symop_operation_xyz
x,y,z
-x,y,-z
-x,-y,-z
x,-y,z
1/2+x,1/2+y,z
1/2-x,1/2+y,-z
1/2-x,1/2-y,-z
1/2+x,1/2-y,z
loop_
_atom_site_type_symbol
_atom_site_label
_atom_site_fract_x
_atom_site_fract_y
_atom_site_fract_z
Si Si1 0.611840 0.840593 0.283274
Si Si2 0.590504 0.600551 0.802469
Si Si3 0.803270 0.401390 0.842330
Si Si4 0.425284 0.000000 0.572021
Si Si5 0.902206 0.197458 0.531405
Si Si6 0.156260 0.652253 0.782294
O O1 0.677713 0.872685 0.277362
O O2 0.582762 0.922839 0.322791
O O3 0.650223 0.761777 0.454968
O O4 0.500000 0.804402 0.000000
O O5 0.500000 0.599144 0.500000
O O6 0.601915 0.500000 0.873334
O O7 0.528535 0.665142 0.788993
O O8 0.714736 0.631414 0.006914
O O9 0.847256 0.500000 0.945939
O O10 0.672669 0.389327 0.614726
O O11 0.854920 0.349683 0.072676
O O12 0.408761 0.924095 0.420576
O O13 0.883984 0.257180 0.360289
#
# Coordination Sequence:
#
# PCOD9212833 Si02
#       6
#     8   8   8   4   8   8
#     4  11  26  46  68  96 143 192 240 292 360 428
#     4  11  22  41  72 109 144 183 232 299 364 421
#     4  12  23  44  72 100 139 188 233 293 361 428
#     4  10  21  46  70  99 134 187 233 300 353 420
#     4  11  26  42  71 106 144 184 240 297 362 423
#     4  11  23  44  74 107 143 182 241 303 362 419
#
# _framework density 24.736787
#
# number of rings (size 3 to 8) (size 9 to 14) (size 15 to 20)
#    0.000    0.909    4.545    1.909    2.545    0.000 
#    0.000    3.636    0.000    2.182    0.000    0.000 
#    0.000    0.000    0.000    0.000    0.000    0.000 
#
# Total GULP energy -122548.952780 kJ/mol
# GULP energy per Si atom -5570.406945 kJ/mol
# Density = 2.468048 g / cm^3
# Si number density = 24.736787 Si / 1000 Ang^3
#
#
#
# Elastic Constant Matrix: (Units=GPa)
#
#
# Indices 1 2 3 4 5 6 
#
# 1 132.3524 24.4615 40.0670 0.0000 -21.4979 0.0000
# 2 24.4615 102.4117 -4.1454 0.0000 -23.2231 0.0000
# 3 40.0670 -4.1454 47.5317 0.0000 -12.5797 0.0000
# 4 0.0000 0.0000 0.0000 19.7584 0.0000 18.3767
# 5 -21.4979 -23.2231 -12.5797 0.0000 45.9955 0.0000
# 6 0.0000 0.0000 0.0000 18.3767 0.0000 12.1588
#
#
#
# Elastic Compliance Matrix: (Units=1/GPa)
#
#
# Indices 1 2 3 4 5 6 
#
# 1 0.011058 -0.002727 -0.009223 0.000000 0.001269 0.000000
# 2 -0.002727 0.012012 0.004974 0.000000 0.006151 0.000000
# 3 -0.009223 0.004974 0.031016 0.000000 0.006683 0.000000
# 4 0.000000 0.000000 0.000000 -0.124748 0.000000 0.188544
# 5 0.001269 0.006151 0.006683 0.000000 0.027268 0.000000
# 6 0.000000 0.000000 0.000000 0.188544 0.000000 -0.202719
#
#
# Mechanical properties :
#
#
# Convention : Reuss Voigt Hill
#
# Bulk Modulus (GPa) = 24.91670 44.78466 34.85068
# Shear Modulus (GPa) = -22.85353 30.37671 3.76159
#
# Velocity S-wave (km/s) = -3.04282 3.50808 1.23448
# Velocity P-wave (km/s) = 1.50013 5.87815 4.01885
#
# Compressibility (1/GPa) = 0.04013372
#
# Stress axis : x y z
#
# Youngs Moduli (GPa) = 90.43391 83.25076 32.24157
#
# Poissons Ratio (x) = 0.22701 0.29737
# Poissons Ratio (y) = 0.24659 -0.16037
# Poissons Ratio (z) = 0.83408 -0.41409
#
# Static dielectric constant tensor:
#      x y z
#    x 2.266660 0.000000 -0.007970 
#    y 0.000000 1.925410 0.000000 
#    z -0.007970 0.000000 2.023450 
# 
# From -- ./inp_files/76111.got.cif
#   From: 2010.05.17/outbox.cif.g08.bks.cpg/sg12_39_cif.got.tgz:76111.got - 2010.06.03 13:09:07.
