data_PCOD9212996
_publ_section_title
;
Structure prediction by ZEFSAII (Michael W. Deem and Ramdas Pophale) SiO2 
 PCOD9212996
Probable space group: C 2/M
;
_chemical_formula_sum "Si O2"
_cell_formula_units_Z 52
_cell_length_a 21.737903
_cell_length_b 19.718498
_cell_length_c 9.159066
_cell_angle_alpha 90.000000
_cell_angle_beta 142.016196
_cell_angle_gamma 90.000000
_cell_volume 2416.169893
_symmetry_space_group_name_H-M "C 2/M"
_symmetry_group_IT_number 12
_symmetry_cell_setting 'monoclinic'
loop_
_space_group_symop_operation_xyz
x,y,z
-x,y,-z
-x,-y,-z
x,-y,z
1/2+x,1/2+y,z
1/2-x,1/2+y,-z
1/2-x,1/2-y,-z
1/2+x,1/2-y,z
loop_
_atom_site_type_symbol
_atom_site_label
_atom_site_fract_x
_atom_site_fract_y
_atom_site_fract_z
Si Si1 0.601743 0.618745 0.122007
Si Si2 0.319179 0.893046 0.485237
Si Si3 0.034318 0.810071 0.720594
Si Si4 0.000000 0.618751 0.000000
Si Si5 0.882363 0.420243 0.273793
Si Si6 0.855500 0.681621 0.973995
Si Si7 0.154751 0.768481 0.449206
O O1 0.709739 0.583985 0.333173
O O2 0.618528 0.691298 0.236801
O O3 0.500000 0.588785 0.000000
O O4 0.579589 0.633894 0.912084
O O5 0.335172 0.905848 0.343807
O O6 0.327414 0.811621 0.526603
O O7 0.412224 0.920781 0.752071
O O8 0.110482 0.747059 0.868922
O O9 0.000000 0.834920 0.500000
O O10 0.933902 0.781576 0.605028
O O11 0.057928 0.660772 0.980518
O O12 0.875670 0.500000 0.231708
O O13 0.837897 0.377798 0.057403
O O14 0.000000 0.401198 0.500000
O O15 0.755229 0.698170 0.698953
#
# Coordination Sequence:
#
# PCOD9212996 Si02
#       7
#     8   8   8   4   8   8   8
#     4  10  22  36  54  89 132 160 191 238 302 369
#     4  12  21  37  61  88 124 168 198 243 307 366
#     4  11  22  32  50  86 126 164 196 227 288 374
#     4  12  22  34  61  92 122 164 199 240 304 374
#     4  11  25  44  60  82 120 163 208 260 303 350
#     4  12  22  37  57  87 125 158 198 243 304 364
#     4  11  21  33  56  87 126 160 189 246 304 366
#
# _framework density 21.521666
#
# number of rings (size 3 to 8) (size 9 to 14) (size 15 to 20)
#    0.000    0.769    6.154    2.769    4.308    1.231 
#    0.000    1.538    0.000    0.462    0.000    7.538 
#    0.000    0.000    0.000    0.000    0.000    0.000 
#
# Total GULP energy -145334.684831 kJ/mol
# GULP energy per Si atom -5589.795570 kJ/mol
# Density = 2.147268 g / cm^3
# Si number density = 21.521666 Si / 1000 Ang^3
#
#
#
# Elastic Constant Matrix: (Units=GPa)
#
#
# Indices 1 2 3 4 5 6 
#
# 1 78.1368 6.7640 49.6319 0.0000 8.8556 0.0000
# 2 6.7640 44.3303 29.2389 0.0000 -6.1339 0.0000
# 3 49.6319 29.2389 163.6514 0.0000 3.4718 0.0000
# 4 0.0000 0.0000 0.0000 -8.8037 0.0000 2.5317
# 5 8.8556 -6.1339 3.4718 0.0000 59.1523 0.0000
# 6 0.0000 0.0000 0.0000 2.5317 0.0000 -0.1904
#
#
#
# Elastic Compliance Matrix: (Units=1/GPa)
#
#
# Indices 1 2 3 4 5 6 
#
# 1 0.016125 0.000510 -0.004937 0.000000 -0.002071 0.000000
# 2 0.000510 0.026103 -0.004880 0.000000 0.002917 0.000000
# 3 -0.004937 -0.004880 0.008485 0.000000 -0.000265 0.000000
# 4 0.000000 0.000000 0.000000 0.040217 0.000000 0.534843
# 5 -0.002071 0.002917 -0.000265 0.000000 0.017534 0.000000
# 6 0.000000 0.000000 0.000000 0.534843 0.000000 1.859859
#
#
# Mechanical properties :
#
#
# Convention : Reuss Voigt Hill
#
# Bulk Modulus (GPa) = 31.15543 50.82091 40.98817
# Shear Modulus (GPa) = 2.50296 23.39722 12.95009
#
# Velocity S-wave (km/s) = 1.07959 3.30077 2.45567
# Velocity P-wave (km/s) = 4.00771 6.17996 5.20834
#
# Compressibility (1/GPa) = 0.03209713
#
# Stress axis : x y z
#
# Youngs Moduli (GPa) = 62.01576 38.31050 117.84822
#
# Poissons Ratio (x) = -0.01952 0.58187
# Poissons Ratio (y) = -0.03160 0.57511
# Poissons Ratio (z) = 0.30620 0.18696
#
# Static dielectric constant tensor:
#      x y z
#    x 1.809380 0.000000 0.013080 
#    y 0.000000 1.750370 0.000000 
#    z 0.013080 0.000000 1.810060 
# 
# From -- ./inp_files/90725.got.cif
#   From: 2010.05.17/outbox.cif.g08.bks.cpg/sg12_46_cif.got.tgz:90725.got - 2010.06.03 13:09:07.
