data_PCOD9212150
_publ_section_title
;
Structure prediction by ZEFSAII (Michael W. Deem and Ramdas Pophale) SiO2 
 PCOD9212150
Probable space group: C 2/M
;
_chemical_formula_sum "Si O2"
_cell_formula_units_Z 58
_cell_length_a 8.848779
_cell_length_b 14.158748
_cell_length_c 21.668115
_cell_angle_alpha 90.000000
_cell_angle_beta 94.728145
_cell_angle_gamma 90.000000
_cell_volume 2705.508579
_symmetry_space_group_name_H-M "C 2/M"
_symmetry_group_IT_number 12
_symmetry_cell_setting 'monoclinic'
loop_
_space_group_symop_operation_xyz
x,y,z
-x,y,-z
-x,-y,-z
x,-y,z
1/2+x,1/2+y,z
1/2-x,1/2+y,-z
1/2-x,1/2-y,-z
1/2+x,1/2-y,z
loop_
_atom_site_type_symbol
_atom_site_label
_atom_site_fract_x
_atom_site_fract_y
_atom_site_fract_z
Si Si1 0.779831 0.887015 0.252171
Si Si2 0.242958 0.895061 0.334078
Si Si3 0.097304 0.785893 0.221156
Si Si4 0.873495 0.286023 0.455397
Si Si5 0.084487 0.899050 0.615186
Si Si6 0.937626 0.103967 0.896868
Si Si7 0.000000 0.500000 0.000000
Si Si8 0.729441 0.641033 0.982845
O O1 0.632787 0.825734 0.227769
O O2 0.791077 0.882844 0.327390
O O3 0.930973 0.831064 0.232123
O O4 0.781660 0.000000 0.236180
O O5 0.219386 0.833492 0.271987
O O6 0.326374 0.845084 0.393856
O O7 0.071766 0.905095 0.353043
O O8 0.304005 0.000000 0.323257
O O9 0.124484 0.819975 0.152660
O O10 0.750000 0.250000 0.500000
O O11 0.933276 0.187919 0.429903
O O12 0.000000 0.337879 0.500000
O O13 0.113211 0.000000 0.584859
O O14 0.106905 0.128119 0.924750
O O15 0.934493 0.000000 0.867213
O O16 0.840967 0.100805 0.956036
O O17 0.120607 0.582906 0.025790
O O18 0.750000 0.750000 0.000000
#
# Coordination Sequence:
#
# PCOD9212150 Si02
#       8
#     8   8   8   8   8   8   2   8
#     4  10  22  44  70 100 133 178 225 279 341 410
#     4  10  21  41  64  92 128 172 219 270 339 411
#     4  11  23  42  76  99 136 181 224 282 345 409
#     4  12  23  36  60  91 124 163 214 276 333 400
#     4   9  19  39  65  86 120 166 214 263 330 408
#     4  11  22  45  68  99 144 180 224 287 346 401
#     4  12  20  46  76 102 136 198 220 284 338 390
#     4  11  24  43  70 102 141 182 233 282 338 399
#
# _framework density 21.437743000000001
#
# number of rings (size 3 to 8) (size 9 to 14) (size 15 to 20)
#    0.000    1.379    4.138    3.310    1.931    1.103 
#    0.000    2.069    0.000    0.000    0.000    0.000 
#    0.000    0.000    0.000    0.000    0.000    0.000 
#
# Total GULP energy -161516.419173 kJ/mol
# GULP energy per Si atom -5569.531696 kJ/mol
# Density = 2.138895 g / cm^3
# Si number density = 21.437743 Si / 1000 Ang^3
#
#
#
# Elastic Constant Matrix: (Units=GPa)
#
#
# Indices 1 2 3 4 5 6 
#
# 1 25.9464 23.7265 14.2707 0.0000 15.1350 0.0000
# 2 23.7265 157.7459 26.5457 0.0000 16.6211 0.0000
# 3 14.2707 26.5457 100.5522 0.0000 24.1740 0.0000
# 4 0.0000 0.0000 0.0000 16.2984 0.0000 3.7173
# 5 15.1350 16.6211 24.1740 0.0000 21.6164 0.0000
# 6 0.0000 0.0000 0.0000 3.7173 0.0000 21.3351
#
#
#
# Elastic Compliance Matrix: (Units=1/GPa)
#
#
# Indices 1 2 3 4 5 6 
#
# 1 0.070469 -0.006052 0.003200 0.000000 -0.048265 0.000000
# 2 -0.006052 0.007459 -0.001026 0.000000 -0.000351 0.000000
# 3 0.003200 -0.001026 0.013829 0.000000 -0.016917 0.000000
# 4 0.000000 0.000000 0.000000 0.063895 0.000000 -0.011133
# 5 -0.048265 -0.000351 -0.016917 0.000000 0.099243 0.000000
# 6 0.000000 0.000000 0.000000 -0.011133 0.000000 0.048811
#
#
# Mechanical properties :
#
#
# Convention : Reuss Voigt Hill
#
# Bulk Modulus (GPa) = 11.90460 45.92558 28.91509
# Shear Modulus (GPa) = 14.72917 26.49673 20.61295
#
# Velocity S-wave (km/s) = 2.62404 3.51947 3.10421
# Velocity P-wave (km/s) = 3.84004 6.16319 5.13472
#
# Compressibility (1/GPa) = 0.08400112
#
# Stress axis : x y z
#
# Youngs Moduli (GPa) = 14.19056 134.06241 72.31305
#
# Poissons Ratio (x) = 0.81138 -0.23141
# Poissons Ratio (y) = 0.08588 0.07419
# Poissons Ratio (z) = -0.04541 0.13755
#
# Static dielectric constant tensor:
#      x y z
#    x 1.821010 0.000000 -0.009150 
#    y 0.000000 1.745850 0.000000 
#    z -0.009150 0.000000 1.783340 
# 
# From -- ./inp_files/332659.got.cif
#   From: 2010.05.17/outbox.cif.g08.bks.cpg/sg12_167_cif.got.tgz:332659.got - 2010.06.03 13:09:07.
