data_PCOD9212790
_publ_section_title
;
Structure prediction by ZEFSAII (Michael W. Deem and Ramdas Pophale) SiO2 
 PCOD9212790
Probable space group: C 2/M
;
_chemical_formula_sum "Si O2"
_cell_formula_units_Z 44
_cell_length_a 25.069571
_cell_length_b 11.958046
_cell_length_c 15.888420
_cell_angle_alpha 90.000000
_cell_angle_beta 25.969916
_cell_angle_gamma 90.000000
_cell_volume 2085.748533
_symmetry_space_group_name_H-M "C 2/M"
_symmetry_group_IT_number 12
_symmetry_cell_setting 'monoclinic'
loop_
_space_group_symop_operation_xyz
x,y,z
-x,y,-z
-x,-y,-z
x,-y,z
1/2+x,1/2+y,z
1/2-x,1/2+y,-z
1/2-x,1/2-y,-z
1/2+x,1/2-y,z
loop_
_atom_site_type_symbol
_atom_site_label
_atom_site_fract_x
_atom_site_fract_y
_atom_site_fract_z
Si Si1 0.237847 0.628695 0.067679
Si Si2 0.886964 0.258074 0.339938
Si Si3 0.683276 0.000000 0.789289
Si Si4 0.824820 0.219059 0.610662
Si Si5 0.000000 0.308295 0.500000
Si Si6 0.419623 0.000000 0.243172
Si Si7 0.116629 0.129268 0.963678
O O1 0.256542 0.500000 0.003751
O O2 0.101646 0.627779 0.300883
O O3 0.250000 0.750000 0.000000
O O4 0.330167 0.637140 0.016252
O O5 0.750000 0.250000 0.500000
O O6 0.889500 0.210213 0.429608
O O7 0.912799 0.389136 0.306478
O O8 0.990841 0.197970 0.137645
O O9 0.748901 0.107974 0.730770
O O10 0.678814 0.000000 0.693448
O O11 0.547508 0.000000 0.014983
O O12 0.921266 0.237383 0.546516
O O13 0.724280 0.317913 0.754826
O O14 0.096228 0.000000 0.972364
#
# Coordination Sequence:
#
# PCOD9212790 Si02
#       7
#     8   8   4   8   4   4   8
#     4  10  21  44  68  94 130 176 224 277 335 394
#     4  12  25  42  68  98 128 171 225 271 334 397
#     4  11  22  45  70  91 142 178 210 280 339 394
#     4  11  24  44  67  97 132 176 220 271 334 394
#     4  10  23  45  66 100 131 180 223 270 329 408
#     4  11  24  44  68  97 133 178 223 272 335 398
#     4  10  24  44  63  92 134 171 213 271 332 395
#
# _framework density 21.095544
#
# number of rings (size 3 to 8) (size 9 to 14) (size 15 to 20)
#    0.000    1.273    3.636    1.364    3.818    1.818 
#   13.091    0.909    0.000    0.000    0.000    0.000 
#    0.000    0.000    0.000    0.000    0.000    0.000 
#
# Total GULP energy -122781.829838 kJ/mol
# GULP energy per Si atom -5580.992265 kJ/mol
# Density = 2.104753 g / cm^3
# Si number density = 21.095544 Si / 1000 Ang^3
#
#
#
# Elastic Constant Matrix: (Units=GPa)
#
#
# Indices 1 2 3 4 5 6 
#
# 1 43.4804 -7.2940 8.7164 0.0000 -20.1343 0.0000
# 2 -7.2940 121.5216 18.5339 0.0000 -16.2642 0.0000
# 3 8.7164 18.5339 94.2374 0.0000 -18.9114 0.0000
# 4 0.0000 0.0000 0.0000 29.0235 0.0000 8.7741
# 5 -20.1343 -16.2642 -18.9114 0.0000 32.8876 0.0000
# 6 0.0000 0.0000 0.0000 8.7741 0.0000 21.3881
#
#
#
# Elastic Compliance Matrix: (Units=1/GPa)
#
#
# Indices 1 2 3 4 5 6 
#
# 1 0.035081 0.005283 0.000622 0.000000 0.024448 0.000000
# 2 0.005283 0.009687 -0.000886 0.000000 0.007516 0.000000
# 3 0.000622 -0.000886 0.012115 0.000000 0.006909 0.000000
# 4 0.000000 0.000000 0.000000 0.039333 0.000000 -0.016136
# 5 0.024448 0.007516 0.006909 0.000000 0.053064 0.000000
# 6 0.000000 0.000000 0.000000 -0.016136 0.000000 0.053374
#
#
# Mechanical properties :
#
#
# Convention : Reuss Voigt Hill
#
# Bulk Modulus (GPa) = 14.94276 33.23913 24.09095
# Shear Modulus (GPa) = 23.26422 32.61204 27.93813
#
# Velocity S-wave (km/s) = 3.32445 3.93609 3.64313
# Velocity P-wave (km/s) = 4.67276 6.03719 5.39826
#
# Compressibility (1/GPa) = 0.06692202
#
# Stress axis : x y z
#
# Youngs Moduli (GPa) = 28.50523 103.23107 82.54461
#
# Poissons Ratio (x) = -0.54535 -0.05137
# Poissons Ratio (y) = -0.15059 0.07310
# Poissons Ratio (z) = -0.01774 0.09142
#
# Static dielectric constant tensor:
#      x y z
#    x 1.759650 0.000000 -0.001650 
#    y 0.000000 1.752950 0.000000 
#    z -0.001650 0.000000 1.752920 
# 
# From -- ./inp_files/296411.got.cif
#   From: 2010.05.17/outbox.cif.g08.bks.cpg/sg12_149_cif.got.tgz:296411.got - 2010.06.03 13:09:07.
