data_PCOD9212681
_publ_section_title
;
Structure prediction by ZEFSAII (Michael W. Deem and Ramdas Pophale) SiO2 
 PCOD9212681
Probable space group: C 2/M
;
_chemical_formula_sum "Si O2"
_cell_formula_units_Z 36
_cell_length_a 20.041736
_cell_length_b 13.577988
_cell_length_c 21.079604
_cell_angle_alpha 90.000000
_cell_angle_beta 19.356455
_cell_angle_gamma 90.000000
_cell_volume 1901.269177
_symmetry_space_group_name_H-M "C 2/M"
_symmetry_group_IT_number 12
_symmetry_cell_setting 'monoclinic'
loop_
_space_group_symop_operation_xyz
x,y,z
-x,y,-z
-x,-y,-z
x,-y,z
1/2+x,1/2+y,z
1/2-x,1/2+y,-z
1/2-x,1/2-y,-z
1/2+x,1/2-y,z
loop_
_atom_site_type_symbol
_atom_site_label
_atom_site_fract_x
_atom_site_fract_y
_atom_site_fract_z
Si Si1 0.052351 0.500000 0.694274
Si Si2 0.000000 0.666667 0.500000
Si Si3 0.166292 0.334638 0.029412
Si Si4 0.938951 0.214658 0.126107
Si Si5 0.537604 0.500000 0.842287
Si Si6 0.482691 0.000000 0.610757
Si Si7 0.969914 0.000000 0.755879
O O1 0.955152 0.500000 0.710595
O O2 0.294198 0.500000 0.470614
O O3 0.977817 0.405333 0.800020
O O4 0.804180 0.722196 0.650329
O O5 0.084876 0.595826 0.367714
O O6 0.047817 0.284547 0.078468
O O7 0.250000 0.250000 0.000000
O O8 0.350677 0.403224 0.840568
O O9 0.002296 0.101587 0.085630
O O10 0.000000 0.238591 0.000000
O O11 0.777161 0.500000 0.615417
O O12 0.446127 0.500000 0.854036
#
# Coordination Sequence:
#
# PCOD9212681 Si02
#       7
#     4   4   8   8   4   4   4
#     4  10  24  41  65  86 128 170 199 252 321 348
#     4   9  20  36  56  89 132 150 198 241 304 395
#     4  11  24  40  62  97 125 156 217 257 294 376
#     4  11  23  37  61  92 125 165 198 252 317 364
#     4   9  17  37  59  93 127 152 193 248 313 389
#     4   8  17  35  57  89 119 162 187 236 315 385
#     4  10  21  43  64  88 130 162 201 258 310 364
#
# _framework density 18.934721
#
# number of rings (size 3 to 8) (size 9 to 14) (size 15 to 20)
#    0.000    2.000    2.222    1.000    3.111    2.667 
#    0.000    2.222    0.000    4.000    0.000    0.000 
#    0.000    0.000    0.000    0.000    0.000    0.000 
#
# Total GULP energy -100535.217385 kJ/mol
# GULP energy per Si atom -5585.289855 kJ/mol
# Density = 1.889162 g / cm^3
# Si number density = 18.934721 Si / 1000 Ang^3
#
#
#
# Elastic Constant Matrix: (Units=GPa)
#
#
# Indices 1 2 3 4 5 6 
#
# 1 173.9247 77.4858 53.5103 0.0110 -3.4299 -0.0052
# 2 77.4858 120.9379 52.4349 0.0317 -5.4500 -0.0077
# 3 53.5103 52.4349 114.4184 0.0508 -4.9022 -0.0118
# 4 0.0110 0.0317 0.0508 13.8932 -0.0065 -13.9916
# 5 -3.4299 -5.4500 -4.9022 -0.0065 40.3042 -0.0004
# 6 -0.0052 -0.0077 -0.0118 -13.9916 -0.0004 38.7760
#
#
#
# Elastic Compliance Matrix: (Units=1/GPa)
#
#
# Indices 1 2 3 4 5 6 
#
# 1 0.008337 -0.004561 -0.001814 0.000016 -0.000128 0.000005
# 2 -0.004561 0.012841 -0.003713 -0.000017 0.000897 -0.000005
# 3 -0.001814 -0.003713 0.011321 -0.000045 0.000720 -0.000014
# 4 0.000016 -0.000017 -0.000045 0.113064 0.000012 0.040797
# 5 -0.000128 0.000897 0.000720 0.000012 0.025009 0.000005
# 6 0.000005 -0.000005 -0.000014 0.040797 0.000005 0.040510
#
#
# Mechanical properties :
#
#
# Convention : Reuss Voigt Hill
#
# Bulk Modulus (GPa) = 81.15453 86.23810 83.69632
# Shear Modulus (GPa) = 21.24335 33.65134 27.44735
#
# Velocity S-wave (km/s) = 3.35315 4.22029 3.81146
# Velocity P-wave (km/s) = 7.61214 8.33017 7.97923
#
# Compressibility (1/GPa) = 0.01232217
#
# Stress axis : x y z
#
# Youngs Moduli (GPa) = 119.94382 77.87389 88.33068
#
# Poissons Ratio (x) = 0.35517 0.16028
# Poissons Ratio (y) = 0.54704 0.32801
# Poissons Ratio (z) = 0.21764 0.28918
#
# Static dielectric constant tensor:
#      x y z
#    x 1.657080 0.000000 -0.019350 
#    y 0.000000 1.646980 0.000010 
#    z -0.019350 0.000010 1.695240 
# 
# From -- ./inp_files/321498.got.cif
#   From: 2010.05.17/outbox.cif.g08.bks.cpg/sg12_161_cif.got.tgz:321498.got - 2010.06.03 13:09:07.
