data_PCOD9212385
_publ_section_title
;
Structure prediction by ZEFSAII (Michael W. Deem and Ramdas Pophale) SiO2 
 PCOD9212385
Probable space group: C 2/M
;
_chemical_formula_sum "Si O2"
_cell_formula_units_Z 64
_cell_length_a 14.406144
_cell_length_b 23.577631
_cell_length_c 19.147623
_cell_angle_alpha 90.000000
_cell_angle_beta 151.713061
_cell_angle_gamma 90.000000
_cell_volume 3082.038261
_symmetry_space_group_name_H-M "C 2/M"
_symmetry_group_IT_number 12
_symmetry_cell_setting 'monoclinic'
loop_
_space_group_symop_operation_xyz
x,y,z
-x,y,-z
-x,-y,-z
x,-y,z
1/2+x,1/2+y,z
1/2-x,1/2+y,-z
1/2-x,1/2-y,-z
1/2+x,1/2-y,z
loop_
_atom_site_type_symbol
_atom_site_label
_atom_site_fract_x
_atom_site_fract_y
_atom_site_fract_z
Si Si1 0.032059 0.153967 0.104040
Si Si2 0.716844 0.434564 0.661804
Si Si3 0.869638 0.565504 0.346529
Si Si4 0.362054 0.809527 0.582724
Si Si5 0.675386 0.065479 0.422889
Si Si6 0.642583 0.806800 0.902341
Si Si7 0.134714 0.264273 0.654039
Si Si8 0.363815 0.839028 0.844160
O O1 0.169475 0.099831 0.205000
O O2 0.159798 0.204546 0.223568
O O3 0.000000 0.166304 0.000000
O O4 0.820265 0.151605 0.998893
O O5 0.500000 0.412408 0.500000
O O6 0.699768 0.500000 0.668196
O O7 0.843763 0.430813 0.674218
O O8 0.784925 0.400498 0.773812
O O9 0.823330 0.500000 0.331449
O O10 0.000000 0.585608 0.500000
O O11 0.991282 0.565891 0.354077
O O12 0.250000 0.750000 0.500000
O O13 0.245504 0.869683 0.508567
O O14 0.501159 0.802201 0.741974
O O15 0.510022 0.809076 0.615544
O O16 0.761527 0.000000 0.490341
O O17 0.501809 0.826254 0.870029
O O18 0.750000 0.750000 0.000000
O O19 0.192833 0.207643 0.733615
O O20 0.000000 0.248263 0.500000
O O21 0.500000 0.835141 0.000000
#
# Coordination Sequence:
#
# PCOD9212385 Si02
#       8
#     8   8   8   8   8   8   8   8
#     4  12  23  41  63  92 135 169 220 268 336 405
#     4  10  23  45  71  96 127 175 233 287 336 398
#     4  10  22  42  68  98 135 177 224 277 336 408
#     4  12  25  40  66 102 132 175 232 283 338 411
#     4  10  21  41  68  98 135 179 226 278 340 410
#     4  12  24  42  62  94 137 182 215 276 344 409
#     4  12  24  41  64  96 135 173 221 278 338 406
#     4  12  25  44  66  96 133 175 224 283 344 406
#
# _framework density 20.76548
#
# number of rings (size 3 to 8) (size 9 to 14) (size 15 to 20)
#    0.000    0.750    5.000    2.625    1.750    0.500 
#    2.250    1.250    0.000    0.000    0.000    0.875 
#    0.000    0.000    0.000    0.000    0.000    0.000 
#
# Total GULP energy -178420.450068 kJ/mol
# GULP energy per Si atom -5575.639065 kJ/mol
# Density = 2.071822 g / cm^3
# Si number density = 20.765480 Si / 1000 Ang^3
#
#
#
# Elastic Constant Matrix: (Units=GPa)
#
#
# Indices 1 2 3 4 5 6 
#
# 1 42.5096 9.9305 12.6462 0.0025 -1.3926 0.0005
# 2 9.9305 126.7883 45.5576 0.0049 -1.3086 0.0025
# 3 12.6462 45.5576 130.1268 0.0109 -16.4990 0.0059
# 4 0.0025 0.0049 0.0109 30.2558 0.0050 2.7873
# 5 -1.3926 -1.3086 -16.4990 0.0050 28.6838 0.0020
# 6 0.0005 0.0025 0.0059 2.7873 0.0020 32.9263
#
#
#
# Elastic Compliance Matrix: (Units=1/GPa)
#
#
# Indices 1 2 3 4 5 6 
#
# 1 0.024386 -0.001211 -0.001945 -0.000001 0.000010 0.000000
# 2 -0.001211 0.009144 -0.003277 0.000000 -0.001527 0.000000
# 3 -0.001945 -0.003277 0.009697 -0.000004 0.005334 -0.000001
# 4 -0.000001 0.000000 -0.000004 0.033311 -0.000008 -0.002820
# 5 0.000010 -0.001527 0.005334 -0.000008 0.037862 -0.000003
# 6 0.000000 0.000000 -0.000001 -0.002820 -0.000003 0.030610
#
#
# Mechanical properties :
#
#
# Convention : Reuss Voigt Hill
#
# Bulk Modulus (GPa) = 32.93657 48.41034 40.67345
# Shear Modulus (GPa) = 29.76259 33.79254 31.77757
#
# Velocity S-wave (km/s) = 3.78997 4.03841 3.91616
# Velocity P-wave (km/s) = 5.92009 6.71629 6.33072
#
# Compressibility (1/GPa) = 0.03036139
#
# Stress axis : x y z
#
# Youngs Moduli (GPa) = 41.00735 109.36367 103.12002
#
# Poissons Ratio (x) = 0.13246 0.20053
# Poissons Ratio (y) = 0.04967 0.33794
# Poissons Ratio (z) = 0.07974 0.35840
#
# Static dielectric constant tensor:
#      x y z
#    x 1.814130 0.000000 0.002650 
#    y 0.000000 1.874470 -0.000010 
#    z 0.002650 -0.000010 1.709170 
# 
# From -- ./inp_files/272860.got.cif
#   From: 2010.05.17/outbox.cif.g08.bks.cpg/sg12_137_cif.got.tgz:272860.got - 2010.06.03 13:09:07.
