data_PCOD9212267
_publ_section_title
;
Structure prediction by ZEFSAII (Michael W. Deem and Ramdas Pophale) SiO2 
 PCOD9212267
Probable space group: C 2/M
;
_chemical_formula_sum "Si O2"
_cell_formula_units_Z 40
_cell_length_a 10.451398
_cell_length_b 27.618461
_cell_length_c 8.513455
_cell_angle_alpha 90.000000
_cell_angle_beta 46.339450
_cell_angle_gamma 90.000000
_cell_volume 1777.803783
_symmetry_space_group_name_H-M "C 2/M"
_symmetry_group_IT_number 12
_symmetry_cell_setting 'monoclinic'
loop_
_space_group_symop_operation_xyz
x,y,z
-x,y,-z
-x,-y,-z
x,-y,z
1/2+x,1/2+y,z
1/2-x,1/2+y,-z
1/2-x,1/2-y,-z
1/2+x,1/2-y,z
loop_
_atom_site_type_symbol
_atom_site_label
_atom_site_fract_x
_atom_site_fract_y
_atom_site_fract_z
Si Si1 0.908206 0.056617 0.239796
Si Si2 0.233838 0.901270 0.113858
Si Si3 0.102233 0.607927 0.675713
Si Si4 0.905888 0.720672 0.282203
Si Si5 0.855095 0.204255 0.761263
O O1 0.732874 0.085256 0.437827
O O2 0.065266 0.065166 0.232266
O O3 0.865921 0.000000 0.262846
O O4 0.000000 0.073170 0.000000
O O5 0.302566 0.899542 0.235175
O O6 0.170966 0.846468 0.128888
O O7 0.405104 0.913585 0.862819
O O8 0.080819 0.665512 0.670106
O O9 0.750000 0.750000 0.500000
O O10 0.826602 0.715940 0.174516
O O11 0.070678 0.752470 0.197893
O O12 0.000000 0.194948 0.500000
#
# Coordination Sequence:
#
# PCOD9212267 Si02
#       5
#     8   8   8   8   8
#     4  11  25  45  66  93 127 164 210 270 336 393
#     4  10  21  41  66  96 125 169 214 263 321 379
#     4  10  22  41  67  93 130 167 214 270 317 379
#     4   9  17  33  56  88 131 170 216 262 308 375
#     4   9  17  33  58  89 132 172 217 264 311 376
#
# _framework density 22.499669999999998
#
# number of rings (size 3 to 8) (size 9 to 14) (size 15 to 20)
#    0.000    2.200    0.000    4.200    0.000    4.000 
#   14.400    4.000    4.400    0.000    0.000    0.000 
#    0.000    0.000    0.000    0.000    0.000    0.000 
#
# Total GULP energy -111777.949402 kJ/mol
# GULP energy per Si atom -5588.897470 kJ/mol
# Density = 2.244846 g / cm^3
# Si number density = 22.499670 Si / 1000 Ang^3
#
#
#
# Elastic Constant Matrix: (Units=GPa)
#
#
# Indices 1 2 3 4 5 6 
#
# 1 52.1616 18.3108 28.0943 0.0000 -24.3575 0.0000
# 2 18.3108 59.2668 50.7735 0.0000 1.6714 0.0000
# 3 28.0943 50.7735 166.1400 0.0000 -25.7064 0.0000
# 4 0.0000 0.0000 0.0000 11.1691 0.0000 21.1203
# 5 -24.3575 1.6714 -25.7064 0.0000 38.2540 0.0000
# 6 0.0000 0.0000 0.0000 21.1203 0.0000 11.3860
#
#
#
# Elastic Compliance Matrix: (Units=1/GPa)
#
#
# Indices 1 2 3 4 5 6 
#
# 1 0.033286 -0.012380 0.001694 0.000000 0.022873 0.000000
# 2 -0.012380 0.028934 -0.009112 0.000000 -0.015270 0.000000
# 3 0.001694 -0.009112 0.009761 0.000000 0.008036 0.000000
# 4 0.000000 0.000000 0.000000 -0.035705 0.000000 0.066230
# 5 0.022873 -0.015270 0.008036 0.000000 0.046772 0.000000
# 6 0.000000 0.000000 0.000000 0.066230 0.000000 -0.035024
#
#
# Mechanical properties :
#
#
# Convention : Reuss Voigt Hill
#
# Bulk Modulus (GPa) = 30.87871 52.43619 41.65745
# Shear Modulus (GPa) = 50.80560 24.18782 37.49671
#
# Velocity S-wave (km/s) = 4.75706 3.28232 4.08676
# Velocity P-wave (km/s) = 6.62772 6.14172 6.38934
#
# Compressibility (1/GPa) = 0.03238478
#
# Stress axis : x y z
#
# Youngs Moduli (GPa) = 30.04300 34.56096 102.45341
#
# Poissons Ratio (x) = 0.42787 -0.17355
# Poissons Ratio (y) = 0.37193 0.93353
# Poissons Ratio (z) = -0.05089 0.31491
#
# Static dielectric constant tensor:
#      x y z
#    x 1.857380 0.000000 -0.002890 
#    y 0.000000 1.818630 0.000000 
#    z -0.002890 0.000000 1.910350 
# 
# From -- ./inp_files/122956.got.cif
#   From: 2010.05.17/outbox.cif.g08.bks.cpg/sg12_62_cif.got.tgz:122956.got - 2010.06.03 13:09:07.
