data_PCOD9212847
_publ_section_title
;
Structure prediction by ZEFSAII (Michael W. Deem and Ramdas Pophale) SiO2 
 PCOD9212847
Probable space group: C 2/M
;
_chemical_formula_sum "Si O2"
_cell_formula_units_Z 56
_cell_length_a 13.949885
_cell_length_b 23.562873
_cell_length_c 9.597100
_cell_angle_alpha 90.000000
_cell_angle_beta 116.746287
_cell_angle_gamma 90.000000
_cell_volume 2817.048297
_symmetry_space_group_name_H-M "C 2/M"
_symmetry_group_IT_number 12
_symmetry_cell_setting 'monoclinic'
loop_
_space_group_symop_operation_xyz
x,y,z
-x,y,-z
-x,-y,-z
x,-y,z
1/2+x,1/2+y,z
1/2-x,1/2+y,-z
1/2-x,1/2-y,-z
1/2+x,1/2-y,z
loop_
_atom_site_type_symbol
_atom_site_label
_atom_site_fract_x
_atom_site_fract_y
_atom_site_fract_z
Si Si1 0.696857 0.433070 0.959626
Si Si2 0.027867 0.137740 0.682867
Si Si3 0.689527 0.201581 0.647313
Si Si4 0.311657 0.191404 0.650929
Si Si5 0.450731 0.235219 0.209391
Si Si6 0.107935 0.137863 0.144512
Si Si7 0.121032 0.359340 0.036611
O O1 0.707385 0.500000 0.955067
O O2 0.615910 0.407779 0.789904
O O3 0.811085 0.401609 0.014295
O O4 0.644447 0.414882 0.073424
O O5 0.069217 0.199589 0.764117
O O6 0.000000 0.138283 0.500000
O O7 0.925365 0.126696 0.717501
O O8 0.685798 0.166732 0.502141
O O9 0.713539 0.265627 0.610401
O O10 0.587626 0.201303 0.678562
O O11 0.793581 0.181058 0.798257
O O12 0.423388 0.226441 0.733767
O O13 0.315339 0.147790 0.778010
O O14 0.389948 0.202513 0.045224
O O15 0.000000 0.161074 0.000000
O O16 0.000000 0.376835 0.000000
#
# Coordination Sequence:
#
# PCOD9212847 Si02
#       7
#     8   8   8   8   8   8   8
#     4  11  25  45  64  84 115 167 219 258 303 354
#     4  11  24  39  64  96 130 158 196 253 310 369
#     4  11  20  34  55  84 127 168 186 239 299 370
#     4  10  22  32  55  90 127 157 198 234 306 374
#     4  11  21  36  59  92 130 163 189 236 308 384
#     4  10  23  39  60  86 119 160 205 248 300 362
#     4  10  23  38  61  93 122 158 202 254 301 368
#
# _framework density 19.878964
#
# number of rings (size 3 to 8) (size 9 to 14) (size 15 to 20)
#    0.000    1.429    2.857    2.143    8.000    4.286 
#    0.000    0.000    0.000    0.000    0.000    2.000 
#    0.000    0.000    0.000    0.000    0.000    0.000 
#
# Total GULP energy -156240.945338 kJ/mol
# GULP energy per Si atom -5580.033762 kJ/mol
# Density = 1.983372 g / cm^3
# Si number density = 19.878964 Si / 1000 Ang^3
#
#
#
# Elastic Constant Matrix: (Units=GPa)
#
#
# Indices 1 2 3 4 5 6 
#
# 1 100.7862 33.7175 39.0368 0.0000 -31.5051 0.0000
# 2 33.7175 96.8296 39.1052 0.0000 -2.3234 0.0000
# 3 39.0368 39.1052 92.3330 0.0000 -27.1632 0.0000
# 4 0.0000 0.0000 0.0000 9.3136 0.0000 -0.0779
# 5 -31.5051 -2.3234 -27.1632 0.0000 30.6772 0.0000
# 6 0.0000 0.0000 0.0000 -0.0779 0.0000 18.8011
#
#
#
# Elastic Compliance Matrix: (Units=1/GPa)
#
#
# Indices 1 2 3 4 5 6 
#
# 1 0.017164 -0.005670 0.000276 0.000000 0.017442 0.000000
# 2 -0.005670 0.014936 -0.007179 0.000000 -0.011048 0.000000
# 3 0.000276 -0.007179 0.018495 0.000000 0.016116 0.000000
# 4 0.000000 0.000000 0.000000 0.107373 0.000000 0.000445
# 5 0.017442 -0.011048 0.016116 0.000000 0.063944 0.000000
# 6 0.000000 0.000000 0.000000 0.000445 0.000000 0.053190
#
#
# Mechanical properties :
#
#
# Convention : Reuss Voigt Hill
#
# Bulk Modulus (GPa) = 39.29259 57.07418 48.18338
# Shear Modulus (GPa) = 16.19528 23.63101 19.91314
#
# Velocity S-wave (km/s) = 2.85738 3.45156 3.16843
# Velocity P-wave (km/s) = 5.54031 6.68263 6.13810
#
# Compressibility (1/GPa) = 0.02545009
#
# Stress axis : x y z
#
# Youngs Moduli (GPa) = 58.26041 66.95316 54.06751
#
# Poissons Ratio (x) = 0.37961 -0.01491
# Poissons Ratio (y) = 0.33032 0.38814
# Poissons Ratio (z) = -0.01607 0.48064
#
# Static dielectric constant tensor:
#      x y z
#    x 1.739590 0.000000 -0.013300 
#    y 0.000000 1.659740 0.000000 
#    z -0.013300 0.000000 1.779540 
# 
# From -- ./inp_files/65992.got.cif
#   From: 2010.05.17/outbox.cif.g08.bks.cpg/sg12_33_cif.got.tgz:65992.got - 2010.06.03 13:09:07.
