data_PCOD9212024
_publ_section_title
;
Structure prediction by ZEFSAII (Michael W. Deem and Ramdas Pophale) SiO2 
 PCOD9212024
Probable space group: C 2/M
;
_chemical_formula_sum "Si O2"
_cell_formula_units_Z 50
_cell_length_a 12.388993
_cell_length_b 13.921806
_cell_length_c 15.338971
_cell_angle_alpha 90.000000
_cell_angle_beta 119.829341
_cell_angle_gamma 90.000000
_cell_volume 2295.105861
_symmetry_space_group_name_H-M "C 2/M"
_symmetry_group_IT_number 12
_symmetry_cell_setting 'monoclinic'
loop_
_space_group_symop_operation_xyz
x,y,z
-x,y,-z
-x,-y,-z
x,-y,z
1/2+x,1/2+y,z
1/2-x,1/2+y,-z
1/2-x,1/2-y,-z
1/2+x,1/2-y,z
loop_
_atom_site_type_symbol
_atom_site_label
_atom_site_fract_x
_atom_site_fract_y
_atom_site_fract_z
Si Si1 0.422403 0.265708 0.224059
Si Si2 0.657251 0.387285 0.336087
Si Si3 0.780728 0.615877 0.752553
Si Si4 0.361484 0.383759 0.473614
Si Si5 0.065612 0.612054 0.619950
Si Si6 0.457466 0.184445 0.068242
Si Si7 0.000000 0.500000 0.000000
O O1 0.544135 0.328298 0.252193
O O2 0.321033 0.334075 0.227701
O O3 0.458144 0.183369 0.309206
O O4 0.375679 0.226015 0.112623
O O5 0.623644 0.500000 0.325345
O O6 0.670499 0.354252 0.441897
O O7 0.787248 0.379542 0.339454
O O8 0.778637 0.500000 0.760319
O O9 0.738988 0.644287 0.638398
O O10 0.917263 0.650570 0.830952
O O11 0.500000 0.352658 0.500000
O O12 0.363774 0.500000 0.473583
O O13 0.034210 0.500000 0.628534
O O14 0.000000 0.632597 0.500000
O O15 0.412308 0.085561 0.006651
O O16 0.500000 0.245106 0.000000
#
# Coordination Sequence:
#
# PCOD9212024 Si02
#       7
#     8   8   8   8   8   8   2
#     4  12  24  36  66  92 118 158 203 251 303 368
#     4  10  21  41  58  86 132 168 196 248 296 355
#     4  11  21  38  63  94 121 159 204 249 304 358
#     4   9  17  31  56  88 122 162 201 234 282 349
#     4  10  25  41  53  81 127 171 204 240 299 364
#     4  10  23  43  64  87 117 152 206 262 308 350
#     4   8  20  48  64  84 114 154 204 272 304 348
#
# _framework density 21.785488000000001
#
# number of rings (size 3 to 8) (size 9 to 14) (size 15 to 20)
#    0.480    1.280    2.400    1.440    5.600    1.280 
#    0.000    0.000    0.000    1.920    0.000    0.000 
#    0.000    0.000    0.000    0.000    0.000    0.000 
#
# Total GULP energy -139396.189705 kJ/mol
# GULP energy per Si atom -5575.847588 kJ/mol
# Density = 2.173590 g / cm^3
# Si number density = 21.785488 Si / 1000 Ang^3
#
#
#
# Elastic Constant Matrix: (Units=GPa)
#
#
# Indices 1 2 3 4 5 6 
#
# 1 35.3377 22.5636 4.9946 0.0000 -7.6309 0.0000
# 2 22.5636 92.9450 19.9524 0.0000 -13.2745 0.0000
# 3 4.9946 19.9524 72.6688 0.0000 -19.3069 0.0000
# 4 0.0000 0.0000 0.0000 27.2493 0.0000 -9.6060
# 5 -7.6309 -13.2745 -19.3069 0.0000 37.7941 0.0000
# 6 0.0000 0.0000 0.0000 -9.6060 0.0000 25.8428
#
#
#
# Elastic Compliance Matrix: (Units=1/GPa)
#
#
# Indices 1 2 3 4 5 6 
#
# 1 0.034175 -0.007854 0.001050 0.000000 0.004678 0.000000
# 2 -0.007854 0.013498 -0.002694 0.000000 0.001779 0.000000
# 3 0.001050 -0.002694 0.016469 0.000000 0.007679 0.000000
# 4 0.000000 0.000000 0.000000 0.042232 0.000000 0.015698
# 5 0.004678 0.001779 0.007679 0.000000 0.031951 0.000000
# 6 0.000000 0.000000 0.000000 0.015698 0.000000 0.044531
#
#
# Mechanical properties :
#
#
# Convention : Reuss Voigt Hill
#
# Bulk Modulus (GPa) = 22.14954 32.88584 27.51769
# Shear Modulus (GPa) = 23.05228 28.40666 25.72947
#
# Velocity S-wave (km/s) = 3.25645 3.61491 3.44035
# Velocity P-wave (km/s) = 4.93239 5.70539 5.33291
#
# Compressibility (1/GPa) = 0.04514767
#
# Stress axis : x y z
#
# Youngs Moduli (GPa) = 29.26132 74.08521 60.72157
#
# Poissons Ratio (x) = 0.58184 -0.06378
# Poissons Ratio (y) = 0.22981 0.16356
# Poissons Ratio (z) = -0.03074 0.19956
#
# Static dielectric constant tensor:
#      x y z
#    x 1.828910 0.000000 -0.031350 
#    y 0.000000 1.872130 0.000000 
#    z -0.031350 0.000000 1.886300 
# 
# From -- ./inp_files/205094.got.cif
#   From: 2010.05.17/outbox.cif.g08.bks.cpg/sg12_103_cif.got.tgz:205094.got - 2010.06.03 13:09:07.
