data_PCOD9212852
_publ_section_title
;
Structure prediction by ZEFSAII (Michael W. Deem and Ramdas Pophale) SiO2 
 PCOD9212852
Probable space group: C 2/M
;
_chemical_formula_sum "Si O2"
_cell_formula_units_Z 60
_cell_length_a 8.591826
_cell_length_b 18.446496
_cell_length_c 28.333359
_cell_angle_alpha 90.000000
_cell_angle_beta 52.567991
_cell_angle_gamma 90.000000
_cell_volume 3565.816913
_symmetry_space_group_name_H-M "C 2/M"
_symmetry_group_IT_number 12
_symmetry_cell_setting 'monoclinic'
loop_
_space_group_symop_operation_xyz
x,y,z
-x,y,-z
-x,-y,-z
x,-y,z
1/2+x,1/2+y,z
1/2-x,1/2+y,-z
1/2-x,1/2-y,-z
1/2+x,1/2-y,z
loop_
_atom_site_type_symbol
_atom_site_label
_atom_site_fract_x
_atom_site_fract_y
_atom_site_fract_z
Si Si1 0.316843 0.299580 0.691533
Si Si2 0.645675 0.304002 0.871814
Si Si3 0.375843 0.916599 0.338997
Si Si4 0.899640 0.311017 0.417136
Si Si5 0.695737 0.415793 0.786952
Si Si6 0.500000 0.221647 0.500000
Si Si7 0.051899 0.194930 0.228291
Si Si8 0.792090 0.273881 0.045101
O O1 0.259980 0.365724 0.668292
O O2 0.459498 0.243991 0.637835
O O3 0.408135 0.323804 0.724493
O O4 0.118972 0.255396 0.739900
O O5 0.728483 0.374755 0.830793
O O6 0.754059 0.234241 0.828411
O O7 0.414331 0.308446 0.902778
O O8 0.673370 0.289730 0.922549
O O9 0.378556 0.883026 0.390540
O O10 0.597591 0.911129 0.278390
O O11 0.315351 0.000000 0.348880
O O12 0.690450 0.271970 0.459917
O O13 0.979674 0.322024 0.455103
O O14 0.643358 0.500000 0.802424
O O15 0.534959 0.371238 0.786144
O O16 0.750000 0.250000 0.000000
O O17 0.000000 0.315043 0.000000
#
# Coordination Sequence:
#
# PCOD9212852 Si02
#       8
#     8   8   8   8   8   4   8   8
#     4  12  19  34  60  83 111 143 189 227 276 348
#     4  11  17  33  57  82 110 145 182 234 271 323
#     4  11  23  38  56  84 120 147 174 229 294 342
#     4  11  19  37  57  84 105 144 184 241 268 331
#     4  11  23  36  54  87 122 148 176 226 293 345
#     4  10  22  32  62  84 100 136 210 232 266 316
#     4  12  19  32  59  89 106 146 191 225 277 338
#     4   9  19  31  53  87 107 137 194 241 262 302
#
# _framework density 16.826438
#
# number of rings (size 3 to 8) (size 9 to 14) (size 15 to 20)
#    0.000    1.067    8.000    0.000    0.000    0.533 
#    0.000    0.667    0.000    4.000    0.000    0.000 
#    0.000    0.000    0.000    0.000    0.000    0.000 
#
# Total GULP energy -167128.766689 kJ/mol
# GULP energy per Si atom -5570.958890 kJ/mol
# Density = 1.678814 g / cm^3
# Si number density = 16.826438 Si / 1000 Ang^3
#
#
#
# Elastic Constant Matrix: (Units=GPa)
#
#
# Indices 1 2 3 4 5 6 
#
# 1 78.6121 22.6962 25.4446 0.0011 23.1726 -0.0004
# 2 22.6962 92.5263 18.7076 0.0009 17.7120 -0.0003
# 3 25.4446 18.7076 74.6114 0.0014 14.4044 -0.0003
# 4 0.0011 0.0009 0.0014 5.3581 -0.0008 2.4523
# 5 23.1726 17.7120 14.4044 -0.0008 50.7687 0.0002
# 6 -0.0004 -0.0003 -0.0003 2.4523 0.0002 22.7291
#
#
#
# Elastic Compliance Matrix: (Units=1/GPa)
#
#
# Indices 1 2 3 4 5 6 
#
# 1 0.016246 -0.002126 -0.003934 -0.000003 -0.005557 0.000001
# 2 -0.002126 0.012227 -0.001803 -0.000002 -0.002784 0.000000
# 3 -0.003934 -0.001803 0.015582 -0.000003 -0.001996 0.000001
# 4 -0.000003 -0.000002 -0.000003 0.196327 0.000006 -0.021182
# 5 -0.005557 -0.002784 -0.001996 0.000006 0.023771 -0.000001
# 6 0.000001 0.000000 0.000001 -0.021182 -0.000001 0.046282
#
#
# Mechanical properties :
#
#
# Convention : Reuss Voigt Hill
#
# Bulk Modulus (GPa) = 35.30109 42.16072 38.73090
# Shear Modulus (GPa) = 14.89851 27.69796 21.29823
#
# Velocity S-wave (km/s) = 2.97883 4.06161 3.56161
# Velocity P-wave (km/s) = 5.73205 6.86340 6.32308
#
# Compressibility (1/GPa) = 0.02832773
#
# Stress axis : x y z
#
# Youngs Moduli (GPa) = 61.55351 81.78861 64.17642
#
# Poissons Ratio (x) = 0.17386 0.25250
# Poissons Ratio (y) = 0.13085 0.11573
# Poissons Ratio (z) = 0.24218 0.14749
#
# Static dielectric constant tensor:
#      x y z
#    x 1.615900 0.000000 -0.015390 
#    y 0.000000 1.527560 0.000000 
#    z -0.015390 0.000000 1.621010 
# 
# From -- ./inp_files/356561.got.cif
#   From: 2010.05.17/outbox.cif.g08.bks.cpg/sg12_179_cif.got.tgz:356561.got - 2010.06.03 13:09:07.
