data_PCOD9212993
_publ_section_title
;
Structure prediction by ZEFSAII (Michael W. Deem and Ramdas Pophale) SiO2 
 PCOD9212993
Probable space group: C 2/M
;
_chemical_formula_sum "Si O2"
_cell_formula_units_Z 44
_cell_length_a 9.849603
_cell_length_b 18.871039
_cell_length_c 23.254925
_cell_angle_alpha 90.000000
_cell_angle_beta 33.048409
_cell_angle_gamma 90.000000
_cell_volume 2357.234304
_symmetry_space_group_name_H-M "C 2/M"
_symmetry_group_IT_number 12
_symmetry_cell_setting 'monoclinic'
loop_
_space_group_symop_operation_xyz
x,y,z
-x,y,-z
-x,-y,-z
x,-y,z
1/2+x,1/2+y,z
1/2-x,1/2+y,-z
1/2-x,1/2-y,-z
1/2+x,1/2-y,z
loop_
_atom_site_type_symbol
_atom_site_label
_atom_site_fract_x
_atom_site_fract_y
_atom_site_fract_z
Si Si1 0.571350 0.711696 0.334312
Si Si2 0.754717 0.674394 0.386557
Si Si3 0.869498 0.418625 0.709594
Si Si4 0.706958 0.918601 0.475031
Si Si5 0.986312 0.796705 0.135022
Si Si6 0.000000 0.764101 0.000000
O O1 0.691618 0.720549 0.353882
O O2 0.369524 0.771481 0.391625
O O3 0.429494 0.636935 0.386756
O O4 0.800054 0.729399 0.210717
O O5 0.500000 0.642299 0.500000
O O6 0.953091 0.613454 0.303660
O O7 0.799375 0.500000 0.741466
O O8 0.641171 0.364350 0.789422
O O9 0.051452 0.412411 0.589606
O O10 0.500000 0.906246 0.500000
O O11 0.796033 0.000000 0.439349
O O12 0.250490 0.780583 0.071665
O O13 0.980789 0.806838 0.067505
#
# Coordination Sequence:
#
# PCOD9212993 Si02
#       6
#     8   8   8   8   8   4
#     4  11  22  35  58  88 117 155 196 228 284 344
#     4  11  21  32  52  84 119 161 190 226 263 329
#     4  10  22  38  57  86 123 158 189 226 286 347
#     4  10  22  36  54  86 131 163 188 225 270 342
#     4  10  22  38  65  84 111 146 191 250 298 341
#     4  10  22  44  60  86 106 134 198 262 306 332
#
# _framework density 18.665942999999999
#
# number of rings (size 3 to 8) (size 9 to 14) (size 15 to 20)
#    0.000    1.636    1.818    3.273   10.182    1.091 
#    0.000    0.909    0.000    4.364    0.000    0.000 
#    0.000    0.000    0.000    0.000    0.000    0.000 
#
# Total GULP energy -122528.360101 kJ/mol
# GULP energy per Si atom -5569.470914 kJ/mol
# Density = 1.862346 g / cm^3
# Si number density = 18.665943 Si / 1000 Ang^3
#
#
#
# Elastic Constant Matrix: (Units=GPa)
#
#
# Indices 1 2 3 4 5 6 
#
# 1 102.0738 45.9238 25.8925 -0.0102 -7.3983 0.0117
# 2 45.9238 116.9948 41.3311 -0.0145 -17.4036 0.0049
# 3 25.8925 41.3311 73.0413 0.0732 -18.6523 -0.0091
# 4 -0.0102 -0.0145 0.0732 22.8041 -0.0005 -0.8438
# 5 -7.3983 -17.4036 -18.6523 -0.0005 34.5715 -0.0049
# 6 0.0117 0.0049 -0.0091 -0.8438 -0.0049 14.2222
#
#
#
# Elastic Compliance Matrix: (Units=1/GPa)
#
#
# Indices 1 2 3 4 5 6 
#
# 1 0.012140 -0.004101 -0.002142 0.000009 -0.000622 -0.000010
# 2 -0.004101 0.012251 -0.004787 0.000021 0.002707 -0.000002
# 3 -0.002142 -0.004787 0.019052 -0.000065 0.007411 0.000014
# 4 0.000009 0.000021 -0.000065 0.043949 -0.000021 0.002607
# 5 -0.000622 0.002707 0.007411 -0.000021 0.034153 0.000015
# 6 -0.000010 -0.000002 0.000014 0.002607 0.000015 0.070467
#
#
# Mechanical properties :
#
#
# Convention : Reuss Voigt Hill
#
# Bulk Modulus (GPa) = 46.76801 57.60052 52.18426
# Shear Modulus (GPa) = 22.60395 26.25039 24.42717
#
# Velocity S-wave (km/s) = 3.48368 3.75417 3.62145
# Velocity P-wave (km/s) = 6.42581 7.05105 6.74568
#
# Compressibility (1/GPa) = 0.02138214
#
# Stress axis : x y z
#
# Youngs Moduli (GPa) = 82.37074 81.62484 52.48912
#
# Poissons Ratio (x) = 0.33477 0.11242
# Poissons Ratio (y) = 0.33783 0.25128
# Poissons Ratio (z) = 0.17642 0.39077
#
# Static dielectric constant tensor:
#      x y z
#    x 1.706370 0.000000 0.028470 
#    y 0.000000 1.639000 -0.000010 
#    z 0.028470 -0.000010 1.715110 
# 
# From -- ./inp_files/301572.got.cif
#   From: 2010.05.17/outbox.cif.g08.bks.cpg/sg12_151_cif.got.tgz:301572.got - 2010.06.03 13:09:07.
