data_PCOD9212229
_publ_section_title
;
Structure prediction by ZEFSAII (Michael W. Deem and Ramdas Pophale) SiO2 
 PCOD9212229
Probable space group: C 2/M
;
_chemical_formula_sum "Si O2"
_cell_formula_units_Z 36
_cell_length_a 15.121783
_cell_length_b 25.359783
_cell_length_c 7.246224
_cell_angle_alpha 90.000000
_cell_angle_beta 27.793048
_cell_angle_gamma 90.000000
_cell_volume 1295.705884
_symmetry_space_group_name_H-M "C 2/M"
_symmetry_group_IT_number 12
_symmetry_cell_setting 'monoclinic'
loop_
_space_group_symop_operation_xyz
x,y,z
-x,y,-z
-x,-y,-z
x,-y,z
1/2+x,1/2+y,z
1/2-x,1/2+y,-z
1/2-x,1/2-y,-z
1/2+x,1/2-y,z
loop_
_atom_site_type_symbol
_atom_site_label
_atom_site_fract_x
_atom_site_fract_y
_atom_site_fract_z
Si Si1 0.347961 0.691935 0.620490
Si Si2 0.350492 0.918422 0.525483
Si Si3 0.298803 0.421929 0.579456
Si Si4 0.500000 0.000000 0.500000
Si Si5 0.500000 0.500000 0.500000
Si Si6 0.059821 0.694513 0.675160
O O1 0.500000 0.691544 0.500000
O O2 0.362246 0.638854 0.476165
O O3 0.361029 0.747174 0.489332
O O4 0.132333 0.691839 0.089034
O O5 0.218289 0.937556 0.603448
O O6 0.349332 0.954842 0.705146
O O7 0.318782 0.856220 0.605352
O O8 0.574229 0.925773 0.053757
O O9 0.422175 0.454903 0.492837
O O10 0.000000 0.685875 0.000000
#
# Coordination Sequence:
#
# PCOD9212229 Si02
#       6
#     8   8   8   2   2   8
#     4  11  22  40  63 102 130 170 212 264 325 389
#     4  10  22  43  62  91 123 169 214 266 322 387
#     4  10  21  41  66  89 126 167 217 257 328 391
#     4  12  24  38  66  90 120 162 226 274 306 364
#     4  12  20  34  66  86 112 162 216 264 300 382
#     4  11  22  41  67  94 132 172 214 262 328 393
#
# _framework density 27.784084
#
# number of rings (size 3 to 8) (size 9 to 14) (size 15 to 20)
#    0.000    1.333    5.556    2.667    1.556    1.778 
#    0.000    0.000    0.000    5.333    0.000    0.000 
#    0.000    0.000    0.000    0.000    0.000    0.000 
#
# Total GULP energy -100478.277193 kJ/mol
# GULP energy per Si atom -5582.126511 kJ/mol
# Density = 2.772085 g / cm^3
# Si number density = 27.784084 Si / 1000 Ang^3
#
#
#
# Elastic Constant Matrix: (Units=GPa)
#
#
# Indices 1 2 3 4 5 6 
#
# 1 280.0657 108.5030 46.2143 -0.0002 -33.5373 -0.0001
# 2 108.5030 275.8469 9.7302 0.0000 2.1217 0.0000
# 3 46.2143 9.7302 88.1560 -0.0001 -22.9099 -0.0003
# 4 -0.0002 0.0000 -0.0001 249.7758 0.0001 -0.1627
# 5 -33.5373 2.1217 -22.9099 0.0001 54.0716 0.0001
# 6 -0.0001 0.0000 -0.0003 -0.1627 0.0001 69.5790
#
#
#
# Elastic Compliance Matrix: (Units=1/GPa)
#
#
# Indices 1 2 3 4 5 6 
#
# 1 0.004863 -0.001870 -0.001730 0.000000 0.002356 0.000000
# 2 -0.001870 0.004364 0.000171 0.000000 -0.001258 0.000000
# 3 -0.001730 0.000171 0.013430 0.000000 0.004610 0.000000
# 4 0.000000 0.000000 0.000000 0.004004 0.000000 0.000009
# 5 0.002356 -0.001258 0.004610 0.000000 0.021958 0.000000
# 6 0.000000 0.000000 0.000000 0.000009 0.000000 0.014372
#
#
# Mechanical properties :
#
#
# Convention : Reuss Voigt Hill
#
# Bulk Modulus (GPa) = 63.29400 108.10706 85.70053
# Shear Modulus (GPa) = 66.56485 106.66001 86.61243
#
# Velocity S-wave (km/s) = 4.89999 6.20260 5.58937
# Velocity P-wave (km/s) = 7.40563 9.50213 8.51862
#
# Compressibility (1/GPa) = 0.01579929
#
# Stress axis : x y z
#
# Youngs Moduli (GPa) = 205.64753 229.13159 74.46094
#
# Poissons Ratio (x) = 0.42843 0.12885
# Poissons Ratio (y) = 0.38452 -0.01277
# Poissons Ratio (z) = 0.35587 -0.03929
#
# Static dielectric constant tensor:
#      x y z
#    x 2.159740 0.000000 0.130720 
#    y 0.000000 2.145020 0.000000 
#    z 0.130720 0.000000 2.556740 
# 
# From -- ./inp_files/64612.got.cif
#   From: 2010.05.17/outbox.cif.g08.bks.cpg/sg12_33_cif.got.tgz:64612.got - 2010.06.03 13:09:07.
