data_PCOD9212612
_publ_section_title
;
Structure prediction by ZEFSAII (Michael W. Deem and Ramdas Pophale) SiO2 
 PCOD9212612
Probable space group: C 2/M
;
_chemical_formula_sum "Si O2"
_cell_formula_units_Z 64
_cell_length_a 16.222004
_cell_length_b 17.633331
_cell_length_c 17.392039
_cell_angle_alpha 90.000000
_cell_angle_beta 40.756906
_cell_angle_gamma 90.000000
_cell_volume 3247.906194
_symmetry_space_group_name_H-M "C 2/M"
_symmetry_group_IT_number 12
_symmetry_cell_setting 'monoclinic'
loop_
_space_group_symop_operation_xyz
x,y,z
-x,y,-z
-x,-y,-z
x,-y,z
1/2+x,1/2+y,z
1/2-x,1/2+y,-z
1/2-x,1/2-y,-z
1/2+x,1/2-y,z
loop_
_atom_site_type_symbol
_atom_site_label
_atom_site_fract_x
_atom_site_fract_y
_atom_site_fract_z
Si Si1 0.738461 0.839263 0.501582
Si Si2 0.404358 0.091133 0.254692
Si Si3 0.147750 0.362804 0.177187
Si Si4 0.524459 0.082598 0.572249
Si Si5 0.208916 0.203406 0.108768
Si Si6 0.478532 0.588815 0.250867
Si Si7 0.564812 0.588909 0.027883
Si Si8 0.147986 0.587199 0.882907
O O1 0.750000 0.750000 0.500000
O O2 0.690738 0.876573 0.614463
O O3 0.625050 0.855298 0.523336
O O4 0.862909 0.878823 0.380632
O O5 0.544378 0.121596 0.182213
O O6 0.348776 0.109860 0.209696
O O7 0.414182 0.000000 0.251103
O O8 0.151683 0.274320 0.195239
O O9 0.096235 0.407275 0.287711
O O10 0.292260 0.384390 0.056552
O O11 0.500000 0.084742 0.500000
O O12 0.581114 0.000000 0.551463
O O13 0.305891 0.153112 0.091105
O O14 0.098725 0.142441 0.176754
O O15 0.250000 0.250000 0.000000
O O16 0.500776 0.500000 0.252748
O O17 0.466194 0.595161 0.167363
O O18 0.582508 0.500000 0.000783
O O19 0.500000 0.626723 0.000000
O O20 0.201967 0.500000 0.856049
O O21 0.000000 0.579150 0.000000
#
# Coordination Sequence:
#
# PCOD9212612 Si02
#       8
#     8   8   8   8   8   8   8   8
#     4  11  23  41  63  92 131 169 215 270 333 393
#     4  10  21  42  69  93 122 170 227 276 325 386
#     4  11  21  39  61  91 128 170 211 268 330 387
#     4  10  22  39  63  91 121 164 217 267 315 378
#     4  12  24  42  60  94 131 161 204 258 332 390
#     4  11  23  41  65  90 128 173 214 261 320 395
#     4  10  22  37  57  91 129 171 216 261 322 396
#     4  10  23  42  67  94 123 166 224 274 314 383
#
# _framework density 19.705003000000001
#
# number of rings (size 3 to 8) (size 9 to 14) (size 15 to 20)
#    0.000    1.375    1.250    5.625    1.750    1.500 
#    2.250    0.625    0.000    2.250    0.000    0.000 
#    0.000    0.000    0.000    0.000    0.000    0.000 
#
# Total GULP energy -178233.711298 kJ/mol
# GULP energy per Si atom -5569.803478 kJ/mol
# Density = 1.966015 g / cm^3
# Si number density = 19.705003 Si / 1000 Ang^3
#
#
#
# Elastic Constant Matrix: (Units=GPa)
#
#
# Indices 1 2 3 4 5 6 
#
# 1 85.1800 56.5858 63.4529 0.0001 11.9160 -0.0001
# 2 56.5858 141.5338 47.2853 0.0000 3.6037 0.0000
# 3 63.4529 47.2853 121.7097 0.0000 -1.9263 -0.0001
# 4 0.0001 0.0000 0.0000 4.3677 -0.0001 33.0092
# 5 11.9160 3.6037 -1.9263 -0.0001 19.1715 0.0001
# 6 -0.0001 0.0000 -0.0001 33.0092 0.0001 -23.5653
#
#
#
# Elastic Compliance Matrix: (Units=1/GPa)
#
#
# Indices 1 2 3 4 5 6 
#
# 1 0.027400 -0.006503 -0.012028 0.000000 -0.017017 0.000000
# 2 -0.006503 0.009728 -0.000355 0.000000 0.002178 0.000000
# 3 -0.012028 -0.000355 0.014768 0.000000 0.009026 0.000000
# 4 0.000000 0.000000 0.000000 0.019761 0.000000 0.027680
# 5 -0.017017 0.002178 0.009026 0.000000 0.063235 0.000000
# 6 0.000000 0.000000 0.000000 0.027680 0.000000 -0.003663
#
#
# Mechanical properties :
#
#
# Convention : Reuss Voigt Hill
#
# Bulk Modulus (GPa) = 70.79648 75.89683 73.34666
# Shear Modulus (GPa) = 28.78367 12.06808 20.42588
#
# Velocity S-wave (km/s) = 3.82610 2.47743 3.22309
# Velocity P-wave (km/s) = 7.45150 6.83986 7.15222
#
# Compressibility (1/GPa) = 0.01412500
#
# Stress axis : x y z
#
# Youngs Moduli (GPa) = 36.49591 102.79093 67.71545
#
# Poissons Ratio (x) = 0.66846 0.81447
# Poissons Ratio (y) = 0.23734 0.02402
# Poissons Ratio (z) = 0.43897 0.03647
#
# Static dielectric constant tensor:
#      x y z
#    x 1.788640 0.000000 0.057040 
#    y 0.000000 1.829870 0.000000 
#    z 0.057040 0.000000 1.758300 
# 
# From -- ./inp_files/271704.got.cif
#   From: 2010.05.17/outbox.cif.g08.bks.cpg/sg12_136_cif.got.tgz:271704.got - 2010.06.03 13:09:07.
