data_PCOD9212157
_publ_section_title
;
Structure prediction by ZEFSAII (Michael W. Deem and Ramdas Pophale) SiO2 
 PCOD9212157
Probable space group: C 2/M
;
_chemical_formula_sum "Si O2"
_cell_formula_units_Z 56
_cell_length_a 21.205052
_cell_length_b 17.070043
_cell_length_c 22.150108
_cell_angle_alpha 90.000000
_cell_angle_beta 160.229265
_cell_angle_gamma 90.000000
_cell_volume 2712.045587
_symmetry_space_group_name_H-M "C 2/M"
_symmetry_group_IT_number 12
_symmetry_cell_setting 'monoclinic'
loop_
_space_group_symop_operation_xyz
x,y,z
-x,y,-z
-x,-y,-z
x,-y,z
1/2+x,1/2+y,z
1/2-x,1/2+y,-z
1/2-x,1/2-y,-z
1/2+x,1/2-y,z
loop_
_atom_site_type_symbol
_atom_site_label
_atom_site_fract_x
_atom_site_fract_y
_atom_site_fract_z
Si Si1 0.810323 0.346864 0.790044
Si Si2 0.290358 0.905562 0.997995
Si Si3 0.094698 0.352577 0.681758
Si Si4 0.706025 0.089657 0.353917
Si Si5 0.131244 0.910063 0.981227
Si Si6 0.720706 0.667041 0.276786
Si Si7 0.087778 0.830258 0.703247
O O1 0.820023 0.403911 0.742059
O O2 0.774445 0.260745 0.729102
O O3 0.650302 0.364736 0.694628
O O4 0.000000 0.344321 0.000000
O O5 0.507890 0.886493 0.203138
O O6 0.279343 0.000000 0.980654
O O7 0.170710 0.883288 0.948716
O O8 0.215843 0.863903 0.871311
O O9 0.222914 0.366066 0.738034
O O10 0.114595 0.262360 0.720410
O O11 0.882560 0.360105 0.468438
O O12 0.175290 0.404315 0.807789
O O13 0.876613 0.144747 0.525350
O O14 0.748878 0.000000 0.409157
O O15 0.978027 0.859036 0.877740
O O16 0.067742 0.000000 0.922941
#
# Coordination Sequence:
#
# PCOD9212157 Si02
#       7
#     8   8   8   8   8   8   8
#     4  11  20  37  63  91 127 163 202 254 309 363
#     4  10  24  43  60  87 128 171 212 257 303 357
#     4  10  22  39  66  94 125 156 198 261 317 372
#     4  11  23  38  59  90 128 167 212 258 300 359
#     4  11  25  44  65  90 123 165 211 259 316 373
#     4  10  21  41  64  94 125 157 198 255 323 372
#     4  11  21  39  64  90 124 168 206 249 309 372
#
# _framework density 20.648620000000001
#
# number of rings (size 3 to 8) (size 9 to 14) (size 15 to 20)
#    0.000    1.429    2.857    3.000    0.000    5.429 
#    0.000    5.714    0.000    0.000    0.000    0.000 
#    0.000    0.000    0.000    0.000    0.000    0.000 
#
# Total GULP energy -156510.964754 kJ/mol
# GULP energy per Si atom -5589.677313 kJ/mol
# Density = 2.060162 g / cm^3
# Si number density = 20.648620 Si / 1000 Ang^3
#
#
#
# Elastic Constant Matrix: (Units=GPa)
#
#
# Indices 1 2 3 4 5 6 
#
# 1 63.7267 29.5352 39.0001 -0.0059 3.7330 -0.0022
# 2 29.5352 20.8131 16.0411 -0.0498 5.7098 -0.0721
# 3 39.0001 16.0411 79.9013 -0.0252 17.7835 -0.1241
# 4 -0.0059 -0.0498 -0.0252 80.8105 -0.0174 -14.5475
# 5 3.7330 5.7098 17.7835 -0.0174 19.3321 -0.0663
# 6 -0.0022 -0.0721 -0.1241 -14.5475 -0.0663 58.2850
#
#
#
# Elastic Compliance Matrix: (Units=1/GPa)
#
#
# Indices 1 2 3 4 5 6 
#
# 1 0.070912 -0.091820 -0.024101 -0.000077 0.035596 -0.000141
# 2 -0.091820 0.176713 0.021390 0.000139 -0.054138 0.000234
# 3 -0.024101 0.021390 0.025596 0.000024 -0.025209 0.000057
# 4 -0.000077 0.000139 0.000024 0.012957 -0.000026 0.003234
# 5 0.035596 -0.054138 -0.025209 -0.000026 0.084033 -0.000030
# 6 -0.000141 0.000234 0.000057 0.003234 -0.000030 0.017965
#
#
# Mechanical properties :
#
#
# Convention : Reuss Voigt Hill
#
# Bulk Modulus (GPa) = 11.88226 37.06598 24.47412
# Shear Modulus (GPa) = 8.26049 37.00984 22.63517
#
# Velocity S-wave (km/s) = 2.00230 4.23822 3.31449
# Velocity P-wave (km/s) = 3.33355 6.47610 5.15036
#
# Compressibility (1/GPa) = 0.08415910
#
# Stress axis : x y z
#
# Youngs Moduli (GPa) = 14.10197 5.65889 39.06875
#
# Poissons Ratio (x) = 0.51960 0.94161
# Poissons Ratio (y) = 1.29484 -0.83570
# Poissons Ratio (z) = 0.33988 -0.12105
#
# Static dielectric constant tensor:
#      x y z
#    x 1.712710 -0.000010 0.012630 
#    y -0.000010 1.705970 -0.000010 
#    z 0.012630 -0.000010 1.735800 
# 
# From -- ./inp_files/322751.got.cif
#   From: 2010.05.17/outbox.cif.g08.bks.cpg/sg12_162_cif.got.tgz:322751.got - 2010.06.03 13:09:07.
