data_PCOD9212008
_publ_section_title
;
Structure prediction by ZEFSAII (Michael W. Deem and Ramdas Pophale) SiO2 
 PCOD9212008
Probable space group: C 2/M
;
_chemical_formula_sum "Si O2"
_cell_formula_units_Z 36
_cell_length_a 12.530517
_cell_length_b 27.339050
_cell_length_c 8.110075
_cell_angle_alpha 90.000000
_cell_angle_beta 140.569538
_cell_angle_gamma 90.000000
_cell_volume 1764.605400
_symmetry_space_group_name_H-M "C 2/M"
_symmetry_group_IT_number 12
_symmetry_cell_setting 'monoclinic'
loop_
_space_group_symop_operation_xyz
x,y,z
-x,y,-z
-x,-y,-z
x,-y,z
1/2+x,1/2+y,z
1/2-x,1/2+y,-z
1/2-x,1/2-y,-z
1/2+x,1/2-y,z
loop_
_atom_site_type_symbol
_atom_site_label
_atom_site_fract_x
_atom_site_fract_y
_atom_site_fract_z
Si Si1 0.500000 0.088359 0.500000
Si Si2 0.959343 0.148034 0.757956
Si Si3 0.631405 0.446826 0.003087
Si Si4 0.932172 0.352386 0.742115
Si Si5 0.550566 0.246490 0.743970
O O1 0.676404 0.059362 0.707286
O O2 0.488466 0.120923 0.321141
O O3 0.764519 0.136525 0.504822
O O4 0.987970 0.198943 0.701838
O O5 0.000000 0.156741 0.000000
O O6 0.074238 0.102290 0.839898
O O7 0.615948 0.500000 0.901237
O O8 0.500000 0.447257 0.000000
O O9 0.971160 0.294604 0.766946
O O10 0.000000 0.368624 0.000000
O O11 0.500000 0.231463 0.500000
O O12 0.750000 0.250000 0.000000
#
# Coordination Sequence:
#
# PCOD9212008 Si02
#       5
#     4   8   8   8   8
#     4  12  21  44  70 102 136 176 231 268 342 404
#     4  11  21  41  61  92 134 172 222 280 327 395
#     4  10  21  40  71 100 130 178 228 279 340 398
#     4  12  24  41  65  99 139 180 221 275 334 402
#     4  12  23  38  61  94 132 179 225 267 331 405
#
# _framework density 20.401161999999999
#
# number of rings (size 3 to 8) (size 9 to 14) (size 15 to 20)
#    0.000    0.667    5.556    5.667    0.000    0.000 
#    0.000    0.000    0.000   10.667    0.000    0.000 
#    0.000    0.000    0.000    0.000    0.000    0.000 
#
# Total GULP energy -100531.286445 kJ/mol
# GULP energy per Si atom -5585.071469 kJ/mol
# Density = 2.035473 g / cm^3
# Si number density = 20.401162 Si / 1000 Ang^3
#
#
#
# Elastic Constant Matrix: (Units=GPa)
#
#
# Indices 1 2 3 4 5 6 
#
# 1 69.7308 29.0333 55.2324 0.0000 4.5669 0.0000
# 2 29.0333 99.5701 0.6940 0.0000 8.0879 0.0000
# 3 55.2324 0.6940 146.9410 0.0000 12.5671 0.0000
# 4 0.0000 0.0000 0.0000 16.1665 0.0000 -6.6040
# 5 4.5669 8.0879 12.5671 0.0000 53.6177 0.0000
# 6 0.0000 0.0000 0.0000 -6.6040 0.0000 -7.3260
#
#
#
# Elastic Compliance Matrix: (Units=1/GPa)
#
#
# Indices 1 2 3 4 5 6 
#
# 1 0.024669 -0.007224 -0.009339 0.000000 0.001177 0.000000
# 2 -0.007224 0.012284 0.002820 0.000000 -0.001899 0.000000
# 3 -0.009339 0.002820 0.010481 0.000000 -0.002086 0.000000
# 4 0.000000 0.000000 0.000000 0.045209 0.000000 -0.040753
# 5 0.001177 -0.001899 -0.002086 0.000000 0.019326 0.000000
# 6 0.000000 0.000000 0.000000 -0.040753 0.000000 -0.099764
#
#
# Mechanical properties :
#
#
# Convention : Reuss Voigt Hill
#
# Bulk Modulus (GPa) = 50.13162 54.01791 52.07477
# Shear Modulus (GPa) = 107.89859 27.91047 67.90453
#
# Velocity S-wave (km/s) = 7.28033 3.70277 5.77554
# Velocity P-wave (km/s) = 9.76203 6.69448 8.36999
#
# Compressibility (1/GPa) = 0.01994749
#
# Stress axis : x y z
#
# Youngs Moduli (GPa) = 40.53719 81.40646 95.41102
#
# Poissons Ratio (x) = 0.58805 0.89105
# Poissons Ratio (y) = 0.29282 -0.26902
# Poissons Ratio (z) = 0.37858 -0.22953
#
# Static dielectric constant tensor:
#      x y z
#    x 1.763010 0.000000 0.022520 
#    y 0.000000 1.772990 0.000000 
#    z 0.022520 0.000000 1.694750 
# 
# From -- ./inp_files/67479.got.cif
#   From: 2010.05.17/outbox.cif.g08.bks.cpg/sg12_34_cif.got.tgz:67479.got - 2010.06.03 13:09:07.
