data_PCOD9212430
_publ_section_title
;
Structure prediction by ZEFSAII (Michael W. Deem and Ramdas Pophale) SiO2 
 PCOD9212430
Probable space group: C 2/M
;
_chemical_formula_sum "Si O2"
_cell_formula_units_Z 32
_cell_length_a 11.780598
_cell_length_b 14.917755
_cell_length_c 17.185744
_cell_angle_alpha 90.000000
_cell_angle_beta 153.646071
_cell_angle_gamma 90.000000
_cell_volume 1340.722110
_symmetry_space_group_name_H-M "C 2/M"
_symmetry_group_IT_number 12
_symmetry_cell_setting 'monoclinic'
loop_
_space_group_symop_operation_xyz
x,y,z
-x,y,-z
-x,-y,-z
x,-y,z
1/2+x,1/2+y,z
1/2-x,1/2+y,-z
1/2-x,1/2-y,-z
1/2+x,1/2-y,z
loop_
_atom_site_type_symbol
_atom_site_label
_atom_site_fract_x
_atom_site_fract_y
_atom_site_fract_z
Si Si1 0.968972 0.269856 0.799241
Si Si2 0.200382 0.604966 0.813203
Si Si3 0.742934 0.898498 0.572559
Si Si4 0.130181 0.097853 0.665316
O O1 0.025880 0.339956 0.765275
O O2 0.828555 0.183327 0.678681
O O3 0.817451 0.318528 0.775358
O O4 0.250000 0.250000 0.000000
O O5 0.195105 0.500000 0.832265
O O6 0.045568 0.611319 0.637069
O O7 0.500000 0.632225 0.000000
O O8 0.929156 0.894373 0.611383
O O9 0.773391 0.000000 0.623599
O O10 0.000000 0.098842 0.500000
O O11 0.258943 0.000000 0.752643
#
# Coordination Sequence:
#
# PCOD9212430 Si02
#       4
#     8   8   8   8
#     4  12  26  38  66  99 136 174 225 275 332 399
#     4  10  22  42  67  94 131 173 216 271 338 400
#     4  10  23  45  70  96 133 179 224 279 334 394
#     4  10  21  41  70  97 126 171 226 277 331 394
#
# _framework density 23.867733999999999
#
# number of rings (size 3 to 8) (size 9 to 14) (size 15 to 20)
#    0.000    1.500    2.500    1.500    3.500    2.000 
#    0.000    2.500    0.000    5.250    0.000    0.000 
#    0.000    0.000    0.000    0.000    0.000    0.000 
#
# Total GULP energy -89560.985560 kJ/mol
# GULP energy per Si atom -5597.561598 kJ/mol
# Density = 2.381341 g / cm^3
# Si number density = 23.867734 Si / 1000 Ang^3
#
#
#
# Elastic Constant Matrix: (Units=GPa)
#
#
# Indices 1 2 3 4 5 6 
#
# 1 126.0417 81.0641 15.4783 0.0014 27.3260 -0.0014
# 2 81.0641 168.2528 89.3993 0.0136 17.4099 0.0120
# 3 15.4783 89.3993 131.0965 0.0181 19.6220 0.0344
# 4 0.0014 0.0136 0.0181 29.7177 0.0045 3.4135
# 5 27.3260 17.4099 19.6220 0.0045 24.6712 0.0037
# 6 -0.0014 0.0120 0.0344 3.4135 0.0037 -34.5545
#
#
#
# Elastic Compliance Matrix: (Units=1/GPa)
#
#
# Indices 1 2 3 4 5 6 
#
# 1 0.018279 -0.011301 0.008383 0.000002 -0.018938 0.000002
# 2 -0.011301 0.016374 -0.011324 -0.000001 0.009969 -0.000004
# 3 0.008383 -0.011324 0.016521 -0.000004 -0.014434 0.000010
# 4 0.000002 -0.000001 -0.000004 0.033272 -0.000004 0.003287
# 5 -0.018938 0.009969 -0.014434 -0.000004 0.065954 -0.000003
# 6 0.000002 -0.000004 0.000010 0.003287 -0.000003 -0.028615
#
#
# Mechanical properties :
#
#
# Convention : Reuss Voigt Hill
#
# Bulk Modulus (GPa) = 44.07324 88.58603 66.32964
# Shear Modulus (GPa) = 31.67952 19.93017 25.80484
#
# Velocity S-wave (km/s) = 3.64716 2.89282 3.29167
# Velocity P-wave (km/s) = 6.02008 6.95369 6.50366
#
# Compressibility (1/GPa) = 0.02268951
#
# Stress axis : x y z
#
# Youngs Moduli (GPa) = 54.70831 61.07418 60.53083
#
# Poissons Ratio (x) = 0.69023 -0.50745
# Poissons Ratio (y) = 0.61828 0.68542
# Poissons Ratio (z) = -0.45864 0.69157
#
# Static dielectric constant tensor:
#      x y z
#    x 1.948200 0.000000 -0.013040 
#    y 0.000000 1.952050 0.000010 
#    z -0.013040 0.000010 1.962710 
# 
# From -- ./inp_files/45411.got.cif
#   From: 2010.05.17/outbox.cif.g08.bks.cpg/sg12_23_cif.got.tgz:45411.got - 2010.06.03 13:09:07.
