data_PCOD9212192
_publ_section_title
;
Structure prediction by ZEFSAII (Michael W. Deem and Ramdas Pophale) SiO2 
 PCOD9212192
Probable space group: C 2/M
;
_chemical_formula_sum "Si O2"
_cell_formula_units_Z 52
_cell_length_a 9.390008
_cell_length_b 28.514813
_cell_length_c 13.889032
_cell_angle_alpha 90.000000
_cell_angle_beta 41.038562
_cell_angle_gamma 90.000000
_cell_volume 2441.672455
_symmetry_space_group_name_H-M "C 2/M"
_symmetry_group_IT_number 12
_symmetry_cell_setting 'monoclinic'
loop_
_space_group_symop_operation_xyz
x,y,z
-x,y,-z
-x,-y,-z
x,-y,z
1/2+x,1/2+y,z
1/2-x,1/2+y,-z
1/2-x,1/2-y,-z
1/2+x,1/2-y,z
loop_
_atom_site_type_symbol
_atom_site_label
_atom_site_fract_x
_atom_site_fract_y
_atom_site_fract_z
Si Si1 0.072381 0.872068 0.851901
Si Si2 0.788430 0.447449 0.306323
Si Si3 0.389251 0.111586 0.957823
Si Si4 0.058733 0.447902 0.357693
Si Si5 0.683721 0.270443 0.823004
Si Si6 0.593796 0.190531 0.720231
Si Si7 0.500000 0.368204 0.500000
O O1 0.276194 0.905749 0.741631
O O2 0.118724 0.818365 0.801080
O O3 0.000000 0.871187 0.000000
O O4 0.866560 0.891404 0.900112
O O5 0.708713 0.500000 0.329412
O O6 0.619928 0.405770 0.369208
O O7 0.002122 0.436003 0.135817
O O8 0.863201 0.443059 0.380220
O O9 0.451699 0.150809 0.846905
O O10 0.500000 0.125771 0.000000
O O11 0.152713 0.500000 0.289187
O O12 0.000000 0.447043 0.500000
O O13 0.682927 0.226100 0.754550
O O14 0.921276 0.281441 0.744110
O O15 0.500000 0.263482 0.000000
O O16 0.800977 0.164572 0.567016
#
# Coordination Sequence:
#
# PCOD9212192 Si02
#       7
#     8   8   8   8   8   8   4
#     4  11  20  40  64  92 126 169 214 270 319 378
#     4  10  21  41  65  90 126 172 213 265 323 384
#     4  11  23  38  62  96 129 164 216 271 324 377
#     4  10  22  40  64  94 127 168 217 262 321 394
#     4  11  22  39  64  90 124 164 212 266 327 379
#     4  11  23  40  61  91 127 167 215 263 320 388
#     4  10  23  42  62  84 130 172 209 256 324 388
#
# _framework density 21.296880000000002
#
# number of rings (size 3 to 8) (size 9 to 14) (size 15 to 20)
#    0.000    1.385    4.615    2.077    2.154    4.308 
#    1.385    1.538    0.000    0.000    0.000    0.000 
#    0.000    0.000    0.000    0.000    0.000    0.000 
#
# Total GULP energy -145135.127851 kJ/mol
# GULP energy per Si atom -5582.120302 kJ/mol
# Density = 2.124841 g / cm^3
# Si number density = 21.296880 Si / 1000 Ang^3
#
#
#
# Elastic Constant Matrix: (Units=GPa)
#
#
# Indices 1 2 3 4 5 6 
#
# 1 75.0500 13.8453 35.3521 0.0000 -23.2525 0.0000
# 2 13.8453 124.8315 44.6960 0.0000 -12.2352 0.0000
# 3 35.3521 44.6960 47.3727 0.0000 -20.0788 0.0000
# 4 0.0000 0.0000 0.0000 45.8537 0.0000 -48.9635
# 5 -23.2525 -12.2352 -20.0788 0.0000 30.3225 0.0000
# 6 0.0000 0.0000 0.0000 -48.9635 0.0000 74.7750
#
#
#
# Elastic Compliance Matrix: (Units=1/GPa)
#
#
# Indices 1 2 3 4 5 6 
#
# 1 0.023831 0.005016 -0.019342 0.000000 0.007491 0.000000
# 2 0.005016 0.013463 -0.017395 0.000000 -0.002239 0.000000
# 3 -0.019342 -0.017395 0.059352 0.000000 0.017450 0.000000
# 4 0.000000 0.000000 0.000000 0.072506 0.000000 0.047478
# 5 0.007491 -0.002239 0.017450 0.000000 0.049374 0.000000
# 6 0.000000 0.000000 0.000000 0.047478 0.000000 0.044463
#
#
# Mechanical properties :
#
#
# Convention : Reuss Voigt Hill
#
# Bulk Modulus (GPa) = 30.11653 48.33789 39.22721
# Shear Modulus (GPa) = 14.81485 40.41430 27.61458
#
# Velocity S-wave (km/s) = 2.64035 4.36094 3.60481
# Velocity P-wave (km/s) = 4.84430 6.93567 5.98209
#
# Compressibility (1/GPa) = 0.03320435
#
# Stress axis : x y z
#
# Youngs Moduli (GPa) = 41.96235 74.27582 16.84867
#
# Poissons Ratio (x) = -0.37260 0.32589
# Poissons Ratio (y) = -0.21050 0.29309
# Poissons Ratio (z) = 0.81164 1.29206
#
# Static dielectric constant tensor:
#      x y z
#    x 1.780140 0.000000 -0.031290 
#    y 0.000000 1.772340 0.000000 
#    z -0.031290 0.000000 1.812830 
# 
# From -- ./inp_files/201170.got.cif
#   From: 2010.05.17/outbox.cif.g08.bks.cpg/sg12_101_cif.got.tgz:201170.got - 2010.06.03 13:09:07.
