data_PCOD9212942
_publ_section_title
;
Structure prediction by ZEFSAII (Michael W. Deem and Ramdas Pophale) SiO2 
 PCOD9212942
Probable space group: C 2/M
;
_chemical_formula_sum "Si O2"
_cell_formula_units_Z 52
_cell_length_a 14.419962
_cell_length_b 25.162555
_cell_length_c 8.454245
_cell_angle_alpha 90.000000
_cell_angle_beta 137.919090
_cell_angle_gamma 90.000000
_cell_volume 2055.818339
_symmetry_space_group_name_H-M "C 2/M"
_symmetry_group_IT_number 12
_symmetry_cell_setting 'monoclinic'
loop_
_space_group_symop_operation_xyz
x,y,z
-x,y,-z
-x,-y,-z
x,-y,z
1/2+x,1/2+y,z
1/2-x,1/2+y,-z
1/2-x,1/2-y,-z
1/2+x,1/2-y,z
loop_
_atom_site_type_symbol
_atom_site_label
_atom_site_fract_x
_atom_site_fract_y
_atom_site_fract_z
Si Si1 0.710967 0.876440 0.830706
Si Si2 0.075630 0.642712 0.354588
Si Si3 0.223286 0.500000 0.852565
Si Si4 0.652077 0.684751 0.719344
Si Si5 0.726500 0.585243 0.610622
Si Si6 0.615864 0.000000 0.015291
Si Si7 0.863003 0.739704 0.781150
Si Si8 0.475798 0.500000 0.781739
O O1 0.569841 0.872113 0.753790
O O2 0.681673 0.845276 0.631389
O O3 0.726273 0.938555 0.795256
O O4 0.822185 0.846727 0.083253
O O5 0.145355 0.596011 0.342502
O O6 0.063397 0.690232 0.217055
O O7 0.088614 0.500000 0.795733
O O8 0.378422 0.500000 0.122208
O O9 0.500000 0.708776 0.500000
O O10 0.667083 0.639262 0.603731
O O11 0.773504 0.725153 0.823933
O O12 0.788851 0.550994 0.831755
O O13 0.612064 0.550890 0.378844
O O14 0.500000 0.000000 0.000000
O O15 0.750000 0.750000 0.500000
O O16 0.000000 0.774158 0.000000
O O17 0.500000 0.500000 0.000000
#
# Coordination Sequence:
#
# PCOD9212942 Si02
#       8
#     8   8   4   8   8   4   8   4
#     4  11  22  40  66  99 142 186 234 284 344 398
#     4  10  23  42  67  95 134 182 221 286 353 419
#     4  12  22  34  62  93 138 187 239 283 327 400
#     4  11  23  42  68 101 135 181 228 282 351 425
#     4  10  22  35  59  85 127 176 235 271 338 400
#     4  11  21  32  54  87 120 170 233 285 328 376
#     4  11  25  50  78 106 138 177 231 292 368 441
#     4  11  23  38  52  84 135 185 234 295 337 392
#
# _framework density 25.294066000000001
#
# number of rings (size 3 to 8) (size 9 to 14) (size 15 to 20)
#    0.000    1.231    3.077    2.769    0.000    4.308 
#    2.769    4.615    0.000    0.000    0.000    0.000 
#    0.000    0.000    0.000    0.000    0.000    0.000 
#
# Total GULP energy -145208.074310 kJ/mol
# GULP energy per Si atom -5584.925935 kJ/mol
# Density = 2.523650 g / cm^3
# Si number density = 25.294066 Si / 1000 Ang^3
#
#
#
# Elastic Constant Matrix: (Units=GPa)
#
#
# Indices 1 2 3 4 5 6 
#
# 1 82.8575 0.9561 19.5629 0.0000 4.2247 0.0000
# 2 0.9561 45.5966 10.9993 0.0000 -1.9785 0.0000
# 3 19.5629 10.9993 140.5842 0.0000 -3.5292 0.0000
# 4 0.0000 0.0000 0.0000 28.0937 0.0000 -4.2271
# 5 4.2247 -1.9785 -3.5292 0.0000 51.3757 0.0000
# 6 0.0000 0.0000 0.0000 -4.2271 0.0000 6.3353
#
#
#
# Elastic Compliance Matrix: (Units=1/GPa)
#
#
# Indices 1 2 3 4 5 6 
#
# 1 0.012547 0.000117 -0.001784 0.000000 -0.001150 0.000000
# 2 0.000117 0.022383 -0.001749 0.000000 0.000732 0.000000
# 3 -0.001784 -0.001749 0.007513 0.000000 0.000595 0.000000
# 4 0.000000 0.000000 0.000000 0.039568 0.000000 0.026401
# 5 -0.001150 0.000732 0.000595 0.000000 0.019628 0.000000
# 6 0.000000 0.000000 0.000000 0.026401 0.000000 0.175461
#
#
# Mechanical properties :
#
#
# Convention : Reuss Voigt Hill
#
# Bulk Modulus (GPa) = 28.08071 36.89721 32.48896
# Shear Modulus (GPa) = 16.90319 32.99562 24.94940
#
# Velocity S-wave (km/s) = 2.58789 3.61568 3.14407
# Velocity P-wave (km/s) = 4.47832 5.66125 5.10417
#
# Compressibility (1/GPa) = 0.03561163
#
# Stress axis : x y z
#
# Youngs Moduli (GPa) = 79.69769 44.67736 133.09842
#
# Poissons Ratio (x) = -0.00524 0.23746
# Poissons Ratio (y) = -0.00936 0.23281
# Poissons Ratio (z) = 0.14219 0.07815
#
# Static dielectric constant tensor:
#      x y z
#    x 2.004500 0.000000 0.008840 
#    y 0.000000 2.036540 0.000000 
#    z 0.008840 0.000000 2.092700 
# 
# From -- ./inp_files/68706.got.cif
#   From: 2010.05.17/outbox.cif.g08.bks.cpg/sg12_35_cif.got.tgz:68706.got - 2010.06.03 13:09:07.
