data_PCOD9212176
_publ_section_title
;
Structure prediction by ZEFSAII (Michael W. Deem and Ramdas Pophale) SiO2 
 PCOD9212176
Probable space group: C 2/M
;
_chemical_formula_sum "Si O2"
_cell_formula_units_Z 56
_cell_length_a 9.105761
_cell_length_b 27.445904
_cell_length_c 14.513291
_cell_angle_alpha 90.000000
_cell_angle_beta 124.978940
_cell_angle_gamma 90.000000
_cell_volume 2971.911972
_symmetry_space_group_name_H-M "C 2/M"
_symmetry_group_IT_number 12
_symmetry_cell_setting 'monoclinic'
loop_
_space_group_symop_operation_xyz
x,y,z
-x,y,-z
-x,-y,-z
x,-y,z
1/2+x,1/2+y,z
1/2-x,1/2+y,-z
1/2-x,1/2-y,-z
1/2+x,1/2-y,z
loop_
_atom_site_type_symbol
_atom_site_label
_atom_site_fract_x
_atom_site_fract_y
_atom_site_fract_z
Si Si1 0.029477 0.820348 0.723500
Si Si2 0.206312 0.392105 0.608053
Si Si3 0.579620 0.154910 0.127244
Si Si4 0.509768 0.127556 0.708903
Si Si5 0.456182 0.265085 0.081079
Si Si6 0.303076 0.443804 0.469418
Si Si7 0.552948 0.229146 0.416369
O O1 0.207236 0.853437 0.786312
O O2 0.009434 0.797276 0.817722
O O3 0.847372 0.849287 0.636759
O O4 0.054689 0.774968 0.663511
O O5 0.175233 0.392869 0.707172
O O6 0.284090 0.435522 0.573068
O O7 0.000000 0.386484 0.500000
O O8 0.474261 0.132680 0.175800
O O9 0.560313 0.213855 0.123546
O O10 0.500000 0.139664 0.000000
O O11 0.340243 0.093083 0.626105
O O12 0.469562 0.182232 0.656400
O O13 0.500000 0.290351 0.000000
O O14 0.250000 0.250000 0.000000
O O15 0.500000 0.432844 0.500000
O O16 0.261696 0.500000 0.433055
O O17 0.500000 0.216131 0.500000
O O18 0.750000 0.250000 0.500000
#
# Coordination Sequence:
#
# PCOD9212176 Si02
#       7
#     8   8   8   8   8   8   8
#     4  12  23  36  55  75 118 162 198 243 285 334
#     4  10  23  38  56  89 118 152 192 238 284 353
#     4  11  23  38  55  80 112 159 205 253 284 334
#     4  11  22  36  55  82 116 145 192 237 287 342
#     4  11  22  37  53  77 108 157 213 254 289 328
#     4  10  21  41  65  88 116 148 185 232 289 361
#     4  12  23  32  46  73 110 151 187 223 273 329
#
# _framework density 18.843088000000002
#
# number of rings (size 3 to 8) (size 9 to 14) (size 15 to 20)
#    0.000    1.000    4.286    5.571    4.000    3.714 
#    0.000    0.000    0.000    0.429    0.000    0.000 
#    0.000    8.571    0.000    0.000    0.000    0.000 
#
# Total GULP energy -156252.112700 kJ/mol
# GULP energy per Si atom -5580.432596 kJ/mol
# Density = 1.880020 g / cm^3
# Si number density = 18.843088 Si / 1000 Ang^3
#
#
#
# Elastic Constant Matrix: (Units=GPa)
#
#
# Indices 1 2 3 4 5 6 
#
# 1 110.8479 24.4137 34.3765 0.0000 -10.7009 0.0000
# 2 24.4137 51.1345 16.0944 0.0000 0.5855 0.0000
# 3 34.3765 16.0944 79.1009 0.0000 -20.2980 0.0000
# 4 0.0000 0.0000 0.0000 9.0761 0.0000 -4.1655
# 5 -10.7009 0.5855 -20.2980 0.0000 50.9141 0.0000
# 6 0.0000 0.0000 0.0000 -4.1655 0.0000 23.0005
#
#
#
# Elastic Compliance Matrix: (Units=1/GPa)
#
#
# Indices 1 2 3 4 5 6 
#
# 1 0.011200 -0.004164 -0.003792 0.000000 0.000890 0.000000
# 2 -0.004164 0.022657 -0.003444 0.000000 -0.002509 0.000000
# 3 -0.003792 -0.003444 0.016483 0.000000 0.005814 0.000000
# 4 0.000000 0.000000 0.000000 0.120168 0.000000 0.021763
# 5 0.000890 -0.002509 0.005814 0.000000 0.022175 0.000000
# 6 0.000000 0.000000 0.000000 0.021763 0.000000 0.047419
#
#
# Mechanical properties :
#
#
# Convention : Reuss Voigt Hill
#
# Bulk Modulus (GPa) = 36.31094 43.42805 39.86949
# Shear Modulus (GPa) = 18.37686 27.67807 23.02746
#
# Velocity S-wave (km/s) = 3.12630 3.83674 3.49960
# Velocity P-wave (km/s) = 5.68715 6.53641 6.12651
#
# Compressibility (1/GPa) = 0.02753991
#
# Stress axis : x y z
#
# Youngs Moduli (GPa) = 89.28239 44.13618 60.67001
#
# Poissons Ratio (x) = 0.18379 0.23005
# Poissons Ratio (y) = 0.37179 0.20895
# Poissons Ratio (z) = 0.33855 0.15201
#
# Static dielectric constant tensor:
#      x y z
#    x 1.699540 0.000000 -0.011210 
#    y 0.000000 1.637020 0.000000 
#    z -0.011210 0.000000 1.697940 
# 
# From -- ./inp_files/198963.got.cif
#   From: 2010.05.17/outbox.cif.g08.bks.cpg/sg12_100_cif.got.tgz:198963.got - 2010.06.03 13:09:07.
