data_PCOD9212685
_publ_section_title
;
Structure prediction by ZEFSAII (Michael W. Deem and Ramdas Pophale) SiO2 
 PCOD9212685
Probable space group: C 2/M
;
_chemical_formula_sum "Si O2"
_cell_formula_units_Z 56
_cell_length_a 11.639026
_cell_length_b 17.482279
_cell_length_c 15.602245
_cell_angle_alpha 90.000000
_cell_angle_beta 55.999089
_cell_angle_gamma 90.000000
_cell_volume 2631.911819
_symmetry_space_group_name_H-M "C 2/M"
_symmetry_group_IT_number 12
_symmetry_cell_setting 'monoclinic'
loop_
_space_group_symop_operation_xyz
x,y,z
-x,y,-z
-x,-y,-z
x,-y,z
1/2+x,1/2+y,z
1/2-x,1/2+y,-z
1/2-x,1/2-y,-z
1/2+x,1/2-y,z
loop_
_atom_site_type_symbol
_atom_site_label
_atom_site_fract_x
_atom_site_fract_y
_atom_site_fract_z
Si Si1 0.502347 0.086891 0.101527
Si Si2 0.865037 0.858054 0.495238
Si Si3 0.744783 0.819319 0.717925
Si Si4 0.490081 0.313621 0.726188
Si Si5 0.303277 0.351613 0.221287
Si Si6 0.795306 0.694726 0.904865
Si Si7 0.622158 0.000000 0.330202
Si Si8 0.693155 0.000000 0.501279
O O1 0.391636 0.145965 0.184694
O O2 0.646327 0.117755 0.078060
O O3 0.473661 0.000000 0.140589
O O4 0.500000 0.090365 0.000000
O O5 0.756729 0.835348 0.613273
O O6 0.909303 0.802189 0.398627
O O7 0.791586 0.928772 0.480476
O O8 0.000000 0.873440 0.500000
O O9 0.759291 0.727629 0.715803
O O10 0.864201 0.854649 0.728924
O O11 0.565964 0.360872 0.769850
O O12 0.416438 0.240888 0.802094
O O13 0.323247 0.327063 0.114070
O O14 0.199030 0.423161 0.265490
O O15 0.750000 0.750000 0.000000
O O16 0.651058 0.000000 0.419800
O O17 0.455368 0.000000 0.386777
#
# Coordination Sequence:
#
# PCOD9212685 Si02
#       8
#     8   8   8   8   8   8   4   4
#     4  11  24  44  69 101 137 169 225 294 346 402
#     4  10  22  40  66  99 134 177 235 281 339 407
#     4  10  23  41  68 100 127 180 232 278 344 401
#     4  10  21  43  64  97 129 179 223 277 336 409
#     4  11  23  44  66  93 137 178 223 280 341 410
#     4  11  25  43  75  98 130 176 233 279 346 420
#     4  11  26  42  62 100 137 188 233 269 346 418
#     4  11  23  42  62  97 141 192 222 284 340 408
#
# _framework density 21.277308999999999
#
# number of rings (size 3 to 8) (size 9 to 14) (size 15 to 20)
#    0.000    1.429    2.857    1.929    4.000    0.571 
#   15.429    0.000    3.143    0.857    0.000    0.000 
#    0.000    0.000    0.000    0.000    0.000    0.000 
#
# Total GULP energy -155976.767519 kJ/mol
# GULP energy per Si atom -5570.598840 kJ/mol
# Density = 2.122888 g / cm^3
# Si number density = 21.277309 Si / 1000 Ang^3
#
#
#
# Elastic Constant Matrix: (Units=GPa)
#
#
# Indices 1 2 3 4 5 6 
#
# 1 103.9482 9.5836 38.7300 0.0000 29.2528 0.0000
# 2 9.5836 76.1781 50.5101 0.0000 3.8260 0.0000
# 3 38.7300 50.5101 99.7741 0.0000 17.4318 0.0000
# 4 0.0000 0.0000 0.0000 19.7430 0.0000 4.4472
# 5 29.2528 3.8260 17.4318 0.0000 31.5240 0.0000
# 6 0.0000 0.0000 0.0000 4.4472 0.0000 38.5834
#
#
#
# Elastic Compliance Matrix: (Units=1/GPa)
#
#
# Indices 1 2 3 4 5 6 
#
# 1 0.014201 0.001735 -0.004485 0.000000 -0.010908 0.000000
# 2 0.001735 0.020321 -0.011344 0.000000 0.002197 0.000000
# 3 -0.004485 -0.011344 0.018308 0.000000 -0.004585 0.000000
# 4 0.000000 0.000000 0.000000 0.052001 0.000000 -0.005994
# 5 -0.010908 0.002197 -0.004585 0.000000 0.044113 0.000000
# 6 0.000000 0.000000 0.000000 -0.005994 0.000000 0.026609
#
#
# Mechanical properties :
#
#
# Convention : Reuss Voigt Hill
#
# Bulk Modulus (GPa) = 40.58358 53.06088 46.82223
# Shear Modulus (GPa) = 23.58994 30.04185 26.81589
#
# Velocity S-wave (km/s) = 3.33331 3.76163 3.55393
# Velocity P-wave (km/s) = 5.82492 6.62257 6.23651
#
# Compressibility (1/GPa) = 0.02464050
#
# Stress axis : x y z
#
# Youngs Moduli (GPa) = 70.41688 49.21138 54.62159
#
# Poissons Ratio (x) = -0.08539 0.24498
# Poissons Ratio (y) = -0.12218 0.61965
# Poissons Ratio (z) = 0.31583 0.55828
#
# Static dielectric constant tensor:
#      x y z
#    x 1.859030 0.000000 -0.017310 
#    y 0.000000 1.761590 0.000000 
#    z -0.017310 0.000000 1.807630 
# 
# From -- ./inp_files/206623.got.cif
#   From: 2010.05.17/outbox.cif.g08.bks.cpg/sg12_104_cif.got.tgz:206623.got - 2010.06.03 13:09:07.
