data_PCOD9212054
_publ_section_title
;
Structure prediction by ZEFSAII (Michael W. Deem and Ramdas Pophale) SiO2 
 PCOD9212054
Probable space group: C 2/M
;
_chemical_formula_sum "Si O2"
_cell_formula_units_Z 56
_cell_length_a 13.013959
_cell_length_b 18.173623
_cell_length_c 20.417876
_cell_angle_alpha 90.000000
_cell_angle_beta 148.075131
_cell_angle_gamma 90.000000
_cell_volume 2553.633245
_symmetry_space_group_name_H-M "C 2/M"
_symmetry_group_IT_number 12
_symmetry_cell_setting 'monoclinic'
loop_
_space_group_symop_operation_xyz
x,y,z
-x,y,-z
-x,-y,-z
x,-y,z
1/2+x,1/2+y,z
1/2-x,1/2+y,-z
1/2-x,1/2-y,-z
1/2+x,1/2-y,z
loop_
_atom_site_type_symbol
_atom_site_label
_atom_site_fract_x
_atom_site_fract_y
_atom_site_fract_z
Si Si1 0.808935 0.584801 0.941527
Si Si2 0.673392 0.297736 0.208744
Si Si3 0.889905 0.294145 0.692429
Si Si4 0.910149 0.179225 0.273458
Si Si5 0.513117 0.083998 0.584945
Si Si6 0.750732 0.329783 0.035396
Si Si7 0.658316 0.414418 0.493506
O O1 0.752794 0.500000 0.910476
O O2 0.639817 0.633260 0.817937
O O3 0.836751 0.613087 0.029817
O O4 0.000000 0.592992 0.000000
O O5 0.662050 0.255571 0.272780
O O6 0.727121 0.230339 0.190623
O O7 0.478895 0.339076 0.080157
O O8 0.843610 0.356713 0.306828
O O9 0.747545 0.360202 0.596464
O O10 0.917083 0.236247 0.648194
O O11 0.103966 0.326300 0.825355
O O12 0.964741 0.123458 0.360521
O O13 0.500000 0.098218 0.500000
O O14 0.309866 0.087408 0.514119
O O15 0.585914 0.000000 0.631814
O O16 0.750000 0.250000 0.000000
O O17 0.635274 0.500000 0.500234
#
# Coordination Sequence:
#
# PCOD9212054 Si02
#       7
#     8   8   8   8   8   8   8
#     4  11  23  40  65  97 133 171 215 266 324 382
#     4  11  23  38  66  97 125 164 223 265 321 381
#     4  11  23  42  65  94 130 167 217 260 324 388
#     4  12  23  40  68  92 130 169 218 268 319 382
#     4  10  22  39  62  92 128 166 212 270 324 377
#     4  10  21  41  61  94 127 167 210 265 312 377
#     4  11  25  45  63  92 133 172 212 265 329 388
#
# _framework density 21.929538000000001
#
# number of rings (size 3 to 8) (size 9 to 14) (size 15 to 20)
#    0.000    1.143    4.286    3.429    2.000    1.143 
#    0.000    2.143    0.000    1.714    0.000    0.000 
#    0.000    0.000    0.000    0.000    0.000    0.000 
#
# Total GULP energy -156489.563903 kJ/mol
# GULP energy per Si atom -5588.912997 kJ/mol
# Density = 2.187963 g / cm^3
# Si number density = 21.929538 Si / 1000 Ang^3
#
#
#
# Elastic Constant Matrix: (Units=GPa)
#
#
# Indices 1 2 3 4 5 6 
#
# 1 51.4642 19.3379 -3.4716 -0.0002 -4.1527 -0.0002
# 2 19.3379 129.2423 37.5636 0.0003 -5.7350 0.0000
# 3 -3.4716 37.5636 71.5612 0.0005 -10.3250 -0.0001
# 4 -0.0002 0.0003 0.0005 32.1706 -0.0001 -3.5716
# 5 -4.1527 -5.7350 -10.3250 -0.0001 22.0470 -0.0002
# 6 -0.0002 0.0000 -0.0001 -3.5716 -0.0002 24.9415
#
#
#
# Elastic Compliance Matrix: (Units=1/GPa)
#
#
# Indices 1 2 3 4 5 6 
#
# 1 0.021654 -0.004170 0.003937 0.000000 0.004838 0.000000
# 2 -0.004170 0.009934 -0.005531 0.000000 -0.000792 0.000000
# 3 0.003937 -0.005531 0.018197 0.000000 0.007825 0.000000
# 4 0.000000 0.000000 0.000000 0.031586 0.000000 0.004523
# 5 0.004838 -0.000792 0.007825 0.000000 0.049727 0.000000
# 6 0.000000 0.000000 0.000000 0.004523 0.000000 0.040741
#
#
# Mechanical properties :
#
#
# Convention : Reuss Voigt Hill
#
# Bulk Modulus (GPa) = 26.13818 39.90304 33.02061
# Shear Modulus (GPa) = 25.49470 29.08769 27.29120
#
# Velocity S-wave (km/s) = 3.41335 3.64595 3.53157
# Velocity P-wave (km/s) = 5.24211 5.99662 5.63201
#
# Compressibility (1/GPa) = 0.03825821
#
# Stress axis : x y z
#
# Youngs Moduli (GPa) = 46.18148 100.66790 54.95328
#
# Poissons Ratio (x) = 0.41974 -0.21636
# Poissons Ratio (y) = 0.19256 0.30394
# Poissons Ratio (z) = -0.18182 0.55678
#
# Static dielectric constant tensor:
#      x y z
#    x 1.883280 0.000000 0.032230 
#    y 0.000000 1.768570 0.000000 
#    z 0.032230 0.000000 1.806390 
# 
# From -- ./inp_files/311751.got.cif
#   From: 2010.05.17/outbox.cif.g08.bks.cpg/sg12_156_cif.got.tgz:311751.got - 2010.06.03 13:09:07.
