data_PCOD9212390
_publ_section_title
;
Structure prediction by ZEFSAII (Michael W. Deem and Ramdas Pophale) SiO2 
 PCOD9212390
Probable space group: C 2/M
;
_chemical_formula_sum "Si O2"
_cell_formula_units_Z 32
_cell_length_a 5.118626
_cell_length_b 24.798202
_cell_length_c 11.270386
_cell_angle_alpha 90.000000
_cell_angle_beta 107.402476
_cell_angle_gamma 90.000000
_cell_volume 1365.099373
_symmetry_space_group_name_H-M "C 2/M"
_symmetry_group_IT_number 12
_symmetry_cell_setting 'monoclinic'
loop_
_space_group_symop_operation_xyz
x,y,z
-x,y,-z
-x,-y,-z
x,-y,z
1/2+x,1/2+y,z
1/2-x,1/2+y,-z
1/2-x,1/2-y,-z
1/2+x,1/2-y,z
loop_
_atom_site_type_symbol
_atom_site_label
_atom_site_fract_x
_atom_site_fract_y
_atom_site_fract_z
Si Si1 0.500000 0.833616 0.000000
Si Si2 0.918705 0.284495 0.737488
Si Si3 0.000000 0.904255 0.000000
Si Si4 0.667410 0.500000 0.148305
Si Si5 0.865680 0.000000 0.352384
Si Si6 0.687683 0.893290 0.412746
O O1 0.483132 0.798387 0.116331
O O2 0.222949 0.869574 0.957472
O O3 0.621244 0.258220 0.706380
O O4 0.911793 0.339673 0.663739
O O5 0.201891 0.935455 0.123732
O O6 0.560674 0.500000 0.266648
O O7 0.500000 0.500000 0.000000
O O8 0.691272 0.945766 0.328295
O O9 0.000000 0.000000 0.500000
O O10 0.500000 0.906371 0.500000
O O11 0.000000 0.885378 0.500000
#
# Coordination Sequence:
#
# PCOD9212390 Si02
#       6
#     4   8   4   4   4   8
#     4  12  22  42  64  95 132 172 224 277 338 392
#     4  12  26  43  68  97 133 177 224 279 333 398
#     4   9  22  37  64  91 134 181 216 276 330 406
#     4   8  20  39  62  99 139 179 222 269 338 404
#     4  10  21  41  69 101 135 175 225 278 336 402
#     4  11  25  45  70  99 133 177 224 279 334 400
#
# _framework density 23.441517999999999
#
# number of rings (size 3 to 8) (size 9 to 14) (size 15 to 20)
#    0.750    0.500    0.000    5.625    0.000    9.000 
#    0.000    7.500    0.000    0.000    0.000    0.000 
#    0.000    0.000    0.000    0.000    0.000    0.000 
#
# Total GULP energy -89078.452312 kJ/mol
# GULP energy per Si atom -5567.403270 kJ/mol
# Density = 2.338816 g / cm^3
# Si number density = 23.441518 Si / 1000 Ang^3
#
#
#
# Elastic Constant Matrix: (Units=GPa)
#
#
# Indices 1 2 3 4 5 6 
#
# 1 69.5124 -21.4219 0.1327 0.0000 -0.6269 0.0000
# 2 -21.4219 84.5347 0.1882 0.0000 -12.6488 0.0000
# 3 0.1327 0.1882 61.8170 0.0000 -0.3104 0.0000
# 4 0.0000 0.0000 0.0000 43.2826 0.0000 13.3108
# 5 -0.6269 -12.6488 -0.3104 0.0000 35.2264 0.0000
# 6 0.0000 0.0000 0.0000 13.3108 0.0000 54.5159
#
#
#
# Elastic Compliance Matrix: (Units=1/GPa)
#
#
# Indices 1 2 3 4 5 6 
#
# 1 0.015713 0.004252 -0.000038 0.000000 0.001806 0.000000
# 2 0.004252 0.013652 -0.000026 0.000000 0.004977 0.000000
# 3 -0.000038 -0.000026 0.016178 0.000000 0.000133 0.000000
# 4 0.000000 0.000000 0.000000 0.024980 0.000000 -0.006099
# 5 0.001806 0.004977 0.000133 0.000000 0.030208 0.000000
# 6 0.000000 0.000000 0.000000 -0.006099 0.000000 0.019832
#
#
# Mechanical properties :
#
#
# Convention : Reuss Voigt Hill
#
# Bulk Modulus (GPa) = 18.54615 19.29580 18.92097
# Shear Modulus (GPa) = 38.41481 42.40266 40.40873
#
# Velocity S-wave (km/s) = 4.05254 4.25770 4.15638
# Velocity P-wave (km/s) = 5.46134 5.69385 5.57881
#
# Compressibility (1/GPa) = 0.05391955
#
# Stress axis : x y z
#
# Youngs Moduli (GPa) = 63.64295 73.25043 61.81388
#
# Poissons Ratio (x) = -0.31147 0.00233
# Poissons Ratio (y) = -0.27061 0.00159
# Poissons Ratio (z) = 0.00239 0.00188
#
# Static dielectric constant tensor:
#      x y z
#    x 1.872590 0.000000 0.078370 
#    y 0.000000 1.683680 0.000000 
#    z 0.078370 0.000000 1.839450 
# 
# From -- ./inp_files/115093.got.cif
#   From: 2010.05.17/outbox.cif.g08.bks.cpg/sg12_58_cif.got.tgz:115093.got - 2010.06.03 13:09:07.
