data_PCOD9212130
_publ_section_title
;
Structure prediction by ZEFSAII (Michael W. Deem and Ramdas Pophale) SiO2 
 PCOD9212130
Probable space group: C 2/M
;
_chemical_formula_sum "Si O2"
_cell_formula_units_Z 32
_cell_length_a 16.302194
_cell_length_b 19.362329
_cell_length_c 14.424685
_cell_angle_alpha 90.000000
_cell_angle_beta 161.170533
_cell_angle_gamma 90.000000
_cell_volume 1469.533936
_symmetry_space_group_name_H-M "C 2/M"
_symmetry_group_IT_number 12
_symmetry_cell_setting 'monoclinic'
loop_
_space_group_symop_operation_xyz
x,y,z
-x,y,-z
-x,-y,-z
x,-y,z
1/2+x,1/2+y,z
1/2-x,1/2+y,-z
1/2-x,1/2-y,-z
1/2+x,1/2-y,z
loop_
_atom_site_type_symbol
_atom_site_label
_atom_site_fract_x
_atom_site_fract_y
_atom_site_fract_z
Si Si1 0.459125 0.155222 0.089478
Si Si2 0.138562 0.577454 0.843450
Si Si3 0.000000 0.220041 0.000000
Si Si4 0.500000 0.868438 0.500000
Si Si5 0.959789 0.920774 0.585879
O O1 0.483808 0.139006 0.225961
O O2 0.686411 0.112091 0.288335
O O3 0.482553 0.230758 0.072179
O O4 0.182655 0.122318 0.774438
O O5 0.049472 0.500000 0.777374
O O6 0.093951 0.588100 0.688501
O O7 0.431348 0.580647 0.191251
O O8 0.258192 0.176281 0.274642
O O9 0.957300 0.000000 0.554830
#
# Coordination Sequence:
#
# PCOD9212130 Si02
#       5
#     8   8   4   4   8
#     4  10  21  41  64  88 130 165 205 255 303 374
#     4   9  22  43  68  96 121 158 210 267 317 357
#     4  12  28  44  58  94 132 172 212 238 304 386
#     4  12  27  42  64  92 129 170 206 254 306 374
#     4   9  18  37  64  95 121 155 203 260 317 358
#
# _framework density 21.77561
#
# number of rings (size 3 to 8) (size 9 to 14) (size 15 to 20)
#    1.500    0.500    0.000    3.375    3.500    2.000 
#    0.000    8.125    0.000    0.000    0.000    0.000 
#    0.000    0.000    0.000    0.000    0.000    0.000 
#
# Total GULP energy -89173.741650 kJ/mol
# GULP energy per Si atom -5573.358853 kJ/mol
# Density = 2.172605 g / cm^3
# Si number density = 21.775610 Si / 1000 Ang^3
#
#
#
# Elastic Constant Matrix: (Units=GPa)
#
#
# Indices 1 2 3 4 5 6 
#
# 1 85.6259 -0.5134 24.2433 0.0004 -25.7581 0.0004
# 2 -0.5134 55.1186 29.6754 0.0001 -3.1202 0.0007
# 3 24.2433 29.6754 142.4588 0.0011 14.6967 0.0057
# 4 0.0004 0.0001 0.0011 32.1362 0.0000 -2.5393
# 5 -25.7581 -3.1202 14.6967 0.0000 37.5404 0.0009
# 6 0.0004 0.0007 0.0057 -2.5393 0.0009 11.0209
#
#
#
# Elastic Compliance Matrix: (Units=1/GPa)
#
#
# Indices 1 2 3 4 5 6 
#
# 1 0.017523 0.003811 -0.005262 0.000000 0.014400 0.000001
# 2 0.003811 0.021716 -0.005865 0.000000 0.006716 0.000001
# 3 -0.005262 -0.005865 0.009962 -0.000001 -0.007998 -0.000004
# 4 0.000000 0.000000 -0.000001 0.031695 0.000000 0.007303
# 5 0.014400 0.006716 -0.007998 0.000000 0.040208 0.000000
# 6 0.000001 0.000001 -0.000004 0.007303 0.000000 0.092420
#
#
# Mechanical properties :
#
#
# Convention : Reuss Voigt Hill
#
# Bulk Modulus (GPa) = 28.92675 43.33490 36.13082
# Shear Modulus (GPa) = 20.86140 31.45936 26.16038
#
# Velocity S-wave (km/s) = 3.09854 3.80505 3.46983
# Velocity P-wave (km/s) = 5.11020 6.26486 5.71675
#
# Compressibility (1/GPa) = 0.03457008
#
# Stress axis : x y z
#
# Youngs Moduli (GPa) = 57.06758 46.04877 100.38361
#
# Poissons Ratio (x) = -0.17550 0.52817
# Poissons Ratio (y) = -0.21749 0.58876
# Poissons Ratio (z) = 0.30026 0.27008
#
# Static dielectric constant tensor:
#      x y z
#    x 1.883690 0.000000 -0.040700 
#    y 0.000000 1.751410 0.000000 
#    z -0.040700 0.000000 1.780440 
# 
# From -- ./inp_files/217956.got.cif
#   From: 2010.05.17/outbox.cif.g08.bks.cpg/sg12_109_cif.got.tgz:217956.got - 2010.06.03 13:09:07.
