data_PCOD9212660
_publ_section_title
;
Structure prediction by ZEFSAII (Michael W. Deem and Ramdas Pophale) SiO2 
 PCOD9212660
Probable space group: C 2/M
;
_chemical_formula_sum "Si O2"
_cell_formula_units_Z 56
_cell_length_a 23.036723
_cell_length_b 14.541199
_cell_length_c 14.871077
_cell_angle_alpha 90.000000
_cell_angle_beta 27.626211
_cell_angle_gamma 90.000000
_cell_volume 2309.945559
_symmetry_space_group_name_H-M "C 2/M"
_symmetry_group_IT_number 12
_symmetry_cell_setting 'monoclinic'
loop_
_space_group_symop_operation_xyz
x,y,z
-x,y,-z
-x,-y,-z
x,-y,z
1/2+x,1/2+y,z
1/2-x,1/2+y,-z
1/2-x,1/2-y,-z
1/2+x,1/2-y,z
loop_
_atom_site_type_symbol
_atom_site_label
_atom_site_fract_x
_atom_site_fract_y
_atom_site_fract_z
Si Si1 0.887017 0.609900 0.033715
Si Si2 0.505010 0.402179 0.387590
Si Si3 0.610680 0.216753 0.671092
Si Si4 0.528182 0.397137 0.069017
Si Si5 0.218078 0.644006 0.022630
Si Si6 0.175158 0.753821 0.399534
Si Si7 0.321547 0.901336 0.728088
O O1 0.870751 0.500000 0.075921
O O2 0.033111 0.640425 0.833132
O O3 0.846724 0.628252 0.984367
O O4 0.800583 0.684391 0.208456
O O5 0.500000 0.382680 0.500000
O O6 0.443018 0.500000 0.458877
O O7 0.647431 0.403188 0.166063
O O8 0.428737 0.328977 0.439261
O O9 0.750000 0.250000 0.500000
O O10 0.530879 0.309023 0.801975
O O11 0.644088 0.184438 0.523737
O O12 0.480548 0.500000 0.159730
O O13 0.500000 0.387298 0.000000
O O14 0.674841 0.397303 0.896265
O O15 0.250000 0.750000 0.000000
O O16 0.155717 0.603702 0.196859
O O17 0.135924 0.695961 0.367445
O O18 0.368677 0.000000 0.629883
#
# Coordination Sequence:
#
# PCOD9212660 Si02
#       7
#     8   8   8   8   8   8   8
#     4  12  26  47  73 106 148 194 239 301 373 438
#     4  11  21  35  61  99 136 176 225 276 335 418
#     4  12  28  46  72 100 138 182 237 304 369 439
#     4  10  21  42  72 100 130 175 235 297 353 419
#     4  12  21  41  68 100 145 189 236 288 358 430
#     4  12  24  43  68 102 142 188 238 296 356 430
#     4  11  22  39  67  99 134 183 238 286 349 426
#
# _framework density 24.242996999999999
#
# number of rings (size 3 to 8) (size 9 to 14) (size 15 to 20)
#    0.000    0.571    4.286    4.286    0.000    3.429 
#    0.000    0.714    0.000    3.000    0.000    0.000 
#    0.000    0.000    0.000    0.000    0.000    0.000 
#
# Total GULP energy -156145.197309 kJ/mol
# GULP energy per Si atom -5576.614190 kJ/mol
# Density = 2.418782 g / cm^3
# Si number density = 24.242997 Si / 1000 Ang^3
#
#
#
# Elastic Constant Matrix: (Units=GPa)
#
#
# Indices 1 2 3 4 5 6 
#
# 1 36.5156 -11.3239 14.6899 0.0000 -2.6183 0.0000
# 2 -11.3239 142.2587 29.0448 0.0000 3.9284 0.0000
# 3 14.6899 29.0448 95.3570 0.0000 -5.9911 0.0000
# 4 0.0000 0.0000 0.0000 22.6750 0.0000 2.8710
# 5 -2.6183 3.9284 -5.9911 0.0000 42.7643 0.0000
# 6 0.0000 0.0000 0.0000 2.8710 0.0000 24.3872
#
#
#
# Elastic Compliance Matrix: (Units=1/GPa)
#
#
# Indices 1 2 3 4 5 6 
#
# 1 0.030905 0.003628 -0.005819 0.000000 0.000744 0.000000
# 2 0.003628 0.007966 -0.003044 0.000000 -0.000936 0.000000
# 3 -0.005819 -0.003044 0.012415 0.000000 0.001663 0.000000
# 4 0.000000 0.000000 0.000000 0.044769 0.000000 -0.005270
# 5 0.000744 -0.000936 0.001663 0.000000 0.023748 0.000000
# 6 0.000000 0.000000 0.000000 -0.005270 0.000000 0.041626
#
#
# Mechanical properties :
#
#
# Convention : Reuss Voigt Hill
#
# Bulk Modulus (GPa) = 24.50109 37.66142 31.08125
# Shear Modulus (GPa) = 26.95362 34.07998 30.51680
#
# Velocity S-wave (km/s) = 3.33800 3.75342 3.55179
# Velocity P-wave (km/s) = 4.99847 5.86114 5.44691
#
# Compressibility (1/GPa) = 0.04081452
#
# Stress axis : x y z
#
# Youngs Moduli (GPa) = 32.35737 125.54112 80.54812
#
# Poissons Ratio (x) = -0.45541 0.46872
# Poissons Ratio (y) = -0.11738 0.24518
# Poissons Ratio (z) = 0.18829 0.38213
#
# Static dielectric constant tensor:
#      x y z
#    x 2.675510 0.000000 0.271070 
#    y 0.000000 1.921720 0.000000 
#    z 0.271070 0.000000 2.035910 
# 
# From -- ./inp_files/240880.got.cif
#   From: 2010.05.17/outbox.cif.g08.bks.cpg/sg12_121_cif.got.tgz:240880.got - 2010.06.03 13:09:07.
