data_PCOD9212950
_publ_section_title
;
Structure prediction by ZEFSAII (Michael W. Deem and Ramdas Pophale) SiO2 
 PCOD9212950
Probable space group: C 2/M
;
_chemical_formula_sum "Si O2"
_cell_formula_units_Z 48
_cell_length_a 20.834802
_cell_length_b 17.364254
_cell_length_c 8.461213
_cell_angle_alpha 90.000000
_cell_angle_beta 118.381135
_cell_angle_gamma 90.000000
_cell_volume 2693.175309
_symmetry_space_group_name_H-M "C 2/M"
_symmetry_group_IT_number 12
_symmetry_cell_setting 'monoclinic'
loop_
_space_group_symop_operation_xyz
x,y,z
-x,y,-z
-x,-y,-z
x,-y,z
1/2+x,1/2+y,z
1/2-x,1/2+y,-z
1/2-x,1/2-y,-z
1/2+x,1/2-y,z
loop_
_atom_site_type_symbol
_atom_site_label
_atom_site_fract_x
_atom_site_fract_y
_atom_site_fract_z
Si Si1 0.458035 0.299940 0.606098
Si Si2 0.918303 0.586710 0.477199
Si Si3 0.838789 0.773859 0.925826
Si Si4 0.051183 0.913087 0.907426
Si Si5 0.564111 0.832862 0.178703
Si Si6 0.329387 0.233717 0.284268
O O1 0.500000 0.271838 0.500000
O O2 0.499241 0.376736 0.710082
O O3 0.467539 0.240217 0.760007
O O4 0.373717 0.292511 0.451854
O O5 0.892798 0.500000 0.420225
O O6 0.914677 0.608080 0.659189
O O7 0.868793 0.651755 0.342522
O O8 0.000000 0.592055 0.500000
O O9 0.877230 0.706193 0.869302
O O10 0.755112 0.776418 0.772077
O O11 0.884600 0.853334 0.971735
O O12 0.836616 0.758435 0.111076
O O13 0.076073 0.000000 0.896921
O O14 0.000000 0.917200 0.000000
O O15 0.500000 0.867760 0.000000
#
# Coordination Sequence:
#
# PCOD9212950 Si02
#       6
#     8   8   8   8   8   8
#     4  11  18  34  56  83 110 143 189 228 270 330
#     4  10  22  37  55  82 111 144 183 227 285 331
#     4  11  20  38  57  86 108 149 192 228 275 334
#     4  11  22  37  58  85 116 149 185 230 283 336
#     4  11  18  33  60  81 110 140 186 232 266 323
#     4  10  22  35  61  81 112 145 190 232 277 329
#
# _framework density 17.822828000000001
#
# number of rings (size 3 to 8) (size 9 to 14) (size 15 to 20)
#    0.000    1.333    5.000    3.000    0.000    4.000 
#    0.000    0.833    0.000    1.000    0.000    0.000 
#    0.000    0.000    0.000    0.000    0.000    0.000 
#
# Total GULP energy -133709.342972 kJ/mol
# GULP energy per Si atom -5571.222624 kJ/mol
# Density = 1.778226 g / cm^3
# Si number density = 17.822828 Si / 1000 Ang^3
#
#
#
# Elastic Constant Matrix: (Units=GPa)
#
#
# Indices 1 2 3 4 5 6 
#
# 1 84.8225 27.1672 18.9623 0.0000 18.3108 0.0000
# 2 27.1672 66.4244 7.2072 0.0000 15.7291 0.0000
# 3 18.9623 7.2072 56.4807 0.0000 17.9595 0.0000
# 4 0.0000 0.0000 0.0000 15.5871 0.0000 -0.6895
# 5 18.3108 15.7291 17.9595 0.0000 33.7031 0.0000
# 6 0.0000 0.0000 0.0000 -0.6895 0.0000 12.7705
#
#
#
# Elastic Compliance Matrix: (Units=1/GPa)
#
#
# Indices 1 2 3 4 5 6 
#
# 1 0.014914 -0.004761 -0.003046 0.000000 -0.004258 0.000000
# 2 -0.004761 0.018453 0.001396 0.000000 -0.006769 0.000000
# 3 -0.003046 0.001396 0.021950 0.000000 -0.010693 0.000000
# 4 0.000000 0.000000 0.000000 0.064309 0.000000 0.003472
# 5 -0.004258 -0.006769 -0.010693 0.000000 0.040842 0.000000
# 6 0.000000 0.000000 0.000000 0.003472 0.000000 0.078493
#
#
# Mechanical properties :
#
#
# Convention : Reuss Voigt Hill
#
# Bulk Modulus (GPa) = 23.53147 34.93344 29.23245
# Shear Modulus (GPa) = 18.80064 22.70485 20.75274
#
# Velocity S-wave (km/s) = 3.25139 3.57307 3.41602
# Velocity P-wave (km/s) = 5.22753 6.05520 5.65652
#
# Compressibility (1/GPa) = 0.04249629
#
# Stress axis : x y z
#
# Youngs Moduli (GPa) = 67.04986 54.19033 45.55856
#
# Poissons Ratio (x) = 0.25801 0.13876
# Poissons Ratio (y) = 0.31923 -0.06361
# Poissons Ratio (z) = 0.20421 -0.07566
#
# Static dielectric constant tensor:
#      x y z
#    x 1.627830 0.000000 0.017230 
#    y 0.000000 1.614150 0.000000 
#    z 0.017230 0.000000 1.645550 
# 
# From -- ./inp_files/87433.got.cif
#   From: 2010.05.17/outbox.cif.g08.bks.cpg/sg12_44_cif.got.tgz:87433.got - 2010.06.03 13:09:07.
