data_PCOD9212419
_publ_section_title
;
Structure prediction by ZEFSAII (Michael W. Deem and Ramdas Pophale) SiO2 
 PCOD9212419
Probable space group: C 2/M
;
_chemical_formula_sum "Si O2"
_cell_formula_units_Z 48
_cell_length_a 11.479848
_cell_length_b 20.228205
_cell_length_c 23.383123
_cell_angle_alpha 90.000000
_cell_angle_beta 156.458833
_cell_angle_gamma 90.000000
_cell_volume 2168.765619
_symmetry_space_group_name_H-M "C 2/M"
_symmetry_group_IT_number 12
_symmetry_cell_setting 'monoclinic'
loop_
_space_group_symop_operation_xyz
x,y,z
-x,y,-z
-x,-y,-z
x,-y,z
1/2+x,1/2+y,z
1/2-x,1/2+y,-z
1/2-x,1/2-y,-z
1/2+x,1/2-y,z
loop_
_atom_site_type_symbol
_atom_site_label
_atom_site_fract_x
_atom_site_fract_y
_atom_site_fract_z
Si Si1 0.644039 0.618901 0.223379
Si Si2 0.252822 0.192065 0.161228
Si Si3 0.637740 0.075232 0.281676
Si Si4 0.715901 0.424270 0.480902
Si Si5 0.018278 0.428722 0.922743
Si Si6 0.512699 0.664363 0.724511
O O1 0.614117 0.672206 0.159442
O O2 0.643350 0.648593 0.286358
O O3 0.949762 0.582769 0.351734
O O4 0.355824 0.575494 0.089156
O O5 0.459322 0.131928 0.233244
O O6 0.439114 0.257713 0.256129
O O7 0.000000 0.202606 0.000000
O O8 0.519381 0.075577 0.162743
O O9 0.983281 0.087401 0.427009
O O10 0.596224 0.000000 0.285454
O O11 0.664958 0.500000 0.438277
O O12 0.647492 0.371345 0.400474
O O13 0.899798 0.500000 0.888166
O O14 0.830484 0.370494 0.865578
#
# Coordination Sequence:
#
# PCOD9212419 Si02
#       6
#     8   8   8   8   8   8
#     4  12  25  41  68 105 132 180 231 276 346 403
#     4  12  26  44  70 100 144 179 227 288 330 409
#     4   9  21  44  69  96 136 181 222 277 341 395
#     4  10  24  48  72 100 139 178 226 286 338 402
#     4  10  21  41  70 101 134 175 227 280 334 400
#     4  11  26  43  67 100 138 187 222 276 346 402
#
# _framework density 22.132407000000001
#
# number of rings (size 3 to 8) (size 9 to 14) (size 15 to 20)
#    0.000    1.333    1.667    4.000    4.667    8.333 
#    3.000    1.667    0.000    0.000    0.000    0.000 
#    0.000    0.000    0.000    0.000    0.000    0.000 
#
# Total GULP energy -134225.234993 kJ/mol
# GULP energy per Si atom -5592.718125 kJ/mol
# Density = 2.208203 g / cm^3
# Si number density = 22.132407 Si / 1000 Ang^3
#
#
#
# Elastic Constant Matrix: (Units=GPa)
#
#
# Indices 1 2 3 4 5 6 
#
# 1 115.5457 52.8339 7.2959 0.0421 -3.8620 -0.0322
# 2 52.8339 134.9401 14.4331 0.0466 5.0631 -0.0501
# 3 7.2959 14.4331 120.8349 0.0736 1.6294 -0.0325
# 4 0.0421 0.0466 0.0736 17.5065 -0.0464 16.5710
# 5 -3.8620 5.0631 1.6294 -0.0464 19.6793 0.0147
# 6 -0.0322 -0.0501 -0.0325 16.5710 0.0147 13.6577
#
#
#
# Elastic Compliance Matrix: (Units=1/GPa)
#
#
# Indices 1 2 3 4 5 6 
#
# 1 0.010744 -0.004309 -0.000178 0.000070 0.003232 -0.000079
# 2 -0.004309 0.009303 -0.000809 0.000293 -0.003171 -0.000330
# 3 -0.000178 -0.000809 0.008390 0.000339 -0.000520 -0.000394
# 4 0.000070 0.000293 0.000339 -0.384689 -0.001345 0.466749
# 5 0.003232 -0.003171 -0.000520 -0.001345 0.052304 0.001571
# 6 -0.000079 -0.000330 -0.000394 0.466749 0.001571 -0.493094
#
#
# Mechanical properties :
#
#
# Convention : Reuss Voigt Hill
#
# Bulk Modulus (GPa) = 56.03346 57.82740 56.93043
# Shear Modulus (GPa) = -6.40613 29.95256 11.77322
#
# Velocity S-wave (km/s) = -1.70316 3.68276 2.30889
# Velocity P-wave (km/s) = 4.63732 6.65344 5.73467
#
# Compressibility (1/GPa) = 0.01784648
#
# Stress axis : x y z
#
# Youngs Moduli (GPa) = 93.07422 107.49128 119.19292
#
# Poissons Ratio (x) = 0.46318 0.02118
# Poissons Ratio (y) = 0.40106 0.09637
# Poissons Ratio (z) = 0.01654 0.08691
#
# Static dielectric constant tensor:
#      x y z
#    x 1.823500 0.000000 -0.027760 
#    y 0.000000 1.783790 -0.000020 
#    z -0.027760 -0.000020 1.843220 
# 
# From -- ./inp_files/359068.got.cif
#   From: 2010.05.17/outbox.cif.g08.bks.cpg/sg12_180_cif.got.tgz:359068.got - 2010.06.03 13:09:07.
