data_PCOD9212380
_publ_section_title
;
Structure prediction by ZEFSAII (Michael W. Deem and Ramdas Pophale) SiO2 
 PCOD9212380
Probable space group: C 2/M
;
_chemical_formula_sum "Si O2"
_cell_formula_units_Z 56
_cell_length_a 23.490050
_cell_length_b 14.524879
_cell_length_c 15.939924
_cell_angle_alpha 90.000000
_cell_angle_beta 31.788844
_cell_angle_gamma 90.000000
_cell_volume 2864.972670
_symmetry_space_group_name_H-M "C 2/M"
_symmetry_group_IT_number 12
_symmetry_cell_setting 'monoclinic'
loop_
_space_group_symop_operation_xyz
x,y,z
-x,y,-z
-x,-y,-z
x,-y,z
1/2+x,1/2+y,z
1/2-x,1/2+y,-z
1/2-x,1/2-y,-z
1/2+x,1/2-y,z
loop_
_atom_site_type_symbol
_atom_site_label
_atom_site_fract_x
_atom_site_fract_y
_atom_site_fract_z
Si Si1 0.493314 0.606890 0.264704
Si Si2 0.550729 0.892700 0.612974
Si Si3 0.052323 0.606883 0.803766
Si Si4 0.191968 0.277176 0.304164
Si Si5 0.769267 0.104253 0.635304
Si Si6 0.631645 0.757260 0.188135
Si Si7 0.941814 0.792722 0.984756
O O1 0.526859 0.500000 0.226757
O O2 0.367396 0.611768 0.446587
O O3 0.561380 0.670530 0.243708
O O4 0.509665 0.648813 0.152277
O O5 0.589863 0.883033 0.660075
O O6 0.621572 0.837442 0.456778
O O7 0.432452 0.847288 0.762183
O O8 0.548046 0.000000 0.594830
O O9 0.016657 0.500000 0.859775
O O10 0.155407 0.624260 0.733662
O O11 0.964693 0.684840 0.934566
O O12 0.203800 0.175862 0.327045
O O13 0.141734 0.268325 0.275195
O O14 0.314686 0.313449 0.146477
O O15 0.766198 0.000000 0.670598
O O16 0.750000 0.750000 0.000000
O O17 0.000000 0.812463 0.000000
#
# Coordination Sequence:
#
# PCOD9212380 Si02
#       7
#     8   8   8   8   8   8   8
#     4  11  25  45  65  92 132 174 215 262 324 390
#     4  11  25  44  69  98 129 170 217 268 322 381
#     4  10  21  41  68  98 129 169 219 266 325 386
#     4  12  24  40  66  97 131 166 217 269 316 386
#     4  10  22  40  67  97 128 168 216 271 324 380
#     4  12  24  45  67  92 129 170 218 262 319 380
#     4  12  24  40  67  97 134 172 208 268 328 382
#
# _framework density 19.546434999999999
#
# number of rings (size 3 to 8) (size 9 to 14) (size 15 to 20)
#    0.000    0.857    5.714    0.429    2.000    5.143 
#    0.000    1.429    0.000    0.000    0.000    0.000 
#    0.000    0.000    0.000    0.000    0.000    0.000 
#
# Total GULP energy -156519.246770 kJ/mol
# GULP energy per Si atom -5589.973099 kJ/mol
# Density = 1.950195 g / cm^3
# Si number density = 19.546435 Si / 1000 Ang^3
#
#
#
# Elastic Constant Matrix: (Units=GPa)
#
#
# Indices 1 2 3 4 5 6 
#
# 1 88.6885 32.3034 -9.5615 0.0000 14.4497 0.0000
# 2 32.3034 84.0505 11.9588 0.0000 -3.5533 0.0000
# 3 -9.5615 11.9588 38.7768 0.0000 -6.7711 0.0000
# 4 0.0000 0.0000 0.0000 7.9963 0.0000 -5.8193
# 5 14.4497 -3.5533 -6.7711 0.0000 27.6624 0.0000
# 6 0.0000 0.0000 0.0000 -5.8193 0.0000 16.0711
#
#
#
# Elastic Compliance Matrix: (Units=1/GPa)
#
#
# Indices 1 2 3 4 5 6 
#
# 1 0.015611 -0.006993 0.004623 0.000000 -0.007921 0.000000
# 2 -0.006993 0.015588 -0.005792 0.000000 0.004237 0.000000
# 3 0.004623 -0.005792 0.029421 0.000000 0.004043 0.000000
# 4 0.000000 0.000000 0.000000 0.169803 0.000000 0.061486
# 5 -0.007921 0.004237 0.004043 0.000000 0.041822 0.000000
# 6 0.000000 0.000000 0.000000 0.061486 0.000000 0.084487
#
#
# Mechanical properties :
#
#
# Convention : Reuss Voigt Hill
#
# Bulk Modulus (GPa) = 22.57491 31.21303 26.89397
# Shear Modulus (GPa) = 12.89253 22.13365 17.51309
#
# Velocity S-wave (km/s) = 2.57102 3.36871 2.99653
# Velocity P-wave (km/s) = 4.51531 5.57981 5.07554
#
# Compressibility (1/GPa) = 0.04429697
#
# Stress axis : x y z
#
# Youngs Moduli (GPa) = 64.05614 64.15085 33.98981
#
# Poissons Ratio (x) = 0.44858 -0.15712
# Poissons Ratio (y) = 0.44792 0.19686
# Poissons Ratio (z) = -0.29611 0.37155
#
# Static dielectric constant tensor:
#      x y z
#    x 1.656900 0.000000 0.009120 
#    y 0.000000 1.674840 0.000000 
#    z 0.009120 0.000000 1.697060 
# 
# From -- ./inp_files/240859.got.cif
#   From: 2010.05.17/outbox.cif.g08.bks.cpg/sg12_121_cif.got.tgz:240859.got - 2010.06.03 13:09:07.
