data_PCOD9212221
_publ_section_title
;
Structure prediction by ZEFSAII (Michael W. Deem and Ramdas Pophale) SiO2 
 PCOD9212221
Probable space group: C 2/M
;
_chemical_formula_sum "Si O2"
_cell_formula_units_Z 64
_cell_length_a 8.987408
_cell_length_b 29.719726
_cell_length_c 17.155428
_cell_angle_alpha 90.000000
_cell_angle_beta 135.350553
_cell_angle_gamma 90.000000
_cell_volume 3220.270465
_symmetry_space_group_name_H-M "C 2/M"
_symmetry_group_IT_number 12
_symmetry_cell_setting 'monoclinic'
loop_
_space_group_symop_operation_xyz
x,y,z
-x,y,-z
-x,-y,-z
x,-y,z
1/2+x,1/2+y,z
1/2-x,1/2+y,-z
1/2-x,1/2-y,-z
1/2+x,1/2-y,z
loop_
_atom_site_type_symbol
_atom_site_label
_atom_site_fract_x
_atom_site_fract_y
_atom_site_fract_z
Si Si1 0.234778 0.302058 0.123592
Si Si2 0.995947 0.284042 0.806467
Si Si3 0.254634 0.448060 0.592285
Si Si4 0.225764 0.112959 0.544642
Si Si5 0.877998 0.378527 0.195197
Si Si6 0.767432 0.790442 0.448842
Si Si7 0.296394 0.550769 0.982253
Si Si8 0.513541 0.610230 0.188295
O O1 0.357649 0.259820 0.130519
O O2 0.379928 0.346531 0.167636
O O3 0.182595 0.288611 0.193602
O O4 0.000000 0.308716 0.000000
O O5 0.120191 0.331348 0.850229
O O6 0.890102 0.283406 0.681874
O O7 0.322256 0.500000 0.627214
O O8 0.294416 0.427425 0.522495
O O9 0.364319 0.416110 0.697309
O O10 0.000000 0.446805 0.500000
O O11 0.410154 0.110652 0.677365
O O12 0.271230 0.161777 0.523236
O O13 0.000000 0.116606 0.500000
O O14 0.856932 0.417440 0.123637
O O15 0.687809 0.376765 0.187315
O O16 0.750000 0.750000 0.500000
O O17 0.000000 0.790649 0.500000
O O18 0.221774 0.500000 0.967069
O O19 0.500000 0.548622 0.000000
O O20 0.362566 0.575174 0.086481
#
# Coordination Sequence:
#
# PCOD9212221 Si02
#       8
#     8   8   8   8   8   8   8   8
#     4  12  26  43  67  94 133 179 217 275 328 395
#     4  11  24  41  63  95 129 171 220 265 329 394
#     4  11  24  42  67  97 132 172 219 274 328 397
#     4  10  23  41  64  93 134 174 218 267 331 398
#     4  10  21  41  65  99 129 171 219 276 327 394
#     4  10  22  38  60  91 126 167 208 265 314 387
#     4   9  19  37  64  93 122 164 218 275 327 386
#     4  11  23  40  67  96 130 173 220 274 331 391
#
# _framework density 19.874106999999999
#
# number of rings (size 3 to 8) (size 9 to 14) (size 15 to 20)
#    0.000    1.500    1.250    3.000    7.000    4.250 
#    0.000    0.000    0.000    1.500    0.000    0.000 
#    0.000    0.000    0.000    0.000    0.000    0.000 
#
# Total GULP energy -178620.110041 kJ/mol
# GULP energy per Si atom -5581.878439 kJ/mol
# Density = 1.982887 g / cm^3
# Si number density = 19.874107 Si / 1000 Ang^3
#
#
#
# Elastic Constant Matrix: (Units=GPa)
#
#
# Indices 1 2 3 4 5 6 
#
# 1 69.5330 62.4335 30.4813 0.0000 -1.8796 0.0000
# 2 62.4335 185.6773 74.3096 0.0000 1.7806 0.0000
# 3 30.4813 74.3096 85.4900 0.0000 4.5607 0.0000
# 4 0.0000 0.0000 0.0000 33.4188 0.0000 2.2044
# 5 -1.8796 1.7806 4.5607 0.0000 25.2658 0.0000
# 6 0.0000 0.0000 0.0000 2.2044 0.0000 29.2869
#
#
#
# Elastic Compliance Matrix: (Units=1/GPa)
#
#
# Indices 1 2 3 4 5 6 
#
# 1 0.020977 -0.006183 -0.002233 0.000000 0.002399 0.000000
# 2 -0.006183 0.010094 -0.006570 0.000000 0.000015 0.000000
# 3 -0.002233 -0.006570 0.018365 0.000000 -0.003018 0.000000
# 4 0.000000 0.000000 0.000000 0.030073 0.000000 -0.002263
# 5 0.002399 0.000015 -0.003018 0.000000 0.040301 0.000000
# 6 0.000000 0.000000 0.000000 -0.002263 0.000000 0.034315
#
#
# Mechanical properties :
#
#
# Convention : Reuss Voigt Hill
#
# Bulk Modulus (GPa) = 51.37639 75.01657 63.19648
# Shear Modulus (GPa) = 26.23491 29.15935 27.69713
#
# Velocity S-wave (km/s) = 3.63720 3.83456 3.73718
# Velocity P-wave (km/s) = 6.59894 7.57846 7.10560
#
# Compressibility (1/GPa) = 0.01946419
#
# Stress axis : x y z
#
# Youngs Moduli (GPa) = 47.67141 99.06978 54.45017
#
# Poissons Ratio (x) = 0.61252 0.12160
# Poissons Ratio (y) = 0.29474 0.35775
# Poissons Ratio (z) = 0.10646 0.65090
#
# Static dielectric constant tensor:
#      x y z
#    x 1.680190 0.000000 0.002160 
#    y 0.000000 1.716200 0.000000 
#    z 0.002160 0.000000 1.701790 
# 
# From -- ./inp_files/260400.got.cif
#   From: 2010.05.17/outbox.cif.g08.bks.cpg/sg12_131_cif.got.tgz:260400.got - 2010.06.03 13:09:07.
