data_PCOD9212851
_publ_section_title
;
Structure prediction by ZEFSAII (Michael W. Deem and Ramdas Pophale) SiO2 
 PCOD9212851
Probable space group: C 2/M
;
_chemical_formula_sum "Si O2"
_cell_formula_units_Z 60
_cell_length_a 8.711268
_cell_length_b 18.508174
_cell_length_c 26.392142
_cell_angle_alpha 90.000000
_cell_angle_beta 58.333675
_cell_angle_gamma 90.000000
_cell_volume 3621.681738
_symmetry_space_group_name_H-M "C 2/M"
_symmetry_group_IT_number 12
_symmetry_cell_setting 'monoclinic'
loop_
_space_group_symop_operation_xyz
x,y,z
-x,y,-z
-x,-y,-z
x,-y,z
1/2+x,1/2+y,z
1/2-x,1/2+y,-z
1/2-x,1/2-y,-z
1/2+x,1/2-y,z
loop_
_atom_site_type_symbol
_atom_site_label
_atom_site_fract_x
_atom_site_fract_y
_atom_site_fract_z
Si Si1 0.799785 0.307337 0.377184
Si Si2 0.000000 0.270166 0.000000
Si Si3 0.644513 0.915570 0.169458
Si Si4 0.376400 0.193851 0.915581
Si Si5 0.237015 0.584424 0.706114
Si Si6 0.874269 0.197107 0.190279
Si Si7 0.054989 0.714770 0.542956
Si Si8 0.960914 0.196927 0.729619
O O1 0.781990 0.376218 0.344410
O O2 0.913503 0.323505 0.408499
O O3 0.601466 0.274819 0.422986
O O4 0.903204 0.244423 0.327953
O O5 0.965841 0.315112 0.954977
O O6 0.173480 0.220494 0.959992
O O7 0.620147 0.876323 0.119941
O O8 0.455375 0.907726 0.232192
O O9 0.796349 0.870730 0.173265
O O10 0.686689 0.000000 0.157888
O O11 0.480562 0.257701 0.867352
O O12 0.279327 0.500000 0.694730
O O13 0.385332 0.628793 0.712123
O O14 0.708043 0.251313 0.228857
O O15 0.951796 0.177073 0.231764
O O16 0.250000 0.750000 0.500000
O O17 0.000000 0.674817 0.500000
#
# Coordination Sequence:
#
# PCOD9212851 Si02
#       8
#     8   4   8   8   8   8   8   8
#     4  11  17  33  57  82 111 145 182 234 272 323
#     4  10  22  32  62  84 100 136 210 232 264 314
#     4  11  23  38  56  84 120 148 175 227 293 343
#     4  11  19  37  57  84 105 144 184 240 266 329
#     4  11  23  36  54  87 121 148 176 224 292 346
#     4  12  19  34  60  83 111 144 187 225 277 342
#     4   9  19  31  53  87 107 137 194 241 262 302
#     4  12  19  32  59  89 106 146 190 226 273 340
#
# _framework density 16.566890000000001
#
# number of rings (size 3 to 8) (size 9 to 14) (size 15 to 20)
#    0.000    1.067    8.000    0.000    0.000    0.533 
#    0.000    0.667    0.000    4.000    0.000    0.000 
#    0.000    0.000    0.000    0.000    0.000    0.000 
#
# Total GULP energy -167347.136402 kJ/mol
# GULP energy per Si atom -5578.237880 kJ/mol
# Density = 1.652918 g / cm^3
# Si number density = 16.566890 Si / 1000 Ang^3
#
#
#
# Elastic Constant Matrix: (Units=GPa)
#
#
# Indices 1 2 3 4 5 6 
#
# 1 116.4572 51.8945 52.1677 -0.0002 32.7665 0.0002
# 2 51.8945 117.6052 45.8247 -0.0001 17.0654 0.0001
# 3 52.1677 45.8247 98.8646 -0.0001 16.8437 0.0001
# 4 -0.0002 -0.0001 -0.0001 6.1507 0.0001 4.3772
# 5 32.7665 17.0654 16.8437 0.0001 58.9034 -0.0001
# 6 0.0002 0.0001 0.0001 4.3772 -0.0001 23.6475
#
#
#
# Elastic Compliance Matrix: (Units=1/GPa)
#
#
# Indices 1 2 3 4 5 6 
#
# 1 0.013737 -0.003443 -0.004752 0.000001 -0.005285 0.000000
# 2 -0.003443 0.011408 -0.003400 0.000000 -0.000418 0.000000
# 3 -0.004752 -0.003400 0.014276 0.000000 -0.000454 0.000000
# 4 0.000001 0.000000 0.000000 0.187248 -0.000001 -0.034660
# 5 -0.005285 -0.000418 -0.000454 -0.000001 0.020168 0.000000
# 6 0.000000 0.000000 0.000000 -0.034660 0.000000 0.048703
#
#
# Mechanical properties :
#
#
# Convention : Reuss Voigt Hill
#
# Bulk Modulus (GPa) = 61.61325 70.30008 65.95667
# Shear Modulus (GPa) = 15.42552 29.94301 22.68427
#
# Velocity S-wave (km/s) = 3.05471 4.25597 3.70436
# Velocity P-wave (km/s) = 7.05075 8.16561 7.62857
#
# Compressibility (1/GPa) = 0.01623028
#
# Stress axis : x y z
#
# Youngs Moduli (GPa) = 72.79688 87.66161 70.05003
#
# Poissons Ratio (x) = 0.30181 0.33290
# Poissons Ratio (y) = 0.25063 0.23814
# Poissons Ratio (z) = 0.34595 0.29802
#
# Static dielectric constant tensor:
#      x y z
#    x 1.579160 0.000000 0.021640 
#    y 0.000000 1.508830 0.000000 
#    z 0.021640 0.000000 1.591240 
# 
# From -- ./inp_files/356471.got.cif
#   From: 2010.05.17/outbox.cif.g08.bks.cpg/sg12_179_cif.got.tgz:356471.got - 2010.06.03 13:09:07.
