data_PCOD9212877
_publ_section_title
;
Structure prediction by ZEFSAII (Michael W. Deem and Ramdas Pophale) SiO2 
 PCOD9212877
Probable space group: C 2/M
;
_chemical_formula_sum "Si O2"
_cell_formula_units_Z 28
_cell_length_a 12.290045
_cell_length_b 24.667137
_cell_length_c 12.841650
_cell_angle_alpha 90.000000
_cell_angle_beta 157.281326
_cell_angle_gamma 90.000000
_cell_volume 1503.532601
_symmetry_space_group_name_H-M "C 2/M"
_symmetry_group_IT_number 12
_symmetry_cell_setting 'monoclinic'
loop_
_space_group_symop_operation_xyz
x,y,z
-x,y,-z
-x,-y,-z
x,-y,z
1/2+x,1/2+y,z
1/2-x,1/2+y,-z
1/2-x,1/2-y,-z
1/2+x,1/2-y,z
loop_
_atom_site_type_symbol
_atom_site_label
_atom_site_fract_x
_atom_site_fract_y
_atom_site_fract_z
Si Si1 0.063207 0.872475 0.238078
Si Si2 0.426192 0.937970 0.310783
Si Si3 0.500000 0.793582 0.500000
Si Si4 0.053128 0.225625 0.740165
O O1 0.276124 0.917583 0.470117
O O2 0.263738 0.831723 0.346330
O O3 0.948947 0.837836 0.234741
O O4 0.820048 0.898981 0.951176
O O5 0.500000 0.936149 0.500000
O O6 0.350819 0.000000 0.220174
O O7 0.632368 0.752620 0.701085
O O8 0.750000 0.250000 0.500000
O O9 0.250000 0.250000 0.000000
#
# Coordination Sequence:
#
# PCOD9212877 Si02
#       4
#     8   8   4   8
#     4  11  21  36  54  77 108 145 170 217 263 311
#     4  11  23  35  52  77 106 142 178 214 266 317
#     4  10  22  38  55  78 117 142 170 222 256 316
#     4  10  22  34  52  79 104 143 183 204 261 321
#
# _framework density 18.622807999999999
#
# number of rings (size 3 to 8) (size 9 to 14) (size 15 to 20)
#    0.000    1.429    1.429    5.143    4.000    5.714 
#    0.000    0.000    0.000    0.000    0.000    6.000 
#    0.000    0.000    0.000    0.000    0.000    0.000 
#
# Total GULP energy -78007.380225 kJ/mol
# GULP energy per Si atom -5571.955730 kJ/mol
# Density = 1.858042 g / cm^3
# Si number density = 18.622808 Si / 1000 Ang^3
#
#
#
# Elastic Constant Matrix: (Units=GPa)
#
#
# Indices 1 2 3 4 5 6 
#
# 1 32.7136 30.0782 13.6779 0.0005 -17.6367 0.0003
# 2 30.0782 124.3707 39.0435 0.0001 -14.8251 0.0001
# 3 13.6779 39.0435 144.0174 0.0022 -11.3159 0.0000
# 4 0.0005 0.0001 0.0022 39.3957 0.0011 -5.4992
# 5 -17.6367 -14.8251 -11.3159 0.0011 26.0979 0.0002
# 6 0.0003 0.0001 0.0000 -5.4992 0.0002 25.0021
#
#
#
# Elastic Compliance Matrix: (Units=1/GPa)
#
#
# Indices 1 2 3 4 5 6 
#
# 1 0.057726 -0.009938 -0.000172 -0.000002 0.033290 -0.000001
# 2 -0.009938 0.010944 -0.002135 0.000000 -0.001425 0.000000
# 3 -0.000172 -0.002135 0.007697 0.000000 0.002008 0.000000
# 4 -0.000002 0.000000 0.000000 0.026187 -0.000002 0.005760
# 5 0.033290 -0.001425 0.002008 -0.000002 0.060876 -0.000002
# 6 -0.000001 0.000000 0.000000 0.005760 -0.000002 0.041263
#
#
# Mechanical properties :
#
#
# Convention : Reuss Voigt Hill
#
# Bulk Modulus (GPa) = 19.27707 51.85567 35.56637
# Shear Modulus (GPa) = 20.28590 32.65261 26.46926
#
# Velocity S-wave (km/s) = 3.30404 4.19186 3.77415
# Velocity P-wave (km/s) = 4.99293 7.16482 6.17511
#
# Compressibility (1/GPa) = 0.05187510
#
# Stress axis : x y z
#
# Youngs Moduli (GPa) = 17.32333 91.37095 129.92772
#
# Poissons Ratio (x) = 0.90806 0.02240
# Poissons Ratio (y) = 0.17216 0.27742
# Poissons Ratio (z) = 0.00299 0.19509
#
# Static dielectric constant tensor:
#      x y z
#    x 1.707680 0.000000 0.031280 
#    y 0.000000 1.743900 0.000000 
#    z 0.031280 0.000000 1.660570 
# 
# From -- ./inp_files/217524.got.cif
#   From: 2010.05.17/outbox.cif.g08.bks.cpg/sg12_109_cif.got.tgz:217524.got - 2010.06.03 13:09:07.
