data_PCOD9212977
_publ_section_title
;
Structure prediction by ZEFSAII (Michael W. Deem and Ramdas Pophale) SiO2 
 PCOD9212977
Probable space group: C 2/M
;
_chemical_formula_sum "Si O2"
_cell_formula_units_Z 26
_cell_length_a 18.634696
_cell_length_b 7.221043
_cell_length_c 13.126236
_cell_angle_alpha 90.000000
_cell_angle_beta 42.948882
_cell_angle_gamma 90.000000
_cell_volume 1203.455128
_symmetry_space_group_name_H-M "C 2/M"
_symmetry_group_IT_number 12
_symmetry_cell_setting 'monoclinic'
loop_
_space_group_symop_operation_xyz
x,y,z
-x,y,-z
-x,-y,-z
x,-y,z
1/2+x,1/2+y,z
1/2-x,1/2+y,-z
1/2-x,1/2-y,-z
1/2+x,1/2-y,z
loop_
_atom_site_type_symbol
_atom_site_label
_atom_site_fract_x
_atom_site_fract_y
_atom_site_fract_z
Si Si1 0.833555 0.000000 0.624145
Si Si2 0.689206 0.719082 0.668541
Si Si3 0.551713 0.206693 0.104804
Si Si4 0.500000 0.500000 0.000000
Si Si5 0.444204 0.500000 0.725010
O O1 0.761628 0.177429 0.674405
O O2 0.934403 0.000000 0.442106
O O3 0.875506 0.000000 0.694860
O O4 0.668748 0.500000 0.708273
O O5 0.750000 0.750000 0.500000
O O6 0.575337 0.804397 0.767858
O O7 0.575867 0.321888 0.182230
O O8 0.596659 0.000000 0.053716
O O9 0.568248 0.337827 0.990740
#
# Coordination Sequence:
#
# PCOD9212977 Si02
#       5
#     4   8   8   2   4
#     4  11  22  34  54  87 127 152 187 227 298 341
#     4  12  19  33  57  87 114 150 188 235 278 345
#     4  11  20  37  62  83 115 151 195 237 288 332
#     4  10  22  38  56  96 110 142 200 252 272 334
#     4  10  22  36  52  88 127 152 179 242 284 352
#
# _framework density 21.60446
#
# number of rings (size 3 to 8) (size 9 to 14) (size 15 to 20)
#    0.000    0.923    9.231    0.462    0.000    1.231 
#    0.000    3.077    0.000    7.385    0.000    0.000 
#    0.000    0.000    0.000    0.000    0.000    0.000 
#
# Total GULP energy -72399.867020 kJ/mol
# GULP energy per Si atom -5569.220540 kJ/mol
# Density = 2.155529 g / cm^3
# Si number density = 21.604460 Si / 1000 Ang^3
#
#
#
# Elastic Constant Matrix: (Units=GPa)
#
#
# Indices 1 2 3 4 5 6 
#
# 1 91.2723 36.8956 13.3009 -0.0001 35.7565 0.0001
# 2 36.8956 218.3512 32.7080 -0.0001 35.3228 0.0002
# 3 13.3009 32.7080 67.5776 0.0000 26.1165 0.0001
# 4 -0.0001 -0.0001 0.0000 21.5589 0.0000 -8.2376
# 5 35.7565 35.3228 26.1165 0.0000 47.2723 0.0000
# 6 0.0001 0.0002 0.0001 -8.2376 0.0000 22.7185
#
#
#
# Elastic Compliance Matrix: (Units=1/GPa)
#
#
# Indices 1 2 3 4 5 6 
#
# 1 0.015947 -0.000996 0.002183 0.000000 -0.012525 0.000000
# 2 -0.000996 0.005362 -0.001452 0.000000 -0.002451 0.000000
# 3 0.002183 -0.001452 0.019441 0.000000 -0.011307 0.000000
# 4 0.000000 0.000000 0.000000 0.053844 0.000000 0.019524
# 5 -0.012525 -0.002451 -0.011307 0.000000 0.038706 0.000000
# 6 0.000000 0.000000 0.000000 0.019524 0.000000 0.051096
#
#
# Mechanical properties :
#
#
# Convention : Reuss Voigt Hill
#
# Bulk Modulus (GPa) = 24.86222 60.33447 42.59835
# Shear Modulus (GPa) = 25.21027 37.92970 31.56998
#
# Velocity S-wave (km/s) = 3.41970 4.19458 3.82681
# Velocity P-wave (km/s) = 5.20820 7.17265 6.26786
#
# Compressibility (1/GPa) = 0.04022167
#
# Stress axis : x y z
#
# Youngs Moduli (GPa) = 62.70730 186.49520 51.43878
#
# Poissons Ratio (x) = 0.18567 -0.11231
# Poissons Ratio (y) = 0.06243 0.07468
# Poissons Ratio (z) = -0.13692 0.27078
#
# Static dielectric constant tensor:
#      x y z
#    x 1.696150 0.000000 0.018990 
#    y 0.000000 1.834710 0.000000 
#    z 0.018990 0.000000 1.849170 
# 
# From -- ./inp_files/150701.got.cif
#   From: 2010.05.17/outbox.cif.g08.bks.cpg/sg12_76_cif.got.tgz:150701.got - 2010.06.03 13:09:07.
