data_PCOD9212754
_publ_section_title
;
Structure prediction by ZEFSAII (Michael W. Deem and Ramdas Pophale) SiO2 
 PCOD9212754
Probable space group: C 2/M
;
_chemical_formula_sum "Si O2"
_cell_formula_units_Z 58
_cell_length_a 19.509586
_cell_length_b 9.578610
_cell_length_c 14.401047
_cell_angle_alpha 90.000000
_cell_angle_beta 71.334948
_cell_angle_gamma 90.000000
_cell_volume 2549.650123
_symmetry_space_group_name_H-M "C 2/M"
_symmetry_group_IT_number 12
_symmetry_cell_setting 'monoclinic'
loop_
_space_group_symop_operation_xyz
x,y,z
-x,y,-z
-x,-y,-z
x,-y,z
1/2+x,1/2+y,z
1/2-x,1/2+y,-z
1/2-x,1/2-y,-z
1/2+x,1/2-y,z
loop_
_atom_site_type_symbol
_atom_site_label
_atom_site_fract_x
_atom_site_fract_y
_atom_site_fract_z
Si Si1 0.000000 0.500000 0.000000
Si Si2 0.231332 0.159634 0.370223
Si Si3 0.238892 0.841527 0.144295
Si Si4 0.104292 0.235274 0.910992
Si Si5 0.990847 0.334807 0.711513
Si Si6 0.586794 0.654570 0.116134
Si Si7 0.424095 0.660710 0.585875
Si Si8 0.872410 0.837793 0.314244
O O1 0.941556 0.377789 0.061209
O O2 0.223089 0.163842 0.261387
O O3 0.149579 0.188352 0.438962
O O4 0.293949 0.269018 0.365994
O O5 0.252228 0.000000 0.386236
O O6 0.310901 0.754738 0.099953
O O7 0.167795 0.810355 0.115927
O O8 0.258498 0.000000 0.112141
O O9 0.108479 0.175416 0.804821
O O10 0.077393 0.148502 0.010587
O O11 0.997865 0.500000 0.705779
O O12 0.066401 0.255964 0.664275
O O13 0.960795 0.278866 0.822124
O O14 0.934362 0.274225 0.661638
O O15 0.567957 0.500000 0.162936
O O16 0.500000 0.665445 0.500000
O O17 0.416504 0.500000 0.623578
O O18 0.875455 0.000000 0.339778
#
# Coordination Sequence:
#
# PCOD9212754 Si02
#       8
#     2   8   8   8   8   8   8   8
#     4  12  24  36  54  76 120 160 214 262 312 372
#     4   9  18  37  64  95 126 165 206 253 314 378
#     4   9  17  34  57  83 119 160 203 258 311 365
#     4  11  23  36  56  85 121 168 216 265 308 365
#     4  12  26  41  63  94 127 166 210 262 315 374
#     4  11  22  38  60  84 121 162 212 267 317 365
#     4  10  21  43  74 102 130 163 201 249 316 388
#     4  11  24  41  63  89 129 170 219 267 314 373
#
# _framework density 22.748218999999999
#
# number of rings (size 3 to 8) (size 9 to 14) (size 15 to 20)
#    0.000    1.517    2.069    3.310    4.828    0.828 
#    0.000    3.448    0.000    0.000    0.000    0.000 
#    0.000    0.000    0.000    0.000    0.000    0.000 
#
# Total GULP energy -161755.986729 kJ/mol
# GULP energy per Si atom -5577.792646 kJ/mol
# Density = 2.269644 g / cm^3
# Si number density = 22.748219 Si / 1000 Ang^3
#
#
#
# Elastic Constant Matrix: (Units=GPa)
#
#
# Indices 1 2 3 4 5 6 
#
# 1 122.0433 73.5951 5.7284 0.0000 -13.6789 0.0000
# 2 73.5951 171.5140 30.8767 0.0000 -17.3521 0.0000
# 3 5.7284 30.8767 56.3435 0.0000 -12.4890 0.0000
# 4 0.0000 0.0000 0.0000 12.5064 0.0000 -12.6816
# 5 -13.6789 -17.3521 -12.4890 0.0000 29.2306 0.0000
# 6 0.0000 0.0000 0.0000 -12.6816 0.0000 23.7714
#
#
#
# Elastic Compliance Matrix: (Units=1/GPa)
#
#
# Indices 1 2 3 4 5 6 
#
# 1 0.011482 -0.005002 0.002327 0.000000 0.003398 0.000000
# 2 -0.005002 0.008827 -0.004072 0.000000 0.001160 0.000000
# 3 0.002327 -0.004072 0.021483 0.000000 0.007851 0.000000
# 4 0.000000 0.000000 0.000000 0.174185 0.000000 0.092925
# 5 0.003398 0.001160 0.007851 0.000000 0.039843 0.000000
# 6 0.000000 0.000000 0.000000 0.092925 0.000000 0.091641
#
#
# Mechanical properties :
#
#
# Convention : Reuss Voigt Hill
#
# Bulk Modulus (GPa) = 35.33741 63.36679 49.35210
# Shear Modulus (GPa) = 13.49938 29.08174 21.29056
#
# Velocity S-wave (km/s) = 2.43868 3.57938 3.06260
# Velocity P-wave (km/s) = 4.84741 6.70811 5.85219
#
# Compressibility (1/GPa) = 0.02829863
#
# Stress axis : x y z
#
# Youngs Moduli (GPa) = 87.09547 113.28910 46.54802
#
# Poissons Ratio (x) = 0.56665 -0.10831
# Poissons Ratio (y) = 0.43563 0.18953
# Poissons Ratio (z) = -0.20266 0.46128
#
# Static dielectric constant tensor:
#      x y z
#    x 1.900270 0.000000 0.001690 
#    y 0.000000 1.484710 0.000000 
#    z 0.001690 0.000000 1.947020 
# 
# From -- ./inp_files/282113.got.cif
#   From: 2010.05.17/outbox.cif.g08.bks.cpg/sg12_142_cif.got.tgz:282113.got - 2010.06.03 13:09:07.
