data_PCOD9212035
_publ_section_title
;
Structure prediction by ZEFSAII (Michael W. Deem and Ramdas Pophale) SiO2 
 PCOD9212035
Probable space group: C 2/M
;
_chemical_formula_sum "Si O2"
_cell_formula_units_Z 60
_cell_length_a 15.108201
_cell_length_b 7.562587
_cell_length_c 21.152288
_cell_angle_alpha 90.000000
_cell_angle_beta 72.084950
_cell_angle_gamma 90.000000
_cell_volume 2299.616975
_symmetry_space_group_name_H-M "C 2/M"
_symmetry_group_IT_number 12
_symmetry_cell_setting 'monoclinic'
loop_
_space_group_symop_operation_xyz
x,y,z
-x,y,-z
-x,-y,-z
x,-y,z
1/2+x,1/2+y,z
1/2-x,1/2+y,-z
1/2-x,1/2-y,-z
1/2+x,1/2-y,z
loop_
_atom_site_type_symbol
_atom_site_label
_atom_site_fract_x
_atom_site_fract_y
_atom_site_fract_z
Si Si1 0.694515 0.297476 0.152565
Si Si2 0.894153 0.715668 0.097877
Si Si3 0.000000 0.747056 0.500000
Si Si4 0.398784 0.213545 0.948446
Si Si5 0.505533 0.798071 0.258466
Si Si6 0.188811 0.791559 0.693172
Si Si7 0.395230 0.219854 0.642295
Si Si8 0.345388 0.712707 0.443292
O O1 0.692466 0.500000 0.173680
O O2 0.795581 0.220206 0.147316
O O3 0.678834 0.290686 0.080377
O O4 0.601039 0.210662 0.198866
O O5 0.892855 0.500000 0.103421
O O6 0.997148 0.772184 0.095973
O O7 0.890202 0.759146 0.023879
O O8 0.921547 0.802980 0.569079
O O9 0.927259 0.687488 0.462201
O O10 0.395073 0.000000 0.944777
O O11 0.408609 0.737218 0.249665
O O12 0.533516 0.715797 0.319706
O O13 0.487102 0.000000 0.275578
O O14 0.291511 0.726643 0.687885
O O15 0.168222 0.731053 0.625977
O O16 0.199859 0.000000 0.687653
O O17 0.397488 0.000000 0.635250
O O18 0.365576 0.500000 0.441828
O O19 0.250000 0.750000 0.500000
#
# Coordination Sequence:
#
# PCOD9212035 Si02
#       8
#     8   8   4   8   8   8   8   8
#     4  11  22  37  57  85 118 157 194 238 289 341
#     4   8  17  34  59  89 123 156 193 234 286 337
#     4  12  20  38  60  92 119 148 183 236 293 358
#     4   9  17  35  61  89 120 157 194 237 280 337
#     4  11  24  42  59  82 110 150 200 244 286 346
#     4  10  21  41  60  82 113 149 185 234 291 342
#     4  10  22  38  61  87 114 148 189 237 295 351
#     4  11  23  37  58  88 120 149 183 229 287 350
#
# _framework density 26.091301999999999
#
# number of rings (size 3 to 8) (size 9 to 14) (size 15 to 20)
#    0.000    1.867    2.667    2.400    0.000    2.133 
#    0.000    7.333    0.000    0.000    0.000    0.000 
#    0.000    0.000    0.000    0.000    0.000    0.000 
#
# Total GULP energy -167418.246190 kJ/mol
# GULP energy per Si atom -5580.608206 kJ/mol
# Density = 2.603192 g / cm^3
# Si number density = 26.091302 Si / 1000 Ang^3
#
#
#
# Elastic Constant Matrix: (Units=GPa)
#
#
# Indices 1 2 3 4 5 6 
#
# 1 205.9114 13.1631 19.8088 0.0000 -35.2017 0.0000
# 2 13.1631 86.8039 0.1801 0.0000 -1.3142 0.0001
# 3 19.8088 0.1801 66.5251 0.0000 -25.1880 0.0000
# 4 0.0000 0.0000 0.0000 67.2867 0.0000 0.7320
# 5 -35.2017 -1.3142 -25.1880 0.0000 57.5670 0.0000
# 6 0.0000 0.0001 0.0000 0.7320 0.0000 0.8357
#
#
#
# Elastic Compliance Matrix: (Units=1/GPa)
#
#
# Indices 1 2 3 4 5 6 
#
# 1 0.005486 -0.000783 -0.000441 0.000000 0.003144 0.000000
# 2 -0.000783 0.011636 0.000145 0.000000 -0.000150 -0.000001
# 3 -0.000441 0.000145 0.018053 0.000000 0.007632 0.000000
# 4 0.000000 0.000000 0.000000 0.015005 0.000000 -0.013143
# 5 0.003144 -0.000150 0.007632 0.000000 0.022630 0.000000
# 6 0.000000 -0.000001 0.000000 -0.013143 0.000000 1.208176
#
#
# Mechanical properties :
#
#
# Convention : Reuss Voigt Hill
#
# Bulk Modulus (GPa) = 30.28803 47.28271 38.78537
# Shear Modulus (GPa) = 3.86354 46.87711 25.37032
#
# Velocity S-wave (km/s) = 1.21819 4.24330 3.12166
# Velocity P-wave (km/s) = 3.68949 6.49375 5.28115
#
# Compressibility (1/GPa) = 0.03301634
#
# Stress axis : x y z
#
# Youngs Moduli (GPa) = 182.26658 85.93687 55.39344
#
# Poissons Ratio (x) = 0.06733 0.02444
# Poissons Ratio (y) = 0.14280 -0.00803
# Poissons Ratio (z) = 0.08041 -0.01246
#
# Static dielectric constant tensor:
#      x y z
#    x 2.079600 0.000000 -0.051690 
#    y 0.000000 2.050400 0.000000 
#    z -0.051690 0.000000 2.125430 
# 
# From -- ./inp_files/338653.got.cif
#   From: 2010.05.17/outbox.cif.g08.bks.cpg/sg12_170_cif.got.tgz:338653.got - 2010.06.03 13:09:07.
