data_PCOD9212014
_publ_section_title
;
Structure prediction by ZEFSAII (Michael W. Deem and Ramdas Pophale) SiO2 
 PCOD9212014
Probable space group: C 2/M
;
_chemical_formula_sum "Si O2"
_cell_formula_units_Z 20
_cell_length_a 9.120481
_cell_length_b 17.360712
_cell_length_c 5.408437
_cell_angle_alpha 90.000000
_cell_angle_beta 118.889705
_cell_angle_gamma 90.000000
_cell_volume 749.788323
_symmetry_space_group_name_H-M "C 2/M"
_symmetry_group_IT_number 12
_symmetry_cell_setting 'monoclinic'
loop_
_space_group_symop_operation_xyz
x,y,z
-x,y,-z
-x,-y,-z
x,-y,z
1/2+x,1/2+y,z
1/2-x,1/2+y,-z
1/2-x,1/2-y,-z
1/2+x,1/2-y,z
loop_
_atom_site_type_symbol
_atom_site_label
_atom_site_fract_x
_atom_site_fract_y
_atom_site_fract_z
Si Si1 0.901297 0.000000 0.676207
Si Si2 0.595506 0.911117 0.348410
Si Si3 0.699520 0.295288 0.709346
O O1 0.781822 0.926995 0.603328
O O2 0.000000 0.000000 0.500000
O O3 0.000000 0.000000 0.000000
O O4 0.500000 0.873278 0.500000
O O5 0.663736 0.866353 0.164402
O O6 0.531182 0.000000 0.264576
O O7 0.500000 0.312451 0.500000
O O8 0.750000 0.250000 0.500000
O O9 0.750000 0.250000 0.000000
#
# Coordination Sequence:
#
# PCOD9212014 Si02
#       3
#     4   8   8
#     4  10  21  40  71 112 150 190 250 314 394 464
#     4   9  22  48  79 115 155 200 258 329 399 467
#     4  12  27  49  78 113 157 212 264 326 393 475
#
# _framework density 26.674192999999999
#
# number of rings (size 3 to 8) (size 9 to 14) (size 15 to 20)
#    1.200    0.400    0.000    3.600    0.000    6.400 
#    0.000    8.000    0.000    1.200    0.000    0.000 
#    0.000    0.000    0.000    0.000    0.000    0.000 
#
# Total GULP energy -55675.215381 kJ/mol
# GULP energy per Si atom -5567.521538 kJ/mol
# Density = 2.661348 g / cm^3
# Si number density = 26.674193 Si / 1000 Ang^3
#
#
#
# Elastic Constant Matrix: (Units=GPa)
#
#
# Indices 1 2 3 4 5 6 
#
# 1 236.2002 39.0960 42.8814 0.0000 -24.3836 0.0000
# 2 39.0960 102.0200 -22.8135 0.0000 -38.3874 0.0000
# 3 42.8814 -22.8135 127.5441 0.0000 -46.7649 0.0000
# 4 0.0000 0.0000 0.0000 36.0877 0.0000 -18.6943
# 5 -24.3836 -38.3874 -46.7649 0.0000 55.3576 0.0000
# 6 0.0000 0.0000 0.0000 -18.6943 0.0000 54.1132
#
#
#
# Elastic Compliance Matrix: (Units=1/GPa)
#
#
# Indices 1 2 3 4 5 6 
#
# 1 0.005327 -0.004730 -0.004316 0.000000 -0.004580 0.000000
# 2 -0.004730 0.028747 0.019236 0.000000 0.034101 0.000000
# 3 -0.004316 0.019236 0.024521 0.000000 0.032153 0.000000
# 4 0.000000 0.000000 0.000000 0.033750 0.000000 0.011660
# 5 -0.004580 0.034101 0.032153 0.000000 0.066856 0.000000
# 6 0.000000 0.000000 0.000000 0.011660 0.000000 0.022508
#
#
# Mechanical properties :
#
#
# Convention : Reuss Voigt Hill
#
# Bulk Modulus (GPa) = 12.66233 64.89913 38.78073
# Shear Modulus (GPa) = 26.64438 56.21841 41.43140
#
# Velocity S-wave (km/s) = 3.16394 4.59584 3.94539
# Velocity P-wave (km/s) = 4.25496 7.24882 5.94349
#
# Compressibility (1/GPa) = 0.07897442
#
# Stress axis : x y z
#
# Youngs Moduli (GPa) = 187.70618 34.78568 40.78093
#
# Poissons Ratio (x) = 0.16454 0.17603
# Poissons Ratio (y) = 0.88787 -0.78445
# Poissons Ratio (z) = 0.81023 -0.66913
#
# Static dielectric constant tensor:
#      x y z
#    x 2.282570 0.000000 0.614850 
#    y 0.000000 2.253700 0.000000 
#    z 0.614850 0.000000 6.065510 
# 
# From -- ./inp_files/2236.got.cif
#   From: 2010.05.17/outbox.cif.g08.bks.cpg/sg12_2_cif.got.tgz:2236.got - 2010.06.03 13:09:07.
