data_PCOD9212665
_publ_section_title
;
Structure prediction by ZEFSAII (Michael W. Deem and Ramdas Pophale) SiO2 
 PCOD9212665
Probable space group: C 2/M
;
_chemical_formula_sum "Si O2"
_cell_formula_units_Z 52
_cell_length_a 26.915362
_cell_length_b 9.577061
_cell_length_c 28.075050
_cell_angle_alpha 90.000000
_cell_angle_beta 159.429953
_cell_angle_gamma 90.000000
_cell_volume 2542.703697
_symmetry_space_group_name_H-M "C 2/M"
_symmetry_group_IT_number 12
_symmetry_cell_setting 'monoclinic'
loop_
_space_group_symop_operation_xyz
x,y,z
-x,y,-z
-x,-y,-z
x,-y,z
1/2+x,1/2+y,z
1/2-x,1/2+y,-z
1/2-x,1/2-y,-z
1/2+x,1/2-y,z
loop_
_atom_site_type_symbol
_atom_site_label
_atom_site_fract_x
_atom_site_fract_y
_atom_site_fract_z
Si Si1 0.716125 0.000000 0.987096
Si Si2 0.651049 0.342776 0.039385
Si Si3 0.252013 0.338583 0.549559
Si Si4 0.072138 0.787340 0.860888
Si Si5 0.909361 0.335611 0.501024
Si Si6 0.835728 0.839437 0.797214
Si Si7 0.689048 0.333471 0.745451
O O1 0.840358 0.122250 0.098377
O O2 0.596903 0.124088 0.877045
O O3 0.700432 0.500000 0.095787
O O4 0.634876 0.332682 0.968365
O O5 0.494632 0.322838 0.920921
O O6 0.753460 0.226836 0.152914
O O7 0.224500 0.500000 0.513582
O O8 0.250000 0.250000 0.500000
O O9 0.408136 0.325261 0.711899
O O10 0.141167 0.297326 0.491166
O O11 0.950949 0.500000 0.537460
O O12 0.776244 0.322444 0.346081
O O13 0.037555 0.237838 0.600432
O O14 0.795158 0.730455 0.801446
O O15 0.822429 0.000000 0.803088
O O16 0.683851 0.500000 0.739776
#
# Coordination Sequence:
#
# PCOD9212665 Si02
#       7
#     4   8   8   8   8   8   8
#     4  10  24  38  70  96 132 166 218 268 324 380
#     4  11  22  42  71  94 129 171 219 267 323 388
#     4  11  24  44  68  96 132 170 220 267 318 386
#     4  11  22  46  66  99 130 174 216 270 325 388
#     4  10  22  44  70  93 126 176 223 265 314 384
#     4  10  21  42  73  95 122 170 223 270 321 387
#     4  12  27  42  59 100 138 168 211 273 329 385
#
# _framework density 20.450672000000001
#
# number of rings (size 3 to 8) (size 9 to 14) (size 15 to 20)
#    0.000    1.231    3.077    2.308    2.154    8.000 
#    2.769    0.000    0.000    0.000    0.000    0.000 
#    0.000    0.000    0.000    0.000    0.000    0.000 
#
# Total GULP energy -144860.372744 kJ/mol
# GULP energy per Si atom -5571.552798 kJ/mol
# Density = 2.040413 g / cm^3
# Si number density = 20.450672 Si / 1000 Ang^3
#
#
#
# Elastic Constant Matrix: (Units=GPa)
#
#
# Indices 1 2 3 4 5 6 
#
# 1 43.4958 21.4884 0.3396 -0.0003 -2.7865 0.0000
# 2 21.4884 136.7588 21.3303 -0.0003 2.5077 -0.0001
# 3 0.3396 21.3303 52.1152 0.0004 -3.1721 0.0002
# 4 -0.0003 -0.0003 0.0004 20.6828 -0.0005 4.8618
# 5 -2.7865 2.5077 -3.1721 -0.0005 31.1966 0.0002
# 6 0.0000 -0.0001 0.0002 4.8618 0.0002 29.3051
#
#
#
# Elastic Compliance Matrix: (Units=1/GPa)
#
#
# Indices 1 2 3 4 5 6 
#
# 1 0.025279 -0.004298 0.001764 0.000000 0.002783 0.000000
# 2 -0.004298 0.008570 -0.003567 0.000000 -0.001436 0.000000
# 3 0.001764 -0.003567 0.020792 0.000000 0.002558 0.000000
# 4 0.000000 0.000000 0.000000 0.050311 0.000001 -0.008347
# 5 0.002783 -0.001436 0.002558 0.000001 0.032679 0.000000
# 6 0.000000 0.000000 0.000000 -0.008347 0.000000 0.035509
#
#
# Mechanical properties :
#
#
# Convention : Reuss Voigt Hill
#
# Bulk Modulus (GPa) = 23.56342 35.40959 29.48650
# Shear Modulus (GPa) = 25.06404 28.85099 26.95751
#
# Velocity S-wave (km/s) = 3.50463 3.76008 3.63460
# Velocity P-wave (km/s) = 5.28429 6.01691 5.66246
#
# Compressibility (1/GPa) = 0.04243866
#
# Stress axis : x y z
#
# Youngs Moduli (GPa) = 39.55908 116.68387 48.09438
#
# Poissons Ratio (x) = 0.50152 -0.08483
# Poissons Ratio (y) = 0.17003 0.17156
# Poissons Ratio (z) = -0.06978 0.41622
#
# Static dielectric constant tensor:
#      x y z
#    x 1.781100 0.000000 -0.005660 
#    y 0.000000 1.711790 0.000000 
#    z -0.005660 0.000000 1.734320 
# 
# From -- ./inp_files/384861.got.cif
#   From: 2010.05.17/outbox.cif.g08.bks.cpg/sg12_193_cif.got.tgz:384861.got - 2010.06.03 13:09:07.
