data_PCOD9212425
_publ_section_title
;
Structure prediction by ZEFSAII (Michael W. Deem and Ramdas Pophale) SiO2 
 PCOD9212425
Probable space group: C 2/M
;
_chemical_formula_sum "Si O2"
_cell_formula_units_Z 44
_cell_length_a 19.181031
_cell_length_b 16.633354
_cell_length_c 8.360924
_cell_angle_alpha 90.000000
_cell_angle_beta 135.518576
_cell_angle_gamma 90.000000
_cell_volume 1869.065514
_symmetry_space_group_name_H-M "C 2/M"
_symmetry_group_IT_number 12
_symmetry_cell_setting 'monoclinic'
loop_
_space_group_symop_operation_xyz
x,y,z
-x,y,-z
-x,-y,-z
x,-y,z
1/2+x,1/2+y,z
1/2-x,1/2+y,-z
1/2-x,1/2-y,-z
1/2+x,1/2-y,z
loop_
_atom_site_type_symbol
_atom_site_label
_atom_site_fract_x
_atom_site_fract_y
_atom_site_fract_z
Si Si1 0.233634 0.000000 0.388289
Si Si2 0.944587 0.268211 0.561285
Si Si3 0.034376 0.136654 0.891469
Si Si4 0.384255 0.500000 0.145468
Si Si5 0.255742 0.000000 0.775920
Si Si6 0.748389 0.316146 0.355649
Si Si7 0.045152 0.589756 0.901217
O O1 0.195347 0.000000 0.510301
O O2 0.278220 0.908451 0.454936
O O3 0.174812 0.000000 0.123126
O O4 0.830147 0.290185 0.359726
O O5 0.000000 0.234167 0.500000
O O6 0.955386 0.204097 0.719987
O O7 0.007150 0.346514 0.713735
O O8 0.048122 0.077503 0.766588
O O9 0.139863 0.178078 0.100869
O O10 0.000000 0.095487 0.000000
O O11 0.312406 0.500000 0.179355
O O12 0.335688 0.925691 0.905203
O O13 0.750000 0.250000 0.500000
O O14 0.003816 0.500000 0.798980
O O15 0.000000 0.612604 0.000000
#
# Coordination Sequence:
#
# PCOD9212425 Si02
#       7
#     4   8   8   4   4   8   8
#     4  10  24  42  73 105 139 188 243 284 363 431
#     4  12  27  42  67 109 141 184 232 295 358 432
#     4  11  24  49  73  95 142 184 239 296 357 420
#     4  10  25  45  72 104 134 191 242 298 355 417
#     4  10  21  41  70 104 141 185 230 297 354 436
#     4  11  25  44  74 103 136 190 241 289 358 433
#     4   9  21  39  64  98 139 184 221 280 361 421
#
# _framework density 23.541177000000001
#
# number of rings (size 3 to 8) (size 9 to 14) (size 15 to 20)
#    0.545    0.909    1.818    1.909    8.909    2.545 
#    0.000    0.455    0.000    0.000    0.000    0.000 
#    0.000    0.000    0.000    0.000    0.000    0.000 
#
# Total GULP energy -122758.892563 kJ/mol
# GULP energy per Si atom -5579.949662 kJ/mol
# Density = 2.348760 g / cm^3
# Si number density = 23.541177 Si / 1000 Ang^3
#
#
#
# Elastic Constant Matrix: (Units=GPa)
#
#
# Indices 1 2 3 4 5 6 
#
# 1 173.4014 21.8641 30.1793 0.0000 0.9487 0.0000
# 2 21.8641 93.4552 16.9872 0.0000 -3.3003 0.0000
# 3 30.1793 16.9872 56.3662 0.0000 1.5394 0.0000
# 4 0.0000 0.0000 0.0000 17.6246 0.0000 -3.4501
# 5 0.9487 -3.3003 1.5394 0.0000 33.0690 0.0000
# 6 0.0000 0.0000 0.0000 -3.4501 0.0000 22.6180
#
#
#
# Elastic Compliance Matrix: (Units=1/GPa)
#
#
# Indices 1 2 3 4 5 6 
#
# 1 0.006436 -0.000936 -0.003160 0.000000 -0.000131 0.000000
# 2 -0.000936 0.011512 -0.003004 0.000000 0.001316 0.000000
# 3 -0.003160 -0.003004 0.020370 0.000000 -0.001157 0.000000
# 4 0.000000 0.000000 0.000000 0.058485 0.000000 0.008921
# 5 -0.000131 0.001316 -0.001157 0.000000 0.030429 0.000000
# 6 0.000000 0.000000 0.000000 0.008921 0.000000 0.045573
#
#
# Mechanical properties :
#
#
# Convention : Reuss Voigt Hill
#
# Bulk Modulus (GPa) = 41.46420 51.25380 46.35900
# Shear Modulus (GPa) = 25.63519 31.60847 28.62183
#
# Velocity S-wave (km/s) = 3.30351 3.66825 3.49064
# Velocity P-wave (km/s) = 5.67473 6.30560 5.99847
#
# Compressibility (1/GPa) = 0.02411719
#
# Stress axis : x y z
#
# Youngs Moduli (GPa) = 155.38354 86.86753 49.09158
#
# Poissons Ratio (x) = 0.08130 0.15514
# Poissons Ratio (y) = 0.14542 0.14748
# Poissons Ratio (z) = 0.49104 0.26097
#
# Static dielectric constant tensor:
#      x y z
#    x 1.914500 0.000000 -0.009670 
#    y 0.000000 1.908060 0.000000 
#    z -0.009670 0.000000 1.910130 
# 
# From -- ./inp_files/76137.got.cif
#   From: 2010.05.17/outbox.cif.g08.bks.cpg/sg12_39_cif.got.tgz:76137.got - 2010.06.03 13:09:07.
