data_PCOD9212613
_publ_section_title
;
Structure prediction by ZEFSAII (Michael W. Deem and Ramdas Pophale) SiO2 
 PCOD9212613
Probable space group: C 2/M
;
_chemical_formula_sum "Si O2"
_cell_formula_units_Z 64
_cell_length_a 9.547657
_cell_length_b 24.896733
_cell_length_c 18.359812
_cell_angle_alpha 90.000000
_cell_angle_beta 126.675134
_cell_angle_gamma 90.000000
_cell_volume 3500.263066
_symmetry_space_group_name_H-M "C 2/M"
_symmetry_group_IT_number 12
_symmetry_cell_setting 'monoclinic'
loop_
_space_group_symop_operation_xyz
x,y,z
-x,y,-z
-x,-y,-z
x,-y,z
1/2+x,1/2+y,z
1/2-x,1/2+y,-z
1/2-x,1/2-y,-z
1/2+x,1/2-y,z
loop_
_atom_site_type_symbol
_atom_site_label
_atom_site_fract_x
_atom_site_fract_y
_atom_site_fract_z
Si Si1 0.734541 0.140346 0.871571
Si Si2 0.829736 0.563343 0.898298
Si Si3 0.582068 0.936824 0.243957
Si Si4 0.301938 0.365266 0.412611
Si Si5 0.382359 0.736330 0.170845
Si Si6 0.227147 0.233691 0.709013
Si Si7 0.886834 0.139322 0.075991
Si Si8 0.405946 0.794592 0.549086
O O1 0.586850 0.100505 0.797503
O O2 0.669661 0.201693 0.853365
O O3 0.908531 0.137426 0.877625
O O4 0.788378 0.125665 0.970651
O O5 0.797730 0.500000 0.899442
O O6 0.861711 0.572130 0.822705
O O7 0.672729 0.598413 0.880640
O O8 0.000000 0.577544 0.000000
O O9 0.726283 0.915479 0.345039
O O10 0.546412 0.000000 0.241776
O O11 0.500000 0.372097 0.500000
O O12 0.292683 0.314660 0.353967
O O13 0.181044 0.347191 0.442980
O O14 0.591133 0.736072 0.247260
O O15 0.282397 0.714224 0.210727
O O16 0.340994 0.698978 0.089567
O O17 0.062054 0.272671 0.647894
O O18 0.500000 0.800755 0.500000
O O19 0.250000 0.750000 0.500000
#
# Coordination Sequence:
#
# PCOD9212613 Si02
#       8
#     8   8   8   8   8   8   8   8
#     4  11  23  41  56  89 127 171 212 251 317 379
#     4  10  21  42  69  94 119 159 215 267 313 366
#     4  11  24  45  69  90 121 165 214 269 321 373
#     4  12  24  40  64  94 123 160 212 260 315 378
#     4  12  23  37  55  89 133 168 203 249 310 378
#     4  12  20  35  59  84 126 165 205 247 301 377
#     4  11  24  37  60  90 128 167 211 259 309 370
#     4  12  20  36  59  90 123 161 202 248 306 376
#
# _framework density 18.28434
#
# number of rings (size 3 to 8) (size 9 to 14) (size 15 to 20)
#    0.000    0.625    7.500    1.125    0.000    0.750 
#    2.250    1.250    0.000    0.375    0.000    0.000 
#    0.000    0.000    0.000    0.000    0.000    0.000 
#
# Total GULP energy -178804.833884 kJ/mol
# GULP energy per Si atom -5587.651059 kJ/mol
# Density = 1.824272 g / cm^3
# Si number density = 18.284340 Si / 1000 Ang^3
#
#
#
# Elastic Constant Matrix: (Units=GPa)
#
#
# Indices 1 2 3 4 5 6 
#
# 1 113.2319 40.9617 21.4654 0.0000 -7.4038 0.0000
# 2 40.9617 71.1257 18.2674 0.0000 0.2288 0.0000
# 3 21.4654 18.2674 48.9710 0.0000 -2.9228 0.0000
# 4 0.0000 0.0000 0.0000 27.4513 0.0000 -6.4420
# 5 -7.4038 0.2288 -2.9228 0.0000 26.8785 0.0000
# 6 0.0000 0.0000 0.0000 -6.4420 0.0000 21.8086
#
#
#
# Elastic Compliance Matrix: (Units=1/GPa)
#
#
# Indices 1 2 3 4 5 6 
#
# 1 0.011737 -0.006075 -0.002700 0.000000 0.002991 0.000000
# 2 -0.006075 0.018710 -0.004455 0.000000 -0.002317 0.000000
# 3 -0.002700 -0.004455 0.023375 0.000000 0.001836 0.000000
# 4 0.000000 0.000000 0.000000 0.039141 0.000000 0.011562
# 5 0.002991 -0.002317 0.001836 0.000000 0.038248 0.000000
# 6 0.000000 0.000000 0.000000 0.011562 0.000000 0.049269
#
#
# Mechanical properties :
#
#
# Convention : Reuss Voigt Hill
#
# Bulk Modulus (GPa) = 36.54687 43.85751 40.20219
# Shear Modulus (GPa) = 23.14176 25.40326 24.27251
#
# Velocity S-wave (km/s) = 3.56147 3.73144 3.64744
# Velocity P-wave (km/s) = 6.07812 6.52712 6.30662
#
# Compressibility (1/GPa) = 0.02736212
#
# Stress axis : x y z
#
# Youngs Moduli (GPa) = 85.20379 53.44726 42.78098
#
# Poissons Ratio (x) = 0.32471 0.11549
# Poissons Ratio (y) = 0.51765 0.19057
# Poissons Ratio (z) = 0.23002 0.23809
#
# Static dielectric constant tensor:
#      x y z
#    x 1.642150 0.000000 -0.021430 
#    y 0.000000 1.612190 0.000000 
#    z -0.021430 0.000000 1.648810 
# 
# From -- ./inp_files/302334.got.cif
#   From: 2010.05.17/outbox.cif.g08.bks.cpg/sg12_152_cif.got.tgz:302334.got - 2010.06.03 13:09:07.
