data_PCOD9212633
_publ_section_title
;
Structure prediction by ZEFSAII (Michael W. Deem and Ramdas Pophale) SiO2 
 PCOD9212633
Probable space group: C 2/M
;
_chemical_formula_sum "Si O2"
_cell_formula_units_Z 42
_cell_length_a 15.818716
_cell_length_b 19.696041
_cell_length_c 4.831482
_cell_angle_alpha 90.000000
_cell_angle_beta 92.022936
_cell_angle_gamma 90.000000
_cell_volume 1504.387747
_symmetry_space_group_name_H-M "C 2/M"
_symmetry_group_IT_number 12
_symmetry_cell_setting 'monoclinic'
loop_
_space_group_symop_operation_xyz
x,y,z
-x,y,-z
-x,-y,-z
x,-y,z
1/2+x,1/2+y,z
1/2-x,1/2+y,-z
1/2-x,1/2-y,-z
1/2+x,1/2-y,z
loop_
_atom_site_type_symbol
_atom_site_label
_atom_site_fract_x
_atom_site_fract_y
_atom_site_fract_z
Si Si1 0.687419 0.197303 0.825870
Si Si2 0.877678 0.427867 0.897313
Si Si3 0.399636 0.571744 0.962367
Si Si4 0.227332 0.075360 0.494410
Si Si5 0.561393 0.697558 0.749241
Si Si6 0.500000 0.000000 0.500000
O O1 0.736644 0.143217 0.644947
O O2 0.624301 0.245332 0.649758
O O3 0.750000 0.250000 0.000000
O O4 0.621434 0.146795 0.977475
O O5 0.897088 0.500000 0.069193
O O6 0.779895 0.427257 0.785303
O O7 0.059211 0.440920 0.348372
O O8 0.371262 0.500000 0.086248
O O9 0.367050 0.575565 0.646907
O O10 0.500000 0.571519 0.000000
O O11 0.377200 0.637868 0.131847
O O12 0.254318 0.000000 0.386007
O O13 0.500000 0.675650 0.500000
O O14 0.500000 0.716574 0.000000
#
# Coordination Sequence:
#
# PCOD9212633 Si02
#       6
#     8   8   8   8   8   2
#     4  12  25  42  69 108 150 203 243 321 406 480
#     4   9  22  44  73 104 147 201 264 324 382 471
#     4   9  19  41  70 100 138 195 256 317 375 462
#     4  10  21  42  70 101 143 191 257 314 379 466
#     4  11  27  48  70 107 152 201 258 319 394 483
#     4   8  20  48  74 112 144 210 260 338 372 468
#
# _framework density 27.918337999999999
#
# number of rings (size 3 to 8) (size 9 to 14) (size 15 to 20)
#    0.571    1.333    1.905    0.571    2.667    5.714 
#    0.000    0.952    0.000    1.714    0.000    0.000 
#    0.000    0.000    0.000    0.000    0.000    0.000 
#
# Total GULP energy -116903.038627 kJ/mol
# GULP energy per Si atom -5566.811363 kJ/mol
# Density = 2.785479 g / cm^3
# Si number density = 27.918338 Si / 1000 Ang^3
#
#
#
# Elastic Constant Matrix: (Units=GPa)
#
#
# Indices 1 2 3 4 5 6 
#
# 1 107.3954 20.7328 -4.4255 0.0000 13.8665 0.0000
# 2 20.7328 199.7239 11.1498 0.0000 13.0672 0.0000
# 3 -4.4255 11.1498 52.0078 0.0000 3.9004 0.0000
# 4 0.0000 0.0000 0.0000 35.4265 0.0000 15.1400
# 5 13.8665 13.0672 3.9004 0.0000 39.4181 0.0000
# 6 0.0000 0.0000 0.0000 15.1400 0.0000 28.0192
#
#
#
# Elastic Compliance Matrix: (Units=1/GPa)
#
#
# Indices 1 2 3 4 5 6 
#
# 1 0.009967 -0.000888 0.001289 0.000000 -0.003339 0.000000
# 2 -0.000888 0.005247 -0.001102 0.000000 -0.001318 0.000000
# 3 0.001289 -0.001102 0.019727 0.000000 -0.002040 0.000000
# 4 0.000000 0.000000 0.000000 0.036703 0.000000 -0.019832
# 5 -0.003339 -0.001318 -0.002040 0.000000 0.027183 0.000000
# 6 0.000000 0.000000 0.000000 -0.019832 0.000000 0.046406
#
#
# Mechanical properties :
#
#
# Convention : Reuss Voigt Hill
#
# Bulk Modulus (GPa) = 29.81584 46.00459 37.91021
# Shear Modulus (GPa) = 31.68294 42.68410 37.18352
#
# Velocity S-wave (km/s) = 3.37240 3.91435 3.65343
# Velocity P-wave (km/s) = 5.08595 6.07812 5.60404
#
# Compressibility (1/GPa) = 0.03353922
#
# Stress axis : x y z
#
# Youngs Moduli (GPa) = 100.32981 190.59126 50.69256
#
# Poissons Ratio (x) = 0.16927 -0.06534
# Poissons Ratio (y) = 0.08911 0.05584
# Poissons Ratio (z) = -0.12932 0.20995
#
# Static dielectric constant tensor:
#      x y z
#    x 2.427310 0.000000 -0.274480 
#    y 0.000000 2.232800 0.000000 
#    z -0.274480 0.000000 2.077580 
# 
# From -- ./inp_files/21084.got.cif
#   From: 2010.05.17/outbox.cif.g08.bks.cpg/sg12_11_cif.got.tgz:21084.got - 2010.06.03 13:09:07.
