data_PCOD9212501
_publ_section_title
;
Structure prediction by ZEFSAII (Michael W. Deem and Ramdas Pophale) SiO2 
 PCOD9212501
Probable space group: C 2/M
;
_chemical_formula_sum "Si O2"
_cell_formula_units_Z 60
_cell_length_a 24.830405
_cell_length_b 18.218448
_cell_length_c 7.145249
_cell_angle_alpha 90.000000
_cell_angle_beta 124.668534
_cell_angle_gamma 90.000000
_cell_volume 2658.431754
_symmetry_space_group_name_H-M "C 2/M"
_symmetry_group_IT_number 12
_symmetry_cell_setting 'monoclinic'
loop_
_space_group_symop_operation_xyz
x,y,z
-x,y,-z
-x,-y,-z
x,-y,z
1/2+x,1/2+y,z
1/2-x,1/2+y,-z
1/2-x,1/2-y,-z
1/2+x,1/2-y,z
loop_
_atom_site_type_symbol
_atom_site_label
_atom_site_fract_x
_atom_site_fract_y
_atom_site_fract_z
Si Si1 0.976579 0.258795 0.239300
Si Si2 0.734475 0.418664 0.332693
Si Si3 0.627715 0.895063 0.572777
Si Si4 0.120428 0.233355 0.455438
Si Si5 0.332293 0.731334 0.872980
Si Si6 0.307304 0.000000 0.062907
Si Si7 0.234576 0.865161 0.758906
Si Si8 0.012846 0.421750 0.750771
O O1 0.041965 0.225684 0.270325
O O2 0.960754 0.342285 0.141817
O O3 0.000000 0.261450 0.500000
O O4 0.906341 0.221713 0.090629
O O5 0.705323 0.500000 0.242775
O O6 0.808713 0.422324 0.409133
O O7 0.702748 0.347152 0.176955
O O8 0.736361 0.400946 0.555770
O O9 0.627979 0.808186 0.585864
O O10 0.563108 0.917422 0.334639
O O11 0.635911 0.936187 0.785150
O O12 0.156871 0.245662 0.328763
O O13 0.162188 0.169647 0.636370
O O14 0.286656 0.796933 0.862334
O O15 0.254305 0.066738 0.926668
O O16 0.040659 0.500000 0.866389
O O17 0.000000 0.420738 0.500000
#
# Coordination Sequence:
#
# PCOD9212501 Si02
#       8
#     8   8   8   8   8   4   8   8
#     4  10  23  37  59  89 125 158 204 251 304 365
#     4  11  20  41  65  90 123 155 205 262 304 362
#     4  11  20  36  58  89 117 162 198 245 305 362
#     4  10  21  42  64  84 121 165 207 253 295 370
#     4  11  22  40  67  91 117 167 208 248 309 361
#     4  12  26  32  57  94 130 156 200 252 313 348
#     4  11  23  39  63  94 123 160 204 256 302 369
#     4   9  18  32  52  76 117 158 191 230 291 358
#
# _framework density 22.569697000000001
#
# number of rings (size 3 to 8) (size 9 to 14) (size 15 to 20)
#    0.000    1.467    4.667    1.200    5.600    1.600 
#    0.000    0.000    1.467    3.600    0.000    0.000 
#    0.000    0.000    0.000    0.000    0.000    0.000 
#
# Total GULP energy -167055.088500 kJ/mol
# GULP energy per Si atom -5568.502950 kJ/mol
# Density = 2.251833 g / cm^3
# Si number density = 22.569697 Si / 1000 Ang^3
#
#
#
# Elastic Constant Matrix: (Units=GPa)
#
#
# Indices 1 2 3 4 5 6 
#
# 1 87.8942 39.5306 9.3522 0.0000 20.6974 0.0000
# 2 39.5306 155.6761 32.2179 0.0000 18.3570 0.0000
# 3 9.3522 32.2179 53.4491 0.0000 11.6459 0.0000
# 4 0.0000 0.0000 0.0000 19.9234 0.0000 6.3881
# 5 20.6974 18.3570 11.6459 0.0000 33.2191 0.0000
# 6 0.0000 0.0000 0.0000 6.3881 0.0000 27.9537
#
#
#
# Elastic Compliance Matrix: (Units=1/GPa)
#
#
# Indices 1 2 3 4 5 6 
#
# 1 0.014411 -0.002946 0.000927 0.000000 -0.007676 0.000000
# 2 -0.002946 0.008174 -0.004144 0.000000 -0.001229 0.000000
# 3 0.000927 -0.004144 0.022382 0.000000 -0.006134 0.000000
# 4 0.000000 0.000000 0.000000 0.054161 0.000000 -0.012377
# 5 -0.007676 -0.001229 -0.006134 0.000000 0.037715 0.000000
# 6 0.000000 0.000000 0.000000 -0.012377 0.000000 0.038602
#
#
# Mechanical properties :
#
#
# Convention : Reuss Voigt Hill
#
# Bulk Modulus (GPa) = 30.63689 51.02453 40.83071
# Shear Modulus (GPa) = 25.16967 30.61381 27.89174
#
# Velocity S-wave (km/s) = 3.34308 3.68695 3.51922
# Velocity P-wave (km/s) = 5.33904 6.38603 5.88586
#
# Compressibility (1/GPa) = 0.03264039
#
# Stress axis : x y z
#
# Youngs Moduli (GPa) = 69.39023 122.33609 44.67937
#
# Poissons Ratio (x) = 0.36041 -0.04141
# Poissons Ratio (y) = 0.20443 0.18515
# Poissons Ratio (z) = -0.06431 0.50696
#
# Static dielectric constant tensor:
#      x y z
#    x 2.000080 0.000000 -0.091220 
#    y 0.000000 1.819520 0.000000 
#    z -0.091220 0.000000 1.928540 
# 
# From -- ./inp_files/105824.got.cif
#   From: 2010.05.17/outbox.cif.g08.bks.cpg/sg12_53_cif.got.tgz:105824.got - 2010.06.03 13:09:07.
