data_PCOD9212180
_publ_section_title
;
Structure prediction by ZEFSAII (Michael W. Deem and Ramdas Pophale) SiO2 
 PCOD9212180
Probable space group: C 2/M
;
_chemical_formula_sum "Si O2"
_cell_formula_units_Z 56
_cell_length_a 16.429285
_cell_length_b 9.763068
_cell_length_c 26.027990
_cell_angle_alpha 90.000000
_cell_angle_beta 39.254887
_cell_angle_gamma 90.000000
_cell_volume 2641.754373
_symmetry_space_group_name_H-M "C 2/M"
_symmetry_group_IT_number 12
_symmetry_cell_setting 'monoclinic'
loop_
_space_group_symop_operation_xyz
x,y,z
-x,y,-z
-x,-y,-z
x,-y,z
1/2+x,1/2+y,z
1/2-x,1/2+y,-z
1/2-x,1/2-y,-z
1/2+x,1/2-y,z
loop_
_atom_site_type_symbol
_atom_site_label
_atom_site_fract_x
_atom_site_fract_y
_atom_site_fract_z
Si Si1 0.029130 0.844035 0.381742
Si Si2 0.307913 0.159709 0.630286
Si Si3 0.233211 0.852528 0.441159
Si Si4 0.601456 0.337822 0.168894
Si Si5 0.412902 0.659189 0.174853
Si Si6 0.130698 0.340594 0.904388
Si Si7 0.973592 0.652822 0.705006
O O1 0.077294 0.753407 0.405216
O O2 0.082377 0.764507 0.306359
O O3 0.874525 0.847795 0.462542
O O4 0.075146 0.000000 0.360220
O O5 0.274107 0.222545 0.592051
O O6 0.191556 0.175865 0.728114
O O7 0.340843 0.000000 0.611914
O O8 0.380421 0.862082 0.385163
O O9 0.206294 0.000000 0.426362
O O10 0.569515 0.500000 0.195631
O O11 0.551018 0.314612 0.135483
O O12 0.748321 0.316548 0.116139
O O13 0.528352 0.225641 0.239223
O O14 0.409997 0.500000 0.160793
O O15 0.379177 0.749807 0.142089
O O16 0.138834 0.500000 0.884974
O O17 0.000000 0.319351 0.000000
O O18 0.915080 0.500000 0.733131
#
# Coordination Sequence:
#
# PCOD9212180 Si02
#       7
#     8   8   8   8   8   8   8
#     4  11  23  37  54  78 114 158 199 246 310 363
#     4  11  22  37  58  84 114 149 199 251 296 353
#     4  10  22  38  55  79 113 153 197 248 303 361
#     4  10  21  41  65  89 123 166 202 243 305 368
#     4  10  22  40  63  91 123 161 202 245 299 362
#     4  10  23  42  65  95 127 158 197 243 295 362
#     4  11  22  37  58  85 114 148 202 254 295 354
#
# _framework density 21.198035000000001
#
# number of rings (size 3 to 8) (size 9 to 14) (size 15 to 20)
#    0.000    1.571    1.429    3.000    0.000    8.857 
#    0.000    0.000    0.000    0.000    0.000    0.000 
#    0.000    0.000    0.000    0.000    0.000    0.000 
#
# Total GULP energy -156179.408690 kJ/mol
# GULP energy per Si atom -5577.836025 kJ/mol
# Density = 2.114979 g / cm^3
# Si number density = 21.198035 Si / 1000 Ang^3
#
#
#
# Elastic Constant Matrix: (Units=GPa)
#
#
# Indices 1 2 3 4 5 6 
#
# 1 89.9209 54.6154 35.9219 0.0000 -6.1012 0.0000
# 2 54.6154 151.4592 42.4129 0.0000 5.3883 0.0000
# 3 35.9219 42.4129 47.1188 0.0000 -8.0127 0.0000
# 4 0.0000 0.0000 0.0000 13.9622 0.0000 14.2863
# 5 -6.1012 5.3883 -8.0127 0.0000 27.4059 0.0000
# 6 0.0000 0.0000 0.0000 14.2863 0.0000 27.5069
#
#
#
# Elastic Compliance Matrix: (Units=1/GPa)
#
#
# Indices 1 2 3 4 5 6 
#
# 1 0.017270 -0.003589 -0.009640 0.000000 0.001732 0.000000
# 2 -0.003589 0.010076 -0.007162 0.000000 -0.004874 0.000000
# 3 -0.009640 -0.007162 0.036719 0.000000 0.009998 0.000000
# 4 0.000000 0.000000 0.000000 0.152851 0.000000 -0.079387
# 5 0.001732 -0.004874 0.009998 0.000000 0.040755 0.000000
# 6 0.000000 0.000000 0.000000 -0.079387 0.000000 0.077586
#
#
# Mechanical properties :
#
#
# Convention : Reuss Voigt Hill
#
# Bulk Modulus (GPa) = 42.95300 61.59991 52.27646
# Shear Modulus (GPa) = 13.02761 24.14493 18.58627
#
# Velocity S-wave (km/s) = 2.48174 3.37859 2.96428
# Velocity P-wave (km/s) = 5.34029 6.65899 6.03577
#
# Compressibility (1/GPa) = 0.02328126
#
# Stress axis : x y z
#
# Youngs Moduli (GPa) = 57.90502 99.24921 27.23369
#
# Poissons Ratio (x) = 0.35624 0.26255
# Poissons Ratio (y) = 0.20784 0.19504
# Poissons Ratio (z) = 0.55823 0.71080
#
# Static dielectric constant tensor:
#      x y z
#    x 1.833860 0.000000 -0.049000 
#    y 0.000000 1.783660 0.000000 
#    z -0.049000 0.000000 1.773660 
# 
# From -- ./inp_files/314418.got.cif
#   From: 2010.05.17/outbox.cif.g08.bks.cpg/sg12_158_cif.got.tgz:314418.got - 2010.06.03 13:09:07.
