data_PCOD9212550
_publ_section_title
;
Structure prediction by ZEFSAII (Michael W. Deem and Ramdas Pophale) SiO2 
 PCOD9212550
Probable space group: C 2/M
;
_chemical_formula_sum "Si O2"
_cell_formula_units_Z 38
_cell_length_a 4.958637
_cell_length_b 27.360455
_cell_length_c 10.800396
_cell_angle_alpha 90.000000
_cell_angle_beta 88.087007
_cell_angle_gamma 90.000000
_cell_volume 1464.479171
_symmetry_space_group_name_H-M "C 2/M"
_symmetry_group_IT_number 12
_symmetry_cell_setting 'monoclinic'
loop_
_space_group_symop_operation_xyz
x,y,z
-x,y,-z
-x,-y,-z
x,-y,z
1/2+x,1/2+y,z
1/2-x,1/2+y,-z
1/2-x,1/2-y,-z
1/2+x,1/2-y,z
loop_
_atom_site_type_symbol
_atom_site_label
_atom_site_fract_x
_atom_site_fract_y
_atom_site_fract_z
Si Si1 0.000000 0.500000 0.000000
Si Si2 0.335706 0.448460 0.630005
Si Si3 0.245883 0.816020 0.915310
Si Si4 0.500000 0.361290 0.500000
Si Si5 0.316884 0.780459 0.642542
Si Si6 0.838816 0.070054 0.126243
O O1 0.058347 0.542965 0.105179
O O2 0.500000 0.454547 0.500000
O O3 0.170709 0.500000 0.639114
O O4 0.285838 0.391332 0.595496
O O5 0.517760 0.445951 0.750170
O O6 0.295796 0.787408 0.789908
O O7 0.179440 0.872094 0.878733
O O8 0.500000 0.818753 0.000000
O O9 0.000000 0.796160 0.000000
O O10 0.686064 0.328416 0.584983
O O11 0.623824 0.765466 0.612457
O O12 0.000000 0.052477 0.000000
#
# Coordination Sequence:
#
# PCOD9212550 Si02
#       6
#     2   8   8   4   8   8
#     4  12  22  36  62 100 134 174 228 278 330 420
#     4   9  18  37  69  96 131 182 222 275 340 406
#     4  11  23  42  66  99 137 176 220 280 346 406
#     4  10  21  42  66  96 134 176 223 288 338 416
#     4  12  26  45  72 100 132 179 230 284 348 413
#     4  11  22  38  65  95 134 178 222 274 336 406
#
# _framework density 25.947793000000001
#
# number of rings (size 3 to 8) (size 9 to 14) (size 15 to 20)
#    0.632    0.632    4.211    2.211    0.000    2.526 
#    0.000    0.000    4.632    2.526    0.000    0.000 
#    0.000    0.000    0.000    0.000    0.000    0.000 
#
# Total GULP energy -105815.091240 kJ/mol
# GULP energy per Si atom -5569.215328 kJ/mol
# Density = 2.588874 g / cm^3
# Si number density = 25.947793 Si / 1000 Ang^3
#
#
#
# Elastic Constant Matrix: (Units=GPa)
#
#
# Indices 1 2 3 4 5 6 
#
# 1 83.0270 2.0689 44.0161 0.0000 -3.3714 0.0000
# 2 2.0689 116.5078 18.5243 0.0000 3.3791 0.0000
# 3 44.0161 18.5243 183.3844 0.0000 25.5380 0.0000
# 4 0.0000 0.0000 0.0000 86.1305 0.0000 2.4128
# 5 -3.3714 3.3791 25.5380 0.0000 39.1813 0.0000
# 6 0.0000 0.0000 0.0000 2.4128 0.0000 26.1440
#
#
#
# Elastic Compliance Matrix: (Units=1/GPa)
#
#
# Indices 1 2 3 4 5 6 
#
# 1 0.014309 0.000270 -0.003992 0.000000 0.003810 0.000000
# 2 0.000270 0.008730 -0.000929 0.000000 -0.000124 0.000000
# 3 -0.003992 -0.000929 0.007195 0.000000 -0.004953 0.000000
# 4 0.000000 0.000000 0.000000 0.011640 0.000000 -0.001074
# 5 0.003810 -0.000124 -0.004953 0.000000 0.029089 0.000000
# 6 0.000000 0.000000 0.000000 -0.001074 0.000000 0.038349
#
#
# Mechanical properties :
#
#
# Convention : Reuss Voigt Hill
#
# Bulk Modulus (GPa) = 47.77775 56.90422 52.34099
# Shear Modulus (GPa) = 39.81163 51.51183 45.66173
#
# Velocity S-wave (km/s) = 3.92126 4.46040 4.19949
# Velocity P-wave (km/s) = 6.24137 6.96454 6.61285
#
# Compressibility (1/GPa) = 0.02093024
#
# Stress axis : x y z
#
# Youngs Moduli (GPa) = 69.88739 114.55169 138.98782
#
# Poissons Ratio (x) = -0.03095 0.55488
# Poissons Ratio (y) = -0.01888 0.12918
# Poissons Ratio (z) = 0.27901 0.10647
#
# Static dielectric constant tensor:
#      x y z
#    x 2.476420 0.000000 -0.088340 
#    y 0.000000 3.141470 0.000000 
#    z -0.088340 0.000000 2.015120 
# 
# From -- ./inp_files/115915.got.cif
#   From: 2010.05.17/outbox.cif.g08.bks.cpg/sg12_58_cif.got.tgz:115915.got - 2010.06.03 13:09:07.
