data_PCOD9212712
_publ_section_title
;
Structure prediction by ZEFSAII (Michael W. Deem and Ramdas Pophale) SiO2 
 PCOD9212712
Probable space group: C 2/M
;
_chemical_formula_sum "Si O2"
_cell_formula_units_Z 42
_cell_length_a 17.413838
_cell_length_b 10.070737
_cell_length_c 13.646069
_cell_angle_alpha 90.000000
_cell_angle_beta 55.729188
_cell_angle_gamma 90.000000
_cell_volume 1977.633821
_symmetry_space_group_name_H-M "C 2/M"
_symmetry_group_IT_number 12
_symmetry_cell_setting 'monoclinic'
loop_
_space_group_symop_operation_xyz
x,y,z
-x,y,-z
-x,-y,-z
x,-y,z
1/2+x,1/2+y,z
1/2-x,1/2+y,-z
1/2-x,1/2-y,-z
1/2+x,1/2-y,z
loop_
_atom_site_type_symbol
_atom_site_label
_atom_site_fract_x
_atom_site_fract_y
_atom_site_fract_z
Si Si1 0.732543 0.353059 0.926498
Si Si2 0.500000 0.000000 0.000000
Si Si3 0.435218 0.351043 0.327640
Si Si4 0.631401 0.770459 0.820185
Si Si5 0.074628 0.348394 0.329720
Si Si6 0.667537 0.649769 0.406749
O O1 0.710286 0.500000 0.980805
O O2 0.657243 0.304125 0.902297
O O3 0.829018 0.358672 0.798484
O O4 0.750000 0.250000 0.000000
O O5 0.440434 0.115182 0.101553
O O6 0.474519 0.500000 0.310053
O O7 0.407393 0.324358 0.236454
O O8 0.504963 0.238093 0.314635
O O9 0.347950 0.343437 0.465420
O O10 0.728218 0.827563 0.706079
O O11 0.042911 0.500000 0.369690
O O12 0.102724 0.262281 0.404690
O O13 0.638398 0.500000 0.397412
#
# Coordination Sequence:
#
# PCOD9212712 Si02
#       6
#     8   2   8   8   8   8
#     4  10  24  43  67  91 128 177 222 272 329 395
#     4  12  28  44  70 100 136 172 220 286 328 396
#     4  11  24  41  67  99 136 173 220 273 331 394
#     4  11  25  44  67  96 134 171 222 273 336 393
#     4  10  23  40  63  98 136 173 223 271 328 392
#     4  10  21  43  68  95 132 178 219 269 333 396
#
# _framework density 21.237500000000001
#
# number of rings (size 3 to 8) (size 9 to 14) (size 15 to 20)
#    0.000    1.524    0.952    2.286    5.333    5.333 
#    0.000    0.952    0.000    0.000    0.000    0.000 
#    0.000    0.000    0.000    0.000    0.000    0.000 
#
# Total GULP energy -117074.345189 kJ/mol
# GULP energy per Si atom -5574.968819 kJ/mol
# Density = 2.118916 g / cm^3
# Si number density = 21.237500 Si / 1000 Ang^3
#
#
#
# Elastic Constant Matrix: (Units=GPa)
#
#
# Indices 1 2 3 4 5 6 
#
# 1 63.3035 47.0852 29.3765 0.0000 23.2027 0.0000
# 2 47.0852 192.8621 40.9017 0.0000 20.5977 0.0000
# 3 29.3765 40.9017 67.4040 0.0000 15.7695 0.0000
# 4 0.0000 0.0000 0.0000 32.7292 0.0000 -6.0961
# 5 23.2027 20.5977 15.7695 0.0000 40.8440 0.0000
# 6 0.0000 0.0000 0.0000 -6.0961 0.0000 -12.8524
#
#
#
# Elastic Compliance Matrix: (Units=1/GPa)
#
#
# Indices 1 2 3 4 5 6 
#
# 1 0.025185 -0.003731 -0.006381 0.000000 -0.009962 0.000000
# 2 -0.003731 0.006622 -0.002316 0.000000 -0.000326 0.000000
# 3 -0.006381 -0.002316 0.019679 0.000000 -0.002805 0.000000
# 4 0.000000 0.000000 0.000000 0.028074 0.000000 -0.013316
# 5 -0.009962 -0.000326 -0.002805 0.000000 0.031389 0.000000
# 6 0.000000 0.000000 0.000000 -0.013316 0.000000 -0.071491
#
#
# Mechanical properties :
#
#
# Convention : Reuss Voigt Hill
#
# Bulk Modulus (GPa) = 37.55444 62.03293 49.79369
# Shear Modulus (GPa) = 68.31426 25.89124 47.10275
#
# Velocity S-wave (km/s) = 5.67773 3.49539 4.71457
# Velocity P-wave (km/s) = 7.79125 6.75003 7.28926
#
# Compressibility (1/GPa) = 0.02662801
#
# Stress axis : x y z
#
# Youngs Moduli (GPa) = 39.70636 151.01300 50.81666
#
# Poissons Ratio (x) = 0.56348 0.32428
# Poissons Ratio (y) = 0.14816 0.11769
# Poissons Ratio (z) = 0.25338 0.34973
#
# Static dielectric constant tensor:
#      x y z
#    x 1.749730 0.000000 -0.010730 
#    y 0.000000 1.755340 0.000000 
#    z -0.010730 0.000000 1.775020 
# 
# From -- ./inp_files/221445.got.cif
#   From: 2010.05.17/outbox.cif.g08.bks.cpg/sg12_111_cif.got.tgz:221445.got - 2010.06.03 13:09:07.
