data_PCOD9212292
_publ_section_title
;
Structure prediction by ZEFSAII (Michael W. Deem and Ramdas Pophale) SiO2 
 PCOD9212292
Probable space group: C 2/M
;
_chemical_formula_sum "Si O2"
_cell_formula_units_Z 52
_cell_length_a 21.578296
_cell_length_b 14.799078
_cell_length_c 16.303829
_cell_angle_alpha 90.000000
_cell_angle_beta 152.993320
_cell_angle_gamma 90.000000
_cell_volume 2364.218120
_symmetry_space_group_name_H-M "C 2/M"
_symmetry_group_IT_number 12
_symmetry_cell_setting 'monoclinic'
loop_
_space_group_symop_operation_xyz
x,y,z
-x,y,-z
-x,-y,-z
x,-y,z
1/2+x,1/2+y,z
1/2-x,1/2+y,-z
1/2-x,1/2-y,-z
1/2+x,1/2-y,z
loop_
_atom_site_type_symbol
_atom_site_label
_atom_site_fract_x
_atom_site_fract_y
_atom_site_fract_z
Si Si1 0.341877 0.894785 0.286609
Si Si2 0.404833 0.393066 0.578358
Si Si3 0.672661 0.101161 0.440430
Si Si4 0.770667 0.270438 0.348603
Si Si5 0.720297 0.390672 0.969188
Si Si6 0.116380 0.396803 0.992207
Si Si7 0.000000 0.710910 0.000000
O O1 0.500000 0.892320 0.500000
O O2 0.272272 0.825252 0.266244
O O3 0.296448 0.000000 0.242642
O O4 0.307244 0.867172 0.152471
O O5 0.399842 0.500000 0.550007
O O6 0.298932 0.380246 0.528604
O O7 0.350282 0.324622 0.444921
O O8 0.559943 0.369875 0.785918
O O9 0.660933 0.170131 0.500192
O O10 0.533821 0.101468 0.225238
O O11 0.691113 0.000000 0.496478
O O12 0.610955 0.263163 0.183843
O O13 0.731828 0.500000 0.977400
O O14 0.784271 0.355792 0.959519
O O15 0.158411 0.500000 0.058988
O O16 0.095051 0.346254 0.051872
#
# Coordination Sequence:
#
# PCOD9212292 Si02
#       7
#     8   8   8   8   8   8   4
#     4  10  22  43  68  98 132 167 212 268 326 384
#     4  10  22  41  65  93 129 173 217 266 320 380
#     4  10  21  41  67  90 123 174 219 262 319 380
#     4  12  25  39  63  95 134 169 216 267 323 384
#     4   9  20  40  68  95 124 166 218 266 321 381
#     4  10  21  42  68  92 123 171 219 265 315 381
#     4  12  27  38  59  96 134 166 216 264 322 386
#
# _framework density 21.994585000000001
#
# number of rings (size 3 to 8) (size 9 to 14) (size 15 to 20)
#    0.000    1.692    1.538    2.077    2.154    4.308 
#    0.000    3.077    0.000    3.231    0.000    0.000 
#    0.000    0.000    0.000    0.000    0.000    0.000 
#
# Total GULP energy -145266.660122 kJ/mol
# GULP energy per Si atom -5587.179235 kJ/mol
# Density = 2.194452 g / cm^3
# Si number density = 21.994585 Si / 1000 Ang^3
#
#
#
# Elastic Constant Matrix: (Units=GPa)
#
#
# Indices 1 2 3 4 5 6 
#
# 1 78.4197 34.7272 15.0578 0.0000 10.0287 0.0000
# 2 34.7272 66.6739 19.4220 0.0000 -6.8208 0.0000
# 3 15.0578 19.4220 84.9958 0.0000 8.4287 0.0000
# 4 0.0000 0.0000 0.0000 11.8000 0.0000 -2.1764
# 5 10.0287 -6.8208 8.4287 0.0000 33.0743 0.0000
# 6 0.0000 0.0000 0.0000 -2.1764 0.0000 13.5716
#
#
#
# Elastic Compliance Matrix: (Units=1/GPa)
#
#
# Indices 1 2 3 4 5 6 
#
# 1 0.018305 -0.010275 -0.000138 0.000000 -0.007634 0.000000
# 2 -0.010275 0.022472 -0.004189 0.000000 0.008818 0.000000
# 3 -0.000138 -0.004189 0.013161 0.000000 -0.004176 0.000000
# 4 0.000000 0.000000 0.000000 0.087329 0.000000 0.014004
# 5 -0.007634 0.008818 -0.004176 0.000000 0.035432 0.000000
# 6 0.000000 0.000000 0.000000 0.014004 0.000000 0.075929
#
#
# Mechanical properties :
#
#
# Convention : Reuss Voigt Hill
#
# Bulk Modulus (GPa) = 40.42968 40.94480 40.68724
# Shear Modulus (GPa) = 17.23680 22.41468 19.82574
#
# Velocity S-wave (km/s) = 2.80247 3.19580 3.00558
# Velocity P-wave (km/s) = 5.37525 5.68100 5.53024
#
# Compressibility (1/GPa) = 0.02473430
#
# Stress axis : x y z
#
# Youngs Moduli (GPa) = 54.63055 44.49903 75.98144
#
# Poissons Ratio (x) = 0.45722 0.01048
# Poissons Ratio (y) = 0.56132 0.31830
# Poissons Ratio (z) = 0.00754 0.18641
#
# Static dielectric constant tensor:
#      x y z
#    x 1.801000 0.000000 0.006060 
#    y 0.000000 1.852100 0.000000 
#    z 0.006060 0.000000 1.789110 
# 
# From -- ./inp_files/234482.got.cif
#   From: 2010.05.17/outbox.cif.g08.bks.cpg/sg12_118_cif.got.tgz:234482.got - 2010.06.03 13:09:07.
