data_PCOD9212313
_publ_section_title
;
Structure prediction by ZEFSAII (Michael W. Deem and Ramdas Pophale) SiO2 
 PCOD9212313
Probable space group: C 2/M
;
_chemical_formula_sum "Si O2"
_cell_formula_units_Z 64
_cell_length_a 11.789393
_cell_length_b 23.706545
_cell_length_c 12.303494
_cell_angle_alpha 90.000000
_cell_angle_beta 111.710303
_cell_angle_gamma 90.000000
_cell_volume 3194.734489
_symmetry_space_group_name_H-M "C 2/M"
_symmetry_group_IT_number 12
_symmetry_cell_setting 'monoclinic'
loop_
_space_group_symop_operation_xyz
x,y,z
-x,y,-z
-x,-y,-z
x,-y,z
1/2+x,1/2+y,z
1/2-x,1/2+y,-z
1/2-x,1/2-y,-z
1/2+x,1/2-y,z
loop_
_atom_site_type_symbol
_atom_site_label
_atom_site_fract_x
_atom_site_fract_y
_atom_site_fract_z
Si Si1 0.767952 0.838202 0.279844
Si Si2 0.608694 0.434398 0.125009
Si Si3 0.490887 0.211923 0.871027
Si Si4 0.135544 0.612467 0.806997
Si Si5 0.612247 0.062032 0.320976
Si Si6 0.665779 0.304507 0.470864
Si Si7 0.875092 0.620741 0.453167
Si Si8 0.509973 0.331760 0.784966
O O1 0.649172 0.799090 0.216729
O O2 0.705696 0.894924 0.300730
O O3 0.852734 0.816285 0.408724
O O4 0.853945 0.846251 0.206993
O O5 0.629315 0.500000 0.171962
O O6 0.732779 0.410814 0.111928
O O7 0.561380 0.386454 0.193758
O O8 0.500000 0.437086 0.000000
O O9 0.585706 0.172641 0.835207
O O10 0.517036 0.278384 0.868193
O O11 0.500000 0.194639 0.000000
O O12 0.150080 0.611604 0.681295
O O13 0.018894 0.572076 0.782012
O O14 0.595634 0.073452 0.445091
O O15 0.657718 0.000000 0.321212
O O16 0.750000 0.250000 0.500000
O O17 0.757160 0.352059 0.461007
O O18 0.560682 0.305836 0.344727
O O19 0.000000 0.657705 0.500000
#
# Coordination Sequence:
#
# PCOD9212313 Si02
#       8
#     8   8   8   8   8   8   8   8
#     4  10  24  41  59  98 128 169 212 259 328 390
#     4  11  26  46  67  96 130 176 230 273 321 384
#     4  11  26  43  66  96 128 169 216 276 334 389
#     4  10  21  41  67  93 128 164 216 270 327 383
#     4   9  19  38  64  95 130 165 212 265 319 383
#     4  11  21  38  60  92 134 166 211 255 326 400
#     4   9  19  33  58  93 123 163 204 258 318 374
#     4  12  25  42  68  94 134 175 217 269 335 395
#
# _framework density 20.032962999999999
#
# number of rings (size 3 to 8) (size 9 to 14) (size 15 to 20)
#    0.000    1.625    2.500    1.875    5.250    3.750 
#    0.000    0.000    0.000    4.125    0.000    0.000 
#    0.000    0.000    0.000    0.000    0.000    0.000 
#
# Total GULP energy -178139.015971 kJ/mol
# GULP energy per Si atom -5566.844249 kJ/mol
# Density = 1.998737 g / cm^3
# Si number density = 20.032963 Si / 1000 Ang^3
#
#
#
# Elastic Constant Matrix: (Units=GPa)
#
#
# Indices 1 2 3 4 5 6 
#
# 1 107.1184 40.0061 16.1278 0.0000 -2.4548 0.0000
# 2 40.0061 100.9336 21.1026 0.0000 -17.0761 0.0000
# 3 16.1278 21.1026 58.8813 0.0000 7.4211 0.0000
# 4 0.0000 0.0000 0.0000 11.1951 0.0000 3.3342
# 5 -2.4548 -17.0761 7.4211 0.0000 26.9381 0.0000
# 6 0.0000 0.0000 0.0000 3.3342 0.0000 3.0820
#
#
#
# Elastic Compliance Matrix: (Units=1/GPa)
#
#
# Indices 1 2 3 4 5 6 
#
# 1 0.011135 -0.004378 -0.001304 0.000000 -0.001401 0.000000
# 2 -0.004378 0.014478 -0.005279 0.000000 0.010233 0.000000
# 3 -0.001304 -0.005279 0.020377 0.000000 -0.009079 0.000000
# 4 0.000000 0.000000 0.000000 0.131785 0.000000 -0.142567
# 5 -0.001401 0.010233 -0.009079 0.000000 0.045982 0.000000
# 6 0.000000 0.000000 0.000000 -0.142567 0.000000 0.478691
#
#
# Mechanical properties :
#
#
# Convention : Reuss Voigt Hill
#
# Bulk Modulus (GPa) = 41.55137 46.82294 44.18715
# Shear Modulus (GPa) = 6.82694 20.88951 13.85822
#
# Velocity S-wave (km/s) = 1.84804 3.23268 2.63301
# Velocity P-wave (km/s) = 5.03390 6.11206 5.59899
#
# Compressibility (1/GPa) = 0.02406660
#
# Stress axis : x y z
#
# Youngs Moduli (GPa) = 89.80936 69.07214 49.07518
#
# Poissons Ratio (x) = 0.30238 0.06401
# Poissons Ratio (y) = 0.39316 0.25908
# Poissons Ratio (z) = 0.11714 0.36465
#
# Static dielectric constant tensor:
#      x y z
#    x 1.742970 0.000000 0.010120 
#    y 0.000000 1.700530 0.000000 
#    z 0.010120 0.000000 1.787820 
# 
# From -- ./inp_files/135963.got.cif
#   From: 2010.05.17/outbox.cif.g08.bks.cpg/sg12_68_cif.got.tgz:135963.got - 2010.06.03 13:09:07.
