data_PCOD9212654
_publ_section_title
;
Structure prediction by ZEFSAII (Michael W. Deem and Ramdas Pophale) SiO2 
 PCOD9212654
Probable space group: C 2/M
;
_chemical_formula_sum "Si O2"
_cell_formula_units_Z 44
_cell_length_a 11.436588
_cell_length_b 24.414433
_cell_length_c 7.455580
_cell_angle_alpha 90.000000
_cell_angle_beta 106.758806
_cell_angle_gamma 90.000000
_cell_volume 1993.313497
_symmetry_space_group_name_H-M "C 2/M"
_symmetry_group_IT_number 12
_symmetry_cell_setting 'monoclinic'
loop_
_space_group_symop_operation_xyz
x,y,z
-x,y,-z
-x,-y,-z
x,-y,z
1/2+x,1/2+y,z
1/2-x,1/2+y,-z
1/2-x,1/2-y,-z
1/2+x,1/2-y,z
loop_
_atom_site_type_symbol
_atom_site_label
_atom_site_fract_x
_atom_site_fract_y
_atom_site_fract_z
Si Si1 0.000000 0.292603 0.000000
Si Si2 0.739932 0.831113 0.272351
Si Si3 0.237719 0.880320 0.324907
Si Si4 0.032428 0.120880 0.707495
Si Si5 0.569466 0.500000 0.779748
Si Si6 0.208117 0.000000 0.191727
Si Si7 0.387167 0.224538 0.311477
O O1 0.106287 0.328235 0.135013
O O2 0.940714 0.260308 0.139774
O O3 0.742931 0.866890 0.454845
O O4 0.840413 0.853665 0.177359
O O5 0.788153 0.769420 0.327945
O O6 0.319679 0.834003 0.268942
O O7 0.090241 0.874570 0.231854
O O8 0.266152 0.943042 0.284292
O O9 0.069842 0.058117 0.685387
O O10 0.000000 0.147539 0.500000
O O11 0.432569 0.500000 0.801401
O O12 0.681530 0.500000 0.968274
O O13 0.500000 0.221268 0.500000
#
# Coordination Sequence:
#
# PCOD9212654 Si02
#       7
#     4   8   8   8   4   4   8
#     4  12  28  44  62 101 138 169 226 262 330 388
#     4  11  24  43  67  99 132 172 216 269 329 401
#     4  10  21  42  71  92 131 175 219 268 330 384
#     4   9  19  35  64  95 127 171 221 267 331 388
#     4   9  17  34  56  96 139 160 209 286 324 375
#     4   9  20  36  61  99 126 171 222 271 322 382
#     4  12  25  46  71  93 137 175 216 276 323 398
#
# _framework density 22.073796000000002
#
# number of rings (size 3 to 8) (size 9 to 14) (size 15 to 20)
#    0.000    1.636    1.818    3.000    5.091    2.182 
#    0.000    0.455    0.000    2.727    0.000    0.000 
#    0.000    0.000    0.000    0.000    0.000    0.000 
#
# Total GULP energy -122765.467787 kJ/mol
# GULP energy per Si atom -5580.248536 kJ/mol
# Density = 2.202356 g / cm^3
# Si number density = 22.073796 Si / 1000 Ang^3
#
#
#
# Elastic Constant Matrix: (Units=GPa)
#
#
# Indices 1 2 3 4 5 6 
#
# 1 91.1527 45.4434 36.7469 0.0000 19.4700 0.0000
# 2 45.4434 160.9206 43.6783 0.0000 19.6255 0.0000
# 3 36.7469 43.6783 110.8326 0.0000 11.6588 0.0000
# 4 0.0000 0.0000 0.0000 -44.6859 0.0000 -10.2726
# 5 19.4700 19.6255 11.6588 0.0000 46.5841 0.0000
# 6 0.0000 0.0000 0.0000 -10.2726 0.0000 9.1657
#
#
#
# Elastic Compliance Matrix: (Units=1/GPa)
#
#
# Indices 1 2 3 4 5 6 
#
# 1 0.014534 -0.002702 -0.003322 0.000000 -0.004105 0.000000
# 2 -0.002702 0.007711 -0.001972 0.000000 -0.001626 0.000000
# 3 -0.003322 -0.001972 0.010956 0.000000 -0.000523 0.000000
# 4 0.000000 0.000000 0.000000 -0.017794 0.000000 -0.019943
# 5 -0.004105 -0.001626 -0.000523 0.000000 0.023998 0.000000
# 6 0.000000 0.000000 0.000000 -0.019943 0.000000 0.086751
#
#
# Mechanical properties :
#
#
# Convention : Reuss Voigt Hill
#
# Bulk Modulus (GPa) = 58.11011 68.29367 63.20189
# Shear Modulus (GPa) = 33.81027 18.01526 25.91277
#
# Velocity S-wave (km/s) = 3.91793 2.85991 3.42996
# Velocity P-wave (km/s) = 6.84466 6.47390 6.66186
#
# Compressibility (1/GPa) = 0.01720871
#
# Stress axis : x y z
#
# Youngs Moduli (GPa) = 68.80593 129.68891 91.27271
#
# Poissons Ratio (x) = 0.35041 0.30321
# Poissons Ratio (y) = 0.18591 0.17998
# Poissons Ratio (z) = 0.22858 0.25573
#
# Static dielectric constant tensor:
#      x y z
#    x 1.829760 0.000000 -0.035090 
#    y 0.000000 1.835870 0.000000 
#    z -0.035090 0.000000 1.871070 
# 
# From -- ./inp_files/50902.got.cif
#   From: 2010.05.17/outbox.cif.g08.bks.cpg/sg12_26_cif.got.tgz:50902.got - 2010.06.03 13:09:07.
