data_PCOD9212079
_publ_section_title
;
Structure prediction by ZEFSAII (Michael W. Deem and Ramdas Pophale) SiO2 
 PCOD9212079
Probable space group: C 2/M
;
_chemical_formula_sum "Si O2"
_cell_formula_units_Z 38
_cell_length_a 13.393058
_cell_length_b 25.254875
_cell_length_c 12.506285
_cell_angle_alpha 90.000000
_cell_angle_beta 23.301551
_cell_angle_gamma 90.000000
_cell_volume 1673.312449
_symmetry_space_group_name_H-M "C 2/M"
_symmetry_group_IT_number 12
_symmetry_cell_setting 'monoclinic'
loop_
_space_group_symop_operation_xyz
x,y,z
-x,y,-z
-x,-y,-z
x,-y,z
1/2+x,1/2+y,z
1/2-x,1/2+y,-z
1/2-x,1/2-y,-z
1/2+x,1/2-y,z
loop_
_atom_site_type_symbol
_atom_site_label
_atom_site_fract_x
_atom_site_fract_y
_atom_site_fract_z
Si Si1 0.713474 0.788628 0.371740
Si Si2 0.255344 0.500000 0.816957
Si Si3 0.775088 0.403717 0.988663
Si Si4 0.235877 0.094449 0.648212
Si Si5 0.500000 0.000000 0.500000
Si Si6 0.054541 0.709476 0.142226
O O1 0.500000 0.769787 0.500000
O O2 0.767997 0.849189 0.286145
O O3 0.633824 0.799129 0.573121
O O4 0.916068 0.742337 0.186833
O O5 0.500000 0.500000 0.500000
O O6 0.250405 0.449035 0.898407
O O7 0.000000 0.500000 0.000000
O O8 0.811709 0.346394 0.008900
O O9 0.025659 0.411126 0.669264
O O10 0.524430 0.406478 0.162417
O O11 0.293182 0.046556 0.670972
O O12 0.250000 0.750000 0.000000
#
# Coordination Sequence:
#
# PCOD9212079 Si02
#       6
#     8   4   8   8   2   8
#     4  10  21  41  62  99 138 181 230 297 347 428
#     4  12  26  49  72 101 136 181 250 297 350 424
#     4  11  24  46  70  96 138 185 222 297 356 410
#     4  11  23  40  68  99 143 181 226 278 356 420
#     4  12  24  40  64 110 136 186 236 270 336 454
#     4  10  21  41  66  93 135 181 233 281 367 419
#
# _framework density 22.709447000000001
#
# number of rings (size 3 to 8) (size 9 to 14) (size 15 to 20)
#    0.000    1.263    3.158    2.526    0.000    2.526 
#    3.789    0.000    0.000    0.000    0.000    0.000 
#    0.000    0.000    0.000    0.000    0.000    0.000 
#
# Total GULP energy -105897.147686 kJ/mol
# GULP energy per Si atom -5573.534089 kJ/mol
# Density = 2.265776 g / cm^3
# Si number density = 22.709447 Si / 1000 Ang^3
#
#
#
# Elastic Constant Matrix: (Units=GPa)
#
#
# Indices 1 2 3 4 5 6 
#
# 1 169.6556 93.3532 62.9396 -0.0146 -59.3032 -0.0005
# 2 93.3532 242.5500 46.9748 0.0112 -29.4074 -0.0043
# 3 62.9396 46.9748 154.3131 -0.0290 -17.2028 -0.0451
# 4 -0.0146 0.0112 -0.0290 90.8711 0.0274 31.8074
# 5 -59.3032 -29.4074 -17.2028 0.0274 58.6006 0.0005
# 6 -0.0005 -0.0043 -0.0451 31.8074 0.0005 78.3706
#
#
#
# Elastic Compliance Matrix: (Units=1/GPa)
#
#
# Indices 1 2 3 4 5 6 
#
# 1 0.011991 -0.002855 -0.002924 -0.000001 0.009844 -0.000001
# 2 -0.002855 0.005268 -0.000482 -0.000001 -0.000387 0.000001
# 3 -0.002924 -0.000482 0.007715 0.000001 -0.000936 0.000004
# 4 -0.000001 -0.000001 0.000001 0.012827 -0.000008 -0.005206
# 5 0.009844 -0.000387 -0.000936 -0.000008 0.026557 0.000002
# 6 -0.000001 0.000001 0.000004 -0.005206 0.000002 0.014873
#
#
# Mechanical properties :
#
#
# Convention : Reuss Voigt Hill
#
# Bulk Modulus (GPa) = 80.31460 108.11709 94.21584
# Shear Modulus (GPa) = 52.13466 69.78521 60.95993
#
# Velocity S-wave (km/s) = 4.79657 5.54944 5.18668
# Velocity P-wave (km/s) = 8.13136 9.42199 8.80037
#
# Compressibility (1/GPa) = 0.01245104
#
# Stress axis : x y z
#
# Youngs Moduli (GPa) = 83.39498 189.81531 129.60966
#
# Poissons Ratio (x) = 0.54199 0.37901
# Poissons Ratio (y) = 0.23812 0.06251
# Poissons Ratio (z) = 0.24387 0.09155
#
# Static dielectric constant tensor:
#      x y z
#    x 1.766570 0.000000 -0.059150 
#    y 0.000000 1.802910 -0.000050 
#    z -0.059150 -0.000050 1.819930 
# 
# From -- ./inp_files/137147.got.cif
#   From: 2010.05.17/outbox.cif.g08.bks.cpg/sg12_69_cif.got.tgz:137147.got - 2010.06.03 13:09:07.
