data_PCOD9212263
_publ_section_title
;
Structure prediction by ZEFSAII (Michael W. Deem and Ramdas Pophale) SiO2 
 PCOD9212263
Probable space group: C 2/M
;
_chemical_formula_sum "Si O2"
_cell_formula_units_Z 52
_cell_length_a 30.328987
_cell_length_b 10.526463
_cell_length_c 13.244499
_cell_angle_alpha 90.000000
_cell_angle_beta 38.588003
_cell_angle_gamma 90.000000
_cell_volume 2637.319544
_symmetry_space_group_name_H-M "C 2/M"
_symmetry_group_IT_number 12
_symmetry_cell_setting 'monoclinic'
loop_
_space_group_symop_operation_xyz
x,y,z
-x,y,-z
-x,-y,-z
x,-y,z
1/2+x,1/2+y,z
1/2-x,1/2+y,-z
1/2-x,1/2-y,-z
1/2+x,1/2-y,z
loop_
_atom_site_type_symbol
_atom_site_label
_atom_site_fract_x
_atom_site_fract_y
_atom_site_fract_z
Si Si1 0.353396 0.500000 0.101946
Si Si2 0.798038 0.859704 0.801035
Si Si3 0.534736 0.147021 0.207384
Si Si4 0.192536 0.645856 0.571997
Si Si5 0.162548 0.791916 0.044642
Si Si6 0.868476 0.645146 0.542605
Si Si7 0.926205 0.760678 0.078199
O O1 0.384200 0.387055 0.121426
O O2 0.330526 0.389760 0.059423
O O3 0.815714 0.852091 0.887926
O O4 0.840717 0.749299 0.669031
O O5 0.814484 0.000000 0.732615
O O6 0.716018 0.824944 0.932387
O O7 0.582864 0.239171 0.188682
O O8 0.451404 0.165039 0.372875
O O9 0.550871 0.000000 0.198844
O O10 0.554877 0.183040 0.056895
O O11 0.216461 0.500000 0.546116
O O12 0.250000 0.750000 0.500000
O O13 0.173428 0.656449 0.488014
O O14 0.122595 0.676341 0.761428
O O15 0.858443 0.500000 0.597426
O O16 0.000000 0.793016 0.000000
#
# Coordination Sequence:
#
# PCOD9212263 Si02
#       7
#     4   8   8   8   8   8   8
#     4  10  23  40  64  97 130 165 210 267 330 384
#     4  11  24  43  66  96 128 170 217 273 325 388
#     4  10  21  41  66  95 124 167 221 270 316 386
#     4  11  26  43  63  94 134 173 212 263 324 384
#     4  10  23  42  68  92 127 167 219 270 330 383
#     4  10  24  43  65  92 132 172 211 265 328 381
#     4  11  22  41  69  96 126 172 220 267 319 387
#
# _framework density 19.716989999999999
#
# number of rings (size 3 to 8) (size 9 to 14) (size 15 to 20)
#    0.000    1.538    2.308    1.154    6.462    3.077 
#    5.538    2.308    0.000    0.000    0.000    0.000 
#    0.000    0.000    0.000    0.000    0.000    0.000 
#
# Total GULP energy -144770.744163 kJ/mol
# GULP energy per Si atom -5568.105545 kJ/mol
# Density = 1.967211 g / cm^3
# Si number density = 19.716990 Si / 1000 Ang^3
#
#
#
# Elastic Constant Matrix: (Units=GPa)
#
#
# Indices 1 2 3 4 5 6 
#
# 1 83.7616 35.4941 4.1159 0.0000 -14.2301 0.0000
# 2 35.4941 96.9600 20.3053 0.0000 -6.1130 0.0000
# 3 4.1159 20.3053 53.4261 0.0000 2.7111 0.0000
# 4 0.0000 0.0000 0.0000 16.2798 0.0000 5.6889
# 5 -14.2301 -6.1130 2.7111 0.0000 11.3238 0.0000
# 6 0.0000 0.0000 0.0000 5.6889 0.0000 15.4543
#
#
#
# Elastic Compliance Matrix: (Units=1/GPa)
#
#
# Indices 1 2 3 4 5 6 
#
# 1 0.017362 -0.005066 -0.000385 0.000000 0.019175 0.000000
# 2 -0.005066 0.013287 -0.004758 0.000000 0.001946 0.000000
# 3 -0.000385 -0.004758 0.020965 0.000000 -0.008072 0.000000
# 4 0.000000 0.000000 0.000000 0.070494 0.000000 -0.025949
# 5 0.019175 0.001946 -0.008072 0.000000 0.115389 0.000000
# 6 0.000000 0.000000 0.000000 -0.025949 0.000000 0.074259
#
#
# Mechanical properties :
#
#
# Convention : Reuss Voigt Hill
#
# Bulk Modulus (GPa) = 32.05637 39.33093 35.69365
# Shear Modulus (GPa) = 14.59541 20.22709 17.41125
#
# Velocity S-wave (km/s) = 2.72370 3.20640 2.97485
# Velocity P-wave (km/s) = 5.11712 5.80509 5.47192
#
# Compressibility (1/GPa) = 0.03119505
#
# Stress axis : x y z
#
# Youngs Moduli (GPa) = 57.59719 75.25998 47.69793
#
# Poissons Ratio (x) = 0.38127 0.01837
# Poissons Ratio (y) = 0.29179 0.22697
# Poissons Ratio (z) = 0.02219 0.35812
#
# Static dielectric constant tensor:
#      x y z
#    x 1.684560 0.000000 -0.009640 
#    y 0.000000 1.666010 0.000000 
#    z -0.009640 0.000000 1.703580 
# 
# From -- ./inp_files/249614.got.cif
#   From: 2010.05.17/outbox.cif.g08.bks.cpg/sg12_125_cif.got.tgz:249614.got - 2010.06.03 13:09:07.
