data_PCOD9212017
_publ_section_title
;
Structure prediction by ZEFSAII (Michael W. Deem and Ramdas Pophale) SiO2 
 PCOD9212017
Probable space group: C 2/M
;
_chemical_formula_sum "Si O2"
_cell_formula_units_Z 52
_cell_length_a 22.089619
_cell_length_b 14.643075
_cell_length_c 7.742488
_cell_angle_alpha 90.000000
_cell_angle_beta 70.396437
_cell_angle_gamma 90.000000
_cell_volume 2359.222084
_symmetry_space_group_name_H-M "C 2/M"
_symmetry_group_IT_number 12
_symmetry_cell_setting 'monoclinic'
loop_
_space_group_symop_operation_xyz
x,y,z
-x,y,-z
-x,-y,-z
x,-y,z
1/2+x,1/2+y,z
1/2-x,1/2+y,-z
1/2-x,1/2-y,-z
1/2+x,1/2-y,z
loop_
_atom_site_type_symbol
_atom_site_label
_atom_site_fract_x
_atom_site_fract_y
_atom_site_fract_z
Si Si1 0.429877 0.500000 0.295445
Si Si2 0.610458 0.805913 0.710874
Si Si3 0.082798 0.500000 0.232887
Si Si4 0.786021 0.734528 0.685343
Si Si5 0.494407 0.681591 0.713141
Si Si6 0.570773 0.000000 0.648091
Si Si7 0.706259 0.600315 0.541888
Si Si8 0.129777 0.701276 0.079055
O O1 0.485073 0.581339 0.241287
O O2 0.370333 0.578426 0.369207
O O3 0.655017 0.785010 0.504777
O O4 0.544413 0.752237 0.747302
O O5 0.594622 0.911520 0.720546
O O6 0.640574 0.785769 0.866842
O O7 0.095029 0.500000 0.427255
O O8 0.108156 0.596509 0.135490
O O9 0.006184 0.500000 0.283025
O O10 0.734251 0.660165 0.671652
O O11 0.775168 0.840417 0.644143
O O12 0.810710 0.720029 0.853008
O O13 0.500000 0.678937 0.500000
O O14 0.424936 0.724195 0.819985
O O15 0.737146 0.500000 0.509011
#
# Coordination Sequence:
#
# PCOD9212017 Si02
#       8
#     4   8   4   8   8   4   8   8
#     4  10  21  40  71  98 129 181 229 275 328 390
#     4  12  23  39  60  95 132 170 218 265 334 405
#     4  11  21  36  55  84 129 166 206 252 313 392
#     4  11  22  43  69  91 129 170 220 281 332 390
#     4  12  21  40  65  96 136 175 219 270 332 403
#     4  11  21  34  55  82 125 169 197 254 310 387
#     4   9  21  42  69  95 122 174 230 275 330 386
#     4  12  25  38  62 100 129 175 216 266 343 399
#
# _framework density 22.041163000000001
#
# number of rings (size 3 to 8) (size 9 to 14) (size 15 to 20)
#    0.462    0.462    6.154    1.154    2.154    0.615 
#    0.000    4.615    0.000    1.846    0.000    0.000 
#    0.000    0.000    0.000    0.000    0.000    0.000 
#
# Total GULP energy -144794.891623 kJ/mol
# GULP energy per Si atom -5569.034293 kJ/mol
# Density = 2.199100 g / cm^3
# Si number density = 22.041163 Si / 1000 Ang^3
#
#
#
# Elastic Constant Matrix: (Units=GPa)
#
#
# Indices 1 2 3 4 5 6 
#
# 1 68.0340 59.0980 45.6659 0.0000 5.4723 0.0000
# 2 59.0980 182.3256 23.8868 0.0000 -5.1001 0.0000
# 3 45.6659 23.8868 88.0499 0.0000 28.1079 0.0000
# 4 0.0000 0.0000 0.0000 -844.9810 0.0000 1311.0981
# 5 5.4723 -5.1001 28.1079 0.0000 34.5082 0.0000
# 6 0.0000 0.0000 0.0000 1311.0981 0.0000-1950.3154
#
#
#
# Elastic Compliance Matrix: (Units=1/GPa)
#
#
# Indices 1 2 3 4 5 6 
#
# 1 0.032668 -0.008128 -0.017164 0.000000 0.007599 0.000000
# 2 -0.008128 0.007922 0.001731 0.000000 0.001050 0.000000
# 3 -0.017164 0.001731 0.025458 0.000000 -0.017759 0.000000
# 4 0.000000 0.000000 0.000000 0.027470 0.000000 0.018467
# 5 0.007599 0.001050 -0.017759 0.000000 0.042394 0.000000
# 6 0.000000 0.000000 0.000000 0.018467 0.000000 0.011901
#
#
# Mechanical properties :
#
#
# Convention : Reuss Voigt Hill
#
# Bulk Modulus (GPa) = 52.83177 66.19010 59.51093
# Shear Modulus (GPa) = 24.84568 -538.17372 -256.66402
#
# Velocity S-wave (km/s) = 3.36108 -15.64281 -10.80280
# Velocity P-wave (km/s) = 6.25173 17.20954 11.33764
#
# Compressibility (1/GPa) = 0.01892800
#
# Stress axis : x y z
#
# Youngs Moduli (GPa) = 30.61100 126.23559 39.27996
#
# Poissons Ratio (x) = 1.02600 0.67418
# Poissons Ratio (y) = 0.24880 -0.06800
# Poissons Ratio (z) = 0.52539 -0.21854
#
# Static dielectric constant tensor:
#      x y z
#    x 1.859070 0.000000 -0.022590 
#    y 0.000000 2.731300 0.000000 
#    z -0.022590 0.000000 1.800340 
# 
# From -- ./inp_files/95802.got.cif
#   From: 2010.05.17/outbox.cif.g08.bks.cpg/sg12_48_cif.got.tgz:95802.got - 2010.06.03 13:09:07.
