data_PCOD9212961
_publ_section_title
;
Structure prediction by ZEFSAII (Michael W. Deem and Ramdas Pophale) SiO2 
 PCOD9212961
Probable space group: C 2/M
;
_chemical_formula_sum "Si O2"
_cell_formula_units_Z 56
_cell_length_a 11.095296
_cell_length_b 13.863796
_cell_length_c 21.889414
_cell_angle_alpha 90.000000
_cell_angle_beta 66.943902
_cell_angle_gamma 90.000000
_cell_volume 3098.136377
_symmetry_space_group_name_H-M "C 2/M"
_symmetry_group_IT_number 12
_symmetry_cell_setting 'monoclinic'
loop_
_space_group_symop_operation_xyz
x,y,z
-x,y,-z
-x,-y,-z
x,-y,z
1/2+x,1/2+y,z
1/2-x,1/2+y,-z
1/2-x,1/2-y,-z
1/2+x,1/2-y,z
loop_
_atom_site_type_symbol
_atom_site_label
_atom_site_fract_x
_atom_site_fract_y
_atom_site_fract_z
Si Si1 0.542818 0.109085 0.301362
Si Si2 0.650353 0.611485 0.489838
Si Si3 0.879320 0.383883 0.846723
Si Si4 0.349205 0.747849 0.392060
Si Si5 0.084812 0.885206 0.868709
Si Si6 0.907093 0.734675 0.961421
Si Si7 0.653774 0.609061 0.722134
O O1 0.537076 0.138721 0.231024
O O2 0.475664 0.183688 0.360347
O O3 0.696244 0.103790 0.285405
O O4 0.488864 0.000000 0.318619
O O5 0.500000 0.608358 0.500000
O O6 0.697046 0.500000 0.486377
O O7 0.656646 0.671794 0.551489
O O8 0.732467 0.675460 0.425504
O O9 0.879462 0.500000 0.851543
O O10 0.728239 0.352856 0.864032
O O11 0.925912 0.336075 0.899850
O O12 0.349499 0.684980 0.331020
O O13 0.074217 0.863075 0.798643
O O14 0.970835 0.835783 0.928752
O O15 0.081347 0.000000 0.875071
O O16 0.750000 0.750000 0.000000
O O17 0.000000 0.702720 0.000000
O O18 0.615121 0.500000 0.710453
#
# Coordination Sequence:
#
# PCOD9212961 Si02
#       7
#     8   8   8   8   8   8   8
#     4   9  18  33  55  80 104 132 172 221 274 324
#     4  10  22  36  48  70 108 147 178 209 258 321
#     4   9  19  37  57  79 110 145 178 222 281 336
#     4  11  19  32  55  78 101 136 179 222 262 307
#     4   9  19  37  58  79 108 146 182 219 275 342
#     4  12  23  36  56  85 112 145 191 230 268 324
#     4   9  18  33  55  81 104 130 173 225 269 315
#
# _framework density 18.075382000000001
#
# number of rings (size 3 to 8) (size 9 to 14) (size 15 to 20)
#    0.000    2.143    1.429    4.286    0.000    1.143 
#    0.000    0.000    0.000    6.857    0.000    0.000 
#    0.000    0.000    0.000    0.000    0.000    0.000 
#
# Total GULP energy -155985.767554 kJ/mol
# GULP energy per Si atom -5570.920270 kJ/mol
# Density = 1.803424 g / cm^3
# Si number density = 18.075382 Si / 1000 Ang^3
#
#
#
# Elastic Constant Matrix: (Units=GPa)
#
#
# Indices 1 2 3 4 5 6 
#
# 1 38.9646 16.4444 9.4938 0.0000 -2.0411 0.0000
# 2 16.4444 83.7238 32.7123 0.0000 5.9124 0.0000
# 3 9.4938 32.7123 48.6035 0.0000 1.0065 0.0000
# 4 0.0000 0.0000 0.0000 34.2264 0.0000 -4.5630
# 5 -2.0411 5.9124 1.0065 0.0000 24.0458 0.0000
# 6 0.0000 0.0000 0.0000 -4.5630 0.0000 25.3648
#
#
#
# Elastic Compliance Matrix: (Units=1/GPa)
#
#
# Indices 1 2 3 4 5 6 
#
# 1 0.028517 -0.004964 -0.002307 0.000000 0.003738 0.000000
# 2 -0.004964 0.017375 -0.010636 0.000000 -0.004248 0.000000
# 3 -0.002307 -0.010636 0.028158 0.000000 0.001241 0.000000
# 4 0.000000 0.000000 0.000000 0.029935 0.000000 0.005385
# 5 0.003738 -0.004248 0.001241 0.000000 0.042897 0.000000
# 6 0.000000 0.000000 0.000000 0.005385 0.000000 0.040394
#
#
# Mechanical properties :
#
#
# Convention : Reuss Voigt Hill
#
# Bulk Modulus (GPa) = 26.15330 32.06589 29.10960
# Shear Modulus (GPa) = 21.20120 24.23682 22.71901
#
# Velocity S-wave (km/s) = 3.42853 3.66577 3.54913
# Velocity P-wave (km/s) = 5.49304 5.97459 5.73887
#
# Compressibility (1/GPa) = 0.03823609
#
# Stress axis : x y z
#
# Youngs Moduli (GPa) = 35.06677 57.55450 35.51338
#
# Poissons Ratio (x) = 0.28568 0.08192
# Poissons Ratio (y) = 0.17406 0.37774
# Poissons Ratio (z) = 0.08089 0.61218
#
# Static dielectric constant tensor:
#      x y z
#    x 1.612150 0.000000 0.003250 
#    y 0.000000 1.622290 0.000000 
#    z 0.003250 0.000000 1.645410 
# 
# From -- ./inp_files/304157.got.cif
#   From: 2010.05.17/outbox.cif.g08.bks.cpg/sg12_153_cif.got.tgz:304157.got - 2010.06.03 13:09:07.
