data_PCOD9212251
_publ_section_title
;
Structure prediction by ZEFSAII (Michael W. Deem and Ramdas Pophale) SiO2 
 PCOD9212251
Probable space group: C 2/M
;
_chemical_formula_sum "Si O2"
_cell_formula_units_Z 48
_cell_length_a 14.010677
_cell_length_b 26.267033
_cell_length_c 9.191580
_cell_angle_alpha 90.000000
_cell_angle_beta 48.307990
_cell_angle_gamma 90.000000
_cell_volume 2525.948315
_symmetry_space_group_name_H-M "C 2/M"
_symmetry_group_IT_number 12
_symmetry_cell_setting 'monoclinic'
loop_
_space_group_symop_operation_xyz
x,y,z
-x,y,-z
-x,-y,-z
x,-y,z
1/2+x,1/2+y,z
1/2-x,1/2+y,-z
1/2-x,1/2-y,-z
1/2+x,1/2-y,z
loop_
_atom_site_type_symbol
_atom_site_label
_atom_site_fract_x
_atom_site_fract_y
_atom_site_fract_z
Si Si1 0.988144 0.107207 0.338804
Si Si2 0.426222 0.718180 0.713908
Si Si3 0.340816 0.184314 0.960944
Si Si4 0.258463 0.939560 0.561429
Si Si5 0.478610 0.083991 0.861832
Si Si6 0.255361 0.409511 0.088786
O O1 0.857035 0.086096 0.409056
O O2 0.000000 0.097670 0.500000
O O3 0.998765 0.168356 0.308332
O O4 0.109097 0.084232 0.128871
O O5 0.500000 0.738702 0.500000
O O6 0.404610 0.763498 0.848265
O O7 0.284167 0.697426 0.817889
O O8 0.437008 0.143001 0.925905
O O9 0.281012 0.150999 0.887258
O O10 0.394049 0.921029 0.361257
O O11 0.245326 0.926853 0.745367
O O12 0.251976 0.000000 0.548682
O O13 0.357080 0.064221 0.892295
O O14 0.500000 0.061404 0.000000
#
# Coordination Sequence:
#
# PCOD9212251 Si02
#       6
#     8   8   8   8   8   8
#     4  10  21  41  66  93 125 166 205 258 305 367
#     4   9  17  33  64  90 125 164 204 249 303 366
#     4   8  19  36  58  95 122 165 201 249 303 375
#     4  12  26  41  63  93 123 162 214 263 317 368
#     4  10  22  41  65  87 126 162 204 261 311 371
#     4   9  21  40  64  87 126 165 200 260 307 369
#
# _framework density 19.002763999999999
#
# number of rings (size 3 to 8) (size 9 to 14) (size 15 to 20)
#    1.000    1.333    0.000    2.000    4.667    3.333 
#    0.000    7.500    0.000    0.000    0.000    0.000 
#    0.000    0.000    0.000    0.000    0.000    0.000 
#
# Total GULP energy -133664.261241 kJ/mol
# GULP energy per Si atom -5569.344218 kJ/mol
# Density = 1.895951 g / cm^3
# Si number density = 19.002764 Si / 1000 Ang^3
#
#
#
# Elastic Constant Matrix: (Units=GPa)
#
#
# Indices 1 2 3 4 5 6 
#
# 1 61.2395 25.3749 2.8318 0.0000 -1.8922 0.0000
# 2 25.3749 56.1427 23.7609 0.0000 -6.3848 0.0000
# 3 2.8318 23.7609 69.5905 0.0000 -8.9582 0.0000
# 4 0.0000 0.0000 0.0000 -60.5195 0.0000 29.1186
# 5 -1.8922 -6.3848 -8.9582 0.0000 30.2921 0.0000
# 6 0.0000 0.0000 0.0000 29.1186 0.0000 10.6867
#
#
#
# Elastic Compliance Matrix: (Units=1/GPa)
#
#
# Indices 1 2 3 4 5 6 
#
# 1 0.020526 -0.010439 0.002714 0.000000 -0.000115 0.000000
# 2 -0.010439 0.026295 -0.008237 0.000000 0.002454 0.000000
# 3 0.002714 -0.008237 0.017538 0.000000 0.003620 0.000000
# 4 0.000000 0.000000 0.000000 -0.007150 0.000000 0.019482
# 5 -0.000115 0.002454 0.003620 0.000000 0.034592 0.000000
# 6 0.000000 0.000000 0.000000 0.019482 0.000000 0.040491
#
#
# Mechanical properties :
#
#
# Convention : Reuss Voigt Hill
#
# Bulk Modulus (GPa) = 30.83150 32.32310 31.57730
# Shear Modulus (GPa) = 28.56690 5.09220 16.82955
#
# Velocity S-wave (km/s) = 3.88145 1.63876 2.97919
# Velocity P-wave (km/s) = 6.02889 4.54173 5.33736
#
# Compressibility (1/GPa) = 0.03243436
#
# Stress axis : x y z
#
# Youngs Moduli (GPa) = 48.71958 38.02981 57.01942
#
# Poissons Ratio (x) = 0.39698 -0.15476
# Poissons Ratio (y) = 0.50857 0.46970
# Poissons Ratio (z) = -0.13223 0.31327
#
# Static dielectric constant tensor:
#      x y z
#    x 1.651030 0.000000 -0.005480 
#    y 0.000000 1.688790 0.000000 
#    z -0.005480 0.000000 1.648020 
# 
# From -- ./inp_files/67284.got.cif
#   From: 2010.05.17/outbox.cif.g08.bks.cpg/sg12_34_cif.got.tgz:67284.got - 2010.06.03 13:09:07.
