data_PCOD9212627
_publ_section_title
;
Structure prediction by ZEFSAII (Michael W. Deem and Ramdas Pophale) SiO2 
 PCOD9212627
Probable space group: C 2/M
;
_chemical_formula_sum "Si O2"
_cell_formula_units_Z 46
_cell_length_a 12.145512
_cell_length_b 17.963425
_cell_length_c 11.796134
_cell_angle_alpha 90.000000
_cell_angle_beta 127.078432
_cell_angle_gamma 90.000000
_cell_volume 2053.263358
_symmetry_space_group_name_H-M "C 2/M"
_symmetry_group_IT_number 12
_symmetry_cell_setting 'monoclinic'
loop_
_space_group_symop_operation_xyz
x,y,z
-x,y,-z
-x,-y,-z
x,-y,z
1/2+x,1/2+y,z
1/2-x,1/2+y,-z
1/2-x,1/2-y,-z
1/2+x,1/2-y,z
loop_
_atom_site_type_symbol
_atom_site_label
_atom_site_fract_x
_atom_site_fract_y
_atom_site_fract_z
Si Si1 0.197092 0.367358 0.206261
Si Si2 0.328985 0.230920 0.191746
Si Si3 0.010118 0.084554 0.681203
Si Si4 0.000000 0.664077 0.500000
Si Si5 0.201412 0.589808 0.453073
Si Si6 0.500000 0.000000 0.000000
Si Si7 0.095336 0.842898 0.950170
O O1 0.203128 0.286618 0.151549
O O2 0.361927 0.383690 0.309023
O O3 0.147351 0.372037 0.304486
O O4 0.117837 0.433249 0.092616
O O5 0.420726 0.212035 0.356268
O O6 0.409785 0.273519 0.141999
O O7 0.252644 0.159270 0.092371
O O8 0.054094 0.091430 0.839893
O O9 0.857948 0.117075 0.571290
O O10 0.997683 0.000000 0.638904
O O11 0.109348 0.613826 0.501089
O O12 0.196943 0.500000 0.434999
O O13 0.000000 0.841834 0.000000
#
# Coordination Sequence:
#
# PCOD9212627 Si02
#       7
#     8   8   8   4   8   2   8
#     4  11  24  43  71 106 134 183 234 297 354 419
#     4  10  26  42  66 102 142 181 234 293 349 424
#     4  10  21  42  70 100 138 179 241 287 351 420
#     4  12  27  46  68 111 140 198 236 284 364 421
#     4  11  24  44  71 102 142 188 233 300 347 416
#     4  12  24  44  70 114 134 182 232 294 364 404
#     4  10  22  42  62  95 136 183 223 288 349 416
#
# _framework density 22.403362000000001
#
# number of rings (size 3 to 8) (size 9 to 14) (size 15 to 20)
#    0.000    1.391    1.739    1.826    8.522    5.217 
#    0.000    0.870    0.000    0.000    0.000    0.000 
#    0.000    0.000    0.000    0.000    0.000    0.000 
#
# Total GULP energy -128171.908371 kJ/mol
# GULP energy per Si atom -5572.691668 kJ/mol
# Density = 2.235237 g / cm^3
# Si number density = 22.403362 Si / 1000 Ang^3
#
#
#
# Elastic Constant Matrix: (Units=GPa)
#
#
# Indices 1 2 3 4 5 6 
#
# 1 119.6230 2.9642 25.9114 0.0000 -21.6431 0.0000
# 2 2.9642 41.5335 26.1230 0.0000 3.6605 0.0000
# 3 25.9114 26.1230 113.5209 0.0000 -12.7742 0.0000
# 4 0.0000 0.0000 0.0000 25.4039 0.0000 1.1012
# 5 -21.6431 3.6605 -12.7742 0.0000 43.9354 0.0000
# 6 0.0000 0.0000 0.0000 1.1012 0.0000 17.5671
#
#
#
# Elastic Compliance Matrix: (Units=1/GPa)
#
#
# Indices 1 2 3 4 5 6 
#
# 1 0.009483 0.000025 -0.001700 0.000000 0.004175 0.000000
# 2 0.000025 0.028988 -0.007182 0.000000 -0.004491 0.000000
# 3 -0.001700 -0.007182 0.011189 0.000000 0.003014 0.000000
# 4 0.000000 0.000000 0.000000 0.039471 0.000000 -0.002474
# 5 0.004175 -0.004491 0.003014 0.000000 0.026068 0.000000
# 6 0.000000 0.000000 0.000000 -0.002474 0.000000 0.057080
#
#
# Mechanical properties :
#
#
# Convention : Reuss Voigt Hill
#
# Bulk Modulus (GPa) = 31.30382 42.74161 37.02271
# Shear Modulus (GPa) = 24.92017 32.02655 28.47336
#
# Velocity S-wave (km/s) = 3.33880 3.78503 3.56889
# Velocity P-wave (km/s) = 5.37276 6.18236 5.79172
#
# Compressibility (1/GPa) = 0.03194499
#
# Stress axis : x y z
#
# Youngs Moduli (GPa) = 105.45594 34.49710 89.37502
#
# Poissons Ratio (x) = -0.00085 0.15197
# Poissons Ratio (y) = -0.00261 0.64186
# Poissons Ratio (z) = 0.17931 0.24774
#
# Static dielectric constant tensor:
#      x y z
#    x 1.810550 0.000000 0.013240 
#    y 0.000000 1.834480 0.000000 
#    z 0.013240 0.000000 1.866510 
# 
# From -- ./inp_files/134110.got.cif
#   From: 2010.05.17/outbox.cif.g08.bks.cpg/sg12_68_cif.got.tgz:134110.got - 2010.06.03 13:09:07.
