data_PCOD9212372
_publ_section_title
;
Structure prediction by ZEFSAII (Michael W. Deem and Ramdas Pophale) SiO2 
 PCOD9212372
Probable space group: C 2/M
;
_chemical_formula_sum "Si O2"
_cell_formula_units_Z 64
_cell_length_a 8.784744
_cell_length_b 28.854304
_cell_length_c 12.313245
_cell_angle_alpha 90.000000
_cell_angle_beta 91.195998
_cell_angle_gamma 90.000000
_cell_volume 3120.452743
_symmetry_space_group_name_H-M "C 2/M"
_symmetry_group_IT_number 12
_symmetry_cell_setting 'monoclinic'
loop_
_space_group_symop_operation_xyz
x,y,z
-x,y,-z
-x,-y,-z
x,-y,z
1/2+x,1/2+y,z
1/2-x,1/2+y,-z
1/2-x,1/2-y,-z
1/2+x,1/2-y,z
loop_
_atom_site_type_symbol
_atom_site_label
_atom_site_fract_x
_atom_site_fract_y
_atom_site_fract_z
Si Si1 0.922206 0.865240 0.166923
Si Si2 0.066910 0.177780 0.379085
Si Si3 0.347171 0.268306 0.102210
Si Si4 0.864032 0.414247 0.921944
Si Si5 0.427711 0.225675 0.749988
Si Si6 0.421059 0.146492 0.384136
Si Si7 0.851936 0.051725 0.890890
Si Si8 0.433609 0.949399 0.267020
O O1 0.933380 0.817362 0.100543
O O2 0.748056 0.880150 0.143948
O O3 0.973579 0.853624 0.290794
O O4 0.030495 0.906333 0.124186
O O5 0.243001 0.160982 0.381947
O O6 0.000000 0.176107 0.500000
O O7 0.059224 0.230008 0.329992
O O8 0.470838 0.231459 0.140657
O O9 0.241080 0.274246 0.206557
O O10 0.250000 0.250000 0.000000
O O11 0.949003 0.443985 0.831721
O O12 0.752598 0.440893 0.003840
O O13 0.000000 0.393723 0.000000
O O14 0.488018 0.180255 0.694227
O O15 0.500000 0.153193 0.500000
O O16 0.444080 0.093957 0.345932
O O17 0.732674 0.053262 0.790309
O O18 0.920995 0.000000 0.892723
O O19 0.454545 0.000000 0.317908
#
# Coordination Sequence:
#
# PCOD9212372 Si02
#       8
#     8   8   8   8   8   8   8   8
#     4  11  24  42  66  96 139 178 225 275 337 403
#     4  11  26  46  69  97 132 171 232 288 340 397
#     4  11  25  42  65  98 139 181 215 263 331 410
#     4  10  22  38  65 100 135 174 225 272 327 397
#     4  11  24  45  68  98 135 172 225 275 332 403
#     4  12  26  43  73  98 130 176 227 287 349 395
#     4  10  21  41  68  96 133 182 226 275 332 397
#     4  10  22  43  67  99 140 174 221 281 339 409
#
# _framework density 20.509844999999999
#
# number of rings (size 3 to 8) (size 9 to 14) (size 15 to 20)
#    0.000    1.250    2.500    2.250    5.250   11.250 
#    0.000    0.000    0.000    0.750    0.000    0.000 
#    0.000    0.000    0.000    0.000    0.000    0.000 
#
# Total GULP energy -178735.367495 kJ/mol
# GULP energy per Si atom -5585.480234 kJ/mol
# Density = 2.046316 g / cm^3
# Si number density = 20.509845 Si / 1000 Ang^3
#
#
#
# Elastic Constant Matrix: (Units=GPa)
#
#
# Indices 1 2 3 4 5 6 
#
# 1 90.3775 23.5883 61.1653 0.0000 4.9434 0.0000
# 2 23.5883 112.3182 52.2084 0.0000 4.2791 0.0000
# 3 61.1653 52.2084 100.3620 0.0000 3.2988 0.0000
# 4 0.0000 0.0000 0.0000 -31.5144 0.0000 7.7823
# 5 4.9434 4.2791 3.2988 0.0000 46.0946 0.0000
# 6 0.0000 0.0000 0.0000 7.7823 0.0000 28.7933
#
#
#
# Elastic Compliance Matrix: (Units=1/GPa)
#
#
# Indices 1 2 3 4 5 6 
#
# 1 0.019199 0.001895 -0.012643 0.000000 -0.001330 0.000000
# 2 0.001895 0.011950 -0.007346 0.000000 -0.000787 0.000000
# 3 -0.012643 -0.007346 0.021474 0.000000 0.000501 0.000000
# 4 0.000000 0.000000 0.000000 -0.029746 0.000000 0.008040
# 5 -0.001330 -0.000787 0.000501 0.000000 0.021874 0.000000
# 6 0.000000 0.000000 0.000000 0.008040 0.000000 0.032557
#
#
# Mechanical properties :
#
#
# Convention : Reuss Voigt Hill
#
# Bulk Modulus (GPa) = 60.84085 64.10907 62.47496
# Shear Modulus (GPa) = 42.02598 19.74775 30.88687
#
# Velocity S-wave (km/s) = 4.53157 3.10634 3.88487
# Velocity P-wave (km/s) = 7.55703 6.64766 7.11689
#
# Compressibility (1/GPa) = 0.01643633
#
# Stress axis : x y z
#
# Youngs Moduli (GPa) = 52.08486 83.68504 46.56786
#
# Poissons Ratio (x) = -0.15862 0.58877
# Poissons Ratio (y) = -0.09873 0.34206
# Poissons Ratio (z) = 0.65853 0.61471
#
# Static dielectric constant tensor:
#      x y z
#    x 1.741640 0.000000 0.000110 
#    y 0.000000 1.896370 0.000000 
#    z 0.000110 0.000000 1.761680 
# 
# From -- ./inp_files/125760.got.cif
#   From: 2010.05.17/outbox.cif.g08.bks.cpg/sg12_63_cif.got.tgz:125760.got - 2010.06.03 13:09:07.
