data_PCOD9212659
_publ_section_title
;
Structure prediction by ZEFSAII (Michael W. Deem and Ramdas Pophale) SiO2 
 PCOD9212659
Probable space group: C 2/M
;
_chemical_formula_sum "Si O2"
_cell_formula_units_Z 44
_cell_length_a 11.711097
_cell_length_b 16.089876
_cell_length_c 12.383407
_cell_angle_alpha 90.000000
_cell_angle_beta 122.650428
_cell_angle_gamma 90.000000
_cell_volume 1964.676743
_symmetry_space_group_name_H-M "C 2/M"
_symmetry_group_IT_number 12
_symmetry_cell_setting 'monoclinic'
loop_
_space_group_symop_operation_xyz
x,y,z
-x,y,-z
-x,-y,-z
x,-y,z
1/2+x,1/2+y,z
1/2-x,1/2+y,-z
1/2-x,1/2-y,-z
1/2+x,1/2-y,z
loop_
_atom_site_type_symbol
_atom_site_label
_atom_site_fract_x
_atom_site_fract_y
_atom_site_fract_z
Si Si1 0.610959 0.400638 0.242538
Si Si2 0.000000 0.207590 0.000000
Si Si3 0.035737 0.409212 0.831869
Si Si4 0.542322 0.641569 0.635077
Si Si5 0.907711 0.667371 0.355361
Si Si6 0.811084 0.635898 0.892807
O O1 0.591491 0.500000 0.229979
O O2 0.583974 0.364979 0.348610
O O3 0.763218 0.376880 0.285806
O O4 0.513875 0.350390 0.111176
O O5 0.132333 0.268728 0.066285
O O6 0.032980 0.500000 0.780621
O O7 0.030191 0.345526 0.731724
O O8 0.915029 0.398835 0.855865
O O9 0.165248 0.399357 0.975644
O O10 0.500000 0.601466 0.500000
O O11 0.597535 0.733448 0.633479
O O12 0.666611 0.611289 0.771932
O O13 0.000000 0.634429 0.500000
#
# Coordination Sequence:
#
# PCOD9212659 Si02
#       6
#     8   4   8   8   8   8
#     4  12  27  44  67 105 139 172 221 283 347 394
#     4  10  21  44  69  96 132 174 222 280 325 402
#     4  10  22  40  67  99 133 173 225 280 332 396
#     4  11  26  45  70  96 136 179 228 274 330 402
#     4  11  26  45  72  96 133 182 230 271 331 407
#     4  10  21  42  71  98 129 180 233 271 329 402
#
# _framework density 22.395541999999999
#
# number of rings (size 3 to 8) (size 9 to 14) (size 15 to 20)
#    0.000    1.455    1.818    4.091    5.091    6.182 
#    0.000    0.000    0.000    0.000    0.000    0.000 
#    0.000    0.000    0.000    0.000    0.000    0.000 
#
# Total GULP energy -122834.069682 kJ/mol
# GULP energy per Si atom -5583.366804 kJ/mol
# Density = 2.234457 g / cm^3
# Si number density = 22.395542 Si / 1000 Ang^3
#
#
#
# Elastic Constant Matrix: (Units=GPa)
#
#
# Indices 1 2 3 4 5 6 
#
# 1 41.7082 7.0869 10.7970 0.0000 -9.3031 0.0000
# 2 7.0869 83.1893 6.6618 0.0000 6.2590 0.0000
# 3 10.7970 6.6618 108.0991 0.0000 -15.2875 0.0000
# 4 0.0000 0.0000 0.0000 286.3777 0.0000 -228.3317
# 5 -9.3031 6.2590 -15.2875 0.0000 36.0454 0.0000
# 6 0.0000 0.0000 0.0000 -228.3317 0.0000 155.5321
#
#
#
# Elastic Compliance Matrix: (Units=1/GPa)
#
#
# Indices 1 2 3 4 5 6 
#
# 1 0.026286 -0.002612 -0.001533 0.000000 0.006588 0.000000
# 2 -0.002612 0.012568 -0.000976 0.000000 -0.003270 0.000000
# 3 -0.001533 -0.000976 0.010034 0.000000 0.004029 0.000000
# 4 0.000000 0.000000 0.000000 -0.020480 0.000000 -0.030066
# 5 0.006588 -0.003270 0.004029 0.000000 0.031720 0.000000
# 6 0.000000 0.000000 0.000000 -0.030066 0.000000 -0.037709
#
#
# Mechanical properties :
#
#
# Convention : Reuss Voigt Hill
#
# Bulk Modulus (GPa) = 25.87639 31.34313 28.60976
# Shear Modulus (GPa) = 109.78600 109.48776 109.63688
#
# Velocity S-wave (km/s) = 7.00912 6.99959 7.00436
# Velocity P-wave (km/s) = 8.77970 8.90794 8.84405
#
# Compressibility (1/GPa) = 0.03864527
#
# Stress axis : x y z
#
# Youngs Moduli (GPa) = 38.04276 79.57009 99.66244
#
# Poissons Ratio (x) = 0.20786 0.15277
# Poissons Ratio (y) = 0.09938 0.09728
# Poissons Ratio (z) = 0.05831 0.07767
#
# Static dielectric constant tensor:
#      x y z
#    x 1.844090 0.000000 0.032800 
#    y 0.000000 1.853640 0.000000 
#    z 0.032800 0.000000 1.853980 
# 
# From -- ./inp_files/131865.got.cif
#   From: 2010.05.17/outbox.cif.g08.bks.cpg/sg12_66_cif.got.tgz:131865.got - 2010.06.03 13:09:07.
