data_PCOD9212558
_publ_section_title
;
Structure prediction by ZEFSAII (Michael W. Deem and Ramdas Pophale) SiO2 
 PCOD9212558
Probable space group: C 2/M
;
_chemical_formula_sum "Si O2"
_cell_formula_units_Z 44
_cell_length_a 11.908173
_cell_length_b 21.577378
_cell_length_c 9.170280
_cell_angle_alpha 90.000000
_cell_angle_beta 120.074739
_cell_angle_gamma 90.000000
_cell_volume 2039.057462
_symmetry_space_group_name_H-M "C 2/M"
_symmetry_group_IT_number 12
_symmetry_cell_setting 'monoclinic'
loop_
_space_group_symop_operation_xyz
x,y,z
-x,y,-z
-x,-y,-z
x,-y,z
1/2+x,1/2+y,z
1/2-x,1/2+y,-z
1/2-x,1/2-y,-z
1/2+x,1/2-y,z
loop_
_atom_site_type_symbol
_atom_site_label
_atom_site_fract_x
_atom_site_fract_y
_atom_site_fract_z
Si Si1 0.891838 0.500000 0.660967
Si Si2 0.008985 0.110901 0.292746
Si Si3 0.500000 0.321255 0.000000
Si Si4 0.000000 0.782324 0.500000
Si Si5 0.233094 0.593332 0.197706
Si Si6 0.242200 0.260899 0.169182
Si Si7 0.685495 0.000000 0.912589
Si Si8 0.184536 0.000000 0.298014
O O1 0.840599 0.558934 0.720686
O O2 0.824244 0.500000 0.462456
O O3 0.044606 0.500000 0.751547
O O4 0.952749 0.137760 0.104444
O O5 0.056896 0.170448 0.414729
O O6 0.888533 0.082912 0.304483
O O7 0.110683 0.059937 0.311070
O O8 0.380034 0.280460 0.864581
O O9 0.120776 0.748126 0.657881
O O10 0.213133 0.666720 0.179250
O O11 0.192213 0.559262 0.022712
O O12 0.250000 0.250000 0.000000
O O13 0.797480 0.000000 0.864043
#
# Coordination Sequence:
#
# PCOD9212558 Si02
#       8
#     4   8   4   4   8   8   4   4
#     4  11  24  41  62  95 128 169 215 269 320 400
#     4  11  23  41  66  99 125 168 220 280 321 387
#     4  12  24  41  68  97 136 170 226 272 330 388
#     4  10  22  45  66  96 138 165 232 268 320 402
#     4  10  21  42  67  90 122 168 223 263 320 390
#     4  11  23  43  67  97 133 177 216 274 327 385
#     4  11  24  39  60  93 132 165 216 262 327 404
#     4  12  23  38  64  92 133 167 206 273 347 367
#
# _framework density 21.578596999999998
#
# number of rings (size 3 to 8) (size 9 to 14) (size 15 to 20)
#    0.000    1.091    3.636    5.727    2.545    2.909 
#    0.000    0.000    0.000    0.000    0.000    0.000 
#    0.000    0.000    0.000    0.000    0.000    0.000 
#
# Total GULP energy -122935.263177 kJ/mol
# GULP energy per Si atom -5587.966508 kJ/mol
# Density = 2.152948 g / cm^3
# Si number density = 21.578597 Si / 1000 Ang^3
#
#
#
# Elastic Constant Matrix: (Units=GPa)
#
#
# Indices 1 2 3 4 5 6 
#
# 1 88.8650 19.0507 28.7627 0.0000 8.9970 0.0000
# 2 19.0507 51.1822 28.1055 0.0000 14.9379 0.0000
# 3 28.7627 28.1055 115.0416 0.0000 19.2242 0.0000
# 4 0.0000 0.0000 0.0000 7.1794 0.0000 13.0354
# 5 8.9970 14.9379 19.2242 0.0000 52.1322 0.0000
# 6 0.0000 0.0000 0.0000 13.0354 0.0000 11.1098
#
#
#
# Elastic Compliance Matrix: (Units=1/GPa)
#
#
# Indices 1 2 3 4 5 6 
#
# 1 0.012760 -0.003373 -0.002302 0.000000 -0.000387 0.000000
# 2 -0.003373 0.024604 -0.004355 0.000000 -0.004862 0.000000
# 3 -0.002302 -0.004355 0.010717 0.000000 -0.002307 0.000000
# 4 0.000000 0.000000 0.000000 -0.123223 0.000000 0.144581
# 5 -0.000387 -0.004862 -0.002307 0.000000 0.021493 0.000000
# 6 0.000000 0.000000 0.000000 0.144581 0.000000 -0.079630
#
#
# Mechanical properties :
#
#
# Convention : Reuss Voigt Hill
#
# Bulk Modulus (GPa) = 35.68557 45.21407 40.44982
# Shear Modulus (GPa) = -48.13318 26.02897 -11.05210
#
# Velocity S-wave (km/s) = -4.72804 3.47686 -2.26559
# Velocity P-wave (km/s) = 3.63765 6.09236 3.45574
#
# Compressibility (1/GPa) = 0.02802253
#
# Stress axis : x y z
#
# Youngs Moduli (GPa) = 78.36861 40.64388 93.30541
#
# Poissons Ratio (x) = 0.13708 0.21476
# Poissons Ratio (y) = 0.26431 0.40637
# Poissons Ratio (z) = 0.18038 0.17701
#
# Static dielectric constant tensor:
#      x y z
#    x 1.793120 0.000000 0.007130 
#    y 0.000000 1.769880 0.000000 
#    z 0.007130 0.000000 1.831970 
# 
# From -- ./inp_files/51622.got.cif
#   From: 2010.05.17/outbox.cif.g08.bks.cpg/sg12_26_cif.got.tgz:51622.got - 2010.06.03 13:09:07.
