data_PCOD9212201
_publ_section_title
;
Structure prediction by ZEFSAII (Michael W. Deem and Ramdas Pophale) SiO2 
 PCOD9212201
Probable space group: C 2/M
;
_chemical_formula_sum "Si O2"
_cell_formula_units_Z 58
_cell_length_a 22.990476
_cell_length_b 9.504785
_cell_length_c 22.664421
_cell_angle_alpha 90.000000
_cell_angle_beta 142.704526
_cell_angle_gamma 90.000000
_cell_volume 3000.918238
_symmetry_space_group_name_H-M "C 2/M"
_symmetry_group_IT_number 12
_symmetry_cell_setting 'monoclinic'
loop_
_space_group_symop_operation_xyz
x,y,z
-x,y,-z
-x,-y,-z
x,-y,z
1/2+x,1/2+y,z
1/2-x,1/2+y,-z
1/2-x,1/2-y,-z
1/2+x,1/2-y,z
loop_
_atom_site_type_symbol
_atom_site_label
_atom_site_fract_x
_atom_site_fract_y
_atom_site_fract_z
Si Si1 0.649298 0.668049 0.920512
Si Si2 0.355196 0.344816 0.777167
Si Si3 0.938350 0.234398 0.028991
Si Si4 0.500000 0.000000 0.000000
Si Si5 0.920342 0.834642 0.269436
Si Si6 0.746142 0.157784 0.807727
Si Si7 0.294330 0.835483 0.622299
Si Si8 0.386298 0.165744 0.567792
O O1 0.566971 0.500000 0.707620
O O2 0.587305 0.737526 0.922406
O O3 0.600064 0.680199 0.816983
O O4 0.750000 0.750000 0.000000
O O5 0.339707 0.500000 0.738264
O O6 0.459645 0.343203 0.891389
O O7 0.277244 0.319362 0.765207
O O8 0.348821 0.226681 0.722496
O O9 0.956758 0.378253 0.009552
O O10 0.844872 0.165874 0.924144
O O11 0.661578 0.500000 0.942536
O O12 0.828367 0.771347 0.228684
O O13 0.013980 0.745336 0.361174
O O14 0.705900 0.000000 0.781749
O O15 0.356392 0.821047 0.612684
O O16 0.198421 0.743760 0.535793
O O17 0.271775 0.000000 0.611615
O O18 0.391424 0.000000 0.557788
#
# Coordination Sequence:
#
# PCOD9212201 Si02
#       8
#     8   8   8   2   8   8   8   8
#     4  11  24  39  60  92 128 169 213 263 319 380
#     4  11  23  40  63  91 122 165 211 262 316 378
#     4  12  24  41  62  87 130 169 220 265 319 373
#     4  12  28  40  62  96 124 178 222 282 318 384
#     4  11  24  40  62  91 127 166 208 259 318 376
#     4  11  23  40  61  87 124 169 214 257 311 378
#     4  10  22  39  66  96 125 155 201 257 313 375
#     4  10  21  41  65  93 123 161 200 252 316 379
#
# _framework density 19.327417000000001
#
# number of rings (size 3 to 8) (size 9 to 14) (size 15 to 20)
#    0.000    1.103    2.759    3.310    2.897    4.966 
#    0.000    0.690    0.000    4.138    0.000    0.000 
#    0.000    0.000    0.000    0.000    0.000    0.000 
#
# Total GULP energy -161752.229443 kJ/mol
# GULP energy per Si atom -5577.663084 kJ/mol
# Density = 1.928343 g / cm^3
# Si number density = 19.327417 Si / 1000 Ang^3
#
#
#
# Elastic Constant Matrix: (Units=GPa)
#
#
# Indices 1 2 3 4 5 6 
#
# 1 76.0067 53.1214 11.2781 0.0000 22.5781 0.0000
# 2 53.1214 143.3723 47.2462 0.0000 15.3500 0.0000
# 3 11.2781 47.2462 76.1349 0.0000 20.3857 0.0000
# 4 0.0000 0.0000 0.0000 -30.2395 0.0000 -6.5616
# 5 22.5781 15.3500 20.3857 0.0000 23.1039 0.0000
# 6 0.0000 0.0000 0.0000 -6.5616 0.0000 35.7616
#
#
#
# Elastic Compliance Matrix: (Units=1/GPa)
#
#
# Indices 1 2 3 4 5 6 
#
# 1 0.027557 -0.010459 0.010158 0.000000 -0.028945 0.000000
# 2 -0.010459 0.012769 -0.008956 0.000000 0.009639 0.000000
# 3 0.010158 -0.008956 0.023898 0.000000 -0.025064 0.000000
# 4 0.000000 0.000000 0.000000 -0.031803 0.000000 -0.005835
# 5 -0.028945 0.009639 -0.025064 0.000000 0.087280 0.000000
# 6 0.000000 0.000000 0.000000 -0.005835 0.000000 0.026892
#
#
# Mechanical properties :
#
#
# Convention : Reuss Voigt Hill
#
# Bulk Modulus (GPa) = 21.87588 57.64502 39.76045
# Shear Modulus (GPa) = 27.72478 17.98310 22.85394
#
# Velocity S-wave (km/s) = 3.79156 3.05363 3.44243
# Velocity P-wave (km/s) = 5.52368 6.50562 6.03466
#
# Compressibility (1/GPa) = 0.04571246
#
# Stress axis : x y z
#
# Youngs Moduli (GPa) = 36.28788 78.31297 41.84372
#
# Poissons Ratio (x) = 0.81908 -0.42507
# Poissons Ratio (y) = 0.37954 0.37474
# Poissons Ratio (z) = -0.36863 0.70135
#
# Static dielectric constant tensor:
#      x y z
#    x 1.667460 0.000000 -0.008430 
#    y 0.000000 1.658010 0.000000 
#    z -0.008430 0.000000 1.666010 
# 
# From -- ./inp_files/346531.got.cif
#   From: 2010.05.17/outbox.cif.g08.bks.cpg/sg12_174_cif.got.tgz:346531.got - 2010.06.03 13:09:07.
