data_PCOD9212282
_publ_section_title
;
Structure prediction by ZEFSAII (Michael W. Deem and Ramdas Pophale) SiO2 
 PCOD9212282
Probable space group: C 2/M
;
_chemical_formula_sum "Si O2"
_cell_formula_units_Z 44
_cell_length_a 7.906275
_cell_length_b 21.996024
_cell_length_c 13.375554
_cell_angle_alpha 90.000000
_cell_angle_beta 115.737100
_cell_angle_gamma 90.000000
_cell_volume 2095.339229
_symmetry_space_group_name_H-M "C 2/M"
_symmetry_group_IT_number 12
_symmetry_cell_setting 'monoclinic'
loop_
_space_group_symop_operation_xyz
x,y,z
-x,y,-z
-x,-y,-z
x,-y,z
1/2+x,1/2+y,z
1/2-x,1/2+y,-z
1/2-x,1/2-y,-z
1/2+x,1/2-y,z
loop_
_atom_site_type_symbol
_atom_site_label
_atom_site_fract_x
_atom_site_fract_y
_atom_site_fract_z
Si Si1 0.571799 0.606652 0.860171
Si Si2 0.801761 0.434066 0.735315
Si Si3 0.790179 0.390400 0.117316
Si Si4 0.232871 0.187757 0.274675
Si Si5 0.211020 0.811199 0.595134
Si Si6 0.000000 0.665570 0.500000
O O1 0.669827 0.569673 0.798668
O O2 0.384235 0.579978 0.865517
O O3 0.483376 0.667541 0.788179
O O4 0.717303 0.618866 0.986756
O O5 0.779684 0.500000 0.680253
O O6 0.752651 0.376691 0.654087
O O7 0.016632 0.425703 0.825871
O O8 0.812765 0.327321 0.185246
O O9 0.638704 0.196487 0.455522
O O10 0.342789 0.142238 0.380534
O O11 0.238592 0.755122 0.677894
O O12 0.000000 0.812221 0.500000
#
# Coordination Sequence:
#
# PCOD9212282 Si02
#       6
#     8   8   8   8   8   4
#     4   9  21  43  68  97 134 171 210 274 334 390
#     4  12  26  43  66  97 132 177 231 273 319 390
#     4   9  21  44  67  96 135 170 215 268 332 399
#     4  10  21  41  67 103 128 167 216 267 338 400
#     4  12  26  43  68  99 136 177 221 274 332 398
#     4  12  22  40  69 100 133 176 212 274 340 398
#
# _framework density 20.998985000000001
#
# number of rings (size 3 to 8) (size 9 to 14) (size 15 to 20)
#    1.091    0.364    2.727    2.182    2.545    2.545 
#    0.000    7.727    0.000    0.000    0.000    0.000 
#    0.000    0.000    0.000    0.000    0.000    0.000 
#
# Total GULP energy -122483.253953 kJ/mol
# GULP energy per Si atom -5567.420634 kJ/mol
# Density = 2.095119 g / cm^3
# Si number density = 20.998985 Si / 1000 Ang^3
#
#
#
# Elastic Constant Matrix: (Units=GPa)
#
#
# Indices 1 2 3 4 5 6 
#
# 1 116.8073 37.9886 25.0206 0.0000 11.9350 0.0000
# 2 37.9886 125.9821 61.2728 0.0000 7.7350 0.0000
# 3 25.0206 61.2728 102.3037 0.0000 9.9012 0.0000
# 4 0.0000 0.0000 0.0000 180.5377 0.0000 174.9750
# 5 11.9350 7.7350 9.9012 0.0000 28.4783 0.0000
# 6 0.0000 0.0000 0.0000 174.9750 0.0000 193.6553
#
#
#
# Elastic Compliance Matrix: (Units=1/GPa)
#
#
# Indices 1 2 3 4 5 6 
#
# 1 0.009825 -0.002466 -0.000613 0.000000 -0.003235 0.000000
# 2 -0.002466 0.011834 -0.006492 0.000000 0.000076 0.000000
# 3 -0.000613 -0.006492 0.014092 0.000000 -0.002879 0.000000
# 4 0.000000 0.000000 0.000000 0.044561 0.000000 -0.040263
# 5 -0.003235 0.000076 -0.002879 0.000000 0.037450 0.000000
# 6 0.000000 0.000000 0.000000 -0.040263 0.000000 0.041543
#
#
# Mechanical properties :
#
#
# Convention : Reuss Voigt Hill
#
# Bulk Modulus (GPa) = 60.20900 65.96188 63.08544
# Shear Modulus (GPa) = 27.17647 95.25498 61.21573
#
# Velocity S-wave (km/s) = 3.60137 6.74242 5.40509
# Velocity P-wave (km/s) = 6.78438 9.59655 8.31028
#
# Compressibility (1/GPa) = 0.01660881
#
# Stress axis : x y z
#
# Youngs Moduli (GPa) = 101.78245 84.50238 70.96399
#
# Poissons Ratio (x) = 0.20837 0.04350
# Poissons Ratio (y) = 0.25098 0.46070
# Poissons Ratio (z) = 0.06239 0.54859
#
# Static dielectric constant tensor:
#      x y z
#    x 1.769060 0.000000 0.016460 
#    y 0.000000 1.815210 0.000000 
#    z 0.016460 0.000000 1.794710 
# 
# From -- ./inp_files/257781.got.cif
#   From: 2010.05.17/outbox.cif.g08.bks.cpg/sg12_129_cif.got.tgz:257781.got - 2010.06.03 13:09:07.
