data_PCOD9212594
_publ_section_title
;
Structure prediction by ZEFSAII (Michael W. Deem and Ramdas Pophale) SiO2 
 PCOD9212594
Probable space group: C 2/M
;
_chemical_formula_sum "Si O2"
_cell_formula_units_Z 40
_cell_length_a 17.030198
_cell_length_b 18.037080
_cell_length_c 5.378001
_cell_angle_alpha 90.000000
_cell_angle_beta 59.718835
_cell_angle_gamma 90.000000
_cell_volume 1426.592736
_symmetry_space_group_name_H-M "C 2/M"
_symmetry_group_IT_number 12
_symmetry_cell_setting 'monoclinic'
loop_
_space_group_symop_operation_xyz
x,y,z
-x,y,-z
-x,-y,-z
x,-y,z
1/2+x,1/2+y,z
1/2-x,1/2+y,-z
1/2-x,1/2-y,-z
1/2+x,1/2-y,z
loop_
_atom_site_type_symbol
_atom_site_label
_atom_site_fract_x
_atom_site_fract_y
_atom_site_fract_z
Si Si1 0.939907 0.000000 0.343722
Si Si2 0.255866 0.500000 0.097521
Si Si3 0.756780 0.827732 0.144399
Si Si4 0.054884 0.378808 0.635066
Si Si5 0.000000 0.752291 0.500000
Si Si6 0.643091 0.000000 0.783105
Si Si7 0.402774 0.657528 0.303438
O O1 0.882344 0.073156 0.403052
O O2 0.000000 0.000000 0.500000
O O3 0.000000 0.000000 0.000000
O O4 0.185707 0.500000 0.982114
O O5 0.294033 0.413701 0.017443
O O6 0.211302 0.500000 0.440800
O O7 0.652236 0.848077 0.379610
O O8 0.822550 0.809241 0.271133
O O9 0.750000 0.750000 0.000000
O O10 0.006637 0.304512 0.259718
O O11 0.084547 0.426881 0.821055
O O12 0.000000 0.420294 0.500000
O O13 0.920302 0.805049 0.541217
O O14 0.500000 0.659329 0.000000
#
# Coordination Sequence:
#
# PCOD9212594 Si02
#       7
#     4   4   8   8   4   4   8
#     4  10  21  42  68  96 134 194 236 298 368 421
#     4  10  25  48  70 115 144 193 251 305 359 459
#     4  11  24  45  73 105 146 196 242 304 374 434
#     4   9  22  43  67 106 141 185 242 296 367 433
#     4  10  22  40  66  94 140 170 242 288 358 430
#     4  10  21  48  74 102 151 191 239 307 373 433
#     4  11  23  42  64  99 136 182 242 295 359 434
#
# _framework density 28.038837000000001
#
# number of rings (size 3 to 8) (size 9 to 14) (size 15 to 20)
#    0.600    1.200    1.000    2.100    2.800    0.800 
#   10.800   14.000    0.000    0.000    0.000    0.000 
#    0.000    0.000    0.000    0.000    0.000    0.000 
#
# Total GULP energy -111564.831418 kJ/mol
# GULP energy per Si atom -5578.241571 kJ/mol
# Density = 2.797502 g / cm^3
# Si number density = 28.038837 Si / 1000 Ang^3
#
#
#
# Elastic Constant Matrix: (Units=GPa)
#
#
# Indices 1 2 3 4 5 6 
#
# 1 214.6756 54.1301 70.3855 0.0000 58.8050 0.0000
# 2 54.1301 251.7210 27.1914 0.0000 33.7825 0.0000
# 3 70.3855 27.1914 115.3638 0.0000 13.4418 0.0000
# 4 0.0000 0.0000 0.0000 20.3791 0.0000 19.5662
# 5 58.8050 33.7825 13.4418 0.0000 76.3974 0.0000
# 6 0.0000 0.0000 0.0000 19.5662 0.0000 61.4809
#
#
#
# Elastic Compliance Matrix: (Units=1/GPa)
#
#
# Indices 1 2 3 4 5 6 
#
# 1 0.007337 -0.000531 -0.003799 0.000000 -0.004745 0.000000
# 2 -0.000531 0.004334 -0.000533 0.000000 -0.001414 0.000000
# 3 -0.003799 -0.000533 0.010968 0.000000 0.001230 0.000000
# 4 0.000000 0.000000 0.000000 0.070660 0.000000 -0.022488
# 5 -0.004745 -0.001414 0.001230 0.000000 0.017150 0.000000
# 6 0.000000 0.000000 0.000000 -0.022488 0.000000 0.023422
#
#
# Mechanical properties :
#
#
# Convention : Reuss Voigt Hill
#
# Bulk Modulus (GPa) = 77.43024 98.35272 87.89148
# Shear Modulus (GPa) = 33.80625 60.32171 47.06398
#
# Velocity S-wave (km/s) = 3.47608 4.64331 4.10143
# Velocity P-wave (km/s) = 6.61711 7.99378 7.33780
#
# Compressibility (1/GPa) = 0.01291485
#
# Stress axis : x y z
#
# Youngs Moduli (GPa) = 136.29390 230.72566 91.17300
#
# Poissons Ratio (x) = 0.12244 0.34633
# Poissons Ratio (y) = 0.07233 0.04859
# Poissons Ratio (z) = 0.51772 0.12298
#
# Static dielectric constant tensor:
#      x y z
#    x 2.090450 0.000000 -0.106750 
#    y 0.000000 2.287210 0.000000 
#    z -0.106750 0.000000 2.285390 
# 
# From -- ./inp_files/15815.got.cif
#   From: 2010.05.17/outbox.cif.g08.bks.cpg/sg12_8_cif.got.tgz:15815.got - 2010.06.03 13:09:07.
