data_PCOD9212861
_publ_section_title
;
Structure prediction by ZEFSAII (Michael W. Deem and Ramdas Pophale) SiO2 
 PCOD9212861
Probable space group: C 2/M
;
_chemical_formula_sum "Si O2"
_cell_formula_units_Z 60
_cell_length_a 18.852422
_cell_length_b 27.427682
_cell_length_c 7.018467
_cell_angle_alpha 90.000000
_cell_angle_beta 120.036658
_cell_angle_gamma 90.000000
_cell_volume 3141.728194
_symmetry_space_group_name_H-M "C 2/M"
_symmetry_group_IT_number 12
_symmetry_cell_setting 'monoclinic'
loop_
_space_group_symop_operation_xyz
x,y,z
-x,y,-z
-x,-y,-z
x,-y,z
1/2+x,1/2+y,z
1/2-x,1/2+y,-z
1/2-x,1/2-y,-z
1/2+x,1/2-y,z
loop_
_atom_site_type_symbol
_atom_site_label
_atom_site_fract_x
_atom_site_fract_y
_atom_site_fract_z
Si Si1 0.244608 0.628624 0.597319
Si Si2 0.738609 0.057268 0.251442
Si Si3 0.424758 0.350319 0.772995
Si Si4 0.575655 0.446070 0.459060
Si Si5 0.705322 0.787283 0.236175
Si Si6 0.500000 0.820206 0.500000
Si Si7 0.619189 0.254787 0.446878
Si Si8 0.847554 0.364227 0.129676
O O1 0.236554 0.579067 0.463519
O O2 0.338936 0.641747 0.766354
O O3 0.217934 0.670147 0.411039
O O4 0.192300 0.628837 0.716989
O O5 0.835085 0.063574 0.325728
O O6 0.718615 0.000000 0.215953
O O7 0.681100 0.090724 0.041138
O O8 0.441733 0.402992 0.708579
O O9 0.412664 0.310096 0.591707
O O10 0.500000 0.334146 0.000000
O O11 0.500000 0.447015 0.500000
O O12 0.582983 0.500000 0.379648
O O13 0.634404 0.756030 0.241822
O O14 0.789519 0.757050 0.340654
O O15 0.684649 0.815031 0.016212
O O16 0.439415 0.784597 0.536672
O O17 0.443734 0.854143 0.290698
#
# Coordination Sequence:
#
# PCOD9212861 Si02
#       8
#     8   8   8   8   8   4   8   8
#     4   9  19  40  57  85 119 158 204 251 301 370
#     4   9  20  40  65  89 118 162 202 254 321 371
#     4  10  22  33  54  86 122 156 201 251 299 355
#     4   9  19  37  58  85 122 157 199 252 305 367
#     4   9  20  42  61  79 121 165 204 248 309 355
#     4  12  26  38  59  96 121 164 214 254 308 362
#     4  10  22  40  55  87 124 160 210 257 292 364
#     4  11  23  39  66  89 121 163 207 252 308 377
#
# _framework density 19.097770000000001
#
# number of rings (size 3 to 8) (size 9 to 14) (size 15 to 20)
#    0.000    2.267    1.333    0.800    4.667    2.400 
#    0.000    0.333    0.000    0.800    0.000    0.000 
#    0.000    0.000    0.000    0.000    0.000    0.000 
#
# Total GULP energy -167260.321764 kJ/mol
# GULP energy per Si atom -5575.344059 kJ/mol
# Density = 1.905430 g / cm^3
# Si number density = 19.097770 Si / 1000 Ang^3
#
#
#
# Elastic Constant Matrix: (Units=GPa)
#
#
# Indices 1 2 3 4 5 6 
#
# 1 87.5491 40.1283 46.1230 0.0000 2.7356 0.0000
# 2 40.1283 94.6388 35.2480 0.0000 4.3861 0.0000
# 3 46.1230 35.2480 79.5849 0.0000 9.2477 0.0000
# 4 0.0000 0.0000 0.0000 23.3199 0.0000 2.5776
# 5 2.7356 4.3861 9.2477 0.0000 23.5885 0.0000
# 6 0.0000 0.0000 0.0000 2.5776 0.0000 24.6854
#
#
#
# Elastic Compliance Matrix: (Units=1/GPa)
#
#
# Indices 1 2 3 4 5 6 
#
# 1 0.017991 -0.004493 -0.008687 0.000000 0.002155 0.000000
# 2 -0.004493 0.013776 -0.003416 0.000000 -0.000701 0.000000
# 3 -0.008687 -0.003416 0.019825 0.000000 -0.006130 0.000000
# 4 0.000000 0.000000 0.000000 0.043383 0.000000 -0.004530
# 5 0.002155 -0.000701 -0.006130 0.000000 0.044677 0.000000
# 6 0.000000 0.000000 0.000000 -0.004530 0.000000 0.040983
#
#
# Mechanical properties :
#
#
# Convention : Reuss Voigt Hill
#
# Bulk Modulus (GPa) = 54.34767 56.08571 55.21669
# Shear Modulus (GPa) = 22.73148 23.67034 23.20091
#
# Velocity S-wave (km/s) = 3.45377 3.52437 3.48925
# Velocity P-wave (km/s) = 6.66514 6.78182 6.72373
#
# Compressibility (1/GPa) = 0.01840005
#
# Stress axis : x y z
#
# Youngs Moduli (GPa) = 55.58479 72.58812 50.44148
#
# Poissons Ratio (x) = 0.32612 0.43818
# Poissons Ratio (y) = 0.24973 0.17232
# Poissons Ratio (z) = 0.48286 0.24798
#
# Static dielectric constant tensor:
#      x y z
#    x 1.690240 0.000000 0.004360 
#    y 0.000000 1.705630 0.000000 
#    z 0.004360 0.000000 1.678760 
# 
# From -- ./inp_files/18342.got.cif
#   From: 2010.05.17/outbox.cif.g08.bks.cpg/sg12_10_cif.got.tgz:18342.got - 2010.06.03 13:09:07.
