data_PCOD9212944
_publ_section_title
;
Structure prediction by ZEFSAII (Michael W. Deem and Ramdas Pophale) SiO2 
 PCOD9212944
Probable space group: C 2/M
;
_chemical_formula_sum "Si O2"
_cell_formula_units_Z 48
_cell_length_a 18.329804
_cell_length_b 13.305709
_cell_length_c 14.157928
_cell_angle_alpha 90.000000
_cell_angle_beta 134.614274
_cell_angle_gamma 90.000000
_cell_volume 2458.015972
_symmetry_space_group_name_H-M "C 2/M"
_symmetry_group_IT_number 12
_symmetry_cell_setting 'monoclinic'
loop_
_space_group_symop_operation_xyz
x,y,z
-x,y,-z
-x,-y,-z
x,-y,z
1/2+x,1/2+y,z
1/2-x,1/2+y,-z
1/2-x,1/2-y,-z
1/2+x,1/2-y,z
loop_
_atom_site_type_symbol
_atom_site_label
_atom_site_fract_x
_atom_site_fract_y
_atom_site_fract_z
Si Si1 0.731261 0.208024 0.782618
Si Si2 0.916764 0.379782 0.208492
Si Si3 0.895439 0.617121 0.966136
Si Si4 0.327006 0.381480 0.587362
Si Si5 0.377846 0.795845 0.510405
Si Si6 0.585565 0.615340 0.142869
O O1 0.678819 0.179240 0.832754
O O2 0.803525 0.307401 0.851692
O O3 0.645502 0.205508 0.622162
O O4 0.810197 0.122509 0.820370
O O5 0.906888 0.500000 0.215108
O O6 0.016471 0.339824 0.354989
O O7 0.921329 0.362991 0.100011
O O8 0.861755 0.500000 0.927614
O O9 0.000000 0.625018 0.000000
O O10 0.339232 0.500000 0.586867
O O11 0.359541 0.318095 0.527552
O O12 0.211920 0.357812 0.517094
O O13 0.395266 0.340405 0.736983
O O14 0.556826 0.500000 0.133805
O O15 0.500000 0.662983 0.000000
#
# Coordination Sequence:
#
# PCOD9212944 Si02
#       6
#     8   8   8   8   8   8
#     4  11  22  38  61  89 123 158 199 254 304 359
#     4  11  24  42  64  91 124 162 205 253 308 367
#     4  10  24  43  65  92 122 164 209 250 301 365
#     4   9  19  35  54  85 122 157 202 252 301 357
#     4  10  22  35  59  91 119 162 205 249 308 359
#     4   9  18  32  54  85 117 155 200 248 300 349
#
# _framework density 19.527944999999999
#
# number of rings (size 3 to 8) (size 9 to 14) (size 15 to 20)
#    0.000    2.000    0.000    2.500    9.333    3.333 
#    0.000    0.833    0.000    2.000    0.000    0.000 
#    0.000    0.000    0.000    0.000    0.000    0.000 
#
# Total GULP energy -133821.074348 kJ/mol
# GULP energy per Si atom -5575.878098 kJ/mol
# Density = 1.948350 g / cm^3
# Si number density = 19.527945 Si / 1000 Ang^3
#
#
#
# Elastic Constant Matrix: (Units=GPa)
#
#
# Indices 1 2 3 4 5 6 
#
# 1 94.3955 17.6850 21.1804 0.0000 -18.4127 0.0000
# 2 17.6850 91.3166 13.5448 0.0000 -0.4736 0.0000
# 3 21.1804 13.5448 78.7496 0.0000 -3.2257 0.0000
# 4 0.0000 0.0000 0.0000 5.8418 0.0000 12.7162
# 5 -18.4127 -0.4736 -3.2257 0.0000 19.3123 0.0000
# 6 0.0000 0.0000 0.0000 12.7162 0.0000 16.0556
#
#
#
# Elastic Compliance Matrix: (Units=1/GPa)
#
#
# Indices 1 2 3 4 5 6 
#
# 1 0.014203 -0.002253 -0.002900 0.000000 0.013001 0.000000
# 2 -0.002253 0.011595 -0.001475 0.000000 -0.002110 0.000000
# 3 -0.002900 -0.001475 0.013711 0.000000 -0.000511 0.000000
# 4 0.000000 0.000000 0.000000 -0.236432 0.000000 0.187256
# 5 0.013001 -0.002110 -0.000511 0.000000 0.064039 0.000000
# 6 0.000000 0.000000 0.000000 0.187256 0.000000 -0.086025
#
#
# Mechanical properties :
#
#
# Convention : Reuss Voigt Hill
#
# Bulk Modulus (GPa) = 38.09019 41.03136 39.56078
# Shear Modulus (GPa) = -25.39331 22.37869 -1.50731
#
# Velocity S-wave (km/s) = -3.60996 3.38891 -0.87952
# Velocity P-wave (km/s) = 1.47380 6.03077 4.38989
#
# Compressibility (1/GPa) = 0.02625348
#
# Stress axis : x y z
#
# Youngs Moduli (GPa) = 70.40995 86.24370 72.93327
#
# Poissons Ratio (x) = 0.19431 0.21149
# Poissons Ratio (y) = 0.15863 0.10756
# Poissons Ratio (z) = 0.20418 0.12719
#
# Static dielectric constant tensor:
#      x y z
#    x 1.678910 0.000000 -0.011260 
#    y 0.000000 1.694130 0.000000 
#    z -0.011260 0.000000 1.730670 
# 
# From -- ./inp_files/225449.got.cif
#   From: 2010.05.17/outbox.cif.g08.bks.cpg/sg12_113_cif.got.tgz:225449.got - 2010.06.03 13:09:07.
