data_PCOD9212081
_publ_section_title
;
Structure prediction by ZEFSAII (Michael W. Deem and Ramdas Pophale) SiO2 
 PCOD9212081
Probable space group: C 2/M
;
_chemical_formula_sum "Si O2"
_cell_formula_units_Z 64
_cell_length_a 10.862474
_cell_length_b 16.154952
_cell_length_c 17.262656
_cell_angle_alpha 90.000000
_cell_angle_beta 86.368793
_cell_angle_gamma 90.000000
_cell_volume 3023.216601
_symmetry_space_group_name_H-M "C 2/M"
_symmetry_group_IT_number 12
_symmetry_cell_setting 'monoclinic'
loop_
_space_group_symop_operation_xyz
x,y,z
-x,y,-z
-x,-y,-z
x,-y,z
1/2+x,1/2+y,z
1/2-x,1/2+y,-z
1/2-x,1/2-y,-z
1/2+x,1/2-y,z
loop_
_atom_site_type_symbol
_atom_site_label
_atom_site_fract_x
_atom_site_fract_y
_atom_site_fract_z
Si Si1 0.814938 0.099546 0.742456
Si Si2 0.428003 0.902995 0.614640
Si Si3 0.714040 0.905076 0.236095
Si Si4 0.625988 0.399503 0.090312
Si Si5 0.306389 0.592267 0.490809
Si Si6 0.073358 0.861232 0.659394
Si Si7 0.839557 0.101314 0.081671
Si Si8 0.328516 0.180980 0.380920
O O1 0.810428 0.125828 0.832423
O O2 0.702394 0.130318 0.695262
O O3 0.937610 0.137955 0.699186
O O4 0.825600 0.000000 0.738582
O O5 0.384527 0.868184 0.700220
O O6 0.310964 0.900177 0.562846
O O7 0.549008 0.855646 0.585003
O O8 0.459444 0.000000 0.620249
O O9 0.840458 0.906646 0.281071
O O10 0.747333 0.867315 0.151808
O O11 0.674956 0.000000 0.224851
O O12 0.627555 0.500000 0.088822
O O13 0.481025 0.376080 0.096310
O O14 0.683188 0.372449 0.005978
O O15 0.302667 0.500000 0.526521
O O16 0.419545 0.599105 0.426571
O O17 0.283729 0.662849 0.555337
O O18 0.138222 0.773187 0.643422
O O19 0.835220 0.000000 0.084470
#
# Coordination Sequence:
#
# PCOD9212081 Si02
#       8
#     8   8   8   8   8   8   8   8
#     4  11  22  38  59  84 117 151 183 228 284 340
#     4   9  19  36  59  79 101 141 189 230 268 328
#     4   9  16  31  57  82 108 140 186 233 273 320
#     4   8  14  25  48  82 114 138 176 231 275 316
#     4  10  21  41  63  78 102 142 191 237 273 325
#     4  11  23  36  55  83 114 144 182 233 283 331
#     4   8  12  23  48  84 111 134 178 235 276 310
#     4  12  25  37  55  80 115 147 183 228 284 339
#
# _framework density 21.169505999999998
#
# number of rings (size 3 to 8) (size 9 to 14) (size 15 to 20)
#    0.000    2.250    1.250    4.500    3.500    1.500 
#    2.250    1.250    0.000    1.500    3.250    4.375 
#    0.000    0.000    0.000    0.000    0.000    0.000 
#
# Total GULP energy -178558.345325 kJ/mol
# GULP energy per Si atom -5579.948291 kJ/mol
# Density = 2.112132 g / cm^3
# Si number density = 21.169506 Si / 1000 Ang^3
#
#
#
# Elastic Constant Matrix: (Units=GPa)
#
#
# Indices 1 2 3 4 5 6 
#
# 1 25.1698 -3.2341 6.1226 0.0000 -4.5475 0.0000
# 2 -3.2341 61.5861 20.4763 0.0000 -1.9410 0.0000
# 3 6.1226 20.4763 133.0834 0.0000 -8.2359 0.0000
# 4 0.0000 0.0000 0.0000 5.6410 0.0000 3.5171
# 5 -4.5475 -1.9410 -8.2359 0.0000 30.9992 0.0000
# 6 0.0000 0.0000 0.0000 3.5171 0.0000 6.1384
#
#
#
# Elastic Compliance Matrix: (Units=1/GPa)
#
#
# Indices 1 2 3 4 5 6 
#
# 1 0.041656 0.003043 -0.002028 0.000000 0.005763 0.000000
# 2 0.003043 0.017340 -0.002758 0.000000 0.000799 0.000000
# 3 -0.002028 -0.002758 0.008136 0.000000 0.001691 0.000000
# 4 0.000000 0.000000 0.000000 0.275804 0.000000 -0.158027
# 5 0.005763 0.000799 0.001691 0.000000 0.033604 0.000000
# 6 0.000000 0.000000 0.000000 -0.158027 0.000000 0.253455
#
#
# Mechanical properties :
#
#
# Convention : Reuss Voigt Hill
#
# Bulk Modulus (GPa) = 15.71202 29.61878 22.66540
# Shear Modulus (GPa) = 7.63714 21.65399 14.64557
#
# Velocity S-wave (km/s) = 1.90143 3.20173 2.63311
# Velocity P-wave (km/s) = 3.50124 5.26210 4.46925
#
# Compressibility (1/GPa) = 0.06364554
#
# Stress axis : x y z
#
# Youngs Moduli (GPa) = 24.00632 57.67154 122.90334
#
# Poissons Ratio (x) = -0.17552 0.24925
# Poissons Ratio (y) = -0.07306 0.33902
# Poissons Ratio (z) = 0.04869 0.15908
#
# Static dielectric constant tensor:
#      x y z
#    x 1.751400 0.000000 -0.021600 
#    y 0.000000 1.780570 0.000000 
#    z -0.021600 0.000000 1.813230 
# 
# From -- ./inp_files/263359.got.cif
#   From: 2010.05.17/outbox.cif.g08.bks.cpg/sg12_132_cif.got.tgz:263359.got - 2010.06.03 13:09:07.
