data_PCOD9212007
_publ_section_title
;
Structure prediction by ZEFSAII (Michael W. Deem and Ramdas Pophale) SiO2 
 PCOD9212007
Probable space group: C 2/M
;
_chemical_formula_sum "Si O2"
_cell_formula_units_Z 32
_cell_length_a 15.090495
_cell_length_b 26.671809
_cell_length_c 10.118600
_cell_angle_alpha 90.000000
_cell_angle_beta 154.855703
_cell_angle_gamma 90.000000
_cell_volume 1730.463811
_symmetry_space_group_name_H-M "C 2/M"
_symmetry_group_IT_number 12
_symmetry_cell_setting 'monoclinic'
loop_
_space_group_symop_operation_xyz
x,y,z
-x,y,-z
-x,-y,-z
x,-y,z
1/2+x,1/2+y,z
1/2-x,1/2+y,-z
1/2-x,1/2-y,-z
1/2+x,1/2-y,z
loop_
_atom_site_type_symbol
_atom_site_label
_atom_site_fract_x
_atom_site_fract_y
_atom_site_fract_z
Si Si1 0.545699 0.123860 0.209925
Si Si2 0.302605 0.695874 0.132970
Si Si3 0.020483 0.854379 0.886894
Si Si4 0.328517 0.942948 0.383268
O O1 0.782425 0.142588 0.522655
O O2 0.559940 0.079689 0.336668
O O3 0.500000 0.106812 0.000000
O O4 0.385775 0.166591 0.046497
O O5 0.500000 0.698461 0.500000
O O6 0.357079 0.666043 0.072879
O O7 0.250000 0.750000 0.000000
O O8 0.000000 0.825253 0.000000
O O9 0.142319 0.905593 0.089727
O O10 0.500000 0.942333 0.500000
O O11 0.258371 0.000000 0.309181
#
# Coordination Sequence:
#
# PCOD9212007 Si02
#       4
#     8   8   8   8
#     4  11  23  42  64  93 132 170 209 264 321 380
#     4  12  27  43  65  93 129 169 217 271 325 378
#     4  10  23  41  66  92 130 165 213 261 316 384
#     4  10  21  40  70  98 129 171 214 259 320 385
#
# _framework density 18.492152000000001
#
# number of rings (size 3 to 8) (size 9 to 14) (size 15 to 20)
#    0.000    1.250    5.000    0.000    7.000    7.000 
#    0.000    0.000    0.000    4.500    0.000    0.000 
#    0.000    0.000    0.000    0.000    0.000    0.000 
#
# Total GULP energy -89120.329409 kJ/mol
# GULP energy per Si atom -5570.020588 kJ/mol
# Density = 1.845006 g / cm^3
# Si number density = 18.492152 Si / 1000 Ang^3
#
#
#
# Elastic Constant Matrix: (Units=GPa)
#
#
# Indices 1 2 3 4 5 6 
#
# 1 134.4979 74.1411 53.4541 -0.0001 -8.3947 0.0000
# 2 74.1411 124.1947 69.7104 0.0000 -11.0447 0.0000
# 3 53.4541 69.7104 140.7987 -0.0001 -9.4192 -0.0001
# 4 -0.0001 0.0000 -0.0001 19.9639 -0.0001 -3.6021
# 5 -8.3947 -11.0447 -9.4192 -0.0001 42.1193 0.0000
# 6 0.0000 0.0000 -0.0001 -3.6021 0.0000 -4.5094
#
#
#
# Elastic Compliance Matrix: (Units=1/GPa)
#
#
# Indices 1 2 3 4 5 6 
#
# 1 0.011260 -0.005958 -0.001299 0.000000 0.000391 0.000000
# 2 -0.005958 0.014427 -0.004779 0.000000 0.001527 0.000000
# 3 -0.001299 -0.004779 0.010010 0.000000 0.000727 0.000000
# 4 0.000000 0.000000 0.000000 0.043780 0.000000 -0.034972
# 5 0.000391 0.001527 0.000727 0.000000 0.024383 0.000000
# 6 0.000000 0.000000 0.000000 -0.034972 0.000000 -0.193824
#
#
# Mechanical properties :
#
#
# Convention : Reuss Voigt Hill
#
# Bulk Modulus (GPa) = 86.01659 88.23362 87.12511
# Shear Modulus (GPa) = -80.62197 24.99382 -27.81408
#
# Velocity S-wave (km/s) = -6.61004 3.68039 -3.88248
# Velocity P-wave (km/s) = 3.41183 8.11653 5.20756
#
# Compressibility (1/GPa) = 0.01162566
#
# Stress axis : x y z
#
# Youngs Moduli (GPa) = 88.80946 69.31556 99.90057
#
# Poissons Ratio (x) = 0.41299 0.12975
# Poissons Ratio (y) = 0.52914 0.47739
# Poissons Ratio (z) = 0.11534 0.33123
#
# Static dielectric constant tensor:
#      x y z
#    x 1.677770 0.000000 -0.047870 
#    y 0.000000 1.659800 0.000000 
#    z -0.047870 0.000000 1.740520 
# 
# From -- ./inp_files/3827.got.cif
#   From: 2010.05.17/outbox.cif.g08.bks.cpg/sg12_2_cif.got.tgz:3827.got - 2010.06.03 13:09:07.
