data_PCOD9212965
_publ_section_title
;
Structure prediction by ZEFSAII (Michael W. Deem and Ramdas Pophale) SiO2 
 PCOD9212965
Probable space group: C 2/M
;
_chemical_formula_sum "Si O2"
_cell_formula_units_Z 64
_cell_length_a 24.861927
_cell_length_b 8.004880
_cell_length_c 16.911278
_cell_angle_alpha 90.000000
_cell_angle_beta 100.054591
_cell_angle_gamma 90.000000
_cell_volume 3313.937661
_symmetry_space_group_name_H-M "C 2/M"
_symmetry_group_IT_number 12
_symmetry_cell_setting 'monoclinic'
loop_
_space_group_symop_operation_xyz
x,y,z
-x,y,-z
-x,-y,-z
x,-y,z
1/2+x,1/2+y,z
1/2-x,1/2+y,-z
1/2-x,1/2-y,-z
1/2+x,1/2-y,z
loop_
_atom_site_type_symbol
_atom_site_label
_atom_site_fract_x
_atom_site_fract_y
_atom_site_fract_z
Si Si1 0.693551 0.809418 0.449531
Si Si2 0.389102 0.700854 0.777469
Si Si3 0.907879 0.810966 0.488839
Si Si4 0.773773 0.801275 0.710858
Si Si5 0.560974 0.693417 0.783080
Si Si6 0.647723 0.296874 0.687437
Si Si7 0.464159 0.808115 0.655265
Si Si8 0.489912 0.704716 0.908218
O O1 0.750000 0.750000 0.500000
O O2 0.646595 0.692988 0.471289
O O3 0.705318 0.793692 0.360863
O O4 0.679795 0.000000 0.467776
O O5 0.393955 0.500000 0.769087
O O6 0.325607 0.735108 0.781077
O O7 0.412734 0.775298 0.701019
O O8 0.431522 0.753445 0.856192
O O9 0.885454 0.738509 0.399885
O O10 0.950565 0.726966 0.560136
O O11 0.926369 0.000000 0.479106
O O12 0.711148 0.752529 0.708939
O O13 0.773922 0.000000 0.695740
O O14 0.573191 0.500000 0.802978
O O15 0.614305 0.765625 0.754961
O O16 0.513004 0.701266 0.704936
O O17 0.535228 0.764994 0.856630
O O18 0.646182 0.500000 0.683381
O O19 0.479921 0.000000 0.667498
O O20 0.491234 0.500000 0.908349
O O21 0.500000 0.760479 0.000000
#
# Coordination Sequence:
#
# PCOD9212965 Si02
#       8
#     8   8   8   8   8   8   8   8
#     4  12  22  32  47  70  99 135 180 228 267 301
#     4   9  18  32  51  77 107 134 165 208 261 310
#     4  11  21  33  48  68  97 135 181 227 265 300
#     4  11  21  32  50  72 101 139 175 218 262 303
#     4   9  19  37  55  74 102 135 170 211 261 315
#     4  10  22  36  51  69  97 140 183 218 256 307
#     4  11  21  32  50  74 100 134 174 221 268 308
#     4   8  14  29  58  88 105 122 159 210 257 310
#
# _framework density 19.312372
#
# number of rings (size 3 to 8) (size 9 to 14) (size 15 to 20)
#    0.000    1.875    2.500    3.750    0.000    2.000 
#    0.000    2.500    0.000    6.750    0.000    0.000 
#    0.000    0.000    0.000    0.000    0.000    0.125 
#
# Total GULP energy -178358.774243 kJ/mol
# GULP energy per Si atom -5573.711695 kJ/mol
# Density = 1.926842 g / cm^3
# Si number density = 19.312372 Si / 1000 Ang^3
#
#
#
# Elastic Constant Matrix: (Units=GPa)
#
#
# Indices 1 2 3 4 5 6 
#
# 1 80.5034 -7.1313 55.6659 0.0000 -11.5537 0.0000
# 2 -7.1313 36.3192 10.5551 0.0000 -0.6653 0.0000
# 3 55.6659 10.5551 121.2148 0.0000 -0.0141 0.0000
# 4 0.0000 0.0000 0.0000 3.5320 0.0000 3.5674
# 5 -11.5537 -0.6653 -0.0141 0.0000 17.5187 0.0000
# 6 0.0000 0.0000 0.0000 3.5674 0.0000 17.5720
#
#
#
# Elastic Compliance Matrix: (Units=1/GPa)
#
#
# Indices 1 2 3 4 5 6 
#
# 1 0.023272 0.008168 -0.011397 0.000000 0.015649 0.000000
# 2 0.008168 0.031136 -0.006462 0.000000 0.006564 0.000000
# 3 -0.011397 -0.006462 0.014045 0.000000 -0.007750 0.000000
# 4 0.000000 0.000000 0.000000 0.356153 0.000000 -0.072305
# 5 0.015649 0.006564 -0.007750 0.000000 0.067646 0.000000
# 6 0.000000 0.000000 0.000000 -0.072305 0.000000 0.071588
#
#
# Mechanical properties :
#
#
# Convention : Reuss Voigt Hill
#
# Bulk Modulus (GPa) = 20.37797 39.57963 29.97880
# Shear Modulus (GPa) = 8.33921 19.65438 13.99680
#
# Velocity S-wave (km/s) = 2.08025 3.19362 2.69505
# Velocity P-wave (km/s) = 4.04285 5.84276 5.02406
#
# Compressibility (1/GPa) = 0.04907261
#
# Stress axis : x y z
#
# Youngs Moduli (GPa) = 42.97053 32.11764 71.19834
#
# Poissons Ratio (x) = -0.26234 0.81142
# Poissons Ratio (y) = -0.35099 0.46005
# Poissons Ratio (z) = 0.48972 0.20753
#
# Static dielectric constant tensor:
#      x y z
#    x 1.717780 0.000000 0.019430 
#    y 0.000000 1.700630 0.000000 
#    z 0.019430 0.000000 1.671520 
# 
# From -- ./inp_files/287576.got.cif
#   From: 2010.05.17/outbox.cif.g08.bks.cpg/sg12_144_cif.got.tgz:287576.got - 2010.06.03 13:09:07.
