data_PCOD9212364
_publ_section_title
;
Structure prediction by ZEFSAII (Michael W. Deem and Ramdas Pophale) SiO2 
 PCOD9212364
Probable space group: C 2/M
;
_chemical_formula_sum "Si O2"
_cell_formula_units_Z 56
_cell_length_a 17.350144
_cell_length_b 26.503366
_cell_length_c 5.230234
_cell_angle_alpha 90.000000
_cell_angle_beta 82.609473
_cell_angle_gamma 90.000000
_cell_volume 2385.076103
_symmetry_space_group_name_H-M "C 2/M"
_symmetry_group_IT_number 12
_symmetry_cell_setting 'monoclinic'
loop_
_space_group_symop_operation_xyz
x,y,z
-x,y,-z
-x,-y,-z
x,-y,z
1/2+x,1/2+y,z
1/2-x,1/2+y,-z
1/2-x,1/2-y,-z
1/2+x,1/2-y,z
loop_
_atom_site_type_symbol
_atom_site_label
_atom_site_fract_x
_atom_site_fract_y
_atom_site_fract_z
Si Si1 0.448376 0.055490 0.268345
Si Si2 0.083398 0.157901 0.498986
Si Si3 0.591761 0.198192 0.999997
Si Si4 0.923334 0.056044 0.851683
Si Si5 0.817904 0.213674 0.876619
Si Si6 0.187599 0.884600 0.836209
Si Si7 0.657357 0.855855 0.491926
O O1 0.500000 0.051999 0.500000
O O2 0.387384 0.097087 0.368165
O O3 0.414703 0.000000 0.228118
O O4 0.500000 0.069138 0.000000
O O5 0.078977 0.105905 0.329005
O O6 0.106740 0.136638 0.759724
O O7 0.000000 0.182028 0.500000
O O8 0.149903 0.199759 0.415712
O O9 0.621271 0.167528 0.242850
O O10 0.500000 0.188682 0.000000
O O11 0.607869 0.257335 0.039208
O O12 0.641977 0.184072 0.725517
O O13 0.923663 0.000000 0.726783
O O14 0.841206 0.062800 0.039453
O O15 0.000000 0.056981 0.000000
O O16 0.792296 0.158105 0.969387
O O17 0.750000 0.250000 0.000000
O O18 0.257423 0.878209 0.608048
#
# Coordination Sequence:
#
# PCOD9212364 Si02
#       7
#     8   8   8   8   8   8   8
#     4  10  21  41  68  95 127 169 214 269 335 402
#     4  11  24  41  68  99 131 178 232 288 342 420
#     4  12  27  43  69 100 134 182 232 282 342 412
#     4  10  22  43  68  99 136 177 229 286 352 424
#     4  11  25  45  63  95 137 179 226 284 350 415
#     4  11  25  42  68  94 136 177 225 283 348 411
#     4  12  25  44  68  99 138 176 225 288 342 411
#
# _framework density 23.479334999999999
#
# number of rings (size 3 to 8) (size 9 to 14) (size 15 to 20)
#    0.000    1.000    2.857    3.429    6.000    2.571 
#    0.000    0.000    0.000    0.000    0.000    0.000 
#    0.000    0.000    0.000    0.000    0.000    0.000 
#
# Total GULP energy -155984.933556 kJ/mol
# GULP energy per Si atom -5570.890484 kJ/mol
# Density = 2.342590 g / cm^3
# Si number density = 23.479335 Si / 1000 Ang^3
#
#
#
# Elastic Constant Matrix: (Units=GPa)
#
#
# Indices 1 2 3 4 5 6 
#
# 1 79.6212 18.3120 30.5412 0.0000 -12.6822 0.0000
# 2 18.3120 110.6136 27.9413 0.0000 -21.3353 0.0000
# 3 30.5412 27.9413 113.4837 0.0000 -16.6068 0.0000
# 4 0.0000 0.0000 0.0000 -60.2624 0.0000 563.7865
# 5 -12.6822 -21.3353 -16.6068 0.0000 35.2802 0.0000
# 6 0.0000 0.0000 0.0000 563.7865 0.0000-3423.8978
#
#
#
# Elastic Compliance Matrix: (Units=1/GPa)
#
#
# Indices 1 2 3 4 5 6 
#
# 1 0.014513 -0.000993 -0.003207 0.000000 0.003107 0.000000
# 2 -0.000993 0.010630 -0.001570 0.000000 0.005332 0.000000
# 3 -0.003207 -0.001570 0.010475 0.000000 0.002829 0.000000
# 4 0.000000 0.000000 0.000000 0.030701 0.000000 0.005055
# 5 0.003107 0.005332 0.002829 0.000000 0.034018 0.000000
# 6 0.000000 0.000000 0.000000 0.005055 0.000000 0.000540
#
#
# Mechanical properties :
#
#
# Convention : Reuss Voigt Hill
#
# Bulk Modulus (GPa) = 41.52988 50.81194 46.17091
# Shear Modulus (GPa) = 41.51359 -674.64773 -316.56707
#
# Velocity S-wave (km/s) = 4.20943 -16.96940 -11.62414
# Velocity P-wave (km/s) = 6.43055 19.03311 12.66703
#
# Compressibility (1/GPa) = 0.02407905
#
# Stress axis : x y z
#
# Youngs Moduli (GPa) = 68.90491 94.07394 95.46339
#
# Poissons Ratio (x) = 0.09345 0.30610
# Poissons Ratio (y) = 0.06845 0.14984
# Poissons Ratio (z) = 0.22094 0.14766
#
# Static dielectric constant tensor:
#      x y z
#    x 1.949950 0.000000 -0.032670 
#    y 0.000000 1.963480 0.000000 
#    z -0.032670 0.000000 1.985040 
# 
# From -- ./inp_files/17631.got.cif
#   From: 2010.05.17/outbox.cif.g08.bks.cpg/sg12_9_cif.got.tgz:17631.got - 2010.06.03 13:09:07.
