data_PCOD9212647
_publ_section_title
;
Structure prediction by ZEFSAII (Michael W. Deem and Ramdas Pophale) SiO2 
 PCOD9212647
Probable space group: C 2/M
;
_chemical_formula_sum "Si O2"
_cell_formula_units_Z 48
_cell_length_a 9.581628
_cell_length_b 16.916165
_cell_length_c 20.893979
_cell_angle_alpha 90.000000
_cell_angle_beta 138.435710
_cell_angle_gamma 90.000000
_cell_volume 2246.865756
_symmetry_space_group_name_H-M "C 2/M"
_symmetry_group_IT_number 12
_symmetry_cell_setting 'monoclinic'
loop_
_space_group_symop_operation_xyz
x,y,z
-x,y,-z
-x,-y,-z
x,-y,z
1/2+x,1/2+y,z
1/2-x,1/2+y,-z
1/2-x,1/2-y,-z
1/2+x,1/2-y,z
loop_
_atom_site_type_symbol
_atom_site_label
_atom_site_fract_x
_atom_site_fract_y
_atom_site_fract_z
Si Si1 0.086635 0.318733 0.239725
Si Si2 0.083819 0.909123 0.852750
Si Si3 0.653887 0.161041 0.711366
Si Si4 0.155740 0.674392 0.500834
Si Si5 0.778703 0.095621 0.962303
Si Si6 0.554746 0.593177 0.699125
O O1 0.985811 0.317188 0.275339
O O2 0.896999 0.349145 0.129759
O O3 0.208429 0.237898 0.262860
O O4 0.267936 0.383288 0.290589
O O5 0.111393 0.875112 0.790342
O O6 0.836015 0.902792 0.784472
O O7 0.150105 0.000000 0.871365
O O8 0.197326 0.878006 0.955231
O O9 0.492829 0.132112 0.601775
O O10 0.250000 0.750000 0.500000
O O11 0.335585 0.625779 0.597577
O O12 0.000000 0.706903 0.500000
O O13 0.728285 0.000000 0.942612
O O14 0.000000 0.104547 0.000000
O O15 0.537451 0.500000 0.699468
#
# Coordination Sequence:
#
# PCOD9212647 Si02
#       6
#     8   8   8   8   8   8
#     4  12  25  43  67  98 137 176 225 276 330 396
#     4  10  22  43  68  98 131 171 221 269 332 397
#     4  12  24  41  68  97 132 180 218 273 337 388
#     4  12  24  43  70  95 131 177 220 268 329 400
#     4  10  21  42  70  98 132 177 221 272 334 396
#     4  11  25  44  68 101 134 172 224 279 328 391
#
# _framework density 21.363091000000001
#
# number of rings (size 3 to 8) (size 9 to 14) (size 15 to 20)
#    0.000    0.833    5.000    2.500    0.000    3.000 
#    0.000    3.333    0.000    0.000    0.000    0.000 
#    0.000    0.000    0.000    0.000    0.000    0.000 
#
# Total GULP energy -134006.981636 kJ/mol
# GULP energy per Si atom -5583.624235 kJ/mol
# Density = 2.131447 g / cm^3
# Si number density = 21.363091 Si / 1000 Ang^3
#
#
#
# Elastic Constant Matrix: (Units=GPa)
#
#
# Indices 1 2 3 4 5 6 
#
# 1 143.9368 11.7838 17.4300 0.0000 -6.1228 0.0000
# 2 11.7838 24.4228 0.5223 0.0000 -7.5571 0.0000
# 3 17.4300 0.5223 97.6241 0.0000 -13.0603 -0.0001
# 4 0.0000 0.0000 0.0000 25.9474 0.0000 1.1722
# 5 -6.1228 -7.5571 -13.0603 0.0000 35.3335 0.0000
# 6 0.0000 0.0000 -0.0001 1.1722 0.0000 16.8009
#
#
#
# Elastic Compliance Matrix: (Units=1/GPa)
#
#
# Indices 1 2 3 4 5 6 
#
# 1 0.007395 -0.003525 -0.001295 0.000000 0.000049 0.000000
# 2 -0.003525 0.045635 0.001693 0.000000 0.009775 0.000000
# 3 -0.001295 0.001693 0.011029 0.000000 0.004214 0.000000
# 4 0.000000 0.000000 0.000000 0.038661 0.000000 -0.002697
# 5 0.000049 0.009775 0.004214 0.000000 0.031959 0.000000
# 6 0.000000 0.000000 0.000000 -0.002697 0.000000 0.059709
#
#
# Mechanical properties :
#
#
# Convention : Reuss Voigt Hill
#
# Bulk Modulus (GPa) = 17.29957 36.16176 26.73066
# Shear Modulus (GPa) = 22.73649 31.36620 27.05135
#
# Velocity S-wave (km/s) = 3.26588 3.83592 3.56232
# Velocity P-wave (km/s) = 4.72618 6.04839 5.42770
#
# Compressibility (1/GPa) = 0.05780491
#
# Stress axis : x y z
#
# Youngs Moduli (GPa) = 135.22690 21.91307 90.66737
#
# Poissons Ratio (x) = 0.07725 0.11741
# Poissons Ratio (y) = 0.47670 -0.15350
# Poissons Ratio (z) = 0.17511 -0.03710
#
# Static dielectric constant tensor:
#      x y z
#    x 1.774770 0.000000 -0.040770 
#    y 0.000000 1.841170 0.000000 
#    z -0.040770 0.000000 1.828900 
# 
# From -- ./inp_files/301837.got.cif
#   From: 2010.05.17/outbox.cif.g08.bks.cpg/sg12_151_cif.got.tgz:301837.got - 2010.06.03 13:09:07.
