data_PCOD9212055
_publ_section_title
;
Structure prediction by ZEFSAII (Michael W. Deem and Ramdas Pophale) SiO2 
 PCOD9212055
Probable space group: C 2/M
;
_chemical_formula_sum "Si O2"
_cell_formula_units_Z 30
_cell_length_a 10.387287
_cell_length_b 21.384936
_cell_length_c 12.245402
_cell_angle_alpha 90.000000
_cell_angle_beta 25.751390
_cell_angle_gamma 90.000000
_cell_volume 1181.789254
_symmetry_space_group_name_H-M "C 2/M"
_symmetry_group_IT_number 12
_symmetry_cell_setting 'monoclinic'
loop_
_space_group_symop_operation_xyz
x,y,z
-x,y,-z
-x,-y,-z
x,-y,z
1/2+x,1/2+y,z
1/2-x,1/2+y,-z
1/2-x,1/2-y,-z
1/2+x,1/2-y,z
loop_
_atom_site_type_symbol
_atom_site_label
_atom_site_fract_x
_atom_site_fract_y
_atom_site_fract_z
Si Si1 0.156393 0.112461 0.723112
Si Si2 0.500000 0.500000 0.000000
Si Si3 0.362439 0.000000 0.223543
Si Si4 0.356139 0.752136 0.223649
Si Si5 0.741175 0.875012 0.606149
O O1 0.500000 0.109283 0.500000
O O2 0.036480 0.181552 0.841806
O O3 0.145805 0.109650 0.600333
O O4 0.015551 0.055194 0.894188
O O5 0.448023 0.064978 0.214686
O O6 0.000000 0.000000 0.500000
O O7 0.500000 0.000000 0.000000
O O8 0.409225 0.806807 0.271783
O O9 0.000000 0.745138 0.500000
O O10 0.500000 0.774881 0.000000
O O11 0.000000 0.871222 0.500000
#
# Coordination Sequence:
#
# PCOD9212055 Si02
#       5
#     8   2   4   8   8
#     4  11  24  46  66 101 136 185 236 283 348 420
#     4  12  24  46  70  96 138 186 234 282 352 418
#     4  10  21  41  61  97 133 176 221 279 346 403
#     4  10  21  43  69 105 140 184 232 287 350 416
#     4  10  22  44  68 101 140 179 229 290 349 409
#
# _framework density 25.385238000000001
#
# number of rings (size 3 to 8) (size 9 to 14) (size 15 to 20)
#    0.000    1.600    1.333    2.800    0.000    0.000 
#   28.800    8.000    0.000    0.000    0.000    0.000 
#    0.000    0.000    0.000    0.000    0.000    0.000 
#
# Total GULP energy -83648.126044 kJ/mol
# GULP energy per Si atom -5576.541736 kJ/mol
# Density = 2.532746 g / cm^3
# Si number density = 25.385238 Si / 1000 Ang^3
#
#
#
# Elastic Constant Matrix: (Units=GPa)
#
#
# Indices 1 2 3 4 5 6 
#
# 1 154.4725 38.1466 80.6543 0.3135 14.6215 0.0229
# 2 38.1466 312.8850 62.3456 0.1326 43.6610 -0.0206
# 3 80.6543 62.3456 158.2974 0.3858 39.8920 -0.0041
# 4 0.3135 0.1326 0.3858 1.0401 -0.1899 46.5747
# 5 14.6215 43.6610 39.8920 -0.1899 86.8819 -0.0495
# 6 0.0229 -0.0206 -0.0041 46.5747 -0.0495 10.0959
#
#
#
# Elastic Compliance Matrix: (Units=1/GPa)
#
#
# Indices 1 2 3 4 5 6 
#
# 1 0.008873 -0.000270 -0.004606 0.000000 0.000757 -0.000018
# 2 -0.000270 0.003603 -0.000946 0.000002 -0.001331 -0.000006
# 3 -0.004606 -0.000946 0.009862 0.000013 -0.003278 -0.000062
# 4 0.000000 0.000002 0.000013 -0.004677 -0.000004 0.021575
# 5 0.000757 -0.001331 -0.003278 -0.000004 0.013556 0.000081
# 6 -0.000018 -0.000006 -0.000062 0.021575 0.000081 -0.000481
#
#
# Mechanical properties :
#
#
# Convention : Reuss Voigt Hill
#
# Bulk Modulus (GPa) = 93.49469 109.77200 101.63334
# Shear Modulus (GPa) = 108.82304 49.23748 79.03026
#
# Velocity S-wave (km/s) = 6.55452 4.40888 5.58569
# Velocity P-wave (km/s) = 9.70528 8.32190 9.04009
#
# Compressibility (1/GPa) = 0.01069580
#
# Stress axis : x y z
#
# Youngs Moduli (GPa) = 112.69764 277.52942 101.39419
#
# Poissons Ratio (x) = 0.07486 0.46698
# Poissons Ratio (y) = 0.03040 0.09595
# Poissons Ratio (z) = 0.51903 0.26263
#
# Static dielectric constant tensor:
#      x y z
#    x 1.906270 0.000190 -0.052700 
#    y 0.000190 2.034700 -0.000030 
#    z -0.052700 -0.000030 2.049190 
# 
# From -- ./inp_files/6558.got.cif
#   From: 2010.05.17/outbox.cif.g08.bks.cpg/sg12_4_cif.got.tgz:6558.got - 2010.06.03 13:09:07.
