data_PCOD9212910
_publ_section_title
;
Structure prediction by ZEFSAII (Michael W. Deem and Ramdas Pophale) SiO2 
 PCOD9212910
Probable space group: C 2/M
;
_chemical_formula_sum "Si O2"
_cell_formula_units_Z 48
_cell_length_a 5.542899
_cell_length_b 27.471842
_cell_length_c 14.515683
_cell_angle_alpha 90.000000
_cell_angle_beta 91.116406
_cell_angle_gamma 90.000000
_cell_volume 2209.936385
_symmetry_space_group_name_H-M "C 2/M"
_symmetry_group_IT_number 12
_symmetry_cell_setting 'monoclinic'
loop_
_space_group_symop_operation_xyz
x,y,z
-x,y,-z
-x,-y,-z
x,-y,z
1/2+x,1/2+y,z
1/2-x,1/2+y,-z
1/2-x,1/2-y,-z
1/2+x,1/2-y,z
loop_
_atom_site_type_symbol
_atom_site_label
_atom_site_fract_x
_atom_site_fract_y
_atom_site_fract_z
Si Si1 0.937778 0.597900 0.393236
Si Si2 0.193236 0.852455 0.241304
Si Si3 0.481242 0.279822 0.101855
Si Si4 0.529361 0.091433 0.893759
Si Si5 0.242684 0.000000 0.443813
Si Si6 0.838040 0.942344 0.254469
Si Si7 0.253907 0.500000 0.944523
O O1 0.833358 0.645293 0.339752
O O2 0.754994 0.551660 0.393329
O O3 0.000000 0.608395 0.500000
O O4 0.158770 0.575422 0.335627
O O5 0.395639 0.862642 0.165358
O O6 0.026973 0.811877 0.193576
O O7 0.034629 0.900589 0.250006
O O8 0.714197 0.243649 0.103381
O O9 0.500000 0.305291 0.000000
O O10 0.307920 0.065096 0.842534
O O11 0.734779 0.049939 0.890007
O O12 0.500000 0.104324 0.000000
O O13 0.500000 0.000000 0.500000
O O14 0.000000 0.000000 0.500000
O O15 0.892756 0.000000 0.265333
O O16 0.500000 0.500000 0.000000
O O17 0.000000 0.500000 0.000000
#
# Coordination Sequence:
#
# PCOD9212910 Si02
#       7
#     8   8   8   8   4   8   4
#     4  10  24  42  62  94 139 189 236 291 340 401
#     4  11  27  37  70 100 131 181 233 294 346 422
#     4  10  25  49  77 104 135 175 225 290 359 423
#     4  10  24  37  54  85 134 185 227 279 332 405
#     4  10  22  37  64  93 132 191 244 281 328 391
#     4  11  24  39  58  97 139 186 242 282 338 407
#     4  10  22  35  52  77 119 184 229 252 310 385
#
# _framework density 21.720082999999999
#
# number of rings (size 3 to 8) (size 9 to 14) (size 15 to 20)
#    0.000    1.667    1.667    0.000   18.667    0.667 
#    0.000    0.000    0.000    1.000    0.000    0.000 
#    0.000    0.000    0.000    0.000    0.000    0.000 
#
# Total GULP energy -133833.836521 kJ/mol
# GULP energy per Si atom -5576.409855 kJ/mol
# Density = 2.167065 g / cm^3
# Si number density = 21.720083 Si / 1000 Ang^3
#
#
#
# Elastic Constant Matrix: (Units=GPa)
#
#
# Indices 1 2 3 4 5 6 
#
# 1 78.3764 17.1388 25.0627 0.0000 -5.3416 0.0000
# 2 17.1388 26.7489 30.7511 0.0000 5.8863 0.0000
# 3 25.0627 30.7511 158.9463 0.0000 11.0011 0.0000
# 4 0.0000 0.0000 0.0000 32.5987 0.0000 12.9338
# 5 -5.3416 5.8863 11.0011 0.0000 48.4362 0.0000
# 6 0.0000 0.0000 0.0000 12.9338 0.0000 32.0163
#
#
#
# Elastic Compliance Matrix: (Units=1/GPa)
#
#
# Indices 1 2 3 4 5 6 
#
# 1 0.015308 -0.009592 -0.000768 0.000000 0.003028 0.000000
# 2 -0.009592 0.054783 -0.008689 0.000000 -0.005742 0.000000
# 3 -0.000768 -0.008689 0.008154 0.000000 -0.000881 0.000000
# 4 0.000000 0.000000 0.000000 0.036531 0.000000 -0.014758
# 5 0.003028 -0.005742 -0.000881 0.000000 0.021878 0.000000
# 6 0.000000 0.000000 0.000000 -0.014758 0.000000 0.037196
#
#
# Mechanical properties :
#
#
# Convention : Reuss Voigt Hill
#
# Bulk Modulus (GPa) = 24.90764 45.55296 35.23030
# Shear Modulus (GPa) = 22.18951 35.35152 28.77052
#
# Velocity S-wave (km/s) = 3.19974 4.03872 3.64346
# Velocity P-wave (km/s) = 5.01433 6.53962 5.82710
#
# Compressibility (1/GPa) = 0.04014833
#
# Stress axis : x y z
#
# Youngs Moduli (GPa) = 65.32361 18.25371 122.63240
#
# Poissons Ratio (x) = 0.17510 0.09413
# Poissons Ratio (y) = 0.62662 1.06554
# Poissons Ratio (z) = 0.05014 0.15860
#
# Static dielectric constant tensor:
#      x y z
#    x 1.903990 0.000000 0.060510 
#    y 0.000000 1.818210 0.000000 
#    z 0.060510 0.000000 2.046670 
# 
# From -- ./inp_files/192095.got.cif
#   From: 2010.05.17/outbox.cif.g08.bks.cpg/sg12_97_cif.got.tgz:192095.got - 2010.06.03 13:09:07.
