data_PCOD9212618
_publ_section_title
;
Structure prediction by ZEFSAII (Michael W. Deem and Ramdas Pophale) SiO2 
 PCOD9212618
Probable space group: C 2/M
;
_chemical_formula_sum "Si O2"
_cell_formula_units_Z 28
_cell_length_a 11.041718
_cell_length_b 18.653193
_cell_length_c 6.882466
_cell_angle_alpha 90.000000
_cell_angle_beta 113.160314
_cell_angle_gamma 90.000000
_cell_volume 1303.293352
_symmetry_space_group_name_H-M "C 2/M"
_symmetry_group_IT_number 12
_symmetry_cell_setting 'monoclinic'
loop_
_space_group_symop_operation_xyz
x,y,z
-x,y,-z
-x,-y,-z
x,-y,z
1/2+x,1/2+y,z
1/2-x,1/2+y,-z
1/2-x,1/2-y,-z
1/2+x,1/2-y,z
loop_
_atom_site_type_symbol
_atom_site_label
_atom_site_fract_x
_atom_site_fract_y
_atom_site_fract_z
Si Si1 0.926523 0.000000 0.750922
Si Si2 0.243973 0.235374 0.770113
Si Si3 0.878641 0.654393 0.570674
Si Si4 0.500000 0.371919 0.500000
Si Si5 0.639555 0.000000 0.481058
O O1 0.961725 0.928327 0.647881
O O2 0.769766 0.000000 0.693792
O O3 0.000000 0.000000 0.000000
O O4 0.227300 0.308657 0.638100
O O5 0.375552 0.201521 0.760910
O O6 0.121688 0.180815 0.640358
O O7 0.250000 0.250000 0.000000
O O8 0.853267 0.574248 0.625647
O O9 0.000000 0.654660 0.500000
O O10 0.500000 0.000000 0.500000
#
# Coordination Sequence:
#
# PCOD9212618 Si02
#       5
#     4   8   8   4   4
#     4  11  25  42  76 102 141 190 235 296 370 422
#     4  11  24  41  69  97 136 182 235 289 362 419
#     4  10  22  43  63  96 136 177 229 289 343 430
#     4  11  24  46  66 105 142 174 248 301 348 442
#     4  10  21  42  69  95 144 183 227 291 356 423
#
# _framework density 21.484034999999999
#
# number of rings (size 3 to 8) (size 9 to 14) (size 15 to 20)
#    0.000    1.429    4.286    0.000    4.000    1.143 
#    0.000    1.429    0.000    8.571    0.000    0.000 
#    0.000    0.000    0.000    0.000    0.000    0.000 
#
# Total GULP energy -77993.914654 kJ/mol
# GULP energy per Si atom -5570.993904 kJ/mol
# Density = 2.143514 g / cm^3
# Si number density = 21.484035 Si / 1000 Ang^3
#
#
#
# Elastic Constant Matrix: (Units=GPa)
#
#
# Indices 1 2 3 4 5 6 
#
# 1 99.0963 34.2262 51.0355 0.0000 -3.9910 0.0000
# 2 34.2262 157.0909 46.5375 0.0000 -17.0203 0.0000
# 3 51.0355 46.5375 141.2676 0.0000 -27.8687 0.0000
# 4 0.0000 0.0000 0.0000 15.1096 0.0000 -3.2400
# 5 -3.9910 -17.0203 -27.8687 0.0000 32.5882 0.0000
# 6 0.0000 0.0000 0.0000 -3.2400 0.0000 29.9400
#
#
#
# Elastic Compliance Matrix: (Units=1/GPa)
#
#
# Indices 1 2 3 4 5 6 
#
# 1 0.013045 -0.001793 -0.004802 0.000000 -0.003445 0.000000
# 2 -0.001793 0.007415 -0.001292 0.000000 0.002548 0.000000
# 3 -0.004802 -0.001292 0.010814 0.000000 0.007985 0.000000
# 4 0.000000 0.000000 0.000000 0.067755 0.000000 0.007332
# 5 -0.003445 0.002548 0.007985 0.000000 0.038424 0.000000
# 6 0.000000 0.000000 0.000000 0.007332 0.000000 0.034194
#
#
# Mechanical properties :
#
#
# Convention : Reuss Voigt Hill
#
# Bulk Modulus (GPa) = 64.51387 73.45036 68.98211
# Shear Modulus (GPa) = 25.96221 33.23793 29.60007
#
# Velocity S-wave (km/s) = 3.48004 3.93759 3.71586
# Velocity P-wave (km/s) = 6.80011 7.41184 7.11255
#
# Compressibility (1/GPa) = 0.01550054
#
# Stress axis : x y z
#
# Youngs Moduli (GPa) = 76.66042 134.85594 92.46855
#
# Poissons Ratio (x) = 0.24178 0.44400
# Poissons Ratio (y) = 0.13744 0.11951
# Poissons Ratio (z) = 0.36809 0.17429
#
# Static dielectric constant tensor:
#      x y z
#    x 1.923550 0.000000 0.019610 
#    y 0.000000 1.841300 0.000000 
#    z 0.019610 0.000000 1.727350 
# 
# From -- ./inp_files/5834.got.cif
#   From: 2010.05.17/outbox.cif.g08.bks.cpg/sg12_3_cif.got.tgz:5834.got - 2010.06.03 13:09:07.
