data_PCOD9212970
_publ_section_title
;
Structure prediction by ZEFSAII (Michael W. Deem and Ramdas Pophale) SiO2 
 PCOD9212970
Probable space group: C 2/M
;
_chemical_formula_sum "Si O2"
_cell_formula_units_Z 58
_cell_length_a 24.389604
_cell_length_b 7.298964
_cell_length_c 26.422826
_cell_angle_alpha 90.000000
_cell_angle_beta 34.104443
_cell_angle_gamma 90.000000
_cell_volume 2637.413798
_symmetry_space_group_name_H-M "C 2/M"
_symmetry_group_IT_number 12
_symmetry_cell_setting 'monoclinic'
loop_
_space_group_symop_operation_xyz
x,y,z
-x,y,-z
-x,-y,-z
x,-y,z
1/2+x,1/2+y,z
1/2-x,1/2+y,-z
1/2-x,1/2-y,-z
1/2+x,1/2-y,z
loop_
_atom_site_type_symbol
_atom_site_label
_atom_site_fract_x
_atom_site_fract_y
_atom_site_fract_z
Si Si1 0.000000 0.000000 0.500000
Si Si2 0.558881 0.283194 0.747350
Si Si3 0.263240 0.222136 0.629781
Si Si4 0.772721 0.223964 0.122252
Si Si5 0.440440 0.218247 0.736307
Si Si6 0.973471 0.776893 0.918109
Si Si7 0.681794 0.277404 0.799790
Si Si8 0.018282 0.721196 0.567045
O O1 0.962265 0.837801 0.568209
O O2 0.566154 0.500000 0.749763
O O3 0.670599 0.216269 0.666981
O O4 0.506372 0.256903 0.734427
O O5 0.496742 0.215270 0.843047
O O6 0.238400 0.281045 0.705943
O O7 0.368939 0.279060 0.529388
O O8 0.266330 0.000000 0.627044
O O9 0.671070 0.285434 0.175279
O O10 0.777307 0.280614 0.177504
O O11 0.774149 0.000000 0.120697
O O12 0.870472 0.284996 0.018963
O O13 0.487425 0.274452 0.647125
O O14 0.434379 0.000000 0.737789
O O15 0.068067 0.725208 0.879106
O O16 0.970794 0.000000 0.920487
O O17 0.684787 0.500000 0.797194
O O18 0.006926 0.500000 0.569503
#
# Coordination Sequence:
#
# PCOD9212970 Si02
#       8
#     2   8   8   8   8   8   8   8
#     4  12  26  40  64  94 120 158 194 228 280 358
#     4   9  18  34  56  77 106 143 191 246 286 333
#     4   8  16  33  56  80 106 147 189 232 292 337
#     4   9  16  26  44  72 108 143 181 226 284 353
#     4  10  22  36  51  78 111 151 188 228 291 344
#     4   8  14  26  46  75 103 135 182 238 286 332
#     4   8  13  23  45  75 103 135 180 230 284 343
#     4  10  23  42  61  87 124 155 190 236 285 341
#
# _framework density 21.991240000000001
#
# number of rings (size 3 to 8) (size 9 to 14) (size 15 to 20)
#    0.000    3.034    0.000    2.276    2.897    2.759 
#    1.241    0.000    0.000    0.000    0.000    0.000 
#    0.000    5.517    0.000    0.276    0.000    0.000 
#
# Total GULP energy -161671.104773 kJ/mol
# GULP energy per Si atom -5574.865682 kJ/mol
# Density = 2.194119 g / cm^3
# Si number density = 21.991240 Si / 1000 Ang^3
#
#
#
# Elastic Constant Matrix: (Units=GPa)
#
#
# Indices 1 2 3 4 5 6 
#
# 1 97.8593 4.7240 26.4379 0.1923 -11.3563 0.3879
# 2 4.7240 96.7380 3.0433 0.0003 -0.8081 -0.0054
# 3 26.4379 3.0433 114.0668 0.0730 -27.1412 0.1456
# 4 0.1923 0.0003 0.0730 102.3996 0.0967 217.9608
# 5 -11.3563 -0.8081 -27.1412 0.0967 23.1773 0.2228
# 6 0.3879 -0.0054 0.1456 217.9608 0.2228 424.9690
#
#
#
# Elastic Compliance Matrix: (Units=1/GPa)
#
#
# Indices 1 2 3 4 5 6 
#
# 1 0.011107 -0.000459 -0.001762 -0.000014 0.003363 -0.000004
# 2 -0.000459 0.010365 -0.000191 0.000004 -0.000087 -0.000001
# 3 -0.001762 -0.000191 0.012439 -0.000027 0.013697 0.000004
# 4 -0.000014 0.000004 -0.000027 -0.106502 -0.000118 0.054623
# 5 0.003363 -0.000087 0.013697 -0.000118 0.060830 0.000021
# 6 -0.000004 -0.000001 0.000004 0.054623 0.000021 -0.025662
#
#
# Mechanical properties :
#
#
# Convention : Reuss Voigt Hill
#
# Bulk Modulus (GPa) = 34.37829 41.89715 38.13772
# Shear Modulus (GPa) = -218.30883 128.40645 -44.95119
#
# Velocity S-wave (km/s) = -9.97428 7.64961 -4.52602
# Velocity P-wave (km/s) = 10.81581 9.85470 3.15171
#
# Compressibility (1/GPa) = 0.02908812
#
# Stress axis : x y z
#
# Youngs Moduli (GPa) = 90.03150 96.47959 80.39023
#
# Poissons Ratio (x) = 0.04427 0.14164
# Poissons Ratio (y) = 0.04131 0.01534
# Poissons Ratio (z) = 0.15863 0.01842
#
# Static dielectric constant tensor:
#      x y z
#    x 1.820710 -0.000020 -0.037560 
#    y -0.000020 1.877560 0.000000 
#    z -0.037560 0.000000 1.800610 
# 
# From -- ./inp_files/382011.got.cif
#   From: 2010.05.17/outbox.cif.g08.bks.cpg/sg12_192_cif.got.tgz:382011.got - 2010.06.03 13:09:07.
