data_PCOD9212339
_publ_section_title
;
Structure prediction by ZEFSAII (Michael W. Deem and Ramdas Pophale) SiO2 
 PCOD9212339
Probable space group: C 2/M
;
_chemical_formula_sum "Si O2"
_cell_formula_units_Z 56
_cell_length_a 24.040780
_cell_length_b 14.707882
_cell_length_c 13.653138
_cell_angle_alpha 90.000000
_cell_angle_beta 31.118122
_cell_angle_gamma 90.000000
_cell_volume 2494.923002
_symmetry_space_group_name_H-M "C 2/M"
_symmetry_group_IT_number 12
_symmetry_cell_setting 'monoclinic'
loop_
_space_group_symop_operation_xyz
x,y,z
-x,y,-z
-x,-y,-z
x,-y,z
1/2+x,1/2+y,z
1/2-x,1/2+y,-z
1/2-x,1/2-y,-z
1/2+x,1/2-y,z
loop_
_atom_site_type_symbol
_atom_site_label
_atom_site_fract_x
_atom_site_fract_y
_atom_site_fract_z
Si Si1 0.777278 0.227138 0.182676
Si Si2 0.525390 0.396689 0.146199
Si Si3 0.090186 0.609181 0.099694
Si Si4 0.703098 0.310788 0.485115
Si Si5 0.386175 0.196736 0.726785
Si Si6 0.588853 0.401322 0.278696
Si Si7 0.584504 0.101986 0.784865
O O1 0.702662 0.251771 0.387204
O O2 0.707581 0.172396 0.207794
O O3 0.819229 0.325686 0.083568
O O4 0.883410 0.166334 0.040200
O O5 0.531667 0.500000 0.100036
O O6 0.407085 0.355312 0.315543
O O7 0.542260 0.399848 0.238940
O O8 0.104233 0.500000 0.063701
O O9 0.097345 0.635178 0.203034
O O10 0.978599 0.643073 0.214656
O O11 0.750000 0.250000 0.500000
O O12 0.802604 0.379480 0.332468
O O13 0.500000 0.197726 0.500000
O O14 0.358100 0.302195 0.794823
O O15 0.500000 0.401727 0.500000
O O16 0.647186 0.500000 0.201056
O O17 0.596175 0.000000 0.732710
O O18 0.500000 0.112301 0.000000
#
# Coordination Sequence:
#
# PCOD9212339 Si02
#       7
#     8   8   8   8   8   8   8
#     4  12  26  46  70 105 145 188 238 306 369 434
#     4  11  25  46  71 104 146 191 241 294 363 436
#     4  11  24  42  68  99 138 187 241 297 360 427
#     4  12  26  42  76 103 139 186 238 295 367 440
#     4  11  24  43  69  98 144 186 238 291 358 440
#     4   9  18  35  62  97 136 178 228 287 346 415
#     4  10  21  41  67  98 134 172 229 298 352 410
#
# _framework density 22.445582999999999
#
# number of rings (size 3 to 8) (size 9 to 14) (size 15 to 20)
#    0.000    1.143    2.857    3.429    2.000    2.000 
#    0.000    2.143    0.000    0.000    0.000    0.000 
#    0.000    0.000    0.000    0.000    0.000    0.000 
#
# Total GULP energy -156143.676720 kJ/mol
# GULP energy per Si atom -5576.559883 kJ/mol
# Density = 2.239450 g / cm^3
# Si number density = 22.445583 Si / 1000 Ang^3
#
#
#
# Elastic Constant Matrix: (Units=GPa)
#
#
# Indices 1 2 3 4 5 6 
#
# 1 87.5605 14.6188 12.9700 0.0000 -13.7607 0.0000
# 2 14.6188 118.4332 37.6751 0.0000 -5.0706 0.0000
# 3 12.9700 37.6751 75.1448 0.0000 -25.7524 0.0000
# 4 0.0000 0.0000 0.0000 -16.6467 0.0000 2.7067
# 5 -13.7607 -5.0706 -25.7524 0.0000 40.8201 0.0000
# 6 0.0000 0.0000 0.0000 2.7067 0.0000 32.3297
#
#
#
# Elastic Compliance Matrix: (Units=1/GPa)
#
#
# Indices 1 2 3 4 5 6 
#
# 1 0.012270 -0.001307 -0.000128 0.000000 0.003893 0.000000
# 2 -0.001307 0.010383 -0.005982 0.000000 -0.002925 0.000000
# 3 -0.000128 -0.005982 0.020490 0.000000 0.012140 0.000000
# 4 0.000000 0.000000 0.000000 -0.059265 0.000000 0.004962
# 5 0.003893 -0.002925 0.012140 0.000000 0.033106 0.000000
# 6 0.000000 0.000000 0.000000 0.004962 0.000000 0.030516
#
#
# Mechanical properties :
#
#
# Convention : Reuss Voigt Hill
#
# Bulk Modulus (GPa) = 35.32754 45.74068 40.53411
# Shear Modulus (GPa) = 69.66765 25.69227 47.67996
#
# Velocity S-wave (km/s) = 5.57726 3.38693 4.61396
# Velocity P-wave (km/s) = 7.56623 5.97644 6.81783
#
# Compressibility (1/GPa) = 0.02830653
#
# Stress axis : x y z
#
# Youngs Moduli (GPa) = 81.50165 96.31361 48.80526
#
# Poissons Ratio (x) = 0.12588 0.00626
# Poissons Ratio (y) = 0.10652 0.29197
# Poissons Ratio (z) = 0.01046 0.57619
#
# Static dielectric constant tensor:
#      x y z
#    x 1.861690 0.000000 0.023170 
#    y 0.000000 1.833590 0.000000 
#    z 0.023170 0.000000 1.719870 
# 
# From -- ./inp_files/240919.got.cif
#   From: 2010.05.17/outbox.cif.g08.bks.cpg/sg12_121_cif.got.tgz:240919.got - 2010.06.03 13:09:07.
