data_PCOD9212027
_publ_section_title
;
Structure prediction by ZEFSAII (Michael W. Deem and Ramdas Pophale) SiO2 
 PCOD9212027
Probable space group: C 2/M
;
_chemical_formula_sum "Si O2"
_cell_formula_units_Z 48
_cell_length_a 22.008489
_cell_length_b 20.128725
_cell_length_c 5.150430
_cell_angle_alpha 90.000000
_cell_angle_beta 99.700717
_cell_angle_gamma 90.000000
_cell_volume 2249.030466
_symmetry_space_group_name_H-M "C 2/M"
_symmetry_group_IT_number 12
_symmetry_cell_setting 'monoclinic'
loop_
_space_group_symop_operation_xyz
x,y,z
-x,y,-z
-x,-y,-z
x,-y,z
1/2+x,1/2+y,z
1/2-x,1/2+y,-z
1/2-x,1/2-y,-z
1/2+x,1/2-y,z
loop_
_atom_site_type_symbol
_atom_site_label
_atom_site_fract_x
_atom_site_fract_y
_atom_site_fract_z
Si Si1 0.111851 0.573587 0.634038
Si Si2 0.941133 0.696058 0.139379
Si Si3 0.066155 0.166293 0.542970
Si Si4 0.694090 0.325229 0.778127
Si Si5 0.650423 0.266693 0.250579
Si Si6 0.196431 0.574374 0.196635
O O1 0.082629 0.500000 0.627275
O O2 0.068044 0.634323 0.676564
O O3 0.144839 0.580526 0.381998
O O4 0.164797 0.575549 0.892387
O O5 0.943291 0.764108 0.306807
O O6 0.881202 0.704606 0.910105
O O7 0.000000 0.688338 0.000000
O O8 0.128393 0.135523 0.708522
O O9 0.090696 0.186847 0.275082
O O10 0.000000 0.132002 0.500000
O O11 0.682803 0.267164 0.554408
O O12 0.751510 0.369766 0.747556
O O13 0.695201 0.297644 0.068970
O O14 0.223762 0.500000 0.250963
#
# Coordination Sequence:
#
# PCOD9212027 Si02
#       6
#     8   8   8   8   8   8
#     4  10  24  39  57  79 106 144 189 234 268 311
#     4  11  20  35  59  80 113 145 181 219 276 329
#     4   9  18  32  54  84 113 141 176 212 271 327
#     4   9  18  33  56  80 108 140 181 219 268 324
#     4   9  19  31  52  85 109 135 179 214 268 325
#     4  10  21  41  59  76 106 148 189 224 270 320
#
# _framework density 21.342528000000001
#
# number of rings (size 3 to 8) (size 9 to 14) (size 15 to 20)
#    1.000    1.333    1.667    1.000    2.333    0.333 
#    0.000   11.667    0.000    4.000    0.000    1.167 
#    0.000    0.000    0.000    0.000    0.000    0.000 
#
# Total GULP energy -133815.837330 kJ/mol
# GULP energy per Si atom -5575.659889 kJ/mol
# Density = 2.129395 g / cm^3
# Si number density = 21.342528 Si / 1000 Ang^3
#
#
#
# Elastic Constant Matrix: (Units=GPa)
#
#
# Indices 1 2 3 4 5 6 
#
# 1 77.2380 15.3461 -2.0433 0.0000 -6.8278 0.0000
# 2 15.3461 47.3395 12.2158 0.0000 -6.3890 0.0000
# 3 -2.0433 12.2158 101.8644 0.0000 -6.0607 0.0000
# 4 0.0000 0.0000 0.0000 22.2246 0.0000 -2.2523
# 5 -6.8278 -6.3890 -6.0607 0.0000 34.9173 0.0000
# 6 0.0000 0.0000 0.0000 -2.2523 0.0000 -25.0052
#
#
#
# Elastic Compliance Matrix: (Units=1/GPa)
#
#
# Indices 1 2 3 4 5 6 
#
# 1 0.014054 -0.004519 0.000948 0.000000 0.002086 0.000000
# 2 -0.004519 0.023702 -0.002756 0.000000 0.002975 0.000000
# 3 0.000948 -0.002756 0.010253 0.000000 0.001461 0.000000
# 4 0.000000 0.000000 0.000000 0.044588 0.000000 -0.004016
# 5 0.002086 0.002975 0.001461 0.000000 0.029845 0.000000
# 6 0.000000 0.000000 0.000000 -0.004016 0.000000 -0.039630
#
#
# Mechanical properties :
#
#
# Convention : Reuss Voigt Hill
#
# Bulk Modulus (GPa) = 28.28449 30.83100 29.55775
# Shear Modulus (GPa) = 46.61928 19.82223 33.22076
#
# Velocity S-wave (km/s) = 4.67876 3.05087 3.94960
# Velocity P-wave (km/s) = 6.51684 5.18533 5.88883
#
# Compressibility (1/GPa) = 0.03535506
#
# Stress axis : x y z
#
# Youngs Moduli (GPa) = 71.15232 42.19119 97.52853
#
# Poissons Ratio (x) = 0.19067 -0.09245
# Poissons Ratio (y) = 0.32155 0.26879
# Poissons Ratio (z) = -0.06745 0.11628
#
# Static dielectric constant tensor:
#      x y z
#    x 1.834640 0.000000 0.046590 
#    y 0.000000 1.795190 0.000000 
#    z 0.046590 0.000000 1.787580 
# 
# From -- ./inp_files/25254.got.cif
#   From: 2010.05.17/outbox.cif.g08.bks.cpg/sg12_13_cif.got.tgz:25254.got - 2010.06.03 13:09:07.
