data_PCOD9212516
_publ_section_title
;
Structure prediction by ZEFSAII (Michael W. Deem and Ramdas Pophale) SiO2 
 PCOD9212516
Probable space group: C 2/M
;
_chemical_formula_sum "Si O2"
_cell_formula_units_Z 58
_cell_length_a 18.682125
_cell_length_b 7.658079
_cell_length_c 19.246312
_cell_angle_alpha 90.000000
_cell_angle_beta 67.684485
_cell_angle_gamma 90.000000
_cell_volume 2547.332127
_symmetry_space_group_name_H-M "C 2/M"
_symmetry_group_IT_number 12
_symmetry_cell_setting 'monoclinic'
loop_
_space_group_symop_operation_xyz
x,y,z
-x,y,-z
-x,-y,-z
x,-y,z
1/2+x,1/2+y,z
1/2-x,1/2+y,-z
1/2-x,1/2-y,-z
1/2+x,1/2-y,z
loop_
_atom_site_type_symbol
_atom_site_label
_atom_site_fract_x
_atom_site_fract_y
_atom_site_fract_z
Si Si1 0.741073 0.798314 0.685717
Si Si2 0.984943 0.287510 0.391015
Si Si3 0.564859 0.700859 0.742870
Si Si4 0.383097 0.204326 0.554648
Si Si5 0.727126 0.712685 0.172191
Si Si6 0.414558 0.711830 0.869544
Si Si7 0.000000 0.500000 0.000000
Si Si8 0.613907 0.296962 0.960464
O O1 0.649356 0.783571 0.711206
O O2 0.793419 0.723515 0.604881
O O3 0.765361 0.722999 0.751605
O O4 0.762249 0.000000 0.679186
O O5 0.984441 0.500000 0.383283
O O6 0.971531 0.210470 0.320471
O O7 0.916683 0.229915 0.469296
O O8 0.063913 0.230315 0.400701
O O9 0.577725 0.500000 0.758604
O O10 0.499228 0.777401 0.817408
O O11 0.401038 0.000000 0.545545
O O12 0.728837 0.500000 0.171542
O O13 0.649191 0.770129 0.162484
O O14 0.801026 0.775860 0.101796
O O15 0.417150 0.500000 0.865309
O O16 0.388647 0.755588 0.956942
O O17 0.942723 0.655641 0.051688
O O18 0.590413 0.500000 0.961585
#
# Coordination Sequence:
#
# PCOD9212516 Si02
#       8
#     8   8   8   8   8   8   2   8
#     4  11  24  38  59  88 123 163 203 250 308 365
#     4   9  19  38  62  89 117 152 197 248 307 369
#     4  11  23  39  59  86 122 162 201 252 306 362
#     4   9  19  38  63  87 118 154 195 250 306 365
#     4  10  21  42  65  91 126 161 203 263 314 365
#     4   9  21  41  65  91 123 160 206 257 312 372
#     4  12  26  44  64  98 136 164 208 272 316 374
#     4  11  24  42  68  96 127 173 214 256 319 379
#
# _framework density 22.768919
#
# number of rings (size 3 to 8) (size 9 to 14) (size 15 to 20)
#    0.000    1.931    0.690    3.103    1.931    3.862 
#    2.483    1.379    0.000    0.000    0.000    0.000 
#    0.000    0.000    0.000    0.000    0.000    0.000 
#
# Total GULP energy -161846.347857 kJ/mol
# GULP energy per Si atom -5580.908547 kJ/mol
# Density = 2.271710 g / cm^3
# Si number density = 22.768919 Si / 1000 Ang^3
#
#
#
# Elastic Constant Matrix: (Units=GPa)
#
#
# Indices 1 2 3 4 5 6 
#
# 1 59.4990 6.4980 16.9248 0.0002 -24.0651 -0.0001
# 2 6.4980 74.4941 -1.5919 0.0002 -1.3134 -0.0005
# 3 16.9248 -1.5919 79.9834 0.0001 -19.0622 -0.0001
# 4 0.0002 0.0002 0.0001 26.5968 0.0001 -3.9064
# 5 -24.0651 -1.3134 -19.0622 0.0001 46.0536 -0.0001
# 6 -0.0001 -0.0005 -0.0001 -3.9064 -0.0001 -24.7780
#
#
#
# Elastic Compliance Matrix: (Units=1/GPa)
#
#
# Indices 1 2 3 4 5 6 
#
# 1 0.021851 -0.001768 -0.002163 0.000000 0.010472 0.000000
# 2 -0.001768 0.013585 0.000573 0.000000 -0.000299 0.000000
# 3 -0.002163 0.000573 0.014097 0.000000 0.004721 0.000000
# 4 0.000000 0.000000 0.000000 0.036748 0.000000 -0.005794
# 5 0.010472 -0.000299 0.004721 0.000000 0.029132 0.000000
# 6 0.000000 0.000000 0.000000 -0.005794 0.000000 -0.039445
#
#
# Mechanical properties :
#
#
# Convention : Reuss Voigt Hill
#
# Bulk Modulus (GPa) = 23.35475 28.62648 25.99062
# Shear Modulus (GPa) = 51.57036 22.38419 36.97728
#
# Velocity S-wave (km/s) = 4.76431 3.13885 4.03429
# Velocity P-wave (km/s) = 6.36745 5.07311 5.75677
#
# Compressibility (1/GPa) = 0.04281784
#
# Stress axis : x y z
#
# Youngs Moduli (GPa) = 45.76436 73.61038 70.93790
#
# Poissons Ratio (x) = 0.13012 0.15344
# Poissons Ratio (y) = 0.08089 -0.04066
# Poissons Ratio (z) = 0.09899 -0.04219
#
# Static dielectric constant tensor:
#      x y z
#    x 1.835370 0.000000 0.010350 
#    y 0.000000 1.834550 0.000000 
#    z 0.010350 0.000000 1.854310 
# 
# From -- ./inp_files/313898.got.cif
#   From: 2010.05.17/outbox.cif.g08.bks.cpg/sg12_157_cif.got.tgz:313898.got - 2010.06.03 13:09:07.
