data_PCOD9212065
_publ_section_title
;
Structure prediction by ZEFSAII (Michael W. Deem and Ramdas Pophale) SiO2 
 PCOD9212065
Probable space group: C 2/M
;
_chemical_formula_sum "Si O2"
_cell_formula_units_Z 56
_cell_length_a 21.033392
_cell_length_b 15.034558
_cell_length_c 21.668746
_cell_angle_alpha 90.000000
_cell_angle_beta 23.604378
_cell_angle_gamma 90.000000
_cell_volume 2743.774981
_symmetry_space_group_name_H-M "C 2/M"
_symmetry_group_IT_number 12
_symmetry_cell_setting 'monoclinic'
loop_
_space_group_symop_operation_xyz
x,y,z
-x,y,-z
-x,-y,-z
x,-y,z
1/2+x,1/2+y,z
1/2-x,1/2+y,-z
1/2-x,1/2-y,-z
1/2+x,1/2-y,z
loop_
_atom_site_type_symbol
_atom_site_label
_atom_site_fract_x
_atom_site_fract_y
_atom_site_fract_z
Si Si1 0.360416 0.598592 0.306911
Si Si2 0.417048 0.724241 0.823476
Si Si3 0.093478 0.401503 0.648987
Si Si4 0.818227 0.790788 0.685789
Si Si5 0.896561 0.397869 0.216117
Si Si6 0.308982 0.096804 0.674949
Si Si7 0.268143 0.604852 0.856067
O O1 0.438187 0.500000 0.238134
O O2 0.477137 0.679336 0.217410
O O3 0.235259 0.600288 0.474315
O O4 0.266726 0.606048 0.325880
O O5 0.490045 0.813954 0.730441
O O6 0.386604 0.650772 0.798624
O O7 0.250000 0.750000 0.000000
O O8 0.014977 0.500000 0.713225
O O9 0.145602 0.393710 0.674030
O O10 0.705778 0.830395 0.732770
O O11 0.771928 0.688614 0.742153
O O12 0.795025 0.850820 0.766198
O O13 0.000000 0.792574 0.500000
O O14 0.867390 0.500000 0.220933
O O15 0.085100 0.381196 0.040352
O O16 0.500000 0.093812 0.500000
O O17 0.257894 0.000000 0.745978
O O18 0.295552 0.500000 0.829057
#
# Coordination Sequence:
#
# PCOD9212065 Si02
#       7
#     8   8   8   8   8   8   8
#     4  10  22  40  67  96 127 166 211 267 323 378
#     4  12  24  39  64  95 131 172 209 259 314 388
#     4  10  22  39  64  94 125 163 211 261 315 378
#     4  11  24  38  64  95 121 160 214 268 314 375
#     4  10  21  41  62  86 125 167 207 257 317 382
#     4   9  20  39  63  91 125 163 205 259 321 376
#     4  11  25  43  61  88 127 171 209 254 319 384
#
# _framework density 20.409838000000001
#
# number of rings (size 3 to 8) (size 9 to 14) (size 15 to 20)
#    0.000    1.571    1.429    2.571    6.000    2.857 
#    0.000    0.000    0.000    1.714    0.000    0.000 
#    0.000    0.000    0.000    0.000    0.000    0.000 
#
# Total GULP energy -156402.003374 kJ/mol
# GULP energy per Si atom -5585.785835 kJ/mol
# Density = 2.036338 g / cm^3
# Si number density = 20.409838 Si / 1000 Ang^3
#
#
#
# Elastic Constant Matrix: (Units=GPa)
#
#
# Indices 1 2 3 4 5 6 
#
# 1 69.9297 46.8761 12.4120 0.0055 -9.2793 -0.0021
# 2 46.8761 174.2829 29.3721 0.0301 -22.5094 -0.0091
# 3 12.4120 29.3721 23.7969 0.0461 -9.0777 -0.0148
# 4 0.0055 0.0301 0.0461 24.8539 -0.0080 -1.1765
# 5 -9.2793 -22.5094 -9.0777 -0.0080 26.3789 0.0004
# 6 -0.0021 -0.0091 -0.0148 -1.1765 0.0004 32.9681
#
#
#
# Elastic Compliance Matrix: (Units=1/GPa)
#
#
# Indices 1 2 3 4 5 6 
#
# 1 0.017836 -0.003947 -0.003824 0.000008 0.001590 -0.000001
# 2 -0.003947 0.008424 -0.007052 0.000005 0.003373 -0.000001
# 3 -0.003824 -0.007052 0.057455 -0.000092 0.012409 0.000020
# 4 0.000008 0.000005 -0.000092 0.040303 -0.000012 0.001438
# 5 0.001590 0.003373 0.012409 -0.000012 0.045617 0.000006
# 6 -0.000001 -0.000001 0.000020 0.001438 0.000006 0.030384
#
#
# Mechanical properties :
#
#
# Convention : Reuss Voigt Hill
#
# Bulk Modulus (GPa) = 18.49540 49.48110 33.98825
# Shear Modulus (GPa) = 20.18680 28.79679 24.49180
#
# Velocity S-wave (km/s) = 3.14836 3.76031 3.46786
# Velocity P-wave (km/s) = 4.72207 6.56883 5.72047
#
# Compressibility (1/GPa) = 0.05406749
#
# Stress axis : x y z
#
# Youngs Moduli (GPa) = 56.06676 118.71528 17.40506
#
# Poissons Ratio (x) = 0.46862 0.06656
# Poissons Ratio (y) = 0.22132 0.12273
# Poissons Ratio (z) = 0.21441 0.83713
#
# Static dielectric constant tensor:
#      x y z
#    x 1.705440 0.000000 -0.012700 
#    y 0.000000 1.783630 0.000000 
#    z -0.012700 0.000000 1.691880 
# 
# From -- ./inp_files/349730.got.cif
#   From: 2010.05.17/outbox.cif.g08.bks.cpg/sg12_175_cif.got.tgz:349730.got - 2010.06.03 13:09:07.
