data_PCOD9212241
_publ_section_title
;
Structure prediction by ZEFSAII (Michael W. Deem and Ramdas Pophale) SiO2 
 PCOD9212241
Probable space group: C 2/M
;
_chemical_formula_sum "Si O2"
_cell_formula_units_Z 48
_cell_length_a 8.904400
_cell_length_b 29.260065
_cell_length_c 19.131640
_cell_angle_alpha 90.000000
_cell_angle_beta 150.476920
_cell_angle_gamma 90.000000
_cell_volume 2456.292247
_symmetry_space_group_name_H-M "C 2/M"
_symmetry_group_IT_number 12
_symmetry_cell_setting 'monoclinic'
loop_
_space_group_symop_operation_xyz
x,y,z
-x,y,-z
-x,-y,-z
x,-y,z
1/2+x,1/2+y,z
1/2-x,1/2+y,-z
1/2-x,1/2-y,-z
1/2+x,1/2-y,z
loop_
_atom_site_type_symbol
_atom_site_label
_atom_site_fract_x
_atom_site_fract_y
_atom_site_fract_z
Si Si1 0.153157 0.680777 0.849025
Si Si2 0.286670 0.815465 0.844132
Si Si3 0.833467 0.259496 0.613904
Si Si4 0.761329 0.000000 0.662478
Si Si5 0.268323 0.076060 0.842839
Si Si6 0.865584 0.500000 0.642797
Si Si7 0.644860 0.928044 0.855739
O O1 0.138943 0.626129 0.841338
O O2 0.965939 0.694629 0.843433
O O3 0.045138 0.700839 0.731198
O O4 0.500000 0.695453 0.000000
O O5 0.203401 0.869413 0.811840
O O6 0.983972 0.784407 0.714069
O O7 0.500000 0.807124 0.000000
O O8 0.500000 0.274131 0.500000
O O9 0.750000 0.250000 0.500000
O O10 0.500000 0.000000 0.500000
O O11 0.563961 0.000000 0.652916
O O12 0.978171 0.955800 0.739372
O O13 0.458417 0.062436 0.850997
O O14 0.500000 0.069581 0.000000
O O15 0.500000 0.500000 0.500000
O O16 0.975758 0.455165 0.727614
O O17 0.000000 0.942026 0.000000
#
# Coordination Sequence:
#
# PCOD9212241 Si02
#       7
#     8   8   8   4   8   4   8
#     4  10  23  42  65  92 124 167 213 261 309 373
#     4  10  23  42  65  93 124 165 215 260 311 375
#     4  12  25  42  61  93 129 168 208 260 322 376
#     4  12  25  42  61  92 130 164 204 254 315 374
#     4  10  21  41  66  92 123 163 211 260 308 365
#     4  12  25  42  61  94 128 168 204 250 313 374
#     4  10  21  41  66  92 121 163 213 258 308 369
#
# _framework density 19.541649
#
# number of rings (size 3 to 8) (size 9 to 14) (size 15 to 20)
#    0.000    1.333    1.667    3.500    2.333    4.000 
#    3.000    0.000    0.000    0.000    0.000    0.000 
#    0.000    0.000    0.000    0.000    0.000    0.000 
#
# Total GULP energy -133780.673542 kJ/mol
# GULP energy per Si atom -5574.194731 kJ/mol
# Density = 1.949717 g / cm^3
# Si number density = 19.541649 Si / 1000 Ang^3
#
#
#
# Elastic Constant Matrix: (Units=GPa)
#
#
# Indices 1 2 3 4 5 6 
#
# 1 102.0368 30.3201 45.6413 -0.0035 -13.7802 -0.0002
# 2 30.3201 66.1192 48.7542 -0.0028 2.6507 0.0000
# 3 45.6413 48.7542 157.3669 -0.0162 0.9927 0.0034
# 4 -0.0035 -0.0028 -0.0162 -498.0181 0.0031 -50.2816
# 5 -13.7802 2.6507 0.9927 0.0031 43.7169 0.0003
# 6 -0.0002 0.0000 0.0034 -50.2816 0.0003 18.9053
#
#
#
# Elastic Compliance Matrix: (Units=1/GPa)
#
#
# Indices 1 2 3 4 5 6 
#
# 1 0.012717 -0.004232 -0.002404 0.000000 0.004320 0.000000
# 2 -0.004232 0.021059 -0.005281 0.000000 -0.002491 0.000001
# 3 -0.002404 -0.005281 0.008692 0.000000 -0.000635 -0.000002
# 4 0.000000 0.000000 0.000000 -0.001583 0.000000 -0.004210
# 5 0.004320 -0.002491 -0.000635 0.000000 0.024402 0.000000
# 6 0.000000 0.000001 -0.000002 -0.004210 0.000000 0.041698
#
#
# Mechanical properties :
#
#
# Convention : Reuss Voigt Hill
#
# Bulk Modulus (GPa) = 53.66854 63.88381 58.77617
# Shear Modulus (GPa) = 36.48830 -73.69204 -18.60187
#
# Velocity S-wave (km/s) = 4.32581 -6.14753 -3.08865
# Velocity P-wave (km/s) = 7.24385 4.19850 4.17409
#
# Compressibility (1/GPa) = 0.01863289
#
# Stress axis : x y z
#
# Youngs Moduli (GPa) = 78.63657 47.48609 115.04636
#
# Poissons Ratio (x) = 0.20095 0.27663
# Poissons Ratio (y) = 0.33276 0.60759
# Poissons Ratio (z) = 0.18908 0.25079
#
# Static dielectric constant tensor:
#      x y z
#    x 1.577800 0.000000 0.002880 
#    y 0.000000 1.692020 0.000000 
#    z 0.002880 0.000000 1.627400 
# 
# From -- ./inp_files/260456.got.cif
#   From: 2010.05.17/outbox.cif.g08.bks.cpg/sg12_131_cif.got.tgz:260456.got - 2010.06.03 13:09:07.
