data_PCOD9212459
_publ_section_title
;
Structure prediction by ZEFSAII (Michael W. Deem and Ramdas Pophale) SiO2 
 PCOD9212459
Probable space group: C 2/M
;
_chemical_formula_sum "Si O2"
_cell_formula_units_Z 44
_cell_length_a 10.828189
_cell_length_b 18.164233
_cell_length_c 10.667630
_cell_angle_alpha 90.000000
_cell_angle_beta 128.175486
_cell_angle_gamma 90.000000
_cell_volume 1649.416971
_symmetry_space_group_name_H-M "C 2/M"
_symmetry_group_IT_number 12
_symmetry_cell_setting 'monoclinic'
loop_
_space_group_symop_operation_xyz
x,y,z
-x,y,-z
-x,-y,-z
x,-y,z
1/2+x,1/2+y,z
1/2-x,1/2+y,-z
1/2-x,1/2-y,-z
1/2+x,1/2-y,z
loop_
_atom_site_type_symbol
_atom_site_label
_atom_site_fract_x
_atom_site_fract_y
_atom_site_fract_z
Si Si1 0.916845 0.353450 0.579032
Si Si2 0.367424 0.353785 0.488870
Si Si3 0.885002 0.500000 0.716948
Si Si4 0.325449 0.186238 0.872592
Si Si5 0.255114 0.000000 0.063692
Si Si6 0.264262 0.162051 0.112078
Si Si7 0.430333 0.500000 0.305570
O O1 0.738822 0.323792 0.465319
O O2 0.880113 0.432074 0.618224
O O3 0.000000 0.362120 0.500000
O O4 0.051727 0.318179 0.750192
O O5 0.500000 0.305624 0.500000
O O6 0.247149 0.349501 0.295110
O O7 0.535961 0.426946 0.403678
O O8 0.734417 0.500000 0.716293
O O9 0.065571 0.500000 0.880507
O O10 0.326025 0.274848 0.870952
O O11 0.500000 0.156787 0.000000
O O12 0.233728 0.167218 0.943663
O O13 0.240154 0.923564 0.130404
O O14 0.128483 0.000000 0.873269
#
# Coordination Sequence:
#
# PCOD9212459 Si02
#       7
#     8   8   4   8   4   8   4
#     4  11  23  44  70 107 154 203 255 309 395 468
#     4  12  24  43  76 116 155 202 255 326 392 459
#     4  10  21  41  75 110 156 212 253 314 393 465
#     4  11  24  49  76 106 156 206 266 321 386 474
#     4  10  23  44  80 114 158 201 268 328 395 461
#     4  10  24  47  76 108 145 208 265 327 383 461
#     4  12  23  42  75 131 160 192 260 337 398 451
#
# _framework density 26.676093000000002
#
# number of rings (size 3 to 8) (size 9 to 14) (size 15 to 20)
#    0.000    1.091    3.636    2.455    0.000    1.455 
#    9.818    2.727    0.000    0.000    0.000    0.000 
#    0.000    0.000    0.000    0.182    0.000    0.000 
#
# Total GULP energy -122791.514323 kJ/mol
# GULP energy per Si atom -5581.432469 kJ/mol
# Density = 2.661538 g / cm^3
# Si number density = 26.676093 Si / 1000 Ang^3
#
#
#
# Elastic Constant Matrix: (Units=GPa)
#
#
# Indices 1 2 3 4 5 6 
#
# 1 160.8932 23.6365 46.3720 0.0000 6.6492 0.0000
# 2 23.6365 187.2474 23.9701 0.0000 -1.4724 0.0000
# 3 46.3720 23.9701 123.2250 0.0000 16.0173 0.0000
# 4 0.0000 0.0000 0.0000 29.5418 0.0000 5.4138
# 5 6.6492 -1.4724 16.0173 0.0000 52.2424 0.0000
# 6 0.0000 0.0000 0.0000 5.4138 0.0000 21.7345
#
#
#
# Elastic Compliance Matrix: (Units=1/GPa)
#
#
# Indices 1 2 3 4 5 6 
#
# 1 0.007030 -0.000566 -0.002517 0.000000 -0.000139 0.000000
# 2 -0.000566 0.005535 -0.000930 0.000000 0.000513 0.000000
# 3 -0.002517 -0.000930 0.009587 0.000000 -0.002645 0.000000
# 4 0.000000 0.000000 0.000000 0.035469 0.000000 -0.008835
# 5 -0.000139 0.000513 -0.002645 0.000000 0.019985 0.000000
# 6 0.000000 0.000000 0.000000 -0.008835 0.000000 0.048210
#
#
# Mechanical properties :
#
#
# Convention : Reuss Voigt Hill
#
# Bulk Modulus (GPa) = 70.79850 73.25811 72.02830
# Shear Modulus (GPa) = 36.08737 45.86289 40.97513
#
# Velocity S-wave (km/s) = 3.68203 4.15088 3.92347
# Velocity P-wave (km/s) = 6.68387 7.10597 6.89815
#
# Compressibility (1/GPa) = 0.01412459
#
# Stress axis : x y z
#
# Youngs Moduli (GPa) = 142.25294 180.66399 104.30418
#
# Poissons Ratio (x) = 0.10230 0.26256
# Poissons Ratio (y) = 0.08055 0.09704
# Poissons Ratio (z) = 0.35808 0.16808
#
# Static dielectric constant tensor:
#      x y z
#    x 2.264040 0.000000 0.117060 
#    y 0.000000 2.235270 0.000000 
#    z 0.117060 0.000000 2.128060 
# 
# From -- ./inp_files/145823.got.cif
#   From: 2010.05.17/outbox.cif.g08.bks.cpg/sg12_73_cif.got.tgz:145823.got - 2010.06.03 13:09:07.
