data_PCOD9212888
_publ_section_title
;
Structure prediction by ZEFSAII (Michael W. Deem and Ramdas Pophale) SiO2 
 PCOD9212888
Probable space group: C 2/M
;
_chemical_formula_sum "Si O2"
_cell_formula_units_Z 48
_cell_length_a 11.041708
_cell_length_b 17.501195
_cell_length_c 23.578664
_cell_angle_alpha 90.000000
_cell_angle_beta 150.086052
_cell_angle_gamma 90.000000
_cell_volume 2272.277901
_symmetry_space_group_name_H-M "C 2/M"
_symmetry_group_IT_number 12
_symmetry_cell_setting 'monoclinic'
loop_
_space_group_symop_operation_xyz
x,y,z
-x,y,-z
-x,-y,-z
x,-y,z
1/2+x,1/2+y,z
1/2-x,1/2+y,-z
1/2-x,1/2-y,-z
1/2+x,1/2-y,z
loop_
_atom_site_type_symbol
_atom_site_label
_atom_site_fract_x
_atom_site_fract_y
_atom_site_fract_z
Si Si1 0.538061 0.086025 0.326153
Si Si2 0.148501 0.679129 0.650272
Si Si3 0.695003 0.851173 0.269342
Si Si4 0.697694 0.585077 0.455627
Si Si5 0.577340 0.910482 0.939342
Si Si6 0.104998 0.088368 0.827315
O O1 0.369421 0.143730 0.293197
O O2 0.606454 0.112549 0.291956
O O3 0.770507 0.084020 0.462674
O O4 0.436273 0.000000 0.284292
O O5 0.194377 0.768317 0.672644
O O6 0.381657 0.639537 0.717321
O O7 0.896282 0.649380 0.520300
O O8 0.475742 0.856764 0.135550
O O9 0.918477 0.897814 0.332421
O O10 0.765331 0.500000 0.462431
O O11 0.340143 0.905342 0.883244
O O12 0.599918 0.000000 0.930948
O O13 0.801433 0.891426 0.071422
O O14 0.027119 0.000000 0.795940
#
# Coordination Sequence:
#
# PCOD9212888 Si02
#       6
#     8   8   8   8   8   8
#     4   9  20  37  57  80 109 154 189 216 272 344
#     4  10  22  34  57  83 113 149 181 234 281 326
#     4  12  21  33  57  86 116 137 186 241 279 319
#     4   9  19  37  57  79 109 152 188 220 273 341
#     4   9  20  35  59  82 105 146 189 227 274 335
#     4   9  18  39  59  76 107 150 189 221 273 346
#
# _framework density 21.124177
#
# number of rings (size 3 to 8) (size 9 to 14) (size 15 to 20)
#    1.000    1.333    0.000    4.500    2.333    2.000 
#    0.000    1.667    0.000    6.000    0.000    0.000 
#    0.000    0.000    0.000    0.000    0.000    0.000 
#
# Total GULP energy -133824.294618 kJ/mol
# GULP energy per Si atom -5576.012276 kJ/mol
# Density = 2.107610 g / cm^3
# Si number density = 21.124177 Si / 1000 Ang^3
#
#
#
# Elastic Constant Matrix: (Units=GPa)
#
#
# Indices 1 2 3 4 5 6 
#
# 1 47.5536 -0.7308 8.6631 0.0005 -5.7108 0.0002
# 2 -0.7308 45.7431 -5.1179 0.0007 -4.7915 0.0004
# 3 8.6631 -5.1179 55.1864 0.0025 -9.5902 0.0007
# 4 0.0005 0.0007 0.0025 22.0108 0.0014 5.4578
# 5 -5.7108 -4.7915 -9.5902 0.0014 28.6677 0.0003
# 6 0.0002 0.0004 0.0007 5.4578 0.0003 24.7164
#
#
#
# Elastic Compliance Matrix: (Units=1/GPa)
#
#
# Indices 1 2 3 4 5 6 
#
# 1 0.021967 0.000405 -0.002801 0.000000 0.003506 0.000000
# 2 0.000405 0.022697 0.002882 -0.000001 0.004838 0.000000
# 3 -0.002801 0.002882 0.019975 -0.000003 0.006606 0.000000
# 4 0.000000 -0.000001 -0.000003 0.048064 -0.000003 -0.010613
# 5 0.003506 0.004838 0.006606 -0.000003 0.038600 0.000000
# 6 0.000000 0.000000 0.000000 -0.010613 0.000000 0.042803
#
#
# Mechanical properties :
#
#
# Convention : Reuss Voigt Hill
#
# Bulk Modulus (GPa) = 15.24156 17.12353 16.18254
# Shear Modulus (GPa) = 23.25536 24.79021 24.02279
#
# Velocity S-wave (km/s) = 3.32156 3.42942 3.37592
# Velocity P-wave (km/s) = 4.68415 4.87904 4.78259
#
# Compressibility (1/GPa) = 0.06561009
#
# Stress axis : x y z
#
# Youngs Moduli (GPa) = 45.52372 44.05876 50.06146
#
# Poissons Ratio (x) = -0.01784 0.14024
# Poissons Ratio (y) = -0.01843 -0.14428
# Poissons Ratio (z) = 0.12753 -0.12698
#
# Static dielectric constant tensor:
#      x y z
#    x 1.772640 0.000000 -0.020570 
#    y 0.000000 1.774520 0.000000 
#    z -0.020570 0.000000 1.743740 
# 
# From -- ./inp_files/358647.got.cif
#   From: 2010.05.17/outbox.cif.g08.bks.cpg/sg12_180_cif.got.tgz:358647.got - 2010.06.03 13:09:07.
