data_PCOD9212598
_publ_section_title
;
Structure prediction by ZEFSAII (Michael W. Deem and Ramdas Pophale) SiO2 
 PCOD9212598
Probable space group: C 2/M
;
_chemical_formula_sum "Si O2"
_cell_formula_units_Z 58
_cell_length_a 19.081444
_cell_length_b 7.751978
_cell_length_c 23.156570
_cell_angle_alpha 90.000000
_cell_angle_beta 138.375881
_cell_angle_gamma 90.000000
_cell_volume 2275.221285
_symmetry_space_group_name_H-M "C 2/M"
_symmetry_group_IT_number 12
_symmetry_cell_setting 'monoclinic'
loop_
_space_group_symop_operation_xyz
x,y,z
-x,y,-z
-x,-y,-z
x,-y,z
1/2+x,1/2+y,z
1/2-x,1/2+y,-z
1/2-x,1/2-y,-z
1/2+x,1/2-y,z
loop_
_atom_site_type_symbol
_atom_site_label
_atom_site_fract_x
_atom_site_fract_y
_atom_site_fract_z
Si Si1 0.630407 0.802324 0.369728
Si Si2 0.000000 0.500000 0.000000
Si Si3 0.678597 0.302759 0.729409
Si Si4 0.714558 0.198205 0.632721
Si Si5 0.225168 0.709301 0.092526
Si Si6 0.559179 0.206197 0.445907
Si Si7 0.501884 0.303864 0.086182
Si Si8 0.948974 0.795372 0.182539
O O1 0.698771 0.706675 0.363993
O O2 0.623711 0.727520 0.429899
O O3 0.511539 0.797408 0.271847
O O4 0.666161 0.000000 0.393743
O O5 0.044514 0.653741 0.071517
O O6 0.660932 0.500000 0.735112
O O7 0.743568 0.289134 0.710121
O O8 0.733588 0.227494 0.819751
O O9 0.563498 0.234382 0.640902
O O10 0.610766 0.272272 0.536736
O O11 0.696515 0.000000 0.638029
O O12 0.195307 0.500000 0.076145
O O13 0.324389 0.734719 0.111283
O O14 0.122368 0.804040 0.007198
O O15 0.575775 0.000000 0.457602
O O16 0.543676 0.500000 0.105156
O O17 0.498892 0.252482 0.151578
O O18 0.963326 0.000000 0.200092
#
# Coordination Sequence:
#
# PCOD9212598 Si02
#       8
#     8   2   8   8   8   8   8   8
#     4  11  23  39  64  95 128 168 219 274 332 393
#     4  12  26  48  68  94 148 176 220 272 328 398
#     4  11  23  39  64  95 128 169 217 270 330 394
#     4  11  24  41  61  87 129 173 217 270 335 394
#     4  10  21  42  68  97 134 171 216 279 336 390
#     4  10  22  41  63  91 125 170 219 272 329 395
#     4  11  25  44  72 103 134 183 226 268 332 402
#     4  10  22  42  68  99 132 167 219 272 331 397
#
# _framework density 25.492025999999999
#
# number of rings (size 3 to 8) (size 9 to 14) (size 15 to 20)
#    0.000    1.379    2.069    2.690    0.966    6.069 
#    0.000    0.000    0.000    0.000    0.000    0.000 
#    0.000    0.000    0.000    0.000    0.000    0.000 
#
# Total GULP energy -162152.073696 kJ/mol
# GULP energy per Si atom -5591.450817 kJ/mol
# Density = 2.543401 g / cm^3
# Si number density = 25.492026 Si / 1000 Ang^3
#
#
#
# Elastic Constant Matrix: (Units=GPa)
#
#
# Indices 1 2 3 4 5 6 
#
# 1 99.5237 11.7701 7.7853 0.0000 -15.1628 0.0000
# 2 11.7701 67.5674 -3.6750 0.0000 -7.9485 0.0000
# 3 7.7853 -3.6750 85.6190 0.0000 -14.3728 0.0000
# 4 0.0000 0.0000 0.0000 24.2292 0.0000 9.2468
# 5 -15.1628 -7.9485 -14.3728 0.0000 51.3691 0.0000
# 6 0.0000 0.0000 0.0000 9.2468 0.0000 23.0782
#
#
#
# Elastic Compliance Matrix: (Units=1/GPa)
#
#
# Indices 1 2 3 4 5 6 
#
# 1 0.010698 -0.001571 -0.000578 0.000000 0.002753 0.000000
# 2 -0.001571 0.015403 0.001182 0.000000 0.002250 0.000000
# 3 -0.000578 0.001182 0.012366 0.000000 0.003472 0.000000
# 4 0.000000 0.000000 0.000000 0.048723 0.000000 -0.019522
# 5 0.002753 0.002250 0.003472 0.000000 0.021599 0.000000
# 6 0.000000 0.000000 0.000000 -0.019522 0.000000 0.051153
#
#
# Mechanical properties :
#
#
# Convention : Reuss Voigt Hill
#
# Bulk Modulus (GPa) = 27.37346 31.60785 29.49065
# Shear Modulus (GPa) = 28.72670 35.52393 32.12532
#
# Velocity S-wave (km/s) = 3.36056 3.73705 3.55380
# Velocity P-wave (km/s) = 5.08126 5.57196 5.33226
#
# Compressibility (1/GPa) = 0.03653174
#
# Stress axis : x y z
#
# Youngs Moduli (GPa) = 93.47255 64.92357 80.86819
#
# Poissons Ratio (x) = 0.10201 0.04675
# Poissons Ratio (y) = 0.14686 -0.09557
# Poissons Ratio (z) = 0.05404 -0.07672
#
# Static dielectric constant tensor:
#      x y z
#    x 1.341310 0.000000 -0.377840 
#    y 0.000000 1.935260 0.000000 
#    z -0.377840 0.000000 1.769040 
# 
# From -- ./inp_files/346569.got.cif
#   From: 2010.05.17/outbox.cif.g08.bks.cpg/sg12_174_cif.got.tgz:346569.got - 2010.06.03 13:09:07.
