data_PCOD9212169
_publ_section_title
;
Structure prediction by ZEFSAII (Michael W. Deem and Ramdas Pophale) SiO2 
 PCOD9212169
Probable space group: C 2/M
;
_chemical_formula_sum "Si O2"
_cell_formula_units_Z 36
_cell_length_a 25.019392
_cell_length_b 12.808118
_cell_length_c 4.857624
_cell_angle_alpha 90.000000
_cell_angle_beta 81.139625
_cell_angle_gamma 90.000000
_cell_volume 1538.056174
_symmetry_space_group_name_H-M "C 2/M"
_symmetry_group_IT_number 12
_symmetry_cell_setting 'monoclinic'
loop_
_space_group_symop_operation_xyz
x,y,z
-x,y,-z
-x,-y,-z
x,-y,z
1/2+x,1/2+y,z
1/2-x,1/2+y,-z
1/2-x,1/2-y,-z
1/2+x,1/2-y,z
loop_
_atom_site_type_symbol
_atom_site_label
_atom_site_fract_x
_atom_site_fract_y
_atom_site_fract_z
Si Si1 0.718657 0.500000 0.981624
Si Si2 0.355496 0.000000 0.229258
Si Si3 0.060832 0.319006 0.886694
Si Si4 0.211793 0.671426 0.365200
Si Si5 0.895627 0.786627 0.665891
Si Si6 0.143356 0.000000 0.536155
O O1 0.754584 0.600484 0.874783
O O2 0.665476 0.500000 0.829221
O O3 0.698329 0.500000 0.308182
O O4 0.396731 0.909434 0.077071
O O5 0.318448 0.908850 0.408066
O O6 0.070310 0.288067 0.563486
O O7 0.076335 0.219749 0.062436
O O8 0.000000 0.350883 0.000000
O O9 0.250000 0.750000 0.500000
O O10 0.164746 0.739584 0.263281
O O11 0.888925 0.898008 0.529616
#
# Coordination Sequence:
#
# PCOD9212169 Si02
#       6
#     4   4   8   8   8   4
#     4  11  24  38  64  94 132 190 217 261 324 387
#     4   9  23  40  68 103 133 173 223 273 332 406
#     4  11  24  47  72  97 131 173 227 292 347 386
#     4  10  21  41  64  98 141 176 222 263 324 402
#     4  11  25  43  67 100 135 176 225 280 333 403
#     4  12  24  42  63  95 135 175 226 269 326 399
#
# _framework density 23.406168000000001
#
# number of rings (size 3 to 8) (size 9 to 14) (size 15 to 20)
#    0.000    1.333    2.222    2.333    3.111   10.667 
#    0.000    8.889    0.000    0.000    0.000    0.000 
#    0.000    0.000    0.000    0.000    0.000    0.000 
#
# Total GULP energy -100341.387458 kJ/mol
# GULP energy per Si atom -5574.521525 kJ/mol
# Density = 2.335289 g / cm^3
# Si number density = 23.406168 Si / 1000 Ang^3
#
#
#
# Elastic Constant Matrix: (Units=GPa)
#
#
# Indices 1 2 3 4 5 6 
#
# 1 71.1736 8.4021 22.0361 0.0000 -10.5619 0.0000
# 2 8.4021 102.7007 -6.7994 0.0000 -5.3937 0.0000
# 3 22.0361 -6.7994 69.3433 0.0000 -10.5376 0.0000
# 4 0.0000 0.0000 0.0000 23.0455 0.0000 -4.7927
# 5 -10.5619 -5.3937 -10.5376 0.0000 40.4891 0.0000
# 6 0.0000 0.0000 0.0000 -4.7927 0.0000 17.5655
#
#
#
# Elastic Compliance Matrix: (Units=1/GPa)
#
#
# Indices 1 2 3 4 5 6 
#
# 1 0.016139 -0.001498 -0.004858 0.000000 0.002746 0.000000
# 2 -0.001498 0.010043 0.001671 0.000000 0.001382 0.000000
# 3 -0.004858 0.001671 0.016628 0.000000 0.003283 0.000000
# 4 0.000000 0.000000 0.000000 0.046003 0.000000 0.012552
# 5 0.002746 0.001382 0.003283 0.000000 0.026453 0.000000
# 6 0.000000 0.000000 0.000000 0.012552 0.000000 0.060355
#
#
# Mechanical properties :
#
#
# Convention : Reuss Voigt Hill
#
# Bulk Modulus (GPa) = 29.90566 32.27723 31.09145
# Shear Modulus (GPa) = 25.49259 30.85862 28.17561
#
# Velocity S-wave (km/s) = 3.30379 3.63491 3.47330
# Velocity P-wave (km/s) = 5.23048 5.60685 5.42193
#
# Compressibility (1/GPa) = 0.03343848
#
# Stress axis : x y z
#
# Youngs Moduli (GPa) = 61.96331 99.57432 60.14128
#
# Poissons Ratio (x) = 0.14914 0.29217
# Poissons Ratio (y) = 0.09281 -0.10048
# Poissons Ratio (z) = 0.30103 -0.16636
#
# Static dielectric constant tensor:
#      x y z
#    x 1.892280 0.000000 0.025220 
#    y 0.000000 1.893180 0.000000 
#    z 0.025220 0.000000 1.857830 
# 
# From -- ./inp_files/23668.got.cif
#   From: 2010.05.17/outbox.cif.g08.bks.cpg/sg12_12_cif.got.tgz:23668.got - 2010.06.03 13:09:07.
