data_PCOD9212342
_publ_section_title
;
Structure prediction by ZEFSAII (Michael W. Deem and Ramdas Pophale) SiO2 
 PCOD9212342
Probable space group: C 2/M
;
_chemical_formula_sum "Si O2"
_cell_formula_units_Z 40
_cell_length_a 12.559329
_cell_length_b 21.624648
_cell_length_c 15.756932
_cell_angle_alpha 90.000000
_cell_angle_beta 155.827499
_cell_angle_gamma 90.000000
_cell_volume 1752.368234
_symmetry_space_group_name_H-M "C 2/M"
_symmetry_group_IT_number 12
_symmetry_cell_setting 'monoclinic'
loop_
_space_group_symop_operation_xyz
x,y,z
-x,y,-z
-x,-y,-z
x,-y,z
1/2+x,1/2+y,z
1/2-x,1/2+y,-z
1/2-x,1/2-y,-z
1/2+x,1/2-y,z
loop_
_atom_site_type_symbol
_atom_site_label
_atom_site_fract_x
_atom_site_fract_y
_atom_site_fract_z
Si Si1 0.217067 0.101340 0.829347
Si Si2 0.579697 0.000000 0.693761
Si Si3 0.621320 0.500000 0.483629
Si Si4 0.327480 0.000000 0.048076
Si Si5 0.805880 0.364028 0.236012
Si Si6 0.000000 0.744683 0.500000
Si Si7 0.752764 0.185134 0.456422
O O1 0.011114 0.155487 0.685068
O O2 0.064847 0.058190 0.651394
O O3 0.500000 0.117502 0.000000
O O4 0.242946 0.059989 0.933091
O O5 0.633931 0.934291 0.689368
O O6 0.281827 0.000000 0.510713
O O7 0.742113 0.000000 0.902279
O O8 0.141342 0.500000 0.279720
O O9 0.876045 0.304718 0.344663
O O10 0.999304 0.354926 0.295320
O O11 0.500000 0.361507 0.000000
O O12 0.793301 0.792889 0.389631
O O13 0.750000 0.250000 0.500000
#
# Coordination Sequence:
#
# PCOD9212342 Si02
#       7
#     8   4   4   4   8   4   8
#     4  11  22  38  66 101 138 180 225 282 353 420
#     4  10  21  41  68 100 139 173 219 281 338 425
#     4   9  19  40  60 101 140 163 216 278 340 427
#     4   9  21  38  65 101 138 180 206 278 364 409
#     4  11  24  46  69 101 138 181 236 285 340 420
#     4  10  26  47  72  97 132 192 228 294 356 380
#     4  10  23  44  66  97 135 174 242 288 324 410
#
# _framework density 22.826250999999999
#
# number of rings (size 3 to 8) (size 9 to 14) (size 15 to 20)
#    0.600    1.200    2.000    1.500    0.000   12.400 
#    0.000    0.000    0.000    0.000    0.000    0.000 
#    0.000    0.000    0.000    0.000    0.000    0.000 
#
# Total GULP energy -111485.426814 kJ/mol
# GULP energy per Si atom -5574.271341 kJ/mol
# Density = 2.277430 g / cm^3
# Si number density = 22.826251 Si / 1000 Ang^3
#
#
#
# Elastic Constant Matrix: (Units=GPa)
#
#
# Indices 1 2 3 4 5 6 
#
# 1 56.9893 25.7671 42.6419 0.0027 -1.6057 0.0032
# 2 25.7671 129.5584 80.5560 -0.0038 3.4145 -0.0049
# 3 42.6419 80.5560 166.6433 0.0440 28.0656 0.0865
# 4 0.0027 -0.0038 0.0440 -2.0550 0.0008 -51.4149
# 5 -1.6057 3.4145 28.0656 0.0008 32.9191 0.0015
# 6 0.0032 -0.0049 0.0865 -51.4149 0.0015 -86.3210
#
#
#
# Elastic Compliance Matrix: (Units=1/GPa)
#
#
# Indices 1 2 3 4 5 6 
#
# 1 0.023098 -0.000528 -0.006836 -0.000002 0.007009 -0.000004
# 2 -0.000528 0.011511 -0.006100 -0.000001 0.003981 -0.000006
# 3 -0.006836 -0.006100 0.012434 0.000003 -0.010301 0.000010
# 4 -0.000002 -0.000001 0.000003 0.035003 -0.000003 -0.020849
# 5 0.007009 0.003981 -0.010301 -0.000003 0.039089 -0.000008
# 6 -0.000004 -0.000006 0.000010 -0.020849 -0.000008 0.000833
#
#
# Mechanical properties :
#
#
# Convention : Reuss Voigt Hill
#
# Bulk Modulus (GPa) = 49.71296 72.34678 61.02987
# Shear Modulus (GPa) = 32.13342 2.52370 17.32856
#
# Velocity S-wave (km/s) = 3.75606 1.05262 2.75826
# Velocity P-wave (km/s) = 6.37470 5.76548 6.07772
#
# Compressibility (1/GPa) = 0.02011548
#
# Stress axis : x y z
#
# Youngs Moduli (GPa) = 43.29339 86.86999 80.42746
#
# Poissons Ratio (x) = 0.04590 0.54977
# Poissons Ratio (y) = 0.02288 0.49060
# Poissons Ratio (z) = 0.29594 0.52990
#
# Static dielectric constant tensor:
#      x y z
#    x 2.119110 0.000000 0.058420 
#    y 0.000000 1.807950 0.000000 
#    z 0.058420 0.000000 1.838850 
# 
# From -- ./inp_files/312224.got.cif
#   From: 2010.05.17/outbox.cif.g08.bks.cpg/sg12_157_cif.got.tgz:312224.got - 2010.06.03 13:09:07.
