data_PCOD9212844
_publ_section_title
;
Structure prediction by ZEFSAII (Michael W. Deem and Ramdas Pophale) SiO2 
 PCOD9212844
Probable space group: C 2/M
;
_chemical_formula_sum "Si O2"
_cell_formula_units_Z 40
_cell_length_a 14.827219
_cell_length_b 21.152864
_cell_length_c 8.906519
_cell_angle_alpha 90.000000
_cell_angle_beta 129.704859
_cell_angle_gamma 90.000000
_cell_volume 2149.107941
_symmetry_space_group_name_H-M "C 2/M"
_symmetry_group_IT_number 12
_symmetry_cell_setting 'monoclinic'
loop_
_space_group_symop_operation_xyz
x,y,z
-x,y,-z
-x,-y,-z
x,-y,z
1/2+x,1/2+y,z
1/2-x,1/2+y,-z
1/2-x,1/2-y,-z
1/2+x,1/2-y,z
loop_
_atom_site_type_symbol
_atom_site_label
_atom_site_fract_x
_atom_site_fract_y
_atom_site_fract_z
Si Si1 0.157436 0.571639 0.331057
Si Si2 0.670483 0.687085 0.432691
Si Si3 0.000000 0.229712 0.500000
Si Si4 0.617917 0.070150 0.930250
Si Si5 0.500000 0.734926 0.000000
Si Si6 0.855625 0.702757 0.097732
O O1 0.192967 0.500000 0.412898
O O2 0.244974 0.626197 0.478643
O O3 0.022189 0.580778 0.237928
O O4 0.148003 0.572117 0.139340
O O5 0.750000 0.750000 0.500000
O O6 0.598014 0.690323 0.512726
O O7 0.575947 0.693236 0.197024
O O8 0.944815 0.275467 0.318648
O O9 0.679285 0.130238 0.923067
O O10 0.646625 0.000000 0.904671
O O11 0.415693 0.781568 0.003142
O O12 0.750000 0.750000 0.000000
#
# Coordination Sequence:
#
# PCOD9212844 Si02
#       6
#     8   8   4   8   4   8
#     4   9  17  31  53  78 104 136 171 213 266 313
#     4  11  20  35  55  77 106 140 175 218 265 313
#     4  10  22  32  50  80 104 132 180 216 252 314
#     4   9  17  30  51  80 106 130 171 219 261 312
#     4  10  22  34  52  80 106 134 180 220 256 312
#     4  11  20  34  54  78 106 138 171 214 264 310
#
# _framework density 18.612373000000002
#
# number of rings (size 3 to 8) (size 9 to 14) (size 15 to 20)
#    0.000    2.000    0.000    8.400    0.000    0.000 
#    0.000    1.500    0.000    9.600    0.000    0.000 
#    0.000    0.000    0.000    0.000    0.000    0.000 
#
# Total GULP energy -111594.015561 kJ/mol
# GULP energy per Si atom -5579.700778 kJ/mol
# Density = 1.857001 g / cm^3
# Si number density = 18.612373 Si / 1000 Ang^3
#
#
#
# Elastic Constant Matrix: (Units=GPa)
#
#
# Indices 1 2 3 4 5 6 
#
# 1 71.8547 37.9430 15.2980 0.0000 0.9789 0.0000
# 2 37.9430 186.7591 44.5762 0.0000 19.8432 0.0000
# 3 15.2980 44.5762 49.6900 0.0000 4.3708 0.0000
# 4 0.0000 0.0000 0.0000 26.4697 0.0000 10.5107
# 5 0.9789 19.8432 4.3708 0.0000 19.1722 0.0000
# 6 0.0000 0.0000 0.0000 10.5107 0.0000 25.6948
#
#
#
# Elastic Compliance Matrix: (Units=1/GPa)
#
#
# Indices 1 2 3 4 5 6 
#
# 1 0.015969 -0.002939 -0.002526 0.000000 0.002802 0.000000
# 2 -0.002939 0.008044 -0.005707 0.000000 -0.006875 0.000000
# 3 -0.002526 -0.005707 0.026013 0.000000 0.000105 0.000000
# 4 0.000000 0.000000 0.000000 0.045106 0.000000 -0.018451
# 5 0.002802 -0.006875 0.000105 0.000000 0.059107 0.000000
# 6 0.000000 0.000000 0.000000 -0.018451 0.000000 0.046466
#
#
# Mechanical properties :
#
#
# Convention : Reuss Voigt Hill
#
# Bulk Modulus (GPa) = 36.12522 55.99313 46.05918
# Shear Modulus (GPa) = 21.52623 28.29979 24.91301
#
# Velocity S-wave (km/s) = 3.40451 3.90357 3.66255
# Velocity P-wave (km/s) = 5.90810 7.10396 6.53345
#
# Compressibility (1/GPa) = 0.02768149
#
# Stress axis : x y z
#
# Youngs Moduli (GPa) = 62.62290 124.31421 38.44286
#
# Poissons Ratio (x) = 0.36537 0.09711
# Poissons Ratio (y) = 0.18405 0.21938
# Poissons Ratio (z) = 0.15819 0.70943
#
# Static dielectric constant tensor:
#      x y z
#    x 1.659420 0.000000 -0.034990 
#    y 0.000000 1.704350 0.000000 
#    z -0.034990 0.000000 1.618480 
# 
# From -- ./inp_files/63843.got.cif
#   From: 2010.05.17/outbox.cif.g08.bks.cpg/sg12_32_cif.got.tgz:63843.got - 2010.06.03 13:09:07.
