data_PCOD9212708
_publ_section_title
;
Structure prediction by ZEFSAII (Michael W. Deem and Ramdas Pophale) SiO2 
 PCOD9212708
Probable space group: C 2/M
;
_chemical_formula_sum "Si O2"
_cell_formula_units_Z 58
_cell_length_a 24.763140
_cell_length_b 20.283290
_cell_length_c 10.240906
_cell_angle_alpha 90.000000
_cell_angle_beta 33.226064
_cell_angle_gamma 90.000000
_cell_volume 2818.503123
_symmetry_space_group_name_H-M "C 2/M"
_symmetry_group_IT_number 12
_symmetry_cell_setting 'monoclinic'
loop_
_space_group_symop_operation_xyz
x,y,z
-x,y,-z
-x,-y,-z
x,-y,z
1/2+x,1/2+y,z
1/2-x,1/2+y,-z
1/2-x,1/2-y,-z
1/2+x,1/2-y,z
loop_
_atom_site_type_symbol
_atom_site_label
_atom_site_fract_x
_atom_site_fract_y
_atom_site_fract_z
Si Si1 0.520117 0.337686 0.609292
Si Si2 0.088466 0.686581 0.915989
Si Si3 0.770479 0.575325 0.471510
Si Si4 0.397802 0.126751 0.831627
Si Si5 0.665548 0.219621 0.264225
Si Si6 0.000000 0.500000 0.500000
Si Si7 0.818561 0.816461 0.171645
Si Si8 0.191639 0.926892 0.340532
O O1 0.500000 0.353912 0.500000
O O2 0.589964 0.273887 0.467874
O O3 0.586272 0.394573 0.536018
O O4 0.418103 0.324983 0.887450
O O5 0.137079 0.623273 0.746029
O O6 0.162763 0.748464 0.786140
O O7 0.063063 0.662255 0.115423
O O8 0.000000 0.708342 0.000000
O O9 0.793604 0.500000 0.468428
O O10 0.701546 0.618202 0.704746
O O11 0.716752 0.570131 0.441655
O O12 0.393552 0.169909 0.708907
O O13 0.451292 0.058379 0.692356
O O14 0.281507 0.113534 0.095947
O O15 0.725282 0.190401 0.264616
O O16 0.750000 0.250000 0.000000
O O17 0.193630 0.000000 0.279062
#
# Coordination Sequence:
#
# PCOD9212708 Si02
#       8
#     8   8   8   8   8   2   8   8
#     4  12  24  40  67 102 133 177 224 287 353 402
#     4  11  25  43  72 103 139 180 231 288 346 414
#     4  10  25  48  68  95 138 186 229 282 346 408
#     4  11  23  45  66 102 138 180 225 281 345 417
#     4  12  22  45  70  97 138 175 224 291 342 405
#     4  12  28  40  74 108 142 178 236 274 358 434
#     4  12  26  43  71 105 136 179 239 284 346 416
#     4  10  21  43  68  90 133 183 225 275 342 407
#
# _framework density 20.578299999999999
#
# number of rings (size 3 to 8) (size 9 to 14) (size 15 to 20)
#    0.000    0.828    4.828    1.241    7.724    1.103 
#    3.724    1.379    0.000    0.000    0.000    0.000 
#    0.000    0.000    0.000    0.000    0.000    0.000 
#
# Total GULP energy -161815.917705 kJ/mol
# GULP energy per Si atom -5579.859231 kJ/mol
# Density = 2.053146 g / cm^3
# Si number density = 20.578300 Si / 1000 Ang^3
#
#
#
# Elastic Constant Matrix: (Units=GPa)
#
#
# Indices 1 2 3 4 5 6 
#
# 1 95.8451 34.0127 17.3234 0.0000 -5.9269 0.0000
# 2 34.0127 111.5645 23.2421 0.0000 13.3310 0.0000
# 3 17.3234 23.2421 102.1666 0.0000 -12.8611 0.0000
# 4 0.0000 0.0000 0.0000 2.5266 0.0000 52.7999
# 5 -5.9269 13.3310 -12.8611 0.0000 27.4306 0.0000
# 6 0.0000 0.0000 0.0000 52.7999 0.0000 -37.4555
#
#
#
# Elastic Compliance Matrix: (Units=1/GPa)
#
#
# Indices 1 2 3 4 5 6 
#
# 1 0.012283 -0.004148 -0.000586 0.000000 0.004395 0.000000
# 2 -0.004148 0.011813 -0.002996 0.000000 -0.008042 0.000000
# 3 -0.000586 -0.002996 0.011410 0.000000 0.006679 0.000000
# 4 0.000000 0.000000 0.000000 0.012994 0.000000 0.018318
# 5 0.004395 -0.008042 0.006679 0.000000 0.044445 0.000000
# 6 0.000000 0.000000 0.000000 0.018318 0.000000 -0.000877
#
#
# Mechanical properties :
#
#
# Convention : Reuss Voigt Hill
#
# Bulk Modulus (GPa) = 49.88608 50.97030 50.42819
# Shear Modulus (GPa) = 43.77836 14.16687 28.97261
#
# Velocity S-wave (km/s) = 4.61738 2.62666 3.75630
# Velocity P-wave (km/s) = 7.26097 5.83282 6.58572
#
# Compressibility (1/GPa) = 0.02004567
#
# Stress axis : x y z
#
# Youngs Moduli (GPa) = 81.41232 84.65083 87.64431
#
# Poissons Ratio (x) = 0.35112 0.05135
# Poissons Ratio (y) = 0.33769 0.26263
# Poissons Ratio (z) = 0.04769 0.25366
#
# Static dielectric constant tensor:
#      x y z
#    x 1.953370 0.000000 -0.087480 
#    y 0.000000 1.761470 0.000000 
#    z -0.087480 0.000000 1.791590 
# 
# From -- ./inp_files/99249.got.cif
#   From: 2010.05.17/outbox.cif.g08.bks.cpg/sg12_50_cif.got.tgz:99249.got - 2010.06.03 13:09:07.
