data_PCOD9212635
_publ_section_title
;
Structure prediction by ZEFSAII (Michael W. Deem and Ramdas Pophale) SiO2 
 PCOD9212635
Probable space group: C 2/M
;
_chemical_formula_sum "Si O2"
_cell_formula_units_Z 36
_cell_length_a 9.490428
_cell_length_b 17.060749
_cell_length_c 9.554044
_cell_angle_alpha 90.000000
_cell_angle_beta 56.164233
_cell_angle_gamma 90.000000
_cell_volume 1284.938737
_symmetry_space_group_name_H-M "C 2/M"
_symmetry_group_IT_number 12
_symmetry_cell_setting 'monoclinic'
loop_
_space_group_symop_operation_xyz
x,y,z
-x,y,-z
-x,-y,-z
x,-y,z
1/2+x,1/2+y,z
1/2-x,1/2+y,-z
1/2-x,1/2-y,-z
1/2+x,1/2-y,z
loop_
_atom_site_type_symbol
_atom_site_label
_atom_site_fract_x
_atom_site_fract_y
_atom_site_fract_z
Si Si1 0.769603 0.000000 0.045586
Si Si2 0.680567 0.337830 0.320490
Si Si3 0.250697 0.500000 0.385027
Si Si4 0.147445 0.163231 0.016840
Si Si5 0.112653 0.500000 0.756337
Si Si6 0.304541 0.168544 0.649360
O O1 0.884048 0.927940 0.939283
O O2 0.738884 0.000000 0.226422
O O3 0.581670 0.000000 0.084869
O O4 0.500000 0.349424 0.500000
O O5 0.786620 0.419109 0.263124
O O6 0.757857 0.257685 0.344551
O O7 0.670640 0.310482 0.161657
O O8 0.115589 0.500000 0.584778
O O9 0.293855 0.596184 0.370418
O O10 0.299169 0.156512 0.821323
O O11 0.000000 0.197570 0.000000
O O12 0.500000 0.163949 0.500000
#
# Coordination Sequence:
#
# PCOD9212635 Si02
#       6
#     4   8   4   8   4   8
#     4  10  23  43  74 104 139 201 248 300 364 449
#     4  11  27  46  71 113 152 193 244 309 373 434
#     4  10  21  42  70 106 136 190 238 302 357 434
#     4  11  24  47  74 106 150 194 244 303 372 446
#     4  12  25  45  74 106 155 187 252 305 374 429
#     4  10  22  47  75 105 145 191 255 296 364 441
#
# _framework density 28.016898000000001
#
# number of rings (size 3 to 8) (size 9 to 14) (size 15 to 20)
#    0.000    1.333    0.000    5.333    6.222    2.667 
#   16.000    0.000    0.000    0.000    0.000    0.000 
#    0.000    0.000    0.000    0.000    0.000    0.000 
#
# Total GULP energy -100252.470194 kJ/mol
# GULP energy per Si atom -5569.581677 kJ/mol
# Density = 2.795313 g / cm^3
# Si number density = 28.016898 Si / 1000 Ang^3
#
#
#
# Elastic Constant Matrix: (Units=GPa)
#
#
# Indices 1 2 3 4 5 6 
#
# 1 100.0301 38.7162 64.6303 0.0000 -21.8570 0.0000
# 2 38.7162 259.7835 -7.5384 0.0000 -10.6915 0.0000
# 3 64.6303 -7.5384 177.3375 0.0000 -17.4307 0.0000
# 4 0.0000 0.0000 0.0000 75.7533 0.0000 18.3402
# 5 -21.8570 -10.6915 -17.4307 0.0000 60.4101 0.0000
# 6 0.0000 0.0000 0.0000 18.3402 0.0000 9.2313
#
#
#
# Elastic Compliance Matrix: (Units=1/GPa)
#
#
# Indices 1 2 3 4 5 6 
#
# 1 0.015007 -0.002243 -0.005218 0.000000 0.003527 0.000000
# 2 -0.002243 0.004223 0.001019 0.000000 0.000230 0.000000
# 3 -0.005218 0.001019 0.007633 0.000000 0.000495 0.000000
# 4 0.000000 0.000000 0.000000 0.025435 0.000000 -0.050532
# 5 0.003527 0.000230 0.000495 0.000000 0.018013 0.000000
# 6 0.000000 0.000000 0.000000 -0.050532 0.000000 0.208720
#
#
# Mechanical properties :
#
#
# Convention : Reuss Voigt Hill
#
# Bulk Modulus (GPa) = 71.53143 80.97413 76.25278
# Shear Modulus (GPa) = 16.85925 58.50182 37.68054
#
# Velocity S-wave (km/s) = 2.45573 4.57452 3.67130
# Velocity P-wave (km/s) = 5.79894 7.54097 6.72659
#
# Compressibility (1/GPa) = 0.01397987
#
# Stress axis : x y z
#
# Youngs Moduli (GPa) = 66.63491 236.81752 131.01663
#
# Poissons Ratio (x) = 0.53114 0.68364
# Poissons Ratio (y) = 0.14945 -0.13357
# Poissons Ratio (z) = 0.34770 -0.24143
#
# Static dielectric constant tensor:
#      x y z
#    x 2.214130 0.000000 0.033600 
#    y 0.000000 2.412720 0.000000 
#    z 0.033600 0.000000 2.158750 
# 
# From -- ./inp_files/46830.got.cif
#   From: 2010.05.17/outbox.cif.g08.bks.cpg/sg12_24_cif.got.tgz:46830.got - 2010.06.03 13:09:07.
