data_PCOD9212279
_publ_section_title
;
Structure prediction by ZEFSAII (Michael W. Deem and Ramdas Pophale) SiO2 
 PCOD9212279
Probable space group: C 2/M
;
_chemical_formula_sum "Si O2"
_cell_formula_units_Z 56
_cell_length_a 17.111006
_cell_length_b 26.387580
_cell_length_c 9.520573
_cell_angle_alpha 90.000000
_cell_angle_beta 144.340259
_cell_angle_gamma 90.000000
_cell_volume 2506.021192
_symmetry_space_group_name_H-M "C 2/M"
_symmetry_group_IT_number 12
_symmetry_cell_setting 'monoclinic'
loop_
_space_group_symop_operation_xyz
x,y,z
-x,y,-z
-x,-y,-z
x,-y,z
1/2+x,1/2+y,z
1/2-x,1/2+y,-z
1/2-x,1/2-y,-z
1/2+x,1/2-y,z
loop_
_atom_site_type_symbol
_atom_site_label
_atom_site_fract_x
_atom_site_fract_y
_atom_site_fract_z
Si Si1 0.375019 0.558154 0.662604
Si Si2 0.284801 0.785929 0.768566
Si Si3 0.671577 0.898086 0.565626
Si Si4 0.927385 0.708374 0.672388
Si Si5 0.343138 0.440800 0.044715
Si Si6 0.809503 0.107205 0.271944
Si Si7 0.454539 0.056817 0.084681
O O1 0.335884 0.500000 0.637912
O O2 0.300066 0.598927 0.649232
O O3 0.535468 0.559396 0.890003
O O4 0.337413 0.572681 0.448242
O O5 0.168798 0.744685 0.562829
O O6 0.356284 0.795324 0.722039
O O7 0.202492 0.834598 0.703411
O O8 0.415506 0.776812 0.063870
O O9 0.591607 0.846328 0.427306
O O10 0.578628 0.941921 0.368617
O O11 0.721648 0.912702 0.791422
O O12 0.317008 0.500000 0.042222
O O13 0.386458 0.408996 0.244291
O O14 0.658904 0.090497 0.015519
O O15 0.406739 0.000000 0.990053
O O16 0.500000 0.078297 0.000000
#
# Coordination Sequence:
#
# PCOD9212279 Si02
#       7
#     8   8   8   8   8   8   8
#     4  11  22  40  65  92 131 180 228 272 323 404
#     4  10  21  41  68 100 129 168 220 289 344 405
#     4  12  22  40  65  96 129 171 222 276 335 394
#     4  10  21  41  67 100 131 165 224 288 344 398
#     4  11  26  42  59  95 142 180 218 270 334 403
#     4  12  22  40  65  93 131 175 221 270 336 406
#     4  11  20  33  61  94 124 162 215 267 322 393
#
# _framework density 22.34618
#
# number of rings (size 3 to 8) (size 9 to 14) (size 15 to 20)
#    0.000    1.000    4.286    3.429    0.000    4.000 
#    5.143    2.143    0.000    0.000    0.000    0.000 
#    0.000    0.000    0.000    0.000    0.000    0.000 
#
# Total GULP energy -156231.411584 kJ/mol
# GULP energy per Si atom -5579.693271 kJ/mol
# Density = 2.229532 g / cm^3
# Si number density = 22.346180 Si / 1000 Ang^3
#
#
#
# Elastic Constant Matrix: (Units=GPa)
#
#
# Indices 1 2 3 4 5 6 
#
# 1 39.3276 14.1475 3.0123 0.0000 -7.4632 0.0000
# 2 14.1475 110.5744 52.4758 0.0000 8.6478 0.0000
# 3 3.0123 52.4758 155.7842 0.0000 -3.1085 0.0000
# 4 0.0000 0.0000 0.0000 -146.5922 0.0000 67.2876
# 5 -7.4632 8.6478 -3.1085 0.0000 26.7600 0.0000
# 6 0.0000 0.0000 0.0000 67.2876 0.0000 -2.3590
#
#
#
# Elastic Compliance Matrix: (Units=1/GPa)
#
#
# Indices 1 2 3 4 5 6 
#
# 1 0.029056 -0.005143 0.001369 0.000000 0.009925 0.000000
# 2 -0.005143 0.012099 -0.004092 0.000000 -0.005820 0.000000
# 3 0.001369 -0.004092 0.007823 0.000000 0.002613 0.000000
# 4 0.000000 0.000000 0.000000 0.000564 0.000000 0.016091
# 5 0.009925 -0.005820 0.002613 0.000000 0.042321 0.000000
# 6 0.000000 0.000000 0.000000 0.016091 0.000000 0.035055
#
#
# Mechanical properties :
#
#
# Convention : Reuss Voigt Hill
#
# Bulk Modulus (GPa) = 30.07986 49.43971 39.75979
# Shear Modulus (GPa) = 32.52372 -8.70153 11.91110
#
# Velocity S-wave (km/s) = 3.81917 -1.97545 2.31124
# Velocity P-wave (km/s) = 5.73918 4.11938 4.99537
#
# Compressibility (1/GPa) = 0.03324483
#
# Stress axis : x y z
#
# Youngs Moduli (GPa) = 34.41592 82.65175 127.82394
#
# Poissons Ratio (x) = 0.42511 -0.17496
# Poissons Ratio (y) = 0.17701 0.52308
# Poissons Ratio (z) = -0.04711 0.33823
#
# Static dielectric constant tensor:
#      x y z
#    x 1.941580 0.000000 0.040410 
#    y 0.000000 1.782230 0.000000 
#    z 0.040410 0.000000 1.889150 
# 
# From -- ./inp_files/80120.got.cif
#   From: 2010.05.17/outbox.cif.g08.bks.cpg/sg12_41_cif.got.tgz:80120.got - 2010.06.03 13:09:07.
