data_PCOD9212806
_publ_section_title
;
Structure prediction by ZEFSAII (Michael W. Deem and Ramdas Pophale) SiO2 
 PCOD9212806
Probable space group: C 2/M
;
_chemical_formula_sum "Si O2"
_cell_formula_units_Z 48
_cell_length_a 22.091319
_cell_length_b 25.374715
_cell_length_c 11.299987
_cell_angle_alpha 90.000000
_cell_angle_beta 23.679820
_cell_angle_gamma 90.000000
_cell_volume 2544.027322
_symmetry_space_group_name_H-M "C 2/M"
_symmetry_group_IT_number 12
_symmetry_cell_setting 'monoclinic'
loop_
_space_group_symop_operation_xyz
x,y,z
-x,y,-z
-x,-y,-z
x,-y,z
1/2+x,1/2+y,z
1/2-x,1/2+y,-z
1/2-x,1/2-y,-z
1/2+x,1/2-y,z
loop_
_atom_site_type_symbol
_atom_site_label
_atom_site_fract_x
_atom_site_fract_y
_atom_site_fract_z
Si Si1 0.226673 0.670969 0.788775
Si Si2 0.347918 0.774493 0.699066
Si Si3 0.641424 0.937772 0.334762
Si Si4 0.673499 0.363355 0.153491
Si Si5 0.403554 0.855407 0.388863
Si Si6 0.835334 0.193615 0.348407
O O1 0.260234 0.726937 0.792408
O O2 0.248298 0.630676 0.858544
O O3 0.336469 0.671501 0.480021
O O4 0.058779 0.658849 0.045018
O O5 0.500000 0.761323 0.500000
O O6 0.400256 0.812656 0.500294
O O7 0.237254 0.810155 0.977441
O O8 0.500000 0.927326 0.500000
O O9 0.608582 0.910290 0.519278
O O10 0.662731 0.000000 0.307021
O O11 0.780702 0.908983 0.019682
O O12 0.500000 0.360114 0.500000
O O13 0.262388 0.845071 0.558077
O O14 0.750000 0.250000 0.500000
O O15 0.000000 0.200497 0.000000
#
# Coordination Sequence:
#
# PCOD9212806 Si02
#       6
#     8   8   8   8   8   8
#     4  12  23  37  58  85 127 170 203 251 296 369
#     4  11  22  36  56  86 130 169 201 244 302 378
#     4  10  21  44  71  93 122 158 203 266 324 374
#     4  11  23  34  58  97 126 159 200 253 314 372
#     4  11  22  41  61  89 124 162 217 248 307 367
#     4  12  27  40  58  86 125 178 214 250 295 360
#
# _framework density 18.867722000000001
#
# number of rings (size 3 to 8) (size 9 to 14) (size 15 to 20)
#    0.000    0.833    5.000    3.500    7.000    0.333 
#    0.000    0.000    0.000    3.500    0.000    0.000 
#    0.000    0.000    0.000    0.000    0.000    0.000 
#
# Total GULP energy -134023.102486 kJ/mol
# GULP energy per Si atom -5584.295937 kJ/mol
# Density = 1.882478 g / cm^3
# Si number density = 18.867722 Si / 1000 Ang^3
#
#
#
# Elastic Constant Matrix: (Units=GPa)
#
#
# Indices 1 2 3 4 5 6 
#
# 1 81.8226 30.4950 25.2159 -0.0055 8.9138 0.0020
# 2 30.4950 89.5195 36.0759 -0.0032 1.1365 0.0003
# 3 25.2159 36.0759 154.0660 -0.0180 7.3393 0.0074
# 4 -0.0055 -0.0032 -0.0180 11.9509 0.0098 -3.0734
# 5 8.9138 1.1365 7.3393 0.0098 36.6316 -0.0048
# 6 0.0020 0.0003 0.0074 -3.0734 -0.0048 16.4249
#
#
#
# Elastic Compliance Matrix: (Units=1/GPa)
#
#
# Indices 1 2 3 4 5 6 
#
# 1 0.014594 -0.004449 -0.001196 0.000006 -0.003174 -0.000001
# 2 -0.004449 0.013693 -0.002534 -0.000003 0.001165 0.000001
# 3 -0.001196 -0.002534 0.007332 0.000010 -0.001099 -0.000001
# 4 0.000006 -0.000003 0.000010 0.087906 -0.000025 0.016449
# 5 -0.003174 0.001165 -0.001099 -0.000025 0.028255 0.000004
# 6 -0.000001 0.000001 -0.000001 0.016449 0.000004 0.063961
#
#
# Mechanical properties :
#
#
# Convention : Reuss Voigt Hill
#
# Bulk Modulus (GPa) = 51.91639 56.55351 54.23495
# Shear Modulus (GPa) = 20.96273 28.57623 24.76948
#
# Velocity S-wave (km/s) = 3.33684 3.89595 3.62718
# Velocity P-wave (km/s) = 6.51319 7.09060 6.80802
#
# Compressibility (1/GPa) = 0.01926174
#
# Stress axis : x y z
#
# Youngs Moduli (GPa) = 68.52122 73.03193 136.38794
#
# Poissons Ratio (x) = 0.32495 0.16306
# Poissons Ratio (y) = 0.30488 0.34554
# Poissons Ratio (z) = 0.08192 0.18503
#
# Static dielectric constant tensor:
#      x y z
#    x 1.704020 0.000000 -0.012750 
#    y 0.000000 1.648340 0.000000 
#    z -0.012750 0.000000 1.719420 
# 
# From -- ./inp_files/123504.got.cif
#   From: 2010.05.17/outbox.cif.g08.bks.cpg/sg12_62_cif.got.tgz:123504.got - 2010.06.03 13:09:07.
