data_PCOD9212580
_publ_section_title
;
Structure prediction by ZEFSAII (Michael W. Deem and Ramdas Pophale) SiO2 
 PCOD9212580
Probable space group: C 2/M
;
_chemical_formula_sum "Si O2"
_cell_formula_units_Z 48
_cell_length_a 13.689348
_cell_length_b 11.094736
_cell_length_c 25.813408
_cell_angle_alpha 90.000000
_cell_angle_beta 143.404744
_cell_angle_gamma 90.000000
_cell_volume 2337.258515
_symmetry_space_group_name_H-M "C 2/M"
_symmetry_group_IT_number 12
_symmetry_cell_setting 'monoclinic'
loop_
_space_group_symop_operation_xyz
x,y,z
-x,y,-z
-x,-y,-z
x,-y,z
1/2+x,1/2+y,z
1/2-x,1/2+y,-z
1/2-x,1/2-y,-z
1/2+x,1/2-y,z
loop_
_atom_site_type_symbol
_atom_site_label
_atom_site_fract_x
_atom_site_fract_y
_atom_site_fract_z
Si Si1 0.422334 0.362218 0.893425
Si Si2 0.725773 0.500000 0.781128
Si Si3 0.443072 0.733999 0.416004
Si Si4 0.457678 0.000000 0.543363
Si Si5 0.119585 0.712323 0.218898
Si Si6 0.083437 0.000000 0.417798
Si Si7 0.691176 0.000000 0.067115
Si Si8 0.254257 0.734027 0.922076
O O1 0.388137 0.500000 0.891193
O O2 0.379217 0.331605 0.816125
O O3 0.321757 0.283358 0.892347
O O4 0.612806 0.333634 0.986092
O O5 0.819148 0.612197 0.795462
O O6 0.541497 0.500000 0.682838
O O7 0.721456 0.500000 0.840386
O O8 0.500000 0.732473 0.500000
O O9 0.250312 0.713286 0.321260
O O10 0.539532 0.622610 0.430430
O O11 0.478531 0.869412 0.410027
O O12 0.500000 0.000000 0.500000
O O13 0.266289 0.000000 0.474938
O O14 0.931970 0.690750 0.154482
O O15 0.734252 0.124919 0.058588
O O16 0.500000 0.000000 0.000000
#
# Coordination Sequence:
#
# PCOD9212580 Si02
#       8
#     8   4   8   4   8   4   4   8
#     4  11  24  42  60  91 130 162 210 257 315 376
#     4  10  22  41  64  90 122 160 215 261 297 378
#     4  10  23  43  65  96 129 165 215 263 316 380
#     4  10  22  41  65  94 130 163 207 260 318 379
#     4  11  24  42  64  94 125 165 213 257 313 372
#     4  10  21  42  68  91 126 169 211 263 320 367
#     4  12  20  38  59  84 124 159 212 257 305 371
#     4  11  23  40  63  90 123 171 204 261 313 365
#
# _framework density 20.536881999999999
#
# number of rings (size 3 to 8) (size 9 to 14) (size 15 to 20)
#    0.000    1.333    3.333    2.250    4.667    2.667 
#    3.000    0.000    0.000    0.000    0.000    0.000 
#    0.000    0.000    0.000    0.000    0.000    0.000 
#
# Total GULP energy -133988.996633 kJ/mol
# GULP energy per Si atom -5582.874860 kJ/mol
# Density = 2.049014 g / cm^3
# Si number density = 20.536882 Si / 1000 Ang^3
#
#
#
# Elastic Constant Matrix: (Units=GPa)
#
#
# Indices 1 2 3 4 5 6 
#
# 1 62.5373 -2.1139 47.7970 0.0000 11.0337 0.0000
# 2 -2.1139 101.7640 -4.4465 0.0000 4.2614 0.0000
# 3 47.7970 -4.4465 91.0383 0.0000 6.6273 0.0000
# 4 0.0000 0.0000 0.0000 23.0071 0.0000 -1.9793
# 5 11.0337 4.2614 6.6273 0.0000 41.5165 0.0000
# 6 0.0000 0.0000 0.0000 -1.9793 0.0000 -11.8191
#
#
#
# Elastic Compliance Matrix: (Units=1/GPa)
#
#
# Indices 1 2 3 4 5 6 
#
# 1 0.027741 0.000171 -0.014183 0.000000 -0.005126 0.000000
# 2 0.000171 0.009899 0.000476 0.000000 -0.001138 0.000000
# 3 -0.014183 0.000476 0.018397 0.000000 0.000784 0.000000
# 4 0.000000 0.000000 0.000000 0.042848 0.000000 -0.007175
# 5 -0.005126 -0.001138 0.000784 0.000000 0.025441 0.000000
# 6 0.000000 0.000000 0.000000 -0.007175 0.000000 -0.083407
#
#
# Mechanical properties :
#
#
# Convention : Reuss Voigt Hill
#
# Bulk Modulus (GPa) = 34.52370 37.53475 36.02923
# Shear Modulus (GPa) = 64.39710 24.81442 44.60576
#
# Velocity S-wave (km/s) = 5.60579 3.47981 4.66551
# Velocity P-wave (km/s) = 7.66465 5.87042 6.82674
#
# Compressibility (1/GPa) = 0.02896561
#
# Stress axis : x y z
#
# Youngs Moduli (GPa) = 36.04833 101.02369 54.35699
#
# Poissons Ratio (x) = -0.01729 0.77094
# Poissons Ratio (y) = -0.00617 -0.02590
# Poissons Ratio (z) = 0.51127 -0.04813
#
# Static dielectric constant tensor:
#      x y z
#    x 1.727950 0.000000 -0.004900 
#    y 0.000000 1.767500 0.000000 
#    z -0.004900 0.000000 1.666500 
# 
# From -- ./inp_files/361115.got.cif
#   From: 2010.05.17/outbox.cif.g08.bks.cpg/sg12_181_cif.got.tgz:361115.got - 2010.06.03 13:09:07.
