data_PCOD9212066
_publ_section_title
;
Structure prediction by ZEFSAII (Michael W. Deem and Ramdas Pophale) SiO2 
 PCOD9212066
Probable space group: C 2/M
;
_chemical_formula_sum "Si O2"
_cell_formula_units_Z 64
_cell_length_a 8.718962
_cell_length_b 31.863200
_cell_length_c 12.867115
_cell_angle_alpha 90.000000
_cell_angle_beta 52.408192
_cell_angle_gamma 90.000000
_cell_volume 2832.481929
_symmetry_space_group_name_H-M "C 2/M"
_symmetry_group_IT_number 12
_symmetry_cell_setting 'monoclinic'
loop_
_space_group_symop_operation_xyz
x,y,z
-x,y,-z
-x,-y,-z
x,-y,z
1/2+x,1/2+y,z
1/2-x,1/2+y,-z
1/2-x,1/2-y,-z
1/2+x,1/2-y,z
loop_
_atom_site_type_symbol
_atom_site_label
_atom_site_fract_x
_atom_site_fract_y
_atom_site_fract_z
Si Si1 0.205850 0.953024 0.474506
Si Si2 0.552748 0.548434 0.769447
Si Si3 0.880364 0.286305 0.396001
Si Si4 0.795720 0.387974 0.120058
Si Si5 0.414102 0.687167 0.861425
Si Si6 0.609834 0.870855 0.684169
Si Si7 0.663859 0.375622 0.843136
Si Si8 0.782465 0.749839 0.220675
O O1 0.167135 0.950684 0.613357
O O2 0.344417 0.916109 0.381744
O O3 0.000000 0.947699 0.500000
O O4 0.276919 0.000000 0.419669
O O5 0.519685 0.500000 0.810918
O O6 0.357882 0.575072 0.830868
O O7 0.659431 0.575890 0.812589
O O8 0.750000 0.250000 0.500000
O O9 0.815684 0.334591 0.425916
O O10 0.863286 0.278272 0.279834
O O11 0.101069 0.277537 0.336900
O O12 0.755155 0.347546 0.062806
O O13 0.799481 0.371901 0.237620
O O14 0.000000 0.405241 0.000000
O O15 0.587832 0.652520 0.776777
O O16 0.315846 0.719539 0.822045
O O17 0.538928 0.719608 0.879881
O O18 0.379152 0.863649 0.785822
O O19 0.500000 0.368092 0.000000
#
# Coordination Sequence:
#
# PCOD9212066 Si02
#       8
#     8   8   8   8   8   8   8   8
#     4  10  22  42  70 103 139 180 231 289 341 419
#     4  10  23  46  69  98 143 182 223 286 351 411
#     4  11  23  38  61  96 135 176 225 283 332 397
#     4  11  23  42  70 101 135 179 235 291 343 413
#     4  10  21  42  66  87 131 172 222 282 338 393
#     4  12  23  42  71 103 136 187 236 280 359 413
#     4  11  25  46  70 101 142 180 229 290 344 419
#     4  10  21  41  62  87 130 178 225 276 333 401
#
# _framework density 22.595023999999999
#
# number of rings (size 3 to 8) (size 9 to 14) (size 15 to 20)
#    0.000    1.375    3.750    1.875    0.000    6.500 
#    2.250    4.375    0.000    0.000    0.000    0.000 
#    0.000    0.000    0.000    0.000    0.000    0.000 
#
# Total GULP energy -178256.995855 kJ/mol
# GULP energy per Si atom -5570.531120 kJ/mol
# Density = 2.254360 g / cm^3
# Si number density = 22.595024 Si / 1000 Ang^3
#
#
#
# Elastic Constant Matrix: (Units=GPa)
#
#
# Indices 1 2 3 4 5 6 
#
# 1 83.1921 34.0174 10.9469 0.0000 -11.3087 0.0000
# 2 34.0174 161.8086 34.1804 0.0000 1.7334 0.0000
# 3 10.9469 34.1804 52.4561 0.0000 1.4484 0.0000
# 4 0.0000 0.0000 0.0000 6.1332 0.0000 1.2768
# 5 -11.3087 1.7334 1.4484 0.0000 11.9793 0.0000
# 6 0.0000 0.0000 0.0000 1.2768 0.0000 35.5745
#
#
#
# Elastic Compliance Matrix: (Units=1/GPa)
#
#
# Indices 1 2 3 4 5 6 
#
# 1 0.015592 -0.003091 -0.001664 0.000000 0.015368 0.000000
# 2 -0.003091 0.007782 -0.004328 0.000000 -0.003521 0.000000
# 3 -0.001664 -0.004328 0.022332 0.000000 -0.003645 0.000000
# 4 0.000000 0.000000 0.000000 0.164276 0.000000 -0.005896
# 5 0.015368 -0.003521 -0.003645 0.000000 0.098935 0.000000
# 6 0.000000 0.000000 0.000000 -0.005896 0.000000 0.028322
#
#
# Mechanical properties :
#
#
# Convention : Reuss Voigt Hill
#
# Bulk Modulus (GPa) = 36.31222 50.63846 43.47534
# Shear Modulus (GPa) = 13.71418 25.29155 19.50287
#
# Velocity S-wave (km/s) = 2.46632 3.34929 2.94113
# Velocity P-wave (km/s) = 4.92099 6.11694 5.55126
#
# Compressibility (1/GPa) = 0.02753894
#
# Stress axis : x y z
#
# Youngs Moduli (GPa) = 64.13399 128.50066 44.77896
#
# Poissons Ratio (x) = 0.39721 0.07452
# Poissons Ratio (y) = 0.19825 0.19383
# Poissons Ratio (z) = 0.10672 0.55621
#
# Static dielectric constant tensor:
#      x y z
#    x 1.888100 0.000000 0.056900 
#    y 0.000000 1.864670 0.000000 
#    z 0.056900 0.000000 1.881810 
# 
# From -- ./inp_files/201275.got.cif
#   From: 2010.05.17/outbox.cif.g08.bks.cpg/sg12_101_cif.got.tgz:201275.got - 2010.06.03 13:09:07.
