data_PCOD9212415
_publ_section_title
;
Structure prediction by ZEFSAII (Michael W. Deem and Ramdas Pophale) SiO2 
 PCOD9212415
Probable space group: C 2/M
;
_chemical_formula_sum "Si O2"
_cell_formula_units_Z 52
_cell_length_a 30.613920
_cell_length_b 19.297201
_cell_length_c 9.795125
_cell_angle_alpha 90.000000
_cell_angle_beta 25.376725
_cell_angle_gamma 90.000000
_cell_volume 2479.951164
_symmetry_space_group_name_H-M "C 2/M"
_symmetry_group_IT_number 12
_symmetry_cell_setting 'monoclinic'
loop_
_space_group_symop_operation_xyz
x,y,z
-x,y,-z
-x,-y,-z
x,-y,z
1/2+x,1/2+y,z
1/2-x,1/2+y,-z
1/2-x,1/2-y,-z
1/2+x,1/2-y,z
loop_
_atom_site_type_symbol
_atom_site_label
_atom_site_fract_x
_atom_site_fract_y
_atom_site_fract_z
Si Si1 0.434547 0.500000 0.846097
Si Si2 0.316001 0.118428 0.764807
Si Si3 0.823431 0.857913 0.085829
Si Si4 0.839608 0.000000 0.706380
Si Si5 0.028796 0.577477 0.074170
Si Si6 0.780440 0.643618 0.342054
Si Si7 0.617541 0.782351 0.191332
Si Si8 0.176609 0.000000 0.558691
O O1 0.383279 0.430286 0.931456
O O2 0.403866 0.500000 0.092245
O O3 0.443266 0.500000 0.501073
O O4 0.278354 0.131495 0.716783
O O5 0.424669 0.080709 0.452465
O O6 0.338189 0.186557 0.792945
O O7 0.230086 0.067424 0.067661
O O8 0.794768 0.835123 0.321840
O O9 0.881857 0.800024 0.833451
O O10 0.866459 0.000000 0.471253
O O11 0.073494 0.500000 0.954322
O O12 0.000000 0.591070 0.000000
O O13 0.110136 0.631063 0.898545
O O14 0.741908 0.569655 0.395172
O O15 0.804042 0.691292 0.146567
O O16 0.500000 0.806447 0.500000
#
# Coordination Sequence:
#
# PCOD9212415 Si02
#       8
#     4   8   8   4   8   8   8   4
#     4  10  26  46  74  94 123 178 234 279 318 378
#     4  12  24  40  67  98 136 174 209 274 335 386
#     4  11  26  46  66  95 127 175 230 267 327 390
#     4  12  24  41  68 101 140 166 221 278 335 383
#     4  11  21  35  64 103 132 162 211 265 320 393
#     4  11  21  42  69  94 131 174 214 268 325 399
#     4  12  26  42  65  95 138 175 213 271 334 392
#     4  10  21  41  70 100 131 173 213 275 332 400
#
# _framework density 20.968153999999998
#
# number of rings (size 3 to 8) (size 9 to 14) (size 15 to 20)
#    0.000    0.769    6.154    1.615    2.154    0.615 
#    0.000    2.308    0.000    0.000    0.000    0.000 
#    0.000    0.000    0.000    0.000    0.000    0.000 
#
# Total GULP energy -145178.571528 kJ/mol
# GULP energy per Si atom -5583.791213 kJ/mol
# Density = 2.092043 g / cm^3
# Si number density = 20.968154 Si / 1000 Ang^3
#
#
#
# Elastic Constant Matrix: (Units=GPa)
#
#
# Indices 1 2 3 4 5 6 
#
# 1 81.6249 21.0626 26.4735 0.0000 5.6541 0.0000
# 2 21.0626 77.7016 31.1258 0.0000 0.6902 0.0000
# 3 26.4735 31.1258 83.2957 0.0000 -5.7682 0.0000
# 4 0.0000 0.0000 0.0000 22.7245 0.0000 6.8034
# 5 5.6541 0.6902 -5.7682 0.0000 39.0407 0.0000
# 6 0.0000 0.0000 0.0000 6.8034 0.0000 23.1393
#
#
#
# Elastic Compliance Matrix: (Units=1/GPa)
#
#
# Indices 1 2 3 4 5 6 
#
# 1 0.014276 -0.002302 -0.003857 0.000000 -0.002597 0.000000
# 2 -0.002302 0.015555 -0.005129 0.000000 -0.000700 0.000000
# 3 -0.003857 -0.005129 0.015350 0.000000 0.002917 0.000000
# 4 0.000000 0.000000 0.000000 0.048253 0.000000 -0.014187
# 5 -0.002597 -0.000700 0.002917 0.000000 0.026434 0.000000
# 6 0.000000 0.000000 0.000000 -0.014187 0.000000 0.047388
#
#
# Mechanical properties :
#
#
# Convention : Reuss Voigt Hill
#
# Bulk Modulus (GPa) = 44.23891 44.43844 44.33867
# Shear Modulus (GPa) = 25.33367 27.91158 26.62262
#
# Velocity S-wave (km/s) = 3.47968 3.65244 3.56711
# Velocity P-wave (km/s) = 6.10641 6.24711 6.17716
#
# Compressibility (1/GPa) = 0.02260454
#
# Stress axis : x y z
#
# Youngs Moduli (GPa) = 70.04818 64.28974 65.14656
#
# Poissons Ratio (x) = 0.14797 0.25127
# Poissons Ratio (y) = 0.16123 0.33416
# Poissons Ratio (z) = 0.27017 0.32976
#
# Static dielectric constant tensor:
#      x y z
#    x 1.736760 0.000000 0.017310 
#    y 0.000000 1.767740 0.000000 
#    z 0.017310 0.000000 1.776970 
# 
# From -- ./inp_files/76784.got.cif
#   From: 2010.05.17/outbox.cif.g08.bks.cpg/sg12_39_cif.got.tgz:76784.got - 2010.06.03 13:09:07.
