data_PCOD9212664
_publ_section_title
;
Structure prediction by ZEFSAII (Michael W. Deem and Ramdas Pophale) SiO2 
 PCOD9212664
Probable space group: C 2/M
;
_chemical_formula_sum "Si O2"
_cell_formula_units_Z 48
_cell_length_a 17.830122
_cell_length_b 17.819039
_cell_length_c 14.945356
_cell_angle_alpha 90.000000
_cell_angle_beta 154.873087
_cell_angle_gamma 90.000000
_cell_volume 2016.276794
_symmetry_space_group_name_H-M "C 2/M"
_symmetry_group_IT_number 12
_symmetry_cell_setting 'monoclinic'
loop_
_space_group_symop_operation_xyz
x,y,z
-x,y,-z
-x,-y,-z
x,-y,z
1/2+x,1/2+y,z
1/2-x,1/2+y,-z
1/2-x,1/2-y,-z
1/2+x,1/2-y,z
loop_
_atom_site_type_symbol
_atom_site_label
_atom_site_fract_x
_atom_site_fract_y
_atom_site_fract_z
Si Si1 0.634066 0.855472 0.834467
Si Si2 0.257923 0.839855 0.494594
Si Si3 0.073189 0.084256 0.961021
Si Si4 0.206311 0.141281 0.637679
Si Si5 0.198806 0.298419 0.729286
Si Si6 0.198809 0.912912 0.813797
O O1 0.423717 0.858852 0.611260
O O2 0.695081 0.787324 0.834386
O O3 0.690886 0.864292 0.997798
O O4 0.752528 0.918445 0.914468
O O5 0.250000 0.750000 0.500000
O O6 0.079840 0.872646 0.258852
O O7 0.284316 0.870364 0.624023
O O8 0.018085 0.000000 0.922723
O O9 0.158601 0.136613 0.130325
O O10 0.271733 0.092660 0.791636
O O11 0.227624 0.226122 0.699122
O O12 0.998709 0.121583 0.402148
O O13 0.000000 0.326019 0.500000
O O14 0.188653 0.000000 0.828444
#
# Coordination Sequence:
#
# PCOD9212664 Si02
#       6
#     8   8   8   8   8   8
#     4  10  25  44  72 103 142 187 238 290 353 427
#     4  12  27  43  74 109 143 186 240 296 353 421
#     4  10  25  48  73 100 142 189 233 291 358 420
#     4  11  22  40  70 104 142 184 227 294 350 421
#     4  10  21  42  73 101 137 184 239 286 355 420
#     4  11  23  42  71 103 138 187 233 284 357 425
#
# _framework density 23.806256000000001
#
# number of rings (size 3 to 8) (size 9 to 14) (size 15 to 20)
#    1.000    0.333    3.333    2.500    2.333    4.333 
#    0.000    3.333    0.000    4.000    0.000    0.000 
#    0.000    0.000    0.000    0.000    0.000    0.000 
#
# Total GULP energy -133855.216111 kJ/mol
# GULP energy per Si atom -5577.300671 kJ/mol
# Density = 2.375207 g / cm^3
# Si number density = 23.806256 Si / 1000 Ang^3
#
#
#
# Elastic Constant Matrix: (Units=GPa)
#
#
# Indices 1 2 3 4 5 6 
#
# 1 115.6118 11.4435 13.8985 -0.0001 -4.9478 0.0000
# 2 11.4435 151.8889 75.4875 0.0000 -5.0776 0.0000
# 3 13.8985 75.4875 91.9343 -0.0002 -4.6416 -0.0002
# 4 -0.0001 0.0000 -0.0002 16.4932 -0.0001 -4.7731
# 5 -4.9478 -5.0776 -4.6416 -0.0001 43.8401 -0.0001
# 6 0.0000 0.0000 -0.0002 -4.7731 -0.0001 19.7111
#
#
#
# Elastic Compliance Matrix: (Units=1/GPa)
#
#
# Indices 1 2 3 4 5 6 
#
# 1 0.008842 0.000009 -0.001301 0.000000 0.000861 0.000000
# 2 0.000009 0.011127 -0.009122 0.000000 0.000324 0.000000
# 3 -0.001301 -0.009122 0.018603 0.000000 0.000766 0.000000
# 4 0.000000 0.000000 0.000000 0.065200 0.000000 0.015789
# 5 0.000861 0.000324 0.000766 0.000000 0.023026 0.000000
# 6 0.000000 0.000000 0.000000 0.015789 0.000000 0.054556
#
#
# Mechanical properties :
#
#
# Convention : Reuss Voigt Hill
#
# Bulk Modulus (GPa) = 56.35334 62.34379 59.34857
# Shear Modulus (GPa) = 24.02737 33.24923 28.63830
#
# Velocity S-wave (km/s) = 3.18038 3.74124 3.47215
# Velocity P-wave (km/s) = 6.09995 6.70130 6.40768
#
# Compressibility (1/GPa) = 0.01774518
#
# Stress axis : x y z
#
# Youngs Moduli (GPa) = 113.09705 89.86894 53.75620
#
# Poissons Ratio (x) = -0.00081 0.06992
# Poissons Ratio (y) = -0.00102 0.49035
# Poissons Ratio (z) = 0.14710 0.81976
#
# Static dielectric constant tensor:
#      x y z
#    x 2.047220 0.000000 0.002800 
#    y 0.000000 1.914050 0.000000 
#    z 0.002800 0.000000 1.920550 
# 
# From -- ./inp_files/285938.got.cif
#   From: 2010.05.17/outbox.cif.g08.bks.cpg/sg12_143_cif.got.tgz:285938.got - 2010.06.03 13:09:07.
