data_PCOD9212841
_publ_section_title
;
Structure prediction by ZEFSAII (Michael W. Deem and Ramdas Pophale) SiO2 
 PCOD9212841
Probable space group: C 2/M
;
_chemical_formula_sum "Si O2"
_cell_formula_units_Z 56
_cell_length_a 9.931110
_cell_length_b 27.153365
_cell_length_c 15.062574
_cell_angle_alpha 90.000000
_cell_angle_beta 121.869550
_cell_angle_gamma 90.000000
_cell_volume 3449.510174
_symmetry_space_group_name_H-M "C 2/M"
_symmetry_group_IT_number 12
_symmetry_cell_setting 'monoclinic'
loop_
_space_group_symop_operation_xyz
x,y,z
-x,y,-z
-x,-y,-z
x,-y,z
1/2+x,1/2+y,z
1/2-x,1/2+y,-z
1/2-x,1/2-y,-z
1/2+x,1/2-y,z
loop_
_atom_site_type_symbol
_atom_site_label
_atom_site_fract_x
_atom_site_fract_y
_atom_site_fract_z
Si Si1 0.057501 0.943192 0.166932
Si Si2 0.259221 0.056755 0.057356
Si Si3 0.335770 0.211151 0.239345
Si Si4 0.045888 0.346994 0.883490
Si Si5 0.236911 0.306985 0.113069
Si Si6 0.418071 0.277988 0.566035
Si Si7 0.084475 0.154883 0.272754
O O1 0.177085 0.935839 0.125226
O O2 0.089122 0.902896 0.252825
O O3 0.071237 0.000000 0.200408
O O4 0.882371 0.936314 0.063299
O O5 0.393493 0.097194 0.090005
O O6 0.312533 0.000000 0.070438
O O7 0.423564 0.174821 0.202505
O O8 0.236873 0.251029 0.147467
O O9 0.463046 0.242187 0.339103
O O10 0.221185 0.181779 0.264549
O O11 0.867736 0.338724 0.854285
O O12 0.154191 0.315681 0.990053
O O13 0.416717 0.325278 0.176950
O O14 0.500000 0.287851 0.500000
O O15 0.250000 0.250000 0.500000
O O16 0.401683 0.326593 0.621369
#
# Coordination Sequence:
#
# PCOD9212841 Si02
#       7
#     8   8   8   8   8   8   8
#     4   9  17  32  53  80 105 137 186 224 254 308
#     4   9  17  31  52  75 106 146 184 220 254 300
#     4  11  22  35  55  76 104 144 184 212 259 324
#     4  11  20  34  48  75 113 148 177 216 259 310
#     4  10  22  32  45  77 115 147 176 212 258 317
#     4  11  23  40  56  80 108 136 177 225 273 328
#     4  11  20  35  57  80 102 142 181 221 271 312
#
# _framework density 16.234190000000002
#
# number of rings (size 3 to 8) (size 9 to 14) (size 15 to 20)
#    0.000    1.714    4.286    3.000    2.000    1.714 
#    0.000    2.143    0.000    0.429    0.000    3.000 
#    0.000    0.000    0.000    0.000    0.000    0.000 
#
# Total GULP energy -156231.316533 kJ/mol
# GULP energy per Si atom -5579.689876 kJ/mol
# Density = 1.619724 g / cm^3
# Si number density = 16.234190 Si / 1000 Ang^3
#
#
#
# Elastic Constant Matrix: (Units=GPa)
#
#
# Indices 1 2 3 4 5 6 
#
# 1 90.2112 35.2643 29.8458 0.0000 -13.0597 0.0000
# 2 35.2643 114.4643 36.8510 0.0000 -13.4165 0.0000
# 3 29.8458 36.8510 64.7614 0.0000 -16.7852 0.0000
# 4 0.0000 0.0000 0.0000 22.5335 0.0000 0.1226
# 5 -13.0597 -13.4165 -16.7852 0.0000 26.4981 0.0000
# 6 0.0000 0.0000 0.0000 0.1226 0.0000 11.6274
#
#
#
# Elastic Compliance Matrix: (Units=1/GPa)
#
#
# Indices 1 2 3 4 5 6 
#
# 1 0.013902 -0.002599 -0.004179 0.000000 0.002888 0.000000
# 2 -0.002599 0.011259 -0.004862 0.000000 0.001340 0.000000
# 3 -0.004179 -0.004862 0.022687 0.000000 0.009849 0.000000
# 4 0.000000 0.000000 0.000000 0.044381 0.000000 -0.000468
# 5 0.002888 0.001340 0.009849 0.000000 0.046080 0.000000
# 6 0.000000 0.000000 0.000000 -0.000468 0.000000 0.086009
#
#
# Mechanical properties :
#
#
# Convention : Reuss Voigt Hill
#
# Bulk Modulus (GPa) = 40.70348 52.59545 46.64947
# Shear Modulus (GPa) = 19.54752 23.29683 21.42217
#
# Velocity S-wave (km/s) = 3.47377 3.79231 3.63653
# Velocity P-wave (km/s) = 6.42001 7.18636 6.81397
#
# Compressibility (1/GPa) = 0.02456793
#
# Stress axis : x y z
#
# Youngs Moduli (GPa) = 71.93283 88.81532 44.07868
#
# Poissons Ratio (x) = 0.23082 0.18422
# Poissons Ratio (y) = 0.18694 0.21430
# Poissons Ratio (z) = 0.30063 0.43180
#
# Static dielectric constant tensor:
#      x y z
#    x 1.547840 0.000000 -0.010950 
#    y 0.000000 1.541480 0.000000 
#    z -0.010950 0.000000 1.529240 
# 
# From -- ./inp_files/199939.got.cif
#   From: 2010.05.17/outbox.cif.g08.bks.cpg/sg12_100_cif.got.tgz:199939.got - 2010.06.03 13:09:07.
