data_PCOD9212268
_publ_section_title
;
Structure prediction by ZEFSAII (Michael W. Deem and Ramdas Pophale) SiO2 
 PCOD9212268
Probable space group: C 2/M
;
_chemical_formula_sum "Si O2"
_cell_formula_units_Z 52
_cell_length_a 14.634990
_cell_length_b 19.897128
_cell_length_c 11.792209
_cell_angle_alpha 90.000000
_cell_angle_beta 50.213664
_cell_angle_gamma 90.000000
_cell_volume 2638.674272
_symmetry_space_group_name_H-M "C 2/M"
_symmetry_group_IT_number 12
_symmetry_cell_setting 'monoclinic'
loop_
_space_group_symop_operation_xyz
x,y,z
-x,y,-z
-x,-y,-z
x,-y,z
1/2+x,1/2+y,z
1/2-x,1/2+y,-z
1/2-x,1/2-y,-z
1/2+x,1/2-y,z
loop_
_atom_site_type_symbol
_atom_site_label
_atom_site_fract_x
_atom_site_fract_y
_atom_site_fract_z
Si Si1 0.331293 0.500000 0.048515
Si Si2 0.265564 0.814501 0.411959
Si Si3 0.505771 0.631671 0.627382
Si Si4 0.794004 0.361819 0.906474
Si Si5 0.536880 0.875785 0.589619
Si Si6 0.270188 0.715280 0.823517
Si Si7 0.533110 0.500000 0.737750
Si Si8 0.294569 0.000000 0.607364
O O1 0.286694 0.428262 0.033128
O O2 0.269510 0.500000 0.220425
O O3 0.471720 0.500000 0.909256
O O4 0.250000 0.750000 0.500000
O O5 0.381751 0.845811 0.375535
O O6 0.268032 0.799848 0.275412
O O7 0.143333 0.852141 0.537012
O O8 0.500000 0.615981 0.500000
O O9 0.408809 0.690614 0.726978
O O10 0.483248 0.565376 0.715573
O O11 0.756080 0.294375 0.865137
O O12 0.914690 0.387465 0.752345
O O13 0.799562 0.330450 0.028955
O O14 0.500000 0.837961 0.500000
O O15 0.618048 0.937066 0.480332
O O16 0.676875 0.500000 0.621707
#
# Coordination Sequence:
#
# PCOD9212268 Si02
#       8
#     4   8   8   8   8   8   4   4
#     4  12  24  43  69  94 132 178 228 275 352 407
#     4  11  23  39  66  99 130 176 226 280 337 407
#     4  10  21  41  66  96 129 170 220 276 342 401
#     4  11  23  42  69  97 135 186 219 277 346 414
#     4  12  23  41  66  92 135 177 230 279 338 401
#     4  10  23  43  67 100 141 173 228 281 343 410
#     4  12  22  41  68  97 129 174 220 285 339 409
#     4  12  25  43  64 100 131 173 237 293 335 404
#
# _framework density 19.706865000000001
#
# number of rings (size 3 to 8) (size 9 to 14) (size 15 to 20)
#    0.000    0.923    4.615    3.000    0.000    1.846 
#    0.000    0.769    0.000    1.846    0.000    0.000 
#    0.000    0.000    0.000    0.000    0.000    0.000 
#
# Total GULP energy -144755.250828 kJ/mol
# GULP energy per Si atom -5567.509647 kJ/mol
# Density = 1.966201 g / cm^3
# Si number density = 19.706865 Si / 1000 Ang^3
#
#
#
# Elastic Constant Matrix: (Units=GPa)
#
#
# Indices 1 2 3 4 5 6 
#
# 1 69.2973 31.0955 16.5151 0.0000 -11.9170 0.0000
# 2 31.0955 112.8399 35.2071 0.0000 11.6343 0.0000
# 3 16.5151 35.2071 131.3286 0.0000 -7.4185 0.0000
# 4 0.0000 0.0000 0.0000 6.5296 0.0000 5.9604
# 5 -11.9170 11.6343 -7.4185 0.0000 28.4479 0.0000
# 6 0.0000 0.0000 0.0000 5.9604 0.0000 3.3527
#
#
#
# Elastic Compliance Matrix: (Units=1/GPa)
#
#
# Indices 1 2 3 4 5 6 
#
# 1 0.019109 -0.006320 -0.000112 0.000000 0.010560 0.000000
# 2 -0.006320 0.012423 -0.003017 0.000000 -0.008515 0.000000
# 3 -0.000112 -0.003017 0.008631 0.000000 0.003437 0.000000
# 4 0.000000 0.000000 0.000000 -0.245897 0.000000 0.437152
# 5 0.010560 -0.008515 0.003437 0.000000 0.043954 0.000000
# 6 0.000000 0.000000 0.000000 0.437152 0.000000 -0.478897
#
#
# Mechanical properties :
#
#
# Convention : Reuss Voigt Hill
#
# Bulk Modulus (GPa) = 47.02295 53.23346 50.12821
# Shear Modulus (GPa) = -8.13419 23.04257 7.45419
#
# Velocity S-wave (km/s) = -2.03385 3.42316 1.94698
# Velocity P-wave (km/s) = 4.28924 6.53417 5.52689
#
# Compressibility (1/GPa) = 0.02126621
#
# Stress axis : x y z
#
# Youngs Moduli (GPa) = 52.33073 80.49755 115.85497
#
# Poissons Ratio (x) = 0.50872 0.01301
# Poissons Ratio (y) = 0.33072 0.34948
# Poissons Ratio (z) = 0.00588 0.24283
#
# Static dielectric constant tensor:
#      x y z
#    x 1.620160 0.000000 0.041190 
#    y 0.000000 1.589710 0.000000 
#    z 0.041190 0.000000 1.671410 
# 
# From -- ./inp_files/147577.got.cif
#   From: 2010.05.17/outbox.cif.g08.bks.cpg/sg12_74_cif.got.tgz:147577.got - 2010.06.03 13:09:07.
