data_PCOD9212853
_publ_section_title
;
Structure prediction by ZEFSAII (Michael W. Deem and Ramdas Pophale) SiO2 
 PCOD9212853
Probable space group: C 2/M
;
_chemical_formula_sum "Si O2"
_cell_formula_units_Z 56
_cell_length_a 8.770319
_cell_length_b 18.527650
_cell_length_c 27.113802
_cell_angle_alpha 90.000000
_cell_angle_beta 130.310270
_cell_angle_gamma 90.000000
_cell_volume 3359.663887
_symmetry_space_group_name_H-M "C 2/M"
_symmetry_group_IT_number 12
_symmetry_cell_setting 'monoclinic'
loop_
_space_group_symop_operation_xyz
x,y,z
-x,y,-z
-x,-y,-z
x,-y,z
1/2+x,1/2+y,z
1/2-x,1/2+y,-z
1/2-x,1/2-y,-z
1/2+x,1/2-y,z
loop_
_atom_site_type_symbol
_atom_site_label
_atom_site_fract_x
_atom_site_fract_y
_atom_site_fract_z
Si Si1 0.634121 0.693752 0.341928
Si Si2 0.267475 0.302504 0.456362
Si Si3 0.290545 0.750000 0.750000
Si Si4 0.457068 0.083860 0.432645
Si Si5 0.733591 0.806248 0.841928
Si Si6 0.726489 0.416140 0.067355
Si Si7 0.942028 0.302504 0.043638
O O1 0.702849 0.755762 0.395054
O O2 0.708023 0.713645 0.302931
O O3 0.394868 0.694925 0.289046
O O4 0.741707 0.620357 0.379500
O O5 0.500000 0.324026 0.500000
O O6 0.250000 0.250000 0.500000
O O7 0.119373 0.368760 0.436652
O O8 0.503701 0.786355 0.802931
O O9 0.261317 0.694925 0.789046
O O10 0.500000 0.090510 0.500000
O O11 0.463403 0.000000 0.420340
O O12 0.776292 0.879643 0.879500
O O13 0.877368 0.744238 0.895054
O O14 0.782045 0.500000 0.079660
O O15 0.872765 0.368760 0.063348
O O16 0.500000 0.409490 0.000000
O O17 0.750000 0.250000 0.000000
O O18 0.000000 0.324026 0.000000
#
# Coordination Sequence:
#
# PCOD9212853 Si02
#       7
#     8   8   8   8   8   8   8
#     4  11  19  37  57  86 111 149 196 242 274 349
#     4  12  19  34  63  89 112 149 196 241 292 347
#     4  10  22  32  62  86 106 148 210 234 272 332
#     4  11  23  38  58  88 121 149 185 248 309 345
#     4  11  19  37  57  86 111 149 196 242 274 349
#     4  11  23  38  58  88 121 149 185 248 309 345
#     4  12  19  34  63  89 112 149 196 241 292 347
#
# _framework density 16.668334000000002
#
# number of rings (size 3 to 8) (size 9 to 14) (size 15 to 20)
#    0.000    0.857    8.571    0.000    0.000    0.571 
#    0.000    1.429    0.000    0.000    0.000    0.000 
#    0.000    0.000    0.000    0.000    0.000    0.000 
#
# Total GULP energy -156246.276314 kJ/mol
# GULP energy per Si atom -5580.224154 kJ/mol
# Density = 1.663040 g / cm^3
# Si number density = 16.668334 Si / 1000 Ang^3
#
#
#
# Elastic Constant Matrix: (Units=GPa)
#
#
# Indices 1 2 3 4 5 6 
#
# 1 105.8288 52.2732 53.9813 0.0000 0.5892 0.0000
# 2 52.2732 131.1821 57.3397 0.0000 0.0780 0.0000
# 3 53.9813 57.3397 108.7584 0.0000 -0.5441 0.0000
# 4 0.0000 0.0000 0.0000 11.3307 0.0000 -0.2196
# 5 0.5892 0.0780 -0.5441 0.0000 45.0466 0.0000
# 6 0.0000 0.0000 0.0000 -0.2196 0.0000 25.6005
#
#
#
# Elastic Compliance Matrix: (Units=1/GPa)
#
#
# Indices 1 2 3 4 5 6 
#
# 1 0.013623 -0.003213 -0.005069 0.000000 -0.000234 0.000000
# 2 -0.003213 0.010664 -0.004028 0.000000 -0.000025 0.000000
# 3 -0.005069 -0.004028 0.013835 0.000000 0.000240 0.000000
# 4 0.000000 0.000000 0.000000 0.088270 0.000000 0.000757
# 5 -0.000234 -0.000025 0.000240 0.000000 0.022205 0.000000
# 6 0.000000 0.000000 0.000000 0.000757 0.000000 0.039068
#
#
# Mechanical properties :
#
#
# Convention : Reuss Voigt Hill
#
# Bulk Modulus (GPa) = 74.05605 74.77308 74.41457
# Shear Modulus (GPa) = 23.06425 28.54058 25.80242
#
# Velocity S-wave (km/s) = 3.72387 4.14244 3.93872
# Velocity P-wave (km/s) = 7.93821 8.23629 8.08863
#
# Compressibility (1/GPa) = 0.01350329
#
# Stress axis : x y z
#
# Youngs Moduli (GPa) = 73.40518 93.77631 72.27870
#
# Poissons Ratio (x) = 0.30127 0.36638
# Poissons Ratio (y) = 0.23583 0.29111
# Poissons Ratio (z) = 0.37209 0.37770
#
# Static dielectric constant tensor:
#      x y z
#    x 1.578880 0.000000 0.000080 
#    y 0.000000 1.529760 0.000000 
#    z 0.000080 0.000000 1.584370 
# 
# From -- ./inp_files/356460.got.cif
#   From: 2010.05.17/outbox.cif.g08.bks.cpg/sg12_179_cif.got.tgz:356460.got - 2010.06.03 13:09:07.
