data_PCOD9212539
_publ_section_title
;
Structure prediction by ZEFSAII (Michael W. Deem and Ramdas Pophale) SiO2 
 PCOD9212539
Probable space group: C 2/M
;
_chemical_formula_sum "Si O2"
_cell_formula_units_Z 64
_cell_length_a 16.987871
_cell_length_b 14.568116
_cell_length_c 16.004770
_cell_angle_alpha 90.000000
_cell_angle_beta 130.420936
_cell_angle_gamma 90.000000
_cell_volume 3015.424295
_symmetry_space_group_name_H-M "C 2/M"
_symmetry_group_IT_number 12
_symmetry_cell_setting 'monoclinic'
loop_
_space_group_symop_operation_xyz
x,y,z
-x,y,-z
-x,-y,-z
x,-y,z
1/2+x,1/2+y,z
1/2-x,1/2+y,-z
1/2-x,1/2-y,-z
1/2+x,1/2-y,z
loop_
_atom_site_type_symbol
_atom_site_label
_atom_site_fract_x
_atom_site_fract_y
_atom_site_fract_z
Si Si1 0.896721 0.608935 0.768059
Si Si2 0.546566 0.174802 0.615009
Si Si3 0.380441 0.398931 0.893835
Si Si4 0.391006 0.109151 0.154833
Si Si5 0.542288 0.601585 0.235137
Si Si6 0.867109 0.731206 0.598774
Si Si7 0.304203 0.609196 0.084393
Si Si8 0.747296 0.276199 0.786664
O O1 0.888917 0.500000 0.777320
O O2 0.866266 0.638161 0.653162
O O3 0.825604 0.665011 0.783075
O O4 0.017583 0.638676 0.846530
O O5 0.500000 0.123964 0.500000
O O6 0.583066 0.131574 0.730253
O O7 0.442937 0.225631 0.572921
O O8 0.646915 0.238300 0.667490
O O9 0.344662 0.500000 0.901383
O O10 0.387945 0.403383 0.798945
O O11 0.310520 0.311999 0.863274
O O12 0.500000 0.387563 0.000000
O O13 0.391534 0.000000 0.152188
O O14 0.283409 0.140663 0.040900
O O15 0.545720 0.500000 0.278173
O O16 0.585471 0.685438 0.316274
O O17 0.421331 0.619802 0.132167
O O18 0.750000 0.750000 0.500000
O O19 0.289129 0.500000 0.089064
O O20 0.292009 0.663593 0.162544
#
# Coordination Sequence:
#
# PCOD9212539 Si02
#       8
#     8   8   8   8   8   8   8   8
#     4  10  22  41  63  92 131 173 215 267 326 392
#     4  11  25  41  61  94 126 167 219 275 331 387
#     4  10  24  41  61  94 132 171 217 265 320 387
#     4   9  22  43  64  91 129 171 218 267 327 394
#     4  10  21  42  66  93 130 173 221 268 329 396
#     4  11  22  43  68  89 127 169 227 273 326 392
#     4  10  22  40  66 100 136 173 215 273 329 396
#     4  12  23  38  67  96 135 171 219 264 331 400
#
# _framework density 21.224211
#
# number of rings (size 3 to 8) (size 9 to 14) (size 15 to 20)
#    0.000    1.625    2.500    1.125    3.500    1.750 
#    0.000    1.875    0.000    1.875    0.000    0.000 
#    0.000    0.000    0.000    0.000    0.000    0.000 
#
# Total GULP energy -178459.688595 kJ/mol
# GULP energy per Si atom -5576.865269 kJ/mol
# Density = 2.117590 g / cm^3
# Si number density = 21.224211 Si / 1000 Ang^3
#
#
#
# Elastic Constant Matrix: (Units=GPa)
#
#
# Indices 1 2 3 4 5 6 
#
# 1 81.5813 41.1494 12.8617 0.0000 12.3416 0.0000
# 2 41.1494 88.2971 27.7906 0.0000 14.5917 0.0000
# 3 12.8617 27.7906 96.2391 0.0000 17.6428 0.0000
# 4 0.0000 0.0000 0.0000 11.8489 0.0000 2.2734
# 5 12.3416 14.5917 17.6428 0.0000 36.4449 0.0000
# 6 0.0000 0.0000 0.0000 2.2734 0.0000 18.2707
#
#
#
# Elastic Compliance Matrix: (Units=1/GPa)
#
#
# Indices 1 2 3 4 5 6 
#
# 1 0.016275 -0.007257 0.000437 0.000000 -0.002818 0.000000
# 2 -0.007257 0.016129 -0.003242 0.000000 -0.002431 0.000000
# 3 0.000437 -0.003242 0.012135 0.000000 -0.004724 0.000000
# 4 0.000000 0.000000 0.000000 0.086460 0.000000 -0.010758
# 5 -0.002818 -0.002431 -0.004724 0.000000 0.031653 0.000000
# 6 0.000000 0.000000 0.000000 -0.010758 0.000000 0.056071
#
#
# Mechanical properties :
#
#
# Convention : Reuss Voigt Hill
#
# Bulk Modulus (GPa) = 40.95763 47.74675 44.35219
# Shear Modulus (GPa) = 20.24404 25.60062 22.92233
#
# Velocity S-wave (km/s) = 3.09175 3.47681 3.28991
# Velocity P-wave (km/s) = 5.66433 6.21794 5.94758
#
# Compressibility (1/GPa) = 0.02441547
#
# Stress axis : x y z
#
# Youngs Moduli (GPa) = 61.44260 61.99838 82.40844
#
# Poissons Ratio (x) = 0.44991 -0.03601
# Poissons Ratio (y) = 0.44587 0.26718
# Poissons Ratio (z) = -0.02685 0.20101
#
# Static dielectric constant tensor:
#      x y z
#    x 1.909630 0.000000 0.002390 
#    y 0.000000 1.809780 0.000000 
#    z 0.002390 0.000000 1.786830 
# 
# From -- ./inp_files/278189.got.cif
#   From: 2010.05.17/outbox.cif.g08.bks.cpg/sg12_140_cif.got.tgz:278189.got - 2010.06.03 13:09:07.
