data_PCOD9212287
_publ_section_title
;
Structure prediction by ZEFSAII (Michael W. Deem and Ramdas Pophale) SiO2 
 PCOD9212287
Probable space group: C 2/M
;
_chemical_formula_sum "Si O2"
_cell_formula_units_Z 64
_cell_length_a 17.985962
_cell_length_b 13.945598
_cell_length_c 19.306160
_cell_angle_alpha 90.000000
_cell_angle_beta 144.466056
_cell_angle_gamma 90.000000
_cell_volume 2814.370267
_symmetry_space_group_name_H-M "C 2/M"
_symmetry_group_IT_number 12
_symmetry_cell_setting 'monoclinic'
loop_
_space_group_symop_operation_xyz
x,y,z
-x,y,-z
-x,-y,-z
x,-y,z
1/2+x,1/2+y,z
1/2-x,1/2+y,-z
1/2-x,1/2-y,-z
1/2+x,1/2-y,z
loop_
_atom_site_type_symbol
_atom_site_label
_atom_site_fract_x
_atom_site_fract_y
_atom_site_fract_z
Si Si1 0.991305 0.884617 0.326521
Si Si2 0.100372 0.614425 0.638176
Si Si3 0.203014 0.358093 0.967024
Si Si4 0.257744 0.616395 0.404627
Si Si5 0.979447 0.612632 0.687457
Si Si6 0.193773 0.610082 0.119805
Si Si7 0.010296 0.107789 0.832633
Si Si8 0.341318 0.252513 0.791453
O O1 0.100780 0.856520 0.462927
O O2 0.013308 0.853113 0.263672
O O3 0.846095 0.866947 0.238723
O O4 0.000271 0.000000 0.328035
O O5 0.127264 0.500000 0.665434
O O6 0.034881 0.653432 0.658693
O O7 0.229419 0.671598 0.722193
O O8 0.000000 0.626152 0.500000
O O9 0.163726 0.384578 0.015310
O O10 0.337042 0.405000 0.046623
O O11 0.250000 0.250000 0.000000
O O12 0.086331 0.376201 0.827567
O O13 0.251317 0.500000 0.388870
O O14 0.212593 0.674823 0.304016
O O15 0.157725 0.644340 0.389153
O O16 0.962572 0.500000 0.660941
O O17 0.171544 0.500000 0.126083
O O18 0.130134 0.689535 0.119333
O O19 0.954949 0.185061 0.843932
O O20 0.952929 0.000000 0.796945
#
# Coordination Sequence:
#
# PCOD9212287 Si02
#       8
#     8   8   8   8   8   8   8   8
#     4   8  18  38  62  88 122 166 215 265 322 385
#     4  10  24  43  61  88 128 170 209 259 324 384
#     4  11  21  41  70  96 123 161 220 271 317 385
#     4  10  22  39  61  93 129 165 213 270 322 381
#     4  10  21  41  67  89 118 164 212 258 312 377
#     4  10  22  41  65  94 132 175 213 263 328 386
#     4  10  22  41  65  93 126 168 218 273 325 377
#     4  12  24  37  61  95 129 169 216 263 319 389
#
# _framework density 22.740432999999999
#
# number of rings (size 3 to 8) (size 9 to 14) (size 15 to 20)
#    0.000    1.875    0.000    4.125    3.500    1.500 
#    0.000    7.500    0.000    9.000    0.000    0.000 
#    0.000    0.000    0.000    0.000    0.000    0.000 
#
# Total GULP energy -179006.274763 kJ/mol
# GULP energy per Si atom -5593.946086 kJ/mol
# Density = 2.268867 g / cm^3
# Si number density = 22.740433 Si / 1000 Ang^3
#
#
#
# Elastic Constant Matrix: (Units=GPa)
#
#
# Indices 1 2 3 4 5 6 
#
# 1 121.9778 49.4328 54.0060 0.0000 -14.4405 0.0000
# 2 49.4328 127.4362 27.3846 0.0000 -2.9665 0.0000
# 3 54.0060 27.3846 91.3662 0.0000 2.9523 0.0000
# 4 0.0000 0.0000 0.0000 14.3668 0.0000 -9.0927
# 5 -14.4405 -2.9665 2.9523 0.0000 14.5419 0.0000
# 6 0.0000 0.0000 0.0000 -9.0927 0.0000 30.2566
#
#
#
# Elastic Compliance Matrix: (Units=1/GPa)
#
#
# Indices 1 2 3 4 5 6 
#
# 1 0.015423 -0.003775 -0.008511 0.000000 0.016273 0.000000
# 2 -0.003775 0.009384 -0.000526 0.000000 -0.001727 0.000000
# 3 -0.008511 -0.000526 0.016518 0.000000 -0.011912 0.000000
# 4 0.000000 0.000000 0.000000 0.085953 0.000000 0.025830
# 5 0.016273 -0.001727 -0.011912 0.000000 0.086992 0.000000
# 6 0.000000 0.000000 0.000000 0.025830 0.000000 0.040813
#
#
# Mechanical properties :
#
#
# Convention : Reuss Voigt Hill
#
# Bulk Modulus (GPa) = 63.68342 66.93631 65.30987
# Shear Modulus (GPa) = 17.48629 25.83019 21.65824
#
# Velocity S-wave (km/s) = 2.77601 3.37392 3.08946
# Velocity P-wave (km/s) = 6.19195 6.68406 6.44270
#
# Compressibility (1/GPa) = 0.01570267
#
# Stress axis : x y z
#
# Youngs Moduli (GPa) = 64.84023 106.56390 60.54024
#
# Poissons Ratio (x) = 0.40226 0.51523
# Poissons Ratio (y) = 0.24476 0.03182
# Poissons Ratio (z) = 0.55183 0.05600
#
# Static dielectric constant tensor:
#      x y z
#    x 1.844030 0.000000 -0.004010 
#    y 0.000000 1.952290 0.000000 
#    z -0.004010 0.000000 1.805260 
# 
# From -- ./inp_files/278196.got.cif
#   From: 2010.05.17/outbox.cif.g08.bks.cpg/sg12_140_cif.got.tgz:278196.got - 2010.06.03 13:09:07.
