data_PCOD9212524
_publ_section_title
;
Structure prediction by ZEFSAII (Michael W. Deem and Ramdas Pophale) SiO2 
 PCOD9212524
Probable space group: C 2/M
;
_chemical_formula_sum "Si O2"
_cell_formula_units_Z 60
_cell_length_a 30.557721
_cell_length_b 16.772719
_cell_length_c 17.439353
_cell_angle_alpha 90.000000
_cell_angle_beta 19.601341
_cell_angle_gamma 90.000000
_cell_volume 2998.562974
_symmetry_space_group_name_H-M "C 2/M"
_symmetry_group_IT_number 12
_symmetry_cell_setting 'monoclinic'
loop_
_space_group_symop_operation_xyz
x,y,z
-x,y,-z
-x,-y,-z
x,-y,z
1/2+x,1/2+y,z
1/2-x,1/2+y,-z
1/2-x,1/2-y,-z
1/2+x,1/2-y,z
loop_
_atom_site_type_symbol
_atom_site_label
_atom_site_fract_x
_atom_site_fract_y
_atom_site_fract_z
Si Si1 0.642577 0.911925 0.749377
Si Si2 0.797848 0.340158 0.096604
Si Si3 0.080179 0.355695 0.609544
Si Si4 0.641083 0.673549 0.511197
Si Si5 0.922816 0.407229 0.551974
Si Si6 0.174550 0.500000 0.538407
Si Si7 0.865025 0.908287 0.767951
Si Si8 0.151303 0.159604 0.040836
O O1 0.762691 0.865007 0.586325
O O2 0.664960 0.931599 0.623336
O O3 0.637808 0.000000 0.796740
O O4 0.500000 0.874817 0.000000
O O5 0.702311 0.343611 0.326549
O O6 0.744831 0.391244 0.113506
O O7 0.811252 0.248968 0.046275
O O8 0.942694 0.368487 0.879913
O O9 0.135377 0.268509 0.533806
O O10 0.044275 0.358863 0.578620
O O11 0.171700 0.429118 0.478334
O O12 0.491989 0.642813 0.757115
O O13 0.957180 0.500000 0.484278
O O14 0.000000 0.378365 0.500000
O O15 0.768897 0.396314 0.819760
O O16 0.857303 0.850928 0.853483
O O17 0.000000 0.897012 0.500000
O O18 0.857430 0.000000 0.807540
#
# Coordination Sequence:
#
# PCOD9212524 Si02
#       8
#     8   8   8   8   8   4   8   8
#     4   9  21  41  68  99 123 163 205 271 339 389
#     4  11  23  38  62  91 127 171 213 267 313 378
#     4  11  23  39  67  97 125 171 217 265 319 386
#     4  11  23  42  65  97 129 167 216 268 333 385
#     4  11  23  41  65  93 132 177 223 258 307 382
#     4  10  21  42  65  95 125 153 214 269 321 395
#     4  11  23  38  56  89 129 169 216 261 318 369
#     4  11  23  41  62  91 129 177 216 264 320 378
#
# _framework density 20.009585000000001
#
# number of rings (size 3 to 8) (size 9 to 14) (size 15 to 20)
#    0.400    0.933    3.333    2.400    0.933    4.800 
#    0.000    0.000    0.000    0.800    0.000    0.000 
#    0.000    0.000    0.000    0.000    0.000    0.000 
#
# Total GULP energy -167026.576303 kJ/mol
# GULP energy per Si atom -5567.552543 kJ/mol
# Density = 1.996404 g / cm^3
# Si number density = 20.009585 Si / 1000 Ang^3
#
#
#
# Elastic Constant Matrix: (Units=GPa)
#
#
# Indices 1 2 3 4 5 6 
#
# 1 84.7926 20.1687 17.9580 0.0000 -12.9913 0.0000
# 2 20.1687 35.0419 13.1523 0.0001 -15.0652 -0.0001
# 3 17.9580 13.1523 88.0948 -0.0001 -12.9620 0.0000
# 4 0.0000 0.0001 -0.0001 18.4957 0.0000 5.1787
# 5 -12.9913 -15.0652 -12.9620 0.0000 23.5726 0.0000
# 6 0.0000 -0.0001 0.0000 5.1787 0.0000 31.2599
#
#
#
# Elastic Compliance Matrix: (Units=1/GPa)
#
#
# Indices 1 2 3 4 5 6 
#
# 1 0.014049 -0.006272 -0.001499 0.000000 0.002909 0.000000
# 2 -0.006272 0.042608 -0.001724 0.000000 0.022826 0.000000
# 3 -0.001499 -0.001724 0.012655 0.000000 0.005030 0.000000
# 4 0.000000 0.000000 0.000000 0.056697 0.000000 -0.009393
# 5 0.002909 0.022826 0.005030 0.000000 0.061379 0.000000
# 6 0.000000 0.000000 0.000000 -0.009393 0.000000 0.033546
#
#
# Mechanical properties :
#
#
# Convention : Reuss Voigt Hill
#
# Bulk Modulus (GPa) = 19.87302 34.49858 27.18580
# Shear Modulus (GPa) = 19.47819 25.10898 22.29358
#
# Velocity S-wave (km/s) = 3.12339 3.54623 3.34150
# Velocity P-wave (km/s) = 4.79174 5.83490 5.33886
#
# Compressibility (1/GPa) = 0.05031948
#
# Stress axis : x y z
#
# Youngs Moduli (GPa) = 71.18098 23.46998 79.02276
#
# Poissons Ratio (x) = 0.14721 0.11848
# Poissons Ratio (y) = 0.44647 0.13625
# Poissons Ratio (z) = 0.10672 0.04047
#
# Static dielectric constant tensor:
#      x y z
#    x 1.697820 0.000000 -0.003400 
#    y 0.000000 1.710120 0.000000 
#    z -0.003400 0.000000 1.749770 
# 
# From -- ./inp_files/296983.got.cif
#   From: 2010.05.17/outbox.cif.g08.bks.cpg/sg12_149_cif.got.tgz:296983.got - 2010.06.03 13:09:07.
