data_PCOD9212179
_publ_section_title
;
Structure prediction by ZEFSAII (Michael W. Deem and Ramdas Pophale) SiO2 
 PCOD9212179
Probable space group: C 2/M
;
_chemical_formula_sum "Si O2"
_cell_formula_units_Z 56
_cell_length_a 30.577513
_cell_length_b 18.501936
_cell_length_c 9.362753
_cell_angle_alpha 90.000000
_cell_angle_beta 146.161601
_cell_angle_gamma 90.000000
_cell_volume 2949.599164
_symmetry_space_group_name_H-M "C 2/M"
_symmetry_group_IT_number 12
_symmetry_cell_setting 'monoclinic'
loop_
_space_group_symop_operation_xyz
x,y,z
-x,y,-z
-x,-y,-z
x,-y,z
1/2+x,1/2+y,z
1/2-x,1/2+y,-z
1/2-x,1/2-y,-z
1/2+x,1/2-y,z
loop_
_atom_site_type_symbol
_atom_site_label
_atom_site_fract_x
_atom_site_fract_y
_atom_site_fract_z
Si Si1 0.438626 0.581299 0.963278
Si Si2 0.872121 0.586740 0.808442
Si Si3 0.713485 0.330256 0.885043
Si Si4 0.334341 0.086492 0.384798
Si Si5 0.972512 0.814741 0.583848
Si Si6 0.730500 0.413708 0.636669
Si Si7 0.017837 0.642333 0.383498
O O1 0.435940 0.500000 0.019953
O O2 0.353076 0.597584 0.667195
O O3 0.500000 0.579121 0.000000
O O4 0.472092 0.640667 0.160354
O O5 0.876051 0.500000 0.813250
O O6 0.859584 0.611793 0.611745
O O7 0.799235 0.605846 0.712708
O O8 0.950688 0.613951 0.096066
O O9 0.619455 0.330556 0.641763
O O10 0.735348 0.366574 0.792795
O O11 0.750000 0.250000 0.000000
O O12 0.753125 0.378112 0.116009
O O13 0.399879 0.111087 0.448710
O O14 0.328693 0.000000 0.369664
O O15 0.981505 0.728802 0.625309
O O16 0.000000 0.833897 0.500000
O O17 0.736478 0.500000 0.686886
O O18 0.000000 0.622108 0.500000
#
# Coordination Sequence:
#
# PCOD9212179 Si02
#       7
#     8   8   8   8   8   8   8
#     4  10  21  41  65  89 119 161 212 261 308 363
#     4  10  23  41  65  97 128 160 207 261 316 378
#     4  12  24  42  63  91 128 168 210 258 309 374
#     4  11  24  42  66  95 128 165 208 262 315 372
#     4  11  26  42  61  92 131 167 210 257 313 373
#     4  10  22  42  67  94 124 162 211 263 315 376
#     4  11  23  42  65  92 130 169 208 254 314 381
#
# _framework density 18.98563
#
# number of rings (size 3 to 8) (size 9 to 14) (size 15 to 20)
#    0.000    1.286    2.857    2.143    4.000    6.571 
#    0.000    1.429    0.000    0.000    0.000    0.000 
#    0.000    0.000    0.000    0.000    0.000    0.000 
#
# Total GULP energy -156490.259246 kJ/mol
# GULP energy per Si atom -5588.937830 kJ/mol
# Density = 1.894242 g / cm^3
# Si number density = 18.985630 Si / 1000 Ang^3
#
#
#
# Elastic Constant Matrix: (Units=GPa)
#
#
# Indices 1 2 3 4 5 6 
#
# 1 85.1774 20.7222 12.1505 0.0000 -13.8102 0.0000
# 2 20.7222 49.4544 11.9524 0.0000 -19.0140 0.0000
# 3 12.1505 11.9524 65.2166 0.0000 -7.5197 0.0000
# 4 0.0000 0.0000 0.0000 43.9389 0.0000 -4.6112
# 5 -13.8102 -19.0140 -7.5197 0.0000 35.1933 0.0000
# 6 0.0000 0.0000 0.0000 -4.6112 0.0000 22.7432
#
#
#
# Elastic Compliance Matrix: (Units=1/GPa)
#
#
# Indices 1 2 3 4 5 6 
#
# 1 0.013408 -0.004254 -0.001412 0.000000 0.002662 0.000000
# 2 -0.004254 0.027525 -0.002799 0.000000 0.012604 0.000000
# 3 -0.001412 -0.002799 0.016272 0.000000 0.001411 0.000000
# 4 0.000000 0.000000 0.000000 0.023254 0.000000 0.004715
# 5 0.002662 0.012604 0.001411 0.000000 0.036570 0.000000
# 6 0.000000 0.000000 0.000000 0.004715 0.000000 0.044925
#
#
# Mechanical properties :
#
#
# Convention : Reuss Voigt Hill
#
# Bulk Modulus (GPa) = 24.82791 32.16654 28.49722
# Shear Modulus (GPa) = 25.99996 30.70997 28.35496
#
# Velocity S-wave (km/s) = 3.70463 4.02623 3.86877
# Velocity P-wave (km/s) = 5.60398 6.21235 5.91599
#
# Compressibility (1/GPa) = 0.04027725
#
# Stress axis : x y z
#
# Youngs Moduli (GPa) = 74.58263 36.33019 61.45479
#
# Poissons Ratio (x) = 0.15454 0.08675
# Poissons Ratio (y) = 0.31725 0.17200
# Poissons Ratio (z) = 0.10528 0.10168
#
# Static dielectric constant tensor:
#      x y z
#    x 1.654030 0.000000 -0.020610 
#    y 0.000000 1.647950 0.000000 
#    z -0.020610 0.000000 1.766490 
# 
# From -- ./inp_files/75958.got.cif
#   From: 2010.05.17/outbox.cif.g08.bks.cpg/sg12_38_cif.got.tgz:75958.got - 2010.06.03 13:09:07.
