data_PCOD9212058
_publ_section_title
;
Structure prediction by ZEFSAII (Michael W. Deem and Ramdas Pophale) SiO2 
 PCOD9212058
Probable space group: C 2/M
;
_chemical_formula_sum "Si O2"
_cell_formula_units_Z 64
_cell_length_a 20.550230
_cell_length_b 8.747866
_cell_length_c 31.899184
_cell_angle_alpha 90.000000
_cell_angle_beta 143.747215
_cell_angle_gamma 90.000000
_cell_volume 3391.112024
_symmetry_space_group_name_H-M "C 2/M"
_symmetry_group_IT_number 12
_symmetry_cell_setting 'monoclinic'
loop_
_space_group_symop_operation_xyz
x,y,z
-x,y,-z
-x,-y,-z
x,-y,z
1/2+x,1/2+y,z
1/2-x,1/2+y,-z
1/2-x,1/2-y,-z
1/2+x,1/2-y,z
loop_
_atom_site_type_symbol
_atom_site_label
_atom_site_fract_x
_atom_site_fract_y
_atom_site_fract_z
Si Si1 0.461012 0.816616 0.917651
Si Si2 0.998574 0.316927 0.604863
Si Si3 0.667192 0.317603 0.073916
Si Si4 0.931551 0.184082 0.659451
Si Si5 0.685403 0.815655 0.558864
Si Si6 0.939441 0.683826 0.808562
Si Si7 0.306606 0.682920 0.346134
Si Si8 0.405017 0.317250 0.179594
O O1 0.366602 0.744595 0.897768
O O2 0.446929 0.779318 0.861597
O O3 0.458810 0.000000 0.921384
O O4 0.575611 0.752643 0.995257
O O5 0.004352 0.500000 0.608597
O O6 0.968101 0.256126 0.634753
O O7 0.903441 0.271670 0.522282
O O8 0.112129 0.249907 0.646428
O O9 0.659375 0.500000 0.069234
O O10 0.787762 0.262130 0.124107
O O11 0.807803 0.230787 0.607841
O O12 0.015401 0.225106 0.740204
O O13 0.931952 0.000000 0.655518
O O14 0.660804 0.744520 0.591232
O O15 0.683603 0.000000 0.562083
O O16 0.950601 0.500000 0.809944
O O17 0.819437 0.728334 0.728737
O O18 0.033068 0.764474 0.830131
O O19 0.312890 0.500000 0.348696
O O20 0.390935 0.500000 0.172378
#
# Coordination Sequence:
#
# PCOD9212058 Si02
#       8
#     8   8   8   8   8   8   8   8
#     4  10  21  41  66  92 124 161 201 243 296 352
#     4  11  24  38  59  88 119 156 201 249 302 358
#     4  11  23  40  63  94 128 159 198 245 292 349
#     4  10  22  40  61  86 118 155 200 249 300 356
#     4  10  21  41  62  85 118 157 199 249 303 358
#     4  10  23  41  62  89 120 156 199 250 297 350
#     4  11  23  39  60  88 121 157 200 248 300 356
#     4  11  23  40  64  89 119 161 201 244 299 357
#
# _framework density 18.872865000000001
#
# number of rings (size 3 to 8) (size 9 to 14) (size 15 to 20)
#    0.000    1.500    1.250    4.125    1.750    6.000 
#    0.000    0.000    0.000    0.000    0.000    0.000 
#    0.000    0.000    0.000    0.000    0.000    0.000 
#
# Total GULP energy -178935.750511 kJ/mol
# GULP energy per Si atom -5591.742203 kJ/mol
# Density = 1.882991 g / cm^3
# Si number density = 18.872865 Si / 1000 Ang^3
#
#
#
# Elastic Constant Matrix: (Units=GPa)
#
#
# Indices 1 2 3 4 5 6 
#
# 1 93.2482 30.5987 38.0043 0.0001 -1.6086 -0.0002
# 2 30.5987 56.3888 47.3592 0.0001 1.6078 -0.0007
# 3 38.0043 47.3592 93.8954 0.0000 6.2858 -0.0002
# 4 0.0001 0.0001 0.0000 15.2434 0.0000 2.9740
# 5 -1.6086 1.6078 6.2858 0.0000 43.3212 0.0000
# 6 -0.0002 -0.0007 -0.0002 2.9740 0.0000 38.0736
#
#
#
# Elastic Compliance Matrix: (Units=1/GPa)
#
#
# Indices 1 2 3 4 5 6 
#
# 1 0.013597 -0.004727 -0.003196 0.000000 0.001144 0.000000
# 2 -0.004727 0.032465 -0.014510 0.000000 0.000725 0.000000
# 3 -0.003196 -0.014510 0.019423 0.000000 -0.002398 0.000000
# 4 0.000000 0.000000 0.000000 0.066617 0.000000 -0.005204
# 5 0.001144 0.000725 -0.002398 0.000000 0.023447 0.000000
# 6 0.000000 0.000000 0.000000 -0.005204 0.000000 0.026671
#
#
# Mechanical properties :
#
#
# Convention : Reuss Voigt Hill
#
# Bulk Modulus (GPa) = 48.49812 52.82854 50.66333
# Shear Modulus (GPa) = 21.37121 27.83234 24.60178
#
# Velocity S-wave (km/s) = 3.36873 3.84438 3.61439
# Velocity P-wave (km/s) = 6.39408 6.91074 6.65742
#
# Compressibility (1/GPa) = 0.02061936
#
# Stress axis : x y z
#
# Youngs Moduli (GPa) = 73.54311 30.80260 51.48563
#
# Poissons Ratio (x) = 0.14560 0.16455
# Poissons Ratio (y) = 0.34763 0.74706
# Poissons Ratio (z) = 0.23505 0.44695
#
# Static dielectric constant tensor:
#      x y z
#    x 1.614280 0.000000 0.004190 
#    y 0.000000 1.633450 0.000000 
#    z 0.004190 0.000000 1.637810 
# 
# From -- ./inp_files/378349.got.cif
#   From: 2010.05.17/outbox.cif.g08.bks.cpg/sg12_190_cif.got.tgz:378349.got - 2010.06.03 13:09:07.
