data_PCOD9212527
_publ_section_title
;
Structure prediction by ZEFSAII (Michael W. Deem and Ramdas Pophale) SiO2 
 PCOD9212527
Probable space group: C 2/M
;
_chemical_formula_sum "Si O2"
_cell_formula_units_Z 36
_cell_length_a 14.466326
_cell_length_b 9.598662
_cell_length_c 14.750484
_cell_angle_alpha 90.000000
_cell_angle_beta 49.243824
_cell_angle_gamma 90.000000
_cell_volume 1551.510679
_symmetry_space_group_name_H-M "C 2/M"
_symmetry_group_IT_number 12
_symmetry_cell_setting 'monoclinic'
loop_
_space_group_symop_operation_xyz
x,y,z
-x,y,-z
-x,-y,-z
x,-y,z
1/2+x,1/2+y,z
1/2-x,1/2+y,-z
1/2-x,1/2-y,-z
1/2+x,1/2-y,z
loop_
_atom_site_type_symbol
_atom_site_label
_atom_site_fract_x
_atom_site_fract_y
_atom_site_fract_z
Si Si1 0.122900 0.343609 0.368614
Si Si2 0.929623 0.840144 0.920332
Si Si3 0.651069 0.270823 0.659035
Si Si4 0.788221 0.000000 0.499784
Si Si5 0.748468 0.341811 0.139035
O O1 0.106866 0.500000 0.340210
O O2 0.231709 0.347463 0.371895
O O3 0.167534 0.234550 0.266231
O O4 0.000000 0.306096 0.500000
O O5 0.831351 0.847380 0.901439
O O6 0.046618 0.767435 0.800928
O O7 0.958711 0.000000 0.926594
O O8 0.865485 0.753132 0.040778
O O9 0.619309 0.376235 0.598432
O O10 0.695580 0.122516 0.596879
O O11 0.779637 0.500000 0.145834
#
# Coordination Sequence:
#
# PCOD9212527 Si02
#       5
#     8   8   8   4   8
#     4  11  25  41  61  93 128 160 196 251 311 362
#     4  10  21  42  66  88 121 165 207 248 298 362
#     4  11  23  41  63  93 118 168 201 251 300 363
#     4  10  24  38  64  92 126 152 212 248 300 360
#     4  10  24  40  62  93 123 160 205 253 302 355
#
# _framework density 23.203191
#
# number of rings (size 3 to 8) (size 9 to 14) (size 15 to 20)
#    0.000    1.556    2.222    0.667    9.333    2.222 
#    0.000    3.333    0.000    0.000    0.000    0.000 
#    0.000    0.000    0.000    0.000    0.000    0.000 
#
# Total GULP energy -100212.446728 kJ/mol
# GULP energy per Si atom -5567.358152 kJ/mol
# Density = 2.315038 g / cm^3
# Si number density = 23.203191 Si / 1000 Ang^3
#
#
#
# Elastic Constant Matrix: (Units=GPa)
#
#
# Indices 1 2 3 4 5 6 
#
# 1 28.8735 -14.0717 -2.5303 0.0000 -3.2236 0.0000
# 2 -14.0717 202.1725 108.9040 0.0000 23.6074 0.0000
# 3 -2.5303 108.9040 199.6595 0.0000 -19.2813 0.0000
# 4 0.0000 0.0000 0.0000 73.7070 0.0000 8.7722
# 5 -3.2236 23.6074 -19.2813 0.0000 28.8980 0.0000
# 6 0.0000 0.0000 0.0000 8.7722 0.0000 16.8984
#
#
#
# Elastic Compliance Matrix: (Units=1/GPa)
#
#
# Indices 1 2 3 4 5 6 
#
# 1 0.036097 0.003010 -0.001104 0.000000 0.000831 0.000000
# 2 0.003010 0.010281 -0.006786 0.000000 -0.012591 0.000000
# 3 -0.001104 -0.006786 0.009854 0.000000 0.011995 0.000000
# 4 0.000000 0.000000 0.000000 0.014461 0.000000 -0.007507
# 5 0.000831 -0.012591 0.011995 0.000000 0.052986 0.000000
# 6 0.000000 0.000000 0.000000 -0.007507 0.000000 0.063074
#
#
# Mechanical properties :
#
#
# Convention : Reuss Voigt Hill
#
# Bulk Modulus (GPa) = 21.51788 68.36772 44.94280
# Shear Modulus (GPa) = 23.58456 46.46091 35.02274
#
# Velocity S-wave (km/s) = 3.19162 4.47962 3.88931
# Velocity P-wave (km/s) = 4.78286 7.50231 6.29128
#
# Compressibility (1/GPa) = 0.04647297
#
# Stress axis : x y z
#
# Youngs Moduli (GPa) = 27.70322 97.26526 101.48071
#
# Poissons Ratio (x) = -0.29279 0.11206
# Poissons Ratio (y) = -0.08339 0.68861
# Poissons Ratio (z) = 0.03059 0.66000
#
# Static dielectric constant tensor:
#      x y z
#    x 2.001200 0.000000 0.067340 
#    y 0.000000 1.815060 0.000000 
#    z 0.067340 0.000000 1.850750 
# 
# From -- ./inp_files/151505.got.cif
#   From: 2010.05.17/outbox.cif.g08.bks.cpg/sg12_76_cif.got.tgz:151505.got - 2010.06.03 13:09:07.
