data_PCOD9212191
_publ_section_title
;
Structure prediction by ZEFSAII (Michael W. Deem and Ramdas Pophale) SiO2 
 PCOD9212191
Probable space group: C 2/M
;
_chemical_formula_sum "Si O2"
_cell_formula_units_Z 64
_cell_length_a 15.537211
_cell_length_b 13.860197
_cell_length_c 16.930732
_cell_angle_alpha 90.000000
_cell_angle_beta 61.489793
_cell_angle_gamma 90.000000
_cell_volume 3203.868561
_symmetry_space_group_name_H-M "C 2/M"
_symmetry_group_IT_number 12
_symmetry_cell_setting 'monoclinic'
loop_
_space_group_symop_operation_xyz
x,y,z
-x,y,-z
-x,-y,-z
x,-y,z
1/2+x,1/2+y,z
1/2-x,1/2+y,-z
1/2-x,1/2-y,-z
1/2+x,1/2-y,z
loop_
_atom_site_type_symbol
_atom_site_label
_atom_site_fract_x
_atom_site_fract_y
_atom_site_fract_z
Si Si1 0.928272 0.612775 0.353868
Si Si2 0.380136 0.605204 0.760067
Si Si3 0.266476 0.249553 0.151371
Si Si4 0.709937 0.743165 0.679436
Si Si5 0.052940 0.105792 0.808539
Si Si6 0.385982 0.109578 0.837486
Si Si7 0.935553 0.254711 0.598865
Si Si8 0.935578 0.740042 0.962101
O O1 0.901029 0.500000 0.382152
O O2 0.840071 0.682591 0.361031
O O3 0.006620 0.611433 0.248116
O O4 0.994205 0.661569 0.394756
O O5 0.351938 0.500000 0.742187
O O6 0.293702 0.655429 0.847237
O O7 0.469065 0.598044 0.780475
O O8 0.413962 0.676183 0.675907
O O9 0.299890 0.220169 0.224857
O O10 0.189046 0.337087 0.188651
O O11 0.345316 0.279174 0.052639
O O12 0.644568 0.647902 0.719576
O O13 0.825198 0.721194 0.616414
O O14 0.005645 0.178853 0.892965
O O15 0.074853 0.000000 0.832895
O O16 0.394150 0.172258 0.912460
O O17 0.356250 0.000000 0.864331
O O18 0.000000 0.212357 0.500000
O O19 0.000000 0.685259 0.000000
#
# Coordination Sequence:
#
# PCOD9212191 Si02
#       8
#     8   8   8   8   8   8   8   8
#     4  11  22  43  68  95 132 173 215 265 328 397
#     4  10  21  41  65  90 124 167 212 262 325 387
#     4  11  21  38  62  87 126 168 215 269 318 377
#     4  11  21  43  67  93 126 173 216 259 332 394
#     4  11  22  39  62  88 125 170 217 263 319 383
#     4  11  22  38  61  88 123 168 218 265 319 383
#     4  11  24  43  72 100 133 165 211 273 330 398
#     4  12  22  38  56  86 129 166 219 274 314 371
#
# _framework density 19.975850999999999
#
# number of rings (size 3 to 8) (size 9 to 14) (size 15 to 20)
#    0.000    1.000    7.500    0.375    0.000    5.500 
#    0.000    0.000    0.000    0.000    0.000    0.000 
#    0.000    0.000    0.000    0.000    0.000    0.000 
#
# Total GULP energy -178213.454137 kJ/mol
# GULP energy per Si atom -5569.170442 kJ/mol
# Density = 1.993039 g / cm^3
# Si number density = 19.975851 Si / 1000 Ang^3
#
#
#
# Elastic Constant Matrix: (Units=GPa)
#
#
# Indices 1 2 3 4 5 6 
#
# 1 100.7980 39.9435 7.9336 0.0000 -9.9973 0.0000
# 2 39.9435 116.0175 20.5192 0.0000 -3.9739 0.0000
# 3 7.9336 20.5192 56.9406 0.0000 -15.7714 0.0000
# 4 0.0000 0.0000 0.0000 -16.8640 0.0000 10.4064
# 5 -9.9973 -3.9739 -15.7714 0.0000 24.7620 0.0000
# 6 0.0000 0.0000 0.0000 10.4064 0.0000 -0.4155
#
#
#
# Elastic Compliance Matrix: (Units=1/GPa)
#
#
# Indices 1 2 3 4 5 6 
#
# 1 0.011964 -0.004162 0.001197 0.000000 0.004925 0.000000
# 2 -0.004162 0.010666 -0.003952 0.000000 -0.002486 0.000000
# 3 0.001197 -0.003952 0.022800 0.000000 0.014371 0.000000
# 4 0.000000 0.000000 0.000000 0.004102 0.000000 0.102742
# 5 0.004925 -0.002486 0.014371 0.000000 0.051127 0.000000
# 6 0.000000 0.000000 0.000000 0.102742 0.000000 0.166496
#
#
# Mechanical properties :
#
#
# Convention : Reuss Voigt Hill
#
# Bulk Modulus (GPa) = 31.64999 45.61652 38.63325
# Shear Modulus (GPa) = 17.15130 15.18716 16.16923
#
# Velocity S-wave (km/s) = 2.93337 2.76030 2.84815
# Velocity P-wave (km/s) = 5.22986 5.74843 5.49526
#
# Compressibility (1/GPa) = 0.03159559
#
# Stress axis : x y z
#
# Youngs Moduli (GPa) = 83.58090 93.75346 43.85950
#
# Poissons Ratio (x) = 0.39022 -0.05250
# Poissons Ratio (y) = 0.34788 0.17335
# Poissons Ratio (z) = -0.10005 0.37055
#
# Static dielectric constant tensor:
#      x y z
#    x 1.813620 0.000000 -0.017500 
#    y 0.000000 1.774890 0.000000 
#    z -0.017500 0.000000 1.697610 
# 
# From -- ./inp_files/270261.got.cif
#   From: 2010.05.17/outbox.cif.g08.bks.cpg/sg12_136_cif.got.tgz:270261.got - 2010.06.03 13:09:07.
