data_PCOD9212954
_publ_section_title
;
Structure prediction by ZEFSAII (Michael W. Deem and Ramdas Pophale) SiO2 
 PCOD9212954
Probable space group: C 2/M
;
_chemical_formula_sum "Si O2"
_cell_formula_units_Z 44
_cell_length_a 14.966399
_cell_length_b 17.238178
_cell_length_c 9.271935
_cell_angle_alpha 90.000000
_cell_angle_beta 71.550014
_cell_angle_gamma 90.000000
_cell_volume 2269.145286
_symmetry_space_group_name_H-M "C 2/M"
_symmetry_group_IT_number 12
_symmetry_cell_setting 'monoclinic'
loop_
_space_group_symop_operation_xyz
x,y,z
-x,y,-z
-x,-y,-z
x,-y,z
1/2+x,1/2+y,z
1/2-x,1/2+y,-z
1/2-x,1/2-y,-z
1/2+x,1/2-y,z
loop_
_atom_site_type_symbol
_atom_site_label
_atom_site_fract_x
_atom_site_fract_y
_atom_site_fract_z
Si Si1 0.778903 0.654302 0.127807
Si Si2 0.299885 0.331174 0.519637
Si Si3 0.069641 0.000000 0.328471
Si Si4 0.128441 0.809574 0.973537
Si Si5 0.973148 0.145264 0.239373
Si Si6 0.893315 0.500000 0.112280
Si Si7 0.741881 0.000000 0.575085
O O1 0.712231 0.660998 0.302302
O O2 0.718343 0.661413 0.014534
O O3 0.840470 0.577462 0.088884
O O4 0.845829 0.728370 0.110159
O O5 0.250000 0.250000 0.500000
O O6 0.406001 0.330521 0.404442
O O7 0.258273 0.416222 0.490010
O O8 0.000000 0.000000 0.500000
O O9 0.038367 0.926340 0.251015
O O10 0.174455 0.000000 0.342772
O O11 0.046778 0.794960 0.132802
O O12 0.094449 0.867434 0.865251
O O13 0.861463 0.500000 0.298508
O O14 0.000000 0.500000 0.000000
#
# Coordination Sequence:
#
# PCOD9212954 Si02
#       7
#     8   8   4   8   8   4   4
#     4  10  22  40  57  87 122 159 206 256 305 363
#     4  11  20  36  62  86 120 166 209 248 310 367
#     4  12  22  38  64  96 131 153 199 262 329 371
#     4  10  23  37  57  86 129 154 199 255 312 372
#     4  11  22  36  60  91 119 161 198 253 307 386
#     4  10  22  35  64  83 112 161 207 248 297 357
#     4  10  22  38  58  97 128 153 208 269 300 383
#
# _framework density 19.390561999999999
#
# number of rings (size 3 to 8) (size 9 to 14) (size 15 to 20)
#    0.000    1.455    3.636    2.182    2.545    2.182 
#    0.000    0.000    0.000    0.000    0.000    5.091 
#    0.000    0.000    0.000    0.000    0.000    0.000 
#
# Total GULP energy -122473.254655 kJ/mol
# GULP energy per Si atom -5566.966121 kJ/mol
# Density = 1.934643 g / cm^3
# Si number density = 19.390562 Si / 1000 Ang^3
#
#
#
# Elastic Constant Matrix: (Units=GPa)
#
#
# Indices 1 2 3 4 5 6 
#
# 1 79.9248 33.5586 37.8915 0.0000 -13.4115 0.0000
# 2 33.5586 116.9418 38.1619 0.0000 -0.4613 0.0000
# 3 37.8915 38.1619 81.7747 0.0000 -27.5169 0.0000
# 4 0.0000 0.0000 0.0000 29.6460 0.0000 0.9529
# 5 -13.4115 -0.4613 -27.5169 0.0000 49.8087 0.0000
# 6 0.0000 0.0000 0.0000 0.9529 0.0000 13.3568
#
#
#
# Elastic Compliance Matrix: (Units=1/GPa)
#
#
# Indices 1 2 3 4 5 6 
#
# 1 0.016766 -0.002827 -0.006067 0.000000 0.001136 0.000000
# 2 -0.002827 0.010964 -0.004949 0.000000 -0.003393 0.000000
# 3 -0.006067 -0.004949 0.020617 0.000000 0.009710 0.000000
# 4 0.000000 0.000000 0.000000 0.033809 0.000000 -0.002412
# 5 0.001136 -0.003393 0.009710 0.000000 0.025716 0.000000
# 6 0.000000 0.000000 0.000000 -0.002412 0.000000 0.075040
#
#
# Mechanical properties :
#
#
# Convention : Reuss Voigt Hill
#
# Bulk Modulus (GPa) = 48.39907 55.31838 51.85872
# Shear Modulus (GPa) = 22.99019 29.83090 26.41055
#
# Velocity S-wave (km/s) = 3.44705 3.92653 3.69457
# Velocity P-wave (km/s) = 6.39196 7.01051 6.70837
#
# Compressibility (1/GPa) = 0.02066156
#
# Stress axis : x y z
#
# Youngs Moduli (GPa) = 59.64555 91.20765 48.50405
#
# Poissons Ratio (x) = 0.25783 0.29427
# Poissons Ratio (y) = 0.16861 0.24003
# Poissons Ratio (z) = 0.36187 0.45135
#
# Static dielectric constant tensor:
#      x y z
#    x 1.708750 0.000000 0.003300 
#    y 0.000000 1.755880 0.000000 
#    z 0.003300 0.000000 1.724810 
# 
# From -- ./inp_files/61122.got.cif
#   From: 2010.05.17/outbox.cif.g08.bks.cpg/sg12_31_cif.got.tgz:61122.got - 2010.06.03 13:09:07.
