data_PCOD9212653
_publ_section_title
;
Structure prediction by ZEFSAII (Michael W. Deem and Ramdas Pophale) SiO2 
 PCOD9212653
Probable space group: C 2/M
;
_chemical_formula_sum "Si O2"
_cell_formula_units_Z 52
_cell_length_a 19.389717
_cell_length_b 21.320201
_cell_length_c 4.983964
_cell_angle_alpha 90.000000
_cell_angle_beta 87.854963
_cell_angle_gamma 90.000000
_cell_volume 2058.890440
_symmetry_space_group_name_H-M "C 2/M"
_symmetry_group_IT_number 12
_symmetry_cell_setting 'monoclinic'
loop_
_space_group_symop_operation_xyz
x,y,z
-x,y,-z
-x,-y,-z
x,-y,z
1/2+x,1/2+y,z
1/2-x,1/2+y,-z
1/2-x,1/2-y,-z
1/2+x,1/2-y,z
loop_
_atom_site_type_symbol
_atom_site_label
_atom_site_fract_x
_atom_site_fract_y
_atom_site_fract_z
Si Si1 0.131901 0.387687 0.944651
Si Si2 0.500000 0.744899 0.500000
Si Si3 0.895453 0.849268 0.793029
Si Si4 0.746333 0.811931 0.682462
Si Si5 0.000000 0.676178 0.000000
Si Si6 0.600674 0.430334 0.731741
Si Si7 0.756354 0.565748 0.680762
Si Si8 0.551912 0.000000 0.736608
O O1 0.177634 0.326057 0.862796
O O2 0.099313 0.437023 0.736811
O O3 0.063893 0.363200 0.103190
O O4 0.183786 0.428033 0.114327
O O5 0.558266 0.703384 0.351243
O O6 0.471592 0.785543 0.257137
O O7 0.818200 0.820794 0.831598
O O8 0.897339 0.905969 0.573819
O O9 0.925093 0.876207 0.066452
O O10 0.750000 0.750000 0.500000
O O11 0.742621 0.872709 0.494597
O O12 0.569357 0.500000 0.754894
O O13 0.680143 0.435381 0.817305
O O14 0.762130 0.500000 0.525733
O O15 0.500000 0.000000 0.500000
O O16 0.500000 0.000000 0.000000
#
# Coordination Sequence:
#
# PCOD9212653 Si02
#       8
#     8   4   8   8   4   8   8   4
#     4  12  26  45  74 105 144 196 250 312 371 434
#     4  12  28  52  69  95 144 198 238 292 384 450
#     4  11  23  45  69 101 139 190 236 297 368 450
#     4  11  26  43  70 107 144 191 253 316 372 443
#     4  12  30  45  70  98 143 194 246 298 362 452
#     4  10  21  42  71 107 141 173 231 298 365 434
#     4  10  23  42  70 106 145 191 239 304 374 442
#     4  12  30  50  76 112 158 197 259 305 371 452
#
# _framework density 25.256319999999999
#
# number of rings (size 3 to 8) (size 9 to 14) (size 15 to 20)
#    0.000    0.923    3.077    2.308    8.615    2.462 
#    0.000    2.308    0.000    0.000    0.000    0.000 
#    0.000    0.000    0.000    0.000    0.000    0.000 
#
# Total GULP energy -145459.685476 kJ/mol
# GULP energy per Si atom -5594.603288 kJ/mol
# Density = 2.519884 g / cm^3
# Si number density = 25.256320 Si / 1000 Ang^3
#
#
#
# Elastic Constant Matrix: (Units=GPa)
#
#
# Indices 1 2 3 4 5 6 
#
# 1 107.0298 2.0993 -9.9402 0.0000 -18.6420 0.0000
# 2 2.0993 118.0506 5.8720 0.0000 -6.7282 0.0000
# 3 -9.9402 5.8720 64.9137 0.0000 -3.9327 0.0000
# 4 0.0000 0.0000 0.0000 39.3286 0.0000 -0.3748
# 5 -18.6420 -6.7282 -3.9327 0.0000 34.6227 0.0000
# 6 0.0000 0.0000 0.0000 -0.3748 0.0000 15.9532
#
#
#
# Elastic Compliance Matrix: (Units=1/GPa)
#
#
# Indices 1 2 3 4 5 6 
#
# 1 0.010556 0.000052 0.001970 0.000000 0.005917 0.000000
# 2 0.000052 0.008596 -0.000671 0.000000 0.001622 0.000000
# 3 0.001970 -0.000671 0.015934 0.000000 0.002740 0.000000
# 4 0.000000 0.000000 0.000000 0.025432 0.000000 0.000598
# 5 0.005917 0.001622 0.002740 0.000000 0.032695 0.000000
# 6 0.000000 0.000000 0.000000 0.000598 0.000000 0.062697
#
#
# Mechanical properties :
#
#
# Convention : Reuss Voigt Hill
#
# Bulk Modulus (GPa) = 26.46487 31.78403 29.12445
# Shear Modulus (GPa) = 30.15592 37.44511 33.80052
#
# Velocity S-wave (km/s) = 3.45917 3.85464 3.66225
# Velocity P-wave (km/s) = 5.14352 5.69411 5.42580
#
# Compressibility (1/GPa) = 0.03778594
#
# Stress axis : x y z
#
# Youngs Moduli (GPa) = 94.73439 116.33504 62.76077
#
# Poissons Ratio (x) = -0.00600 -0.12365
# Poissons Ratio (y) = -0.00488 0.04214
# Poissons Ratio (z) = -0.18665 0.07811
#
# Static dielectric constant tensor:
#      x y z
#    x 2.022820 0.000000 -0.091450 
#    y 0.000000 1.982330 0.000000 
#    z -0.091450 0.000000 2.122800 
# 
# From -- ./inp_files/21201.got.cif
#   From: 2010.05.17/outbox.cif.g08.bks.cpg/sg12_11_cif.got.tgz:21201.got - 2010.06.03 13:09:07.
