data_PCOD9212641
_publ_section_title
;
Structure prediction by ZEFSAII (Michael W. Deem and Ramdas Pophale) SiO2 
 PCOD9212641
Probable space group: C 2/M
;
_chemical_formula_sum "Si O2"
_cell_formula_units_Z 58
_cell_length_a 21.588131
_cell_length_b 9.469356
_cell_length_c 19.288296
_cell_angle_alpha 90.000000
_cell_angle_beta 47.391143
_cell_angle_gamma 90.000000
_cell_volume 2902.035407
_symmetry_space_group_name_H-M "C 2/M"
_symmetry_group_IT_number 12
_symmetry_cell_setting 'monoclinic'
loop_
_space_group_symop_operation_xyz
x,y,z
-x,y,-z
-x,-y,-z
x,-y,z
1/2+x,1/2+y,z
1/2-x,1/2+y,-z
1/2-x,1/2-y,-z
1/2+x,1/2-y,z
loop_
_atom_site_type_symbol
_atom_site_label
_atom_site_fract_x
_atom_site_fract_y
_atom_site_fract_z
Si Si1 0.910561 0.662369 0.530032
Si Si2 0.112532 0.161057 0.737242
Si Si3 0.720383 0.661524 0.869895
Si Si4 0.256351 0.331257 0.704751
Si Si5 0.051230 0.761776 0.060892
Si Si6 0.500000 0.000000 0.000000
Si Si7 0.864160 0.665378 0.861225
Si Si8 0.960233 0.336115 0.333598
O O1 0.880557 0.500000 0.563519
O O2 0.844802 0.772559 0.610318
O O3 0.925962 0.683240 0.436613
O O4 0.000000 0.675201 0.500000
O O5 0.184901 0.262039 0.710979
O O6 0.080183 0.228632 0.690088
O O7 0.034677 0.164295 0.850235
O O8 0.141437 0.000000 0.706940
O O9 0.746342 0.500000 0.833153
O O10 0.739236 0.767270 0.793480
O O11 0.776836 0.710697 0.892718
O O12 0.621712 0.662074 0.961699
O O13 0.251374 0.500000 0.708854
O O14 0.100394 0.733799 0.096058
O O15 0.024836 0.622947 0.038700
O O16 0.855302 0.500000 0.883683
O O17 0.938792 0.682330 0.747952
O O18 0.944019 0.500000 0.324538
#
# Coordination Sequence:
#
# PCOD9212641 Si02
#       8
#     8   8   8   8   8   2   8   8
#     4  10  21  42  70  97 127 164 207 257 320 391
#     4  11  24  42  64  90 129 167 213 270 317 383
#     4  11  23  40  63  90 128 169 215 270 325 382
#     4  12  27  42  62  92 127 166 214 266 321 382
#     4  11  23  38  63  93 126 169 217 263 319 377
#     4  12  24  36  62  88 120 168 206 270 300 388
#     4   9  18  37  62  93 129 164 208 259 317 385
#     4   9  19  37  66  96 124 166 211 254 321 387
#
# _framework density 19.985972
#
# number of rings (size 3 to 8) (size 9 to 14) (size 15 to 20)
#    0.000    1.517    0.690    4.138    4.828    3.586 
#    0.000    8.276    0.000    0.000    0.000    0.000 
#    0.000    0.000    0.000    0.000    0.000    0.000 
#
# Total GULP energy -161733.947065 kJ/mol
# GULP energy per Si atom -5577.032657 kJ/mol
# Density = 1.994048 g / cm^3
# Si number density = 19.985972 Si / 1000 Ang^3
#
#
#
# Elastic Constant Matrix: (Units=GPa)
#
#
# Indices 1 2 3 4 5 6 
#
# 1 75.9591 53.7525 19.5367 -0.0002 3.2185 0.0000
# 2 53.7525 144.2146 54.2011 -0.0002 2.7754 0.0000
# 3 19.5367 54.2011 86.8119 -0.0001 2.8880 0.0000
# 4 -0.0002 -0.0002 -0.0001 -26.8610 0.0001 6.4444
# 5 3.2185 2.7754 2.8880 0.0001 24.2591 0.0000
# 6 0.0000 0.0000 0.0000 6.4444 0.0000 21.9506
#
#
#
# Elastic Compliance Matrix: (Units=1/GPa)
#
#
# Indices 1 2 3 4 5 6 
#
# 1 0.017948 -0.006743 0.000225 0.000000 -0.001637 0.000000
# 2 -0.006743 0.011596 -0.005731 0.000000 0.000250 0.000000
# 3 0.000225 -0.005731 0.015086 0.000000 -0.001170 0.000000
# 4 0.000000 0.000000 0.000000 -0.034779 0.000000 0.010211
# 5 -0.001637 0.000250 -0.001170 0.000000 0.041549 0.000000
# 6 0.000000 0.000000 0.000000 0.010211 0.000000 0.042559
#
#
# Mechanical properties :
#
#
# Convention : Reuss Voigt Hill
#
# Bulk Modulus (GPa) = 49.67074 62.44067 56.05571
# Shear Modulus (GPa) = 39.94633 15.83611 27.89122
#
# Velocity S-wave (km/s) = 4.47555 2.81795 3.73975
# Velocity P-wave (km/s) = 7.18430 6.47285 6.83784
#
# Compressibility (1/GPa) = 0.02013258
#
# Stress axis : x y z
#
# Youngs Moduli (GPa) = 55.71665 86.23299 66.28817
#
# Poissons Ratio (x) = 0.58145 -0.01493
# Poissons Ratio (y) = 0.37569 0.37991
# Poissons Ratio (z) = -0.01255 0.49421
#
# Static dielectric constant tensor:
#      x y z
#    x 1.707640 0.000000 -0.005050 
#    y 0.000000 1.678950 0.000000 
#    z -0.005050 0.000000 1.713540 
# 
# From -- ./inp_files/324527.got.cif
#   From: 2010.05.17/outbox.cif.g08.bks.cpg/sg12_163_cif.got.tgz:324527.got - 2010.06.03 13:09:07.
