data_PCOD9212692
_publ_section_title
;
Structure prediction by ZEFSAII (Michael W. Deem and Ramdas Pophale) SiO2 
 PCOD9212692
Probable space group: C 2/M
;
_chemical_formula_sum "Si O2"
_cell_formula_units_Z 56
_cell_length_a 11.647274
_cell_length_b 16.194169
_cell_length_c 14.449055
_cell_angle_alpha 90.000000
_cell_angle_beta 73.860206
_cell_angle_gamma 90.000000
_cell_volume 2617.934642
_symmetry_space_group_name_H-M "C 2/M"
_symmetry_group_IT_number 12
_symmetry_cell_setting 'monoclinic'
loop_
_space_group_symop_operation_xyz
x,y,z
-x,y,-z
-x,-y,-z
x,-y,z
1/2+x,1/2+y,z
1/2-x,1/2+y,-z
1/2-x,1/2-y,-z
1/2+x,1/2-y,z
loop_
_atom_site_type_symbol
_atom_site_label
_atom_site_fract_x
_atom_site_fract_y
_atom_site_fract_z
Si Si1 0.918932 0.287999 0.384186
Si Si2 0.169857 0.307606 0.398189
Si Si3 0.746192 0.370813 0.796524
Si Si4 0.373066 0.092194 0.953659
Si Si5 0.403836 0.095813 0.214565
Si Si6 0.983335 0.093645 0.894351
Si Si7 0.769242 0.184202 0.863129
O O1 0.871894 0.330510 0.489405
O O2 0.803417 0.231989 0.380780
O O3 0.936432 0.348336 0.294018
O O4 0.053607 0.256236 0.382598
O O5 0.188967 0.376899 0.316147
O O6 0.807106 0.413084 0.869912
O O7 0.612246 0.401998 0.819995
O O8 0.748294 0.274322 0.827012
O O9 0.506496 0.113075 0.891415
O O10 0.366446 0.000000 0.997861
O O11 0.308326 0.161028 0.028770
O O12 0.274612 0.121302 0.206076
O O13 0.412799 0.000000 0.234592
O O14 0.901640 0.161993 0.865158
O O15 0.932713 0.000000 0.898079
O O16 0.000000 0.110297 0.000000
#
# Coordination Sequence:
#
# PCOD9212692 Si02
#       7
#     8   8   8   8   8   8   8
#     4  10  21  43  65  96 122 162 208 265 331 395
#     4  10  22  40  68  94 125 158 209 271 331 382
#     4  12  24  38  65  97 122 161 215 271 312 376
#     4  11  23  41  60  87 130 172 209 255 317 379
#     4  11  23  39  63  91 128 167 210 261 320 388
#     4  11  25  43  62  87 130 177 213 258 324 389
#     4  12  25  40  64  91 128 173 219 263 314 385
#
# _framework density 21.390908
#
# number of rings (size 3 to 8) (size 9 to 14) (size 15 to 20)
#    0.000    1.000    4.286    2.571    4.000    1.143 
#    0.000    2.857    0.000    0.000    0.000    5.000 
#    0.000    0.000    0.000    0.000    0.000    0.000 
#
# Total GULP energy -156270.002467 kJ/mol
# GULP energy per Si atom -5581.071517 kJ/mol
# Density = 2.134222 g / cm^3
# Si number density = 21.390908 Si / 1000 Ang^3
#
#
#
# Elastic Constant Matrix: (Units=GPa)
#
#
# Indices 1 2 3 4 5 6 
#
# 1 119.8430 -0.4835 1.4424 0.0000 1.3525 0.0000
# 2 -0.4835 40.6914 5.6094 0.0000 2.4002 0.0000
# 3 1.4424 5.6094 72.6237 0.0000 7.5991 0.0000
# 4 0.0000 0.0000 0.0000 23.6006 0.0000 4.5800
# 5 1.3525 2.4002 7.5991 0.0000 35.0952 0.0000
# 6 0.0000 0.0000 0.0000 4.5800 0.0000 25.0829
#
#
#
# Elastic Compliance Matrix: (Units=1/GPa)
#
#
# Indices 1 2 3 4 5 6 
#
# 1 0.008350 0.000137 -0.000145 0.000000 -0.000300 0.000000
# 2 0.000137 0.024901 -0.001788 0.000000 -0.001321 0.000000
# 3 -0.000145 -0.001788 0.014219 0.000000 -0.002951 0.000000
# 4 0.000000 0.000000 0.000000 0.043928 0.000000 -0.008021
# 5 -0.000300 -0.001321 -0.002951 0.000000 0.029235 0.000000
# 6 0.000000 0.000000 0.000000 -0.008021 0.000000 0.041332
#
#
# Mechanical properties :
#
#
# Convention : Reuss Voigt Hill
#
# Bulk Modulus (GPa) = 22.79018 27.36607 25.07813
# Shear Modulus (GPa) = 27.74936 31.86174 29.80555
#
# Velocity S-wave (km/s) = 3.60564 3.86359 3.73684
# Velocity P-wave (km/s) = 5.29259 5.72051 5.51070
#
# Compressibility (1/GPa) = 0.04387855
#
# Stress axis : x y z
#
# Youngs Moduli (GPa) = 119.76150 40.15868 70.32658
#
# Poissons Ratio (x) = -0.00550 0.01020
# Poissons Ratio (y) = -0.01640 0.12573
# Poissons Ratio (z) = 0.01737 0.07180
#
# Static dielectric constant tensor:
#      x y z
#    x 1.881200 0.000000 -0.000070 
#    y 0.000000 1.757160 0.000000 
#    z -0.000070 0.000000 1.774010 
# 
# From -- ./inp_files/206064.got.cif
#   From: 2010.05.17/outbox.cif.g08.bks.cpg/sg12_104_cif.got.tgz:206064.got - 2010.06.03 13:09:07.
