data_PCOD9212771
_publ_section_title
;
Structure prediction by ZEFSAII (Michael W. Deem and Ramdas Pophale) SiO2 
 PCOD9212771
Probable space group: C 2/M
;
_chemical_formula_sum "Si O2"
_cell_formula_units_Z 48
_cell_length_a 14.032078
_cell_length_b 19.800106
_cell_length_c 11.548293
_cell_angle_alpha 90.000000
_cell_angle_beta 138.592728
_cell_angle_gamma 90.000000
_cell_volume 2122.150249
_symmetry_space_group_name_H-M "C 2/M"
_symmetry_group_IT_number 12
_symmetry_cell_setting 'monoclinic'
loop_
_space_group_symop_operation_xyz
x,y,z
-x,y,-z
-x,-y,-z
x,-y,z
1/2+x,1/2+y,z
1/2-x,1/2+y,-z
1/2-x,1/2-y,-z
1/2+x,1/2-y,z
loop_
_atom_site_type_symbol
_atom_site_label
_atom_site_fract_x
_atom_site_fract_y
_atom_site_fract_z
Si Si1 0.932536 0.000000 0.312345
Si Si2 0.703780 0.424253 0.136646
Si Si3 0.440059 0.358951 0.210332
Si Si4 0.025029 0.619755 0.721307
Si Si5 0.586146 0.000000 0.958605
Si Si6 0.637999 0.752739 0.708870
Si Si7 0.785903 0.161294 0.652413
O O1 0.983290 0.069164 0.301017
O O2 0.000000 0.000000 0.500000
O O3 0.757694 0.000000 0.140879
O O4 0.663262 0.500000 0.071754
O O5 0.877756 0.416952 0.289009
O O6 0.656135 0.401765 0.219257
O O7 0.642590 0.375437 0.982691
O O8 0.340323 0.318291 0.209020
O O9 0.587232 0.318451 0.317977
O O10 0.047351 0.568011 0.848642
O O11 0.096153 0.694408 0.772816
O O12 0.858853 0.635301 0.541412
O O13 0.500000 0.000000 0.000000
O O14 0.500000 0.745689 0.500000
O O15 0.752513 0.783707 0.722556
#
# Coordination Sequence:
#
# PCOD9212771 Si02
#       7
#     4   8   8   8   4   8   8
#     4  12  28  48  67 103 142 186 223 283 358 401
#     4  11  21  41  63  97 143 174 222 284 343 407
#     4  12  23  44  70  98 144 181 227 292 339 410
#     4  10  21  44  65  96 134 176 226 282 338 402
#     4  12  26  48  67 101 138 186 231 279 340 424
#     4   9  22  45  65  98 138 180 231 284 339 408
#     4  10  25  38  70 107 124 183 233 275 354 405
#
# _framework density 22.618568
#
# number of rings (size 3 to 8) (size 9 to 14) (size 15 to 20)
#    0.000    1.333    3.333    2.500    4.667    6.667 
#    3.000    0.000    0.000    0.000    0.000    0.000 
#    0.000    0.000    0.000    0.000    0.000    0.000 
#
# Total GULP energy -133893.484543 kJ/mol
# GULP energy per Si atom -5578.895189 kJ/mol
# Density = 2.256709 g / cm^3
# Si number density = 22.618568 Si / 1000 Ang^3
#
#
#
# Elastic Constant Matrix: (Units=GPa)
#
#
# Indices 1 2 3 4 5 6 
#
# 1 117.9777 35.1481 31.9506 0.0000 3.6040 0.0000
# 2 35.1481 104.8353 20.0003 0.0000 -4.3688 0.0000
# 3 31.9506 20.0003 96.3540 0.0000 3.7898 0.0000
# 4 0.0000 0.0000 0.0000 26.8336 0.0000 -9.9977
# 5 3.6040 -4.3688 3.7898 0.0000 27.9947 0.0000
# 6 0.0000 0.0000 0.0000 -9.9977 0.0000 33.3443
#
#
#
# Elastic Compliance Matrix: (Units=1/GPa)
#
#
# Indices 1 2 3 4 5 6 
#
# 1 0.010123 -0.002939 -0.002692 0.000000 -0.001397 0.000000
# 2 -0.002939 0.010880 -0.001373 0.000000 0.002262 0.000000
# 3 -0.002692 -0.001373 0.011613 0.000000 -0.001440 0.000000
# 4 0.000000 0.000000 0.000000 0.041954 0.000000 0.012579
# 5 -0.001397 0.002262 -0.001440 0.000000 0.036449 0.000000
# 6 0.000000 0.000000 0.000000 0.012579 0.000000 0.033762
#
#
# Mechanical properties :
#
#
# Convention : Reuss Voigt Hill
#
# Bulk Modulus (GPa) = 53.73713 54.81833 54.27773
# Shear Modulus (GPa) = 30.30474 33.10571 31.70523
#
# Velocity S-wave (km/s) = 3.66432 3.82992 3.74804
# Velocity P-wave (km/s) = 6.45853 6.62166 6.54060
#
# Compressibility (1/GPa) = 0.01860911
#
# Stress axis : x y z
#
# Youngs Moduli (GPa) = 98.78094 91.90982 86.11308
#
# Poissons Ratio (x) = 0.27010 0.23181
# Poissons Ratio (y) = 0.29029 0.11823
# Poissons Ratio (z) = 0.26591 0.12618
#
# Static dielectric constant tensor:
#      x y z
#    x 1.888630 0.000000 0.031790 
#    y 0.000000 1.906680 0.000000 
#    z 0.031790 0.000000 1.875140 
# 
# From -- ./inp_files/148058.got.cif
#   From: 2010.05.17/outbox.cif.g08.bks.cpg/sg12_75_cif.got.tgz:148058.got - 2010.06.03 13:09:07.
