data_PCOD9212121
_publ_section_title
;
Structure prediction by ZEFSAII (Michael W. Deem and Ramdas Pophale) SiO2 
 PCOD9212121
Probable space group: C 2/M
;
_chemical_formula_sum "Si O2"
_cell_formula_units_Z 56
_cell_length_a 8.335597
_cell_length_b 13.493645
_cell_length_c 26.097865
_cell_angle_alpha 90.000000
_cell_angle_beta 54.225450
_cell_angle_gamma 90.000000
_cell_volume 2381.579387
_symmetry_space_group_name_H-M "C 2/M"
_symmetry_group_IT_number 12
_symmetry_cell_setting 'monoclinic'
loop_
_space_group_symop_operation_xyz
x,y,z
-x,y,-z
-x,-y,-z
x,-y,z
1/2+x,1/2+y,z
1/2-x,1/2+y,-z
1/2-x,1/2-y,-z
1/2+x,1/2-y,z
loop_
_atom_site_type_symbol
_atom_site_label
_atom_site_fract_x
_atom_site_fract_y
_atom_site_fract_z
Si Si1 0.729258 0.619712 0.687896
Si Si2 0.208212 0.696498 0.954208
Si Si3 0.283226 0.601493 0.518473
Si Si4 0.984707 0.613910 0.736791
Si Si5 0.739863 0.619715 0.224709
Si Si6 0.634128 0.695295 0.865429
Si Si7 0.719365 0.801476 0.433935
O O1 0.744170 0.500000 0.680141
O O2 0.880134 0.653608 0.704525
O O3 0.494055 0.638073 0.741490
O O4 0.770386 0.672306 0.626345
O O5 0.416621 0.648273 0.899431
O O6 0.170195 0.778546 0.917682
O O7 0.250000 0.750000 0.000000
O O8 0.000000 0.639525 0.000000
O O9 0.500000 0.593057 0.500000
O O10 0.167232 0.500000 0.547654
O O11 0.199135 0.695141 0.564159
O O12 0.321466 0.619316 0.451440
O O13 0.023753 0.500000 0.717353
O O14 0.807067 0.628324 0.810541
O O15 0.179959 0.645015 0.732502
O O16 0.775894 0.500000 0.210377
O O17 0.850344 0.697909 0.166907
O O18 0.500000 0.804996 0.500000
#
# Coordination Sequence:
#
# PCOD9212121 Si02
#       7
#     8   8   8   8   8   8   8
#     4  10  22  41  64  92 126 159 210 272 320 386
#     4   9  19  32  58  92 125 169 212 253 309 373
#     4   9  19  39  62  88 117 154 204 247 309 382
#     4  10  22  41  65  95 124 165 215 265 325 382
#     4  10  22  41  65  94 125 165 213 266 325 379
#     4  11  18  38  63  86 125 167 213 257 318 369
#     4  10  21  41  64  86 119 166 205 251 325 395
#
# _framework density 23.513807
#
# number of rings (size 3 to 8) (size 9 to 14) (size 15 to 20)
#    0.000    2.143    1.429    1.286    0.000    1.143 
#   10.286    0.000    0.000   17.143    0.000    0.000 
#    0.000    0.000    0.000    0.000    0.000    0.000 
#
# Total GULP energy -156150.510066 kJ/mol
# GULP energy per Si atom -5576.803931 kJ/mol
# Density = 2.346029 g / cm^3
# Si number density = 23.513807 Si / 1000 Ang^3
#
#
#
# Elastic Constant Matrix: (Units=GPa)
#
#
# Indices 1 2 3 4 5 6 
#
# 1 126.9946 19.2203 41.4218 0.0000 28.0128 0.0001
# 2 19.2203 90.3581 13.4785 0.0000 16.0319 0.0000
# 3 41.4218 13.4785 104.0792 0.0000 26.4453 0.0001
# 4 0.0000 0.0000 0.0000 10.7927 0.0000 4.7542
# 5 28.0128 16.0319 26.4453 0.0000 59.7049 -0.0001
# 6 0.0001 0.0000 0.0001 4.7542 -0.0001 15.7935
#
#
#
# Elastic Compliance Matrix: (Units=1/GPa)
#
#
# Indices 1 2 3 4 5 6 
#
# 1 0.009649 -0.001093 -0.002955 0.000000 -0.002925 0.000000
# 2 -0.001093 0.011804 -0.000472 0.000000 -0.002448 0.000000
# 3 -0.002955 -0.000472 0.011787 0.000000 -0.003708 0.000000
# 4 0.000000 0.000000 0.000000 0.106820 0.000000 -0.032155
# 5 -0.002925 -0.002448 -0.003708 0.000000 0.020421 0.000000
# 6 0.000000 0.000000 0.000000 -0.032155 0.000000 0.072997
#
#
# Mechanical properties :
#
#
# Convention : Reuss Voigt Hill
#
# Bulk Modulus (GPa) = 41.32113 52.18590 46.75351
# Shear Modulus (GPa) = 19.95331 33.74562 26.84947
#
# Velocity S-wave (km/s) = 2.91620 3.79243 3.38281
# Velocity P-wave (km/s) = 5.38054 6.43573 5.93165
#
# Compressibility (1/GPa) = 0.02420070
#
# Stress axis : x y z
#
# Youngs Moduli (GPa) = 103.63951 84.71550 84.83573
#
# Poissons Ratio (x) = 0.09257 0.25073
# Poissons Ratio (y) = 0.11324 0.04002
# Poissons Ratio (z) = 0.30630 0.03997
#
# Static dielectric constant tensor:
#      x y z
#    x 2.003980 0.000000 -0.040230 
#    y 0.000000 1.947640 0.000000 
#    z -0.040230 0.000000 1.893040 
# 
# From -- ./inp_files/332852.got.cif
#   From: 2010.05.17/outbox.cif.g08.bks.cpg/sg12_167_cif.got.tgz:332852.got - 2010.06.03 13:09:07.
