data_PCOD9212744
_publ_section_title
;
Structure prediction by ZEFSAII (Michael W. Deem and Ramdas Pophale) SiO2 
 PCOD9212744
Probable space group: C 2/M
;
_chemical_formula_sum "Si O2"
_cell_formula_units_Z 64
_cell_length_a 9.236056
_cell_length_b 27.510237
_cell_length_c 12.013029
_cell_angle_alpha 90.000000
_cell_angle_beta 81.204864
_cell_angle_gamma 90.000000
_cell_volume 3016.452169
_symmetry_space_group_name_H-M "C 2/M"
_symmetry_group_IT_number 12
_symmetry_cell_setting 'monoclinic'
loop_
_space_group_symop_operation_xyz
x,y,z
-x,y,-z
-x,-y,-z
x,-y,z
1/2+x,1/2+y,z
1/2-x,1/2+y,-z
1/2-x,1/2-y,-z
1/2+x,1/2-y,z
loop_
_atom_site_type_symbol
_atom_site_label
_atom_site_fract_x
_atom_site_fract_y
_atom_site_fract_z
Si Si1 0.849436 0.054029 0.632559
Si Si2 0.629024 0.795315 0.664012
Si Si3 0.831465 0.444291 0.118803
Si Si4 0.030539 0.804512 0.366531
Si Si5 0.656030 0.118617 0.495747
Si Si6 0.890543 0.898297 0.297762
Si Si7 0.463467 0.149546 0.882216
Si Si8 0.659363 0.605165 0.938868
O O1 0.774660 0.057635 0.762500
O O2 0.763897 0.092158 0.567995
O O3 0.019135 0.065777 0.633314
O O4 0.828225 0.000000 0.591482
O O5 0.800241 0.792529 0.672602
O O6 0.565547 0.742695 0.645844
O O7 0.626409 0.829298 0.554769
O O8 0.536523 0.821134 0.772829
O O9 0.883769 0.500000 0.102913
O O10 0.958755 0.404209 0.124275
O O11 0.735003 0.428420 0.023487
O O12 0.000000 0.818741 0.500000
O O13 0.986070 0.849041 0.292550
O O14 0.500000 0.093238 0.500000
O O15 0.737156 0.117405 0.369115
O O16 0.871704 0.918868 0.177115
O O17 0.287817 0.144106 0.897474
O O18 0.500000 0.171012 0.000000
O O19 0.500000 0.622682 0.000000
#
# Coordination Sequence:
#
# PCOD9212744 Si02
#       8
#     8   8   8   8   8   8   8   8
#     4  11  23  44  70  96 135 185 232 280 344 416
#     4  12  25  45  68 104 136 176 228 286 343 411
#     4  10  21  43  71  97 132 185 235 282 338 409
#     4  12  25  43  70 101 137 180 229 280 344 410
#     4  12  25  42  71  98 141 177 227 285 346 405
#     4  12  24  44  67 101 137 184 224 282 348 413
#     4  10  23  44  69  95 137 183 224 279 345 415
#     4  11  24  40  67  99 133 173 226 284 338 402
#
# _framework density 21.216978999999998
#
# number of rings (size 3 to 8) (size 9 to 14) (size 15 to 20)
#    0.000    0.750    5.000    1.875    5.250    4.250 
#    0.000    1.250    0.000    0.000    0.000    0.000 
#    0.000    0.000    0.000    0.000    0.000    0.000 
#
# Total GULP energy -178876.997295 kJ/mol
# GULP energy per Si atom -5589.906165 kJ/mol
# Density = 2.116869 g / cm^3
# Si number density = 21.216979 Si / 1000 Ang^3
#
#
#
# Elastic Constant Matrix: (Units=GPa)
#
#
# Indices 1 2 3 4 5 6 
#
# 1 128.5349 1.3531 18.5555 0.0000 -11.0841 0.0000
# 2 1.3531 72.2841 2.5728 0.0000 2.4828 0.0000
# 3 18.5555 2.5728 72.4554 0.0000 -6.8131 0.0000
# 4 0.0000 0.0000 0.0000 10.7566 0.0000 -6.1452
# 5 -11.0841 2.4828 -6.8131 0.0000 38.7219 0.0000
# 6 0.0000 0.0000 0.0000 -6.1452 0.0000 10.9626
#
#
#
# Elastic Compliance Matrix: (Units=1/GPa)
#
#
# Indices 1 2 3 4 5 6 
#
# 1 0.008233 -0.000156 -0.001912 0.000000 0.002030 0.000000
# 2 -0.000156 0.013892 -0.000550 0.000000 -0.001032 0.000000
# 3 -0.001912 -0.000550 0.014503 0.000000 0.002040 0.000000
# 4 0.000000 0.000000 0.000000 0.136764 0.000000 0.076664
# 5 0.002030 -0.001032 0.002040 0.000000 0.026831 0.000000
# 6 0.000000 0.000000 0.000000 0.076664 0.000000 0.134193
#
#
# Mechanical properties :
#
#
# Convention : Reuss Voigt Hill
#
# Bulk Modulus (GPa) = 31.85605 35.35968 33.60787
# Shear Modulus (GPa) = 14.28098 28.80777 21.54438
#
# Velocity S-wave (km/s) = 2.59722 3.68879 3.19004
# Velocity P-wave (km/s) = 4.90317 5.90295 5.42613
#
# Compressibility (1/GPa) = 0.03139121
#
# Stress axis : x y z
#
# Youngs Moduli (GPa) = 121.46670 71.98252 68.95324
#
# Poissons Ratio (x) = 0.01121 0.13183
# Poissons Ratio (y) = 0.01892 0.03796
# Poissons Ratio (z) = 0.23224 0.03962
#
# Static dielectric constant tensor:
#      x y z
#    x 1.798210 0.000000 -0.008700 
#    y 0.000000 1.728560 0.000000 
#    z -0.008700 0.000000 1.793150 
# 
# From -- ./inp_files/125755.got.cif
#   From: 2010.05.17/outbox.cif.g08.bks.cpg/sg12_63_cif.got.tgz:125755.got - 2010.06.03 13:09:07.
