data_PCOD9212495
_publ_section_title
;
Structure prediction by ZEFSAII (Michael W. Deem and Ramdas Pophale) SiO2 
 PCOD9212495
Probable space group: C 2/M
;
_chemical_formula_sum "Si O2"
_cell_formula_units_Z 36
_cell_length_a 11.545665
_cell_length_b 28.087730
_cell_length_c 7.858777
_cell_angle_alpha 90.000000
_cell_angle_beta 139.058202
_cell_angle_gamma 90.000000
_cell_volume 1670.034545
_symmetry_space_group_name_H-M "C 2/M"
_symmetry_group_IT_number 12
_symmetry_cell_setting 'monoclinic'
loop_
_space_group_symop_operation_xyz
x,y,z
-x,y,-z
-x,-y,-z
x,-y,z
1/2+x,1/2+y,z
1/2-x,1/2+y,-z
1/2-x,1/2-y,-z
1/2+x,1/2-y,z
loop_
_atom_site_type_symbol
_atom_site_label
_atom_site_fract_x
_atom_site_fract_y
_atom_site_fract_z
Si Si1 0.012748 0.149354 0.812575
Si Si2 0.044115 0.747911 0.843048
Si Si3 0.000000 0.580103 0.000000
Si Si4 0.371458 0.449412 0.517148
Si Si5 0.433237 0.145829 0.244056
O O1 0.957235 0.202129 0.685444
O O2 0.911521 0.101630 0.647216
O O3 0.220447 0.145770 0.001119
O O4 0.000000 0.152455 0.000000
O O5 0.984599 0.698355 0.694486
O O6 0.250000 0.750000 0.000000
O O7 0.000000 0.744498 0.000000
O O8 0.823521 0.551242 0.775172
O O9 0.011470 0.612903 0.847806
O O10 0.500000 0.450008 0.500000
O O11 0.397374 0.500000 0.643179
O O12 0.500000 0.128164 0.500000
#
# Coordination Sequence:
#
# PCOD9212495 Si02
#       5
#     8   8   4   8   8
#     4  10  21  42  63  94 133 173 221 273 328 394
#     4   9  19  37  60  93 136 179 221 271 330 396
#     4  12  23  44  70  98 138 168 219 278 338 394
#     4  11  24  43  68  94 127 173 222 279 337 392
#     4  11  22  39  64 101 136 176 219 267 328 402
#
# _framework density 21.556441
#
# number of rings (size 3 to 8) (size 9 to 14) (size 15 to 20)
#    0.000    1.556    3.333    1.667    0.000    1.333 
#    4.000    6.667    0.000    3.333    0.000    0.000 
#    0.000    0.000    0.000    0.000    0.000    0.000 
#
# Total GULP energy -100343.730201 kJ/mol
# GULP energy per Si atom -5574.651678 kJ/mol
# Density = 2.150738 g / cm^3
# Si number density = 21.556441 Si / 1000 Ang^3
#
#
#
# Elastic Constant Matrix: (Units=GPa)
#
#
# Indices 1 2 3 4 5 6 
#
# 1 129.5823 34.6585 29.5544 0.0000 1.9506 0.0000
# 2 34.6585 187.2029 45.9733 0.0000 -6.6300 0.0000
# 3 29.5544 45.9733 65.1549 0.0000 8.5316 0.0000
# 4 0.0000 0.0000 0.0000 87.3254 0.0000 50.1409
# 5 1.9506 -6.6300 8.5316 0.0000 44.3565 0.0000
# 6 0.0000 0.0000 0.0000 50.1409 0.0000 69.6760
#
#
#
# Elastic Compliance Matrix: (Units=1/GPa)
#
#
# Indices 1 2 3 4 5 6 
#
# 1 0.008701 -0.000763 -0.003430 0.000000 0.000163 0.000000
# 2 -0.000763 0.006687 -0.004624 0.000000 0.001922 0.000000
# 3 -0.003430 -0.004624 0.020760 0.000000 -0.004533 0.000000
# 4 0.000000 0.000000 0.000000 0.019515 0.000000 -0.014044
# 5 0.000163 0.001922 -0.004533 0.000000 0.023697 0.000000
# 6 0.000000 0.000000 0.000000 -0.014044 0.000000 0.024458
#
#
# Mechanical properties :
#
#
# Convention : Reuss Voigt Hill
#
# Bulk Modulus (GPa) = 54.01141 66.92362 60.46751
# Shear Modulus (GPa) = 39.17815 58.38851 48.78333
#
# Velocity S-wave (km/s) = 4.26780 5.21010 4.76231
# Velocity P-wave (km/s) = 7.02821 8.20406 7.63880
#
# Compressibility (1/GPa) = 0.01851461
#
# Stress axis : x y z
#
# Youngs Moduli (GPa) = 114.93011 149.55246 48.16954
#
# Poissons Ratio (x) = 0.11408 0.16522
# Poissons Ratio (y) = 0.08767 0.22273
# Poissons Ratio (z) = 0.39420 0.69150
#
# Static dielectric constant tensor:
#      x y z
#    x 1.776890 0.000000 -0.005370 
#    y 0.000000 1.867060 0.000000 
#    z -0.005370 0.000000 1.729580 
# 
# From -- ./inp_files/52947.got.cif
#   From: 2010.05.17/outbox.cif.g08.bks.cpg/sg12_27_cif.got.tgz:52947.got - 2010.06.03 13:09:07.
