data_PCOD9212172
_publ_section_title
;
Structure prediction by ZEFSAII (Michael W. Deem and Ramdas Pophale) SiO2 
 PCOD9212172
Probable space group: C 2/M
;
_chemical_formula_sum "Si O2"
_cell_formula_units_Z 40
_cell_length_a 11.587699
_cell_length_b 25.577838
_cell_length_c 8.886005
_cell_angle_alpha 90.000000
_cell_angle_beta 125.860977
_cell_angle_gamma 90.000000
_cell_volume 2134.464312
_symmetry_space_group_name_H-M "C 2/M"
_symmetry_group_IT_number 12
_symmetry_cell_setting 'monoclinic'
loop_
_space_group_symop_operation_xyz
x,y,z
-x,y,-z
-x,-y,-z
x,-y,z
1/2+x,1/2+y,z
1/2-x,1/2+y,-z
1/2-x,1/2-y,-z
1/2+x,1/2-y,z
loop_
_atom_site_type_symbol
_atom_site_label
_atom_site_fract_x
_atom_site_fract_y
_atom_site_fract_z
Si Si1 0.936918 0.645273 0.287617
Si Si2 0.665443 0.220558 0.304173
Si Si3 0.636596 0.939774 0.994996
Si Si4 0.659728 0.706943 0.023224
Si Si5 0.873256 0.141808 0.286708
O O1 0.777873 0.666613 0.172599
O O2 0.000000 0.642115 0.500000
O O3 0.033931 0.686270 0.266335
O O4 0.922855 0.589944 0.196215
O O5 0.750000 0.250000 0.500000
O O6 0.617829 0.263611 0.146414
O O7 0.771721 0.181548 0.300229
O O8 0.770662 0.906269 0.160362
O O9 0.676283 0.000000 0.000909
O O10 0.500000 0.937900 0.000000
O O11 0.750000 0.750000 0.000000
O O12 0.579480 0.673277 0.829903
O O13 0.000000 0.128265 0.500000
#
# Coordination Sequence:
#
# PCOD9212172 Si02
#       5
#     8   8   8   8   8
#     4  11  21  37  57  87 118 152 205 240 288 362
#     4  11  21  34  55  83 122 166 189 237 286 349
#     4  10  21  41  65  85 111 151 200 259 306 337
#     4   9  21  33  51  79 117 160 194 230 279 350
#     4  10  22  39  56  87 119 152 204 244 286 362
#
# _framework density 18.740065999999999
#
# number of rings (size 3 to 8) (size 9 to 14) (size 15 to 20)
#    0.000    1.800    4.000    0.000    5.600    0.800 
#    0.000    0.000    0.000    0.000    0.000    1.400 
#    0.000    0.000    0.000    0.000    0.000    0.800 
#
# Total GULP energy -111485.476532 kJ/mol
# GULP energy per Si atom -5574.273827 kJ/mol
# Density = 1.869741 g / cm^3
# Si number density = 18.740066 Si / 1000 Ang^3
#
#
#
# Elastic Constant Matrix: (Units=GPa)
#
#
# Indices 1 2 3 4 5 6 
#
# 1 62.6505 49.2062 50.7514 0.0000 -13.3869 0.0000
# 2 49.2062 137.6531 60.6896 0.0000 -19.2944 0.0000
# 3 50.7514 60.6896 163.2904 0.0000 -19.6405 0.0000
# 4 0.0000 0.0000 0.0000 23.5582 0.0000 10.7871
# 5 -13.3869 -19.2944 -19.6405 0.0000 27.7284 0.0000
# 6 0.0000 0.0000 0.0000 10.7871 0.0000 7.6925
#
#
#
# Elastic Compliance Matrix: (Units=1/GPa)
#
#
# Indices 1 2 3 4 5 6 
#
# 1 0.026196 -0.006440 -0.005210 0.000000 0.004476 0.000000
# 2 -0.006440 0.010722 -0.001596 0.000000 0.003221 0.000000
# 3 -0.005210 -0.001596 0.008636 0.000000 0.002491 0.000000
# 4 0.000000 0.000000 0.000000 0.118601 0.000000 -0.166311
# 5 0.004476 0.003221 0.002491 0.000000 0.042231 0.000000
# 6 0.000000 0.000000 0.000000 -0.166311 0.000000 0.363210
#
#
# Mechanical properties :
#
#
# Convention : Reuss Voigt Hill
#
# Bulk Modulus (GPa) = 52.45900 76.09872 64.27886
# Shear Modulus (GPa) = 8.29955 25.32561 16.81258
#
# Velocity S-wave (km/s) = 2.10675 3.68015 2.99849
# Velocity P-wave (km/s) = 5.82851 7.66509 6.80901
#
# Compressibility (1/GPa) = 0.01906251
#
# Stress axis : x y z
#
# Youngs Moduli (GPa) = 38.17305 93.26794 115.79148
#
# Poissons Ratio (x) = 0.60063 0.60329
# Poissons Ratio (y) = 0.24583 0.18480
# Poissons Ratio (z) = 0.19889 0.14885
#
# Static dielectric constant tensor:
#      x y z
#    x 1.823390 0.000000 0.121580 
#    y 0.000000 1.633440 0.000000 
#    z 0.121580 0.000000 1.619220 
# 
# From -- ./inp_files/50434.got.cif
#   From: 2010.05.17/outbox.cif.g08.bks.cpg/sg12_26_cif.got.tgz:50434.got - 2010.06.03 13:09:07.
