data_PCOD9212931
_publ_section_title
;
Structure prediction by ZEFSAII (Michael W. Deem and Ramdas Pophale) SiO2 
 PCOD9212931
Probable space group: C 2/M
;
_chemical_formula_sum "Si O2"
_cell_formula_units_Z 48
_cell_length_a 13.818285
_cell_length_b 21.906667
_cell_length_c 9.247514
_cell_angle_alpha 90.000000
_cell_angle_beta 102.953451
_cell_angle_gamma 90.000000
_cell_volume 2728.102541
_symmetry_space_group_name_H-M "C 2/M"
_symmetry_group_IT_number 12
_symmetry_cell_setting 'monoclinic'
loop_
_space_group_symop_operation_xyz
x,y,z
-x,y,-z
-x,-y,-z
x,-y,z
1/2+x,1/2+y,z
1/2-x,1/2+y,-z
1/2-x,1/2-y,-z
1/2+x,1/2-y,z
loop_
_atom_site_type_symbol
_atom_site_label
_atom_site_fract_x
_atom_site_fract_y
_atom_site_fract_z
Si Si1 0.296831 0.185303 0.060585
Si Si2 0.054568 0.368660 0.662813
Si Si3 0.873672 0.000000 0.744111
Si Si4 0.087619 0.393676 0.123445
Si Si5 0.144096 0.500000 0.590073
Si Si6 0.792911 0.500000 0.710806
Si Si7 0.085248 0.000000 0.751307
Si Si8 0.605024 0.398530 0.005527
O O1 0.360223 0.172634 0.230214
O O2 0.201197 0.142218 0.033387
O O3 0.250000 0.250000 0.000000
O O4 0.368908 0.161008 0.957558
O O5 0.097530 0.437248 0.639682
O O6 0.000000 0.345117 0.500000
O O7 0.966671 0.373804 0.749581
O O8 0.884958 0.057154 0.854240
O O9 0.762126 0.000000 0.652899
O O10 0.968988 0.000000 0.670527
O O11 0.173234 0.441001 0.188919
O O12 0.000000 0.424096 0.000000
O O13 0.142287 0.500000 0.414684
O O14 0.673430 0.500000 0.664182
O O15 0.099504 0.941385 0.861763
O O16 0.500000 0.365150 0.000000
#
# Coordination Sequence:
#
# PCOD9212931 Si02
#       8
#     8   8   4   8   4   4   4   8
#     4  11  23  39  61  85 113 161 211 253 295 342
#     4  11  22  40  60  91 129 157 195 247 308 374
#     4   9  18  33  51  85 113 152 183 237 297 360
#     4  10  22  35  56  88 123 153 195 247 301 357
#     4  12  21  33  62  92 125 161 188 228 326 392
#     4  12  19  32  58  88 121 157 193 235 310 379
#     4   9  18  31  53  81 113 148 187 245 298 339
#     4   9  17  32  56  79 107 142 193 243 298 346
#
# _framework density 17.594647999999999
#
# number of rings (size 3 to 8) (size 9 to 14) (size 15 to 20)
#    0.000    1.667    5.000    2.000    0.000    4.333 
#    0.000    0.833    0.000    0.000    0.000    0.000 
#    0.000    0.000    0.000    0.000    0.000    0.000 
#
# Total GULP energy -133617.882472 kJ/mol
# GULP energy per Si atom -5567.411770 kJ/mol
# Density = 1.755460 g / cm^3
# Si number density = 17.594648 Si / 1000 Ang^3
#
#
#
# Elastic Constant Matrix: (Units=GPa)
#
#
# Indices 1 2 3 4 5 6 
#
# 1 142.5855 40.3772 43.3859 0.0000 5.7153 0.0000
# 2 40.3772 78.3795 35.4810 0.0000 6.7938 0.0000
# 3 43.3859 35.4810 102.1253 0.0000 5.7802 0.0000
# 4 0.0000 0.0000 0.0000 8.3695 0.0000 10.9983
# 5 5.7153 6.7938 5.7802 0.0000 36.9802 0.0000
# 6 0.0000 0.0000 0.0000 10.9983 0.0000 7.7918
#
#
#
# Elastic Compliance Matrix: (Units=1/GPa)
#
#
# Indices 1 2 3 4 5 6 
#
# 1 0.008741 -0.003324 -0.002539 0.000000 -0.000343 0.000000
# 2 -0.003324 0.016548 -0.004232 0.000000 -0.001865 0.000000
# 3 -0.002539 -0.004232 0.012384 0.000000 -0.000766 0.000000
# 4 0.000000 0.000000 0.000000 -0.139767 0.000000 0.197284
# 5 -0.000343 -0.001865 -0.000766 0.000000 0.027557 0.000000
# 6 0.000000 0.000000 0.000000 0.197284 0.000000 -0.150130
#
#
# Mechanical properties :
#
#
# Convention : Reuss Voigt Hill
#
# Bulk Modulus (GPa) = 57.19540 62.39759 59.79649
# Shear Modulus (GPa) = -25.16979 24.21807 -0.47586
#
# Velocity S-wave (km/s) = -3.78635 3.71407 -0.52062
# Velocity P-wave (km/s) = 3.66914 7.34394 5.80500
#
# Compressibility (1/GPa) = 0.01748392
#
# Stress axis : x y z
#
# Youngs Moduli (GPa) = 114.40428 60.43082 80.74829
#
# Poissons Ratio (x) = 0.20085 0.20504
# Poissons Ratio (y) = 0.38024 0.34170
# Poissons Ratio (z) = 0.29050 0.25572
#
# Static dielectric constant tensor:
#      x y z
#    x 1.626830 0.000000 0.015680 
#    y 0.000000 1.586660 0.000000 
#    z 0.015680 0.000000 1.637340 
# 
# From -- ./inp_files/63668.got.cif
#   From: 2010.05.17/outbox.cif.g08.bks.cpg/sg12_32_cif.got.tgz:63668.got - 2010.06.03 13:09:07.
