data_PCOD9212175
_publ_section_title
;
Structure prediction by ZEFSAII (Michael W. Deem and Ramdas Pophale) SiO2 
 PCOD9212175
Probable space group: C 2/M
;
_chemical_formula_sum "Si O2"
_cell_formula_units_Z 56
_cell_length_a 24.359264
_cell_length_b 9.141877
_cell_length_c 18.184205
_cell_angle_alpha 90.000000
_cell_angle_beta 135.380304
_cell_angle_gamma 90.000000
_cell_volume 2844.310362
_symmetry_space_group_name_H-M "C 2/M"
_symmetry_group_IT_number 12
_symmetry_cell_setting 'monoclinic'
loop_
_space_group_symop_operation_xyz
x,y,z
-x,y,-z
-x,-y,-z
x,-y,z
1/2+x,1/2+y,z
1/2-x,1/2+y,-z
1/2-x,1/2-y,-z
1/2+x,1/2-y,z
loop_
_atom_site_type_symbol
_atom_site_label
_atom_site_fract_x
_atom_site_fract_y
_atom_site_fract_z
Si Si1 0.685218 0.825854 0.113474
Si Si2 0.053767 0.825050 0.904636
Si Si3 0.405296 0.173906 0.819453
Si Si4 0.492104 0.325528 0.305920
Si Si5 0.134629 0.174891 0.690732
Si Si6 0.115861 0.330985 0.521771
Si Si7 0.779933 0.170462 0.601335
O O1 0.640318 0.801382 0.147781
O O2 0.775660 0.782422 0.208058
O O3 0.682340 0.000000 0.095195
O O4 0.637832 0.737400 0.007182
O O5 0.030419 0.786709 0.798681
O O6 0.989266 0.749801 0.895128
O O7 0.051756 0.000000 0.910555
O O8 0.352681 0.245785 0.705681
O O9 0.413334 0.000000 0.816636
O O10 0.506228 0.500000 0.321592
O O11 0.420750 0.292460 0.293207
O O12 0.566857 0.244308 0.410246
O O13 0.104104 0.250890 0.587868
O O14 0.133732 0.000000 0.677678
O O15 0.093057 0.500000 0.505508
O O16 0.207347 0.323231 0.588554
O O17 0.750000 0.250000 0.500000
O O18 0.798958 0.000000 0.605563
#
# Coordination Sequence:
#
# PCOD9212175 Si02
#       7
#     8   8   8   8   8   8   8
#     4  10  22  40  63  89 117 155 202 249 298 356
#     4  11  24  40  60  89 123 159 198 248 301 353
#     4  11  22  39  62  88 118 156 202 246 295 357
#     4  10  23  41  61  86 119 160 203 242 293 358
#     4  10  21  41  65  87 116 159 203 243 293 356
#     4  11  23  38  59  90 123 153 194 247 300 351
#     4  11  23  37  57  87 123 160 197 242 297 355
#
# _framework density 19.688427000000001
#
# number of rings (size 3 to 8) (size 9 to 14) (size 15 to 20)
#    0.000    1.429    1.429    3.429    0.000   11.429 
#    0.000    0.000    0.000    0.000    0.000    0.000 
#    0.000    0.000    0.000    0.000    0.000    0.000 
#
# Total GULP energy -156606.693676 kJ/mol
# GULP energy per Si atom -5593.096203 kJ/mol
# Density = 1.964362 g / cm^3
# Si number density = 19.688427 Si / 1000 Ang^3
#
#
#
# Elastic Constant Matrix: (Units=GPa)
#
#
# Indices 1 2 3 4 5 6 
#
# 1 42.4130 20.9236 2.8873 0.0000 -4.6812 0.0000
# 2 20.9236 45.6735 38.3986 0.0000 -7.1270 0.0000
# 3 2.8873 38.3986 107.4773 0.0000 0.0109 0.0000
# 4 0.0000 0.0000 0.0000 40.4562 0.0000 0.3398
# 5 -4.6812 -7.1270 0.0109 0.0000 22.4932 0.0000
# 6 0.0000 0.0000 0.0000 0.3398 0.0000 21.6766
#
#
#
# Elastic Compliance Matrix: (Units=1/GPa)
#
#
# Indices 1 2 3 4 5 6 
#
# 1 0.033389 -0.020699 0.006498 0.000000 0.000387 0.000000
# 2 -0.020699 0.046508 -0.016061 0.000000 0.010436 0.000000
# 3 0.006498 -0.016061 0.014868 0.000000 -0.003744 0.000000
# 4 0.000000 0.000000 0.000000 0.024721 0.000000 -0.000388
# 5 0.000387 0.010436 -0.003744 0.000000 0.047847 0.000000
# 6 0.000000 0.000000 0.000000 -0.000388 0.000000 0.046139
#
#
# Mechanical properties :
#
#
# Convention : Reuss Voigt Hill
#
# Bulk Modulus (GPa) = 29.20356 35.55365 32.37861
# Shear Modulus (GPa) = 17.51861 25.81547 21.66704
#
# Velocity S-wave (km/s) = 2.98617 3.62498 3.32097
# Velocity P-wave (km/s) = 5.17250 5.96808 5.58447
#
# Compressibility (1/GPa) = 0.03424240
#
# Stress axis : x y z
#
# Youngs Moduli (GPa) = 29.94967 21.50155 67.25727
#
# Poissons Ratio (x) = 0.44505 -0.43704
# Poissons Ratio (y) = 0.61992 1.08023
# Poissons Ratio (z) = -0.19461 0.34534
#
# Static dielectric constant tensor:
#      x y z
#    x 1.697570 0.000000 0.008000 
#    y 0.000000 1.657550 0.000000 
#    z 0.008000 0.000000 1.665950 
# 
# From -- ./inp_files/288181.got.cif
#   From: 2010.05.17/outbox.cif.g08.bks.cpg/sg12_145_cif.got.tgz:288181.got - 2010.06.03 13:09:07.
