data_PCOD9212485
_publ_section_title
;
Structure prediction by ZEFSAII (Michael W. Deem and Ramdas Pophale) SiO2 
 PCOD9212485
Probable space group: C 2/M
;
_chemical_formula_sum "Si O2"
_cell_formula_units_Z 36
_cell_length_a 15.805965
_cell_length_b 17.695451
_cell_length_c 10.885351
_cell_angle_alpha 90.000000
_cell_angle_beta 27.816523
_cell_angle_gamma 90.000000
_cell_volume 1420.720512
_symmetry_space_group_name_H-M "C 2/M"
_symmetry_group_IT_number 12
_symmetry_cell_setting 'monoclinic'
loop_
_space_group_symop_operation_xyz
x,y,z
-x,y,-z
-x,-y,-z
x,-y,z
1/2+x,1/2+y,z
1/2-x,1/2+y,-z
1/2-x,1/2-y,-z
1/2+x,1/2-y,z
loop_
_atom_site_type_symbol
_atom_site_label
_atom_site_fract_x
_atom_site_fract_y
_atom_site_fract_z
Si Si1 0.994145 0.082530 0.157311
Si Si2 0.130877 0.589831 0.950489
Si Si3 0.681992 0.180256 0.240824
Si Si4 0.671173 0.176326 0.537676
Si Si5 0.000000 0.825406 0.500000
O O1 0.791684 0.108710 0.437039
O O2 0.030647 0.000000 0.158613
O O3 0.142141 0.136940 0.027920
O O4 0.000000 0.080422 0.000000
O O5 0.135966 0.500000 0.976734
O O6 0.334424 0.622150 0.668420
O O7 0.000000 0.598105 0.000000
O O8 0.031645 0.645604 0.177926
O O9 0.500000 0.130096 0.500000
O O10 0.727830 0.194368 0.325419
O O11 0.609167 0.259626 0.281857
O O12 0.750000 0.250000 0.500000
#
# Coordination Sequence:
#
# PCOD9212485 Si02
#       5
#     8   8   8   8   4
#     4   9  18  36  60  86 117 154 197 247 303 363
#     4  11  24  42  63  89 123 165 211 255 301 358
#     4   9  21  38  60  89 123 152 195 249 311 366
#     4  11  21  37  65  89 117 159 204 250 303 366
#     4  10  21  42  63  86 126 160 206 256 303 356
#
# _framework density 25.339254
#
# number of rings (size 3 to 8) (size 9 to 14) (size 15 to 20)
#    0.667    1.333    0.000    3.667    0.000    4.000 
#    4.000    0.000    0.000    0.000    0.000    0.000 
#    0.000    0.000    0.000    0.000    0.000    0.000 
#
# Total GULP energy -100227.957228 kJ/mol
# GULP energy per Si atom -5568.219846 kJ/mol
# Density = 2.528158 g / cm^3
# Si number density = 25.339254 Si / 1000 Ang^3
#
#
#
# Elastic Constant Matrix: (Units=GPa)
#
#
# Indices 1 2 3 4 5 6 
#
# 1 30.0537 44.6339 26.1785 -0.0023 -11.4756 0.0008
# 2 44.6339 158.0185 60.6873 0.0002 -14.5357 -0.0010
# 3 26.1785 60.6873 156.1534 -0.0033 -41.9340 0.0013
# 4 -0.0023 0.0002 -0.0033 40.8216 0.0020 -13.5864
# 5 -11.4756 -14.5357 -41.9340 0.0020 47.8423 -0.0009
# 6 0.0008 -0.0010 0.0013 -13.5864 -0.0009 28.9672
#
#
#
# Elastic Compliance Matrix: (Units=1/GPa)
#
#
# Indices 1 2 3 4 5 6 
#
# 1 0.061821 -0.015955 -0.001939 0.000003 0.008281 -0.000001
# 2 -0.015955 0.011561 -0.002488 -0.000001 -0.002496 0.000000
# 3 -0.001939 -0.002488 0.009636 0.000000 0.007225 0.000000
# 4 0.000003 -0.000001 0.000000 0.029028 0.000000 0.013615
# 5 0.008281 -0.002496 0.007225 0.000000 0.028463 0.000000
# 6 -0.000001 0.000000 0.000000 0.013615 0.000000 0.040908
#
#
# Mechanical properties :
#
#
# Convention : Reuss Voigt Hill
#
# Bulk Modulus (GPa) = 23.66735 67.46946 45.56840
# Shear Modulus (GPa) = 21.16238 37.70795 29.43516
#
# Velocity S-wave (km/s) = 2.89305 3.86181 3.41199
# Velocity P-wave (km/s) = 4.52992 6.82415 5.79177
#
# Compressibility (1/GPa) = 0.04225230
#
# Stress axis : x y z
#
# Youngs Moduli (GPa) = 16.17572 86.49558 103.77223
#
# Poissons Ratio (x) = 1.38007 0.20125
# Poissons Ratio (y) = 0.25809 0.25824
# Poissons Ratio (z) = 0.03137 0.21524
#
# Static dielectric constant tensor:
#      x y z
#    x 2.095220 0.000000 0.006930 
#    y 0.000000 2.000700 0.000000 
#    z 0.006930 0.000000 2.074110 
# 
# From -- ./inp_files/234402.got.cif
#   From: 2010.05.17/outbox.cif.g08.bks.cpg/sg12_118_cif.got.tgz:234402.got - 2010.06.03 13:09:07.
