data_PCOD9212209
_publ_section_title
;
Structure prediction by ZEFSAII (Michael W. Deem and Ramdas Pophale) SiO2 
 PCOD9212209
Probable space group: C 2/M
;
_chemical_formula_sum "Si O2"
_cell_formula_units_Z 56
_cell_length_a 28.070914
_cell_length_b 16.495369
_cell_length_c 5.232292
_cell_angle_alpha 90.000000
_cell_angle_beta 113.891242
_cell_angle_gamma 90.000000
_cell_volume 2215.168775
_symmetry_space_group_name_H-M "C 2/M"
_symmetry_group_IT_number 12
_symmetry_cell_setting 'monoclinic'
loop_
_space_group_symop_operation_xyz
x,y,z
-x,y,-z
-x,-y,-z
x,-y,z
1/2+x,1/2+y,z
1/2-x,1/2+y,-z
1/2-x,1/2-y,-z
1/2+x,1/2-y,z
loop_
_atom_site_type_symbol
_atom_site_label
_atom_site_fract_x
_atom_site_fract_y
_atom_site_fract_z
Si Si1 0.453802 0.414195 0.692874
Si Si2 0.694016 0.669332 0.922584
Si Si3 0.857202 0.690951 0.862067
Si Si4 0.050653 0.258434 0.288285
Si Si5 0.088056 0.589935 0.654689
Si Si6 0.660456 0.411974 0.348373
Si Si7 0.296868 0.905025 0.347399
O O1 0.454778 0.500000 0.547690
O O2 0.451957 0.325914 0.558360
O O3 0.400377 0.415691 0.731562
O O4 0.500000 0.413611 0.000000
O O5 0.665502 0.750460 0.966362
O O6 0.669252 0.605603 0.070659
O O7 0.754633 0.650529 0.110965
O O8 0.684307 0.650775 0.605121
O O9 0.895706 0.741129 0.760234
O O10 0.808768 0.644642 0.630852
O O11 0.896744 0.619570 0.031875
O O12 0.054006 0.339189 0.461176
O O13 0.000000 0.261015 0.000000
O O14 0.066556 0.500000 0.590896
O O15 0.145753 0.591416 0.652984
O O16 0.683244 0.500000 0.465968
O O17 0.280862 0.000000 0.338576
#
# Coordination Sequence:
#
# PCOD9212209 Si02
#       7
#     8   8   8   8   8   8   8
#     4   9  18  37  65  94 130 174 222 275 342 411
#     4  12  25  41  68  97 133 177 224 276 335 404
#     4  11  23  40  65  94 130 171 223 281 340 407
#     4  10  21  41  65  94 131 172 220 282 346 413
#     4  10  23  42  65  93 131 174 226 283 343 410
#     4  11  23  41  63  96 135 173 222 279 331 397
#     4  10  23  42  63  92 129 176 223 276 339 404
#
# _framework density 25.280239000000002
#
# number of rings (size 3 to 8) (size 9 to 14) (size 15 to 20)
#    0.000    1.571    1.429    3.000    4.000    2.000 
#    0.000    1.429    0.000    3.429    0.000    0.000 
#    0.000    0.000    0.000    0.000    0.000    0.000 
#
# Total GULP energy -156435.695648 kJ/mol
# GULP energy per Si atom -5586.989130 kJ/mol
# Density = 2.522270 g / cm^3
# Si number density = 25.280239 Si / 1000 Ang^3
#
#
#
# Elastic Constant Matrix: (Units=GPa)
#
#
# Indices 1 2 3 4 5 6 
#
# 1 111.4144 16.0699 4.9912 0.0000 2.4533 0.0000
# 2 16.0699 225.7049 32.7112 0.0000 8.6636 0.0000
# 3 4.9912 32.7112 58.7496 0.0000 34.6716 0.0000
# 4 0.0000 0.0000 0.0000 29.8943 0.0000 -10.2051
# 5 2.4533 8.6636 34.6716 0.0000 32.1215 0.0000
# 6 0.0000 0.0000 0.0000 -10.2051 0.0000 -34.9218
#
#
#
# Elastic Compliance Matrix: (Units=1/GPa)
#
#
# Indices 1 2 3 4 5 6 
#
# 1 0.009080 -0.000590 -0.000352 0.000000 -0.000155 0.000000
# 2 -0.000590 0.005094 -0.005516 0.000000 0.004625 0.000000
# 3 -0.000352 -0.005516 0.052973 0.000000 -0.055664 0.000000
# 4 0.000000 0.000000 0.000000 0.030417 0.000000 -0.008889
# 5 -0.000155 0.004625 -0.055664 0.000000 0.089980 0.000000
# 6 0.000000 0.000000 0.000000 -0.008889 0.000000 -0.026038
#
#
# Mechanical properties :
#
#
# Convention : Reuss Voigt Hill
#
# Bulk Modulus (GPa) = 18.43895 55.93486 37.18691
# Shear Modulus (GPa) = 25.97440 28.22525 27.09983
#
# Velocity S-wave (km/s) = 3.20888 3.34502 3.27766
# Velocity P-wave (km/s) = 4.58681 6.09039 5.39128
#
# Compressibility (1/GPa) = 0.05423301
#
# Stress axis : x y z
#
# Youngs Moduli (GPa) = 110.13582 196.29379 18.87755
#
# Poissons Ratio (x) = 0.11572 0.00664
# Poissons Ratio (y) = 0.06493 0.10412
# Poissons Ratio (z) = 0.03875 1.08269
#
# Static dielectric constant tensor:
#      x y z
#    x 1.990770 0.000000 -0.030900 
#    y 0.000000 2.075700 0.000000 
#    z -0.030900 0.000000 2.006970 
# 
# From -- ./inp_files/32105.got.cif
#   From: 2010.05.17/outbox.cif.g08.bks.cpg/sg12_17_cif.got.tgz:32105.got - 2010.06.03 13:09:07.
