data_PCOD9212885
_publ_section_title
;
Structure prediction by ZEFSAII (Michael W. Deem and Ramdas Pophale) SiO2 
 PCOD9212885
Probable space group: C 2/M
;
_chemical_formula_sum "Si O2"
_cell_formula_units_Z 58
_cell_length_a 9.562488
_cell_length_b 23.858381
_cell_length_c 22.107280
_cell_angle_alpha 90.000000
_cell_angle_beta 142.499759
_cell_angle_gamma 90.000000
_cell_volume 3070.412272
_symmetry_space_group_name_H-M "C 2/M"
_symmetry_group_IT_number 12
_symmetry_cell_setting 'monoclinic'
loop_
_space_group_symop_operation_xyz
x,y,z
-x,y,-z
-x,-y,-z
x,-y,z
1/2+x,1/2+y,z
1/2-x,1/2+y,-z
1/2-x,1/2-y,-z
1/2+x,1/2-y,z
loop_
_atom_site_type_symbol
_atom_site_label
_atom_site_fract_x
_atom_site_fract_y
_atom_site_fract_z
Si Si1 0.191110 0.778275 0.616505
Si Si2 0.764420 0.724578 0.884885
Si Si3 0.956692 0.129054 0.127129
Si Si4 0.607073 0.154883 0.794208
Si Si5 0.000000 0.000000 0.000000
Si Si6 0.100903 0.936232 0.769341
Si Si7 0.389266 0.087164 0.088212
Si Si8 0.968891 0.182461 0.305860
O O1 0.398036 0.823150 0.682043
O O2 0.083574 0.792336 0.645737
O O3 0.317130 0.718053 0.649080
O O4 0.000000 0.784632 0.500000
O O5 0.569258 0.691507 0.854962
O O6 0.718181 0.789617 0.861415
O O7 0.745073 0.697921 0.811630
O O8 0.000000 0.715546 0.000000
O O9 0.946545 0.085407 0.178795
O O10 0.196092 0.123816 0.175115
O O11 0.742510 0.121594 0.008777
O O12 0.527609 0.118886 0.823268
O O13 0.186541 0.047334 0.041805
O O14 0.377338 0.937799 0.858129
O O15 0.006986 0.884989 0.694318
O O16 0.015348 0.000000 0.729247
#
# Coordination Sequence:
#
# PCOD9212885 Si02
#       8
#     8   8   8   8   2   8   8   8
#     4  11  24  43  70  99 124 165 215 278 345 395
#     4  10  22  34  56  86 130 168 200 241 314 390
#     4  11  23  36  56  89 126 175 212 249 311 382
#     4  11  24  37  59  88 130 159 213 268 326 383
#     4  12  24  36  62  88 126 176 234 260 302 364
#     4  11  24  39  63  89 132 179 217 260 308 377
#     4  12  22  40  57  89 127 175 216 263 303 378
#     4  10  23  42  64  98 129 165 215 267 327 394
#
# _framework density 18.889970999999999
#
# number of rings (size 3 to 8) (size 9 to 14) (size 15 to 20)
#    0.000    1.103    3.448    3.310   12.552    1.655 
#    0.000    0.000    0.000    0.828    0.000    0.000 
#    0.000    0.000    0.000    0.000    0.000    0.000 
#
# Total GULP energy -161510.138717 kJ/mol
# GULP energy per Si atom -5569.315128 kJ/mol
# Density = 1.884698 g / cm^3
# Si number density = 18.889971 Si / 1000 Ang^3
#
#
#
# Elastic Constant Matrix: (Units=GPa)
#
#
# Indices 1 2 3 4 5 6 
#
# 1 101.9063 52.6565 29.6682 0.0003 -10.6455 -0.0004
# 2 52.6565 110.2057 33.5198 0.0001 -0.0863 0.0000
# 3 29.6682 33.5198 118.2913 0.0021 -14.1485 -0.0020
# 4 0.0003 0.0001 0.0021 -32.6265 0.0007 46.0130
# 5 -10.6455 -0.0863 -14.1485 0.0007 16.0190 -0.0007
# 6 -0.0004 0.0000 -0.0020 46.0130 -0.0007 25.0755
#
#
#
# Elastic Compliance Matrix: (Units=1/GPa)
#
#
# Indices 1 2 3 4 5 6 
#
# 1 0.014382 -0.006668 -0.000647 0.000000 0.008950 0.000000
# 2 -0.006668 0.013128 -0.002873 0.000000 -0.006898 0.000000
# 3 -0.000647 -0.002873 0.010484 0.000001 0.008815 0.000000
# 4 0.000000 0.000000 0.000001 -0.008543 0.000002 0.015676
# 5 0.008950 -0.006898 0.008815 0.000002 0.076122 0.000000
# 6 0.000000 0.000000 0.000000 0.015676 0.000000 0.011115
#
#
# Mechanical properties :
#
#
# Convention : Reuss Voigt Hill
#
# Bulk Modulus (GPa) = 56.75736 62.45470 59.60603
# Shear Modulus (GPa) = 34.98060 15.99754 25.48907
#
# Velocity S-wave (km/s) = 4.30793 2.91328 3.67733
# Velocity P-wave (km/s) = 7.40648 6.66711 7.04650
#
# Compressibility (1/GPa) = 0.01761886
#
# Stress axis : x y z
#
# Youngs Moduli (GPa) = 69.53337 76.17205 95.38026
#
# Poissons Ratio (x) = 0.50789 0.06172
# Poissons Ratio (y) = 0.46363 0.27401
# Poissons Ratio (z) = 0.04499 0.21883
#
# Static dielectric constant tensor:
#      x y z
#    x 1.702500 0.000000 -0.007900 
#    y 0.000000 1.695540 0.000000 
#    z -0.007900 0.000000 1.635710 
# 
# From -- ./inp_files/302492.got.cif
#   From: 2010.05.17/outbox.cif.g08.bks.cpg/sg12_152_cif.got.tgz:302492.got - 2010.06.03 13:09:07.
