data_PCOD9212808
_publ_section_title
;
Structure prediction by ZEFSAII (Michael W. Deem and Ramdas Pophale) SiO2 
 PCOD9212808
Probable space group: C 2/M
;
_chemical_formula_sum "Si O2"
_cell_formula_units_Z 54
_cell_length_a 14.258085
_cell_length_b 30.872370
_cell_length_c 5.841213
_cell_angle_alpha 90.000000
_cell_angle_beta 87.367311
_cell_angle_gamma 90.000000
_cell_volume 2568.476429
_symmetry_space_group_name_H-M "C 2/M"
_symmetry_group_IT_number 12
_symmetry_cell_setting 'monoclinic'
loop_
_space_group_symop_operation_xyz
x,y,z
-x,y,-z
-x,-y,-z
x,-y,z
1/2+x,1/2+y,z
1/2-x,1/2+y,-z
1/2-x,1/2-y,-z
1/2+x,1/2-y,z
loop_
_atom_site_type_symbol
_atom_site_label
_atom_site_fract_x
_atom_site_fract_y
_atom_site_fract_z
Si Si1 0.260579 0.293637 0.136277
Si Si2 0.127568 0.085590 0.590224
Si Si3 0.894180 0.665617 0.576192
Si Si4 0.000000 0.000000 0.500000
Si Si5 0.452969 0.673927 0.257051
Si Si6 0.252434 0.871285 0.220256
Si Si7 0.673063 0.082729 0.173848
Si Si8 0.049709 0.500000 0.246238
O O1 0.166225 0.297777 0.294270
O O2 0.354777 0.299512 0.271633
O O3 0.250000 0.250000 0.000000
O O4 0.268695 0.335103 0.966466
O O5 0.067188 0.121919 0.729994
O O6 0.160464 0.110700 0.355635
O O7 0.226949 0.081114 0.709191
O O8 0.076384 0.039702 0.558564
O O9 0.828868 0.650356 0.375207
O O10 0.888069 0.624331 0.745486
O O11 0.000000 0.676268 0.500000
O O12 0.500000 0.684086 0.500000
O O13 0.500000 0.683383 0.000000
O O14 0.301962 0.911818 0.093753
O O15 0.614168 0.041738 0.238059
O O16 0.000000 0.500000 0.500000
O O17 0.000000 0.500000 0.000000
#
# Coordination Sequence:
#
# PCOD9212808 Si02
#       8
#     8   8   8   2   8   8   8   4
#     4  11  25  47  72 110 148 194 251 319 382 478
#     4  11  23  43  68 102 142 196 247 317 375 448
#     4  10  22  42  73 101 142 193 252 311 388 461
#     4  12  26  38  70 104 142 190 282 310 352 482
#     4  12  25  48  79 108 153 209 250 305 398 467
#     4  10  21  44  72  95 145 195 242 303 406 441
#     4  10  23  41  68  95 145 192 243 310 387 446
#     4  12  29  43  64 107 145 191 254 310 369 457
#
# _framework density 21.024135000000001
#
# number of rings (size 3 to 8) (size 9 to 14) (size 15 to 20)
#    0.000    1.185    5.185    1.778    6.222    2.963 
#    2.667    2.593    0.000    0.000    0.000    0.000 
#    0.000    0.000    0.000    0.000    0.000    0.000 
#
# Total GULP energy -150399.791903 kJ/mol
# GULP energy per Si atom -5570.362663 kJ/mol
# Density = 2.097628 g / cm^3
# Si number density = 21.024135 Si / 1000 Ang^3
#
#
#
# Elastic Constant Matrix: (Units=GPa)
#
#
# Indices 1 2 3 4 5 6 
#
# 1 152.1726 69.0392 59.2845 0.0000 -13.2279 0.0000
# 2 69.0392 101.9295 39.5983 0.0000 -2.4258 0.0000
# 3 59.2845 39.5983 106.4806 0.0000 -12.2564 0.0000
# 4 0.0000 0.0000 0.0000 8.7407 0.0000 -10.2031
# 5 -13.2279 -2.4258 -12.2564 0.0000 30.6944 0.0000
# 6 0.0000 0.0000 0.0000 -10.2031 0.0000 1.8020
#
#
#
# Elastic Compliance Matrix: (Units=1/GPa)
#
#
# Indices 1 2 3 4 5 6 
#
# 1 0.010883 -0.005933 -0.003529 0.000000 0.002812 0.000000
# 2 -0.005933 0.014723 -0.002444 0.000000 -0.002369 0.000000
# 3 -0.003529 -0.002444 0.012649 0.000000 0.003337 0.000000
# 4 0.000000 0.000000 0.000000 -0.020396 0.000000 -0.115482
# 5 0.002812 -0.002369 0.003337 0.000000 0.034936 0.000000
# 6 0.000000 0.000000 0.000000 -0.115482 0.000000 -0.098930
#
#
# Mechanical properties :
#
#
# Convention : Reuss Voigt Hill
#
# Bulk Modulus (GPa) = 69.24528 77.38076 73.31302
# Shear Modulus (GPa) = -285.58356 21.09146 -132.24605
#
# Velocity S-wave (km/s) = -11.66752 3.17077 -7.93968
# Velocity P-wave (km/s) = 12.18607 7.09159 7.00748
#
# Compressibility (1/GPa) = 0.01444142
#
# Stress axis : x y z
#
# Youngs Moduli (GPa) = 91.89036 67.92273 79.05572
#
# Poissons Ratio (x) = 0.40299 0.27898
# Poissons Ratio (y) = 0.54520 0.19325
# Poissons Ratio (z) = 0.32427 0.16604
#
# Static dielectric constant tensor:
#      x y z
#    x 1.800780 0.000000 0.008930 
#    y 0.000000 1.716160 0.000000 
#    z 0.008930 0.000000 1.884910 
# 
# From -- ./inp_files/13168.got.cif
#   From: 2010.05.17/outbox.cif.g08.bks.cpg/sg12_7_cif.got.tgz:13168.got - 2010.06.03 13:09:07.
