data_PCOD9212991
_publ_section_title
;
Structure prediction by ZEFSAII (Michael W. Deem and Ramdas Pophale) SiO2 
 PCOD9212991
Probable space group: C 2/M
;
_chemical_formula_sum "Si O2"
_cell_formula_units_Z 40
_cell_length_a 25.911385
_cell_length_b 18.347750
_cell_length_c 10.883062
_cell_angle_alpha 90.000000
_cell_angle_beta 23.177040
_cell_angle_gamma 90.000000
_cell_volume 2036.340760
_symmetry_space_group_name_H-M "C 2/M"
_symmetry_group_IT_number 12
_symmetry_cell_setting 'monoclinic'
loop_
_space_group_symop_operation_xyz
x,y,z
-x,y,-z
-x,-y,-z
x,-y,z
1/2+x,1/2+y,z
1/2-x,1/2+y,-z
1/2-x,1/2-y,-z
1/2+x,1/2-y,z
loop_
_atom_site_type_symbol
_atom_site_label
_atom_site_fract_x
_atom_site_fract_y
_atom_site_fract_z
Si Si1 0.566152 0.827514 0.241336
Si Si2 0.856209 0.707150 0.346188
Si Si3 0.567365 0.580623 0.721588
Si Si4 0.630378 0.081374 0.862734
Si Si5 0.135775 0.217467 0.421078
O O1 0.500000 0.869858 0.500000
O O2 0.467880 0.758904 0.437571
O O3 0.564767 0.870318 0.113971
O O4 0.718335 0.808052 0.939137
O O5 0.750000 0.750000 0.500000
O O6 0.860421 0.625116 0.285608
O O7 0.831158 0.725825 0.541197
O O8 0.000000 0.736852 0.000000
O O9 0.523515 0.500000 0.773366
O O10 0.720902 0.576336 0.416022
O O11 0.559782 0.647534 0.644504
O O12 0.500000 0.594379 0.000000
O O13 0.576134 0.000000 0.970768
#
# Coordination Sequence:
#
# PCOD9212991 Si02
#       5
#     8   8   8   8   8
#     4  11  23  39  59  81 110 155 200 235 272 325
#     4  12  20  35  59  88 115 147 177 230 294 344
#     4   9  18  31  53  83 115 146 179 222 284 348
#     4  10  22  36  54  85 118 148 185 232 287 343
#     4  11  21  36  59  85 114 144 192 237 285 332
#
# _framework density 19.643077999999999
#
# number of rings (size 3 to 8) (size 9 to 14) (size 15 to 20)
#    0.000    1.400    6.000    1.200    2.800    0.800 
#    0.000    0.000    0.000    1.800    0.000    0.000 
#    0.000    0.000    0.000    0.000    0.000    0.000 
#
# Total GULP energy -111448.716530 kJ/mol
# GULP energy per Si atom -5572.435827 kJ/mol
# Density = 1.959837 g / cm^3
# Si number density = 19.643078 Si / 1000 Ang^3
#
#
#
# Elastic Constant Matrix: (Units=GPa)
#
#
# Indices 1 2 3 4 5 6 
#
# 1 44.5664 21.7518 10.3893 0.0000 -0.5737 0.0000
# 2 21.7518 120.8665 23.3923 0.0000 8.7969 0.0000
# 3 10.3893 23.3923 104.0700 0.0000 10.7852 0.0000
# 4 0.0000 0.0000 0.0000 4.7521 0.0000 -14.9893
# 5 -0.5737 8.7969 10.7852 0.0000 37.7538 0.0000
# 6 0.0000 0.0000 0.0000 -14.9893 0.0000 5.5612
#
#
#
# Elastic Compliance Matrix: (Units=1/GPa)
#
#
# Indices 1 2 3 4 5 6 
#
# 1 0.024960 -0.004295 -0.001720 0.000000 0.001872 0.000000
# 2 -0.004295 0.009473 -0.001510 0.000000 -0.001841 0.000000
# 3 -0.001720 -0.001510 0.010394 0.000000 -0.002644 0.000000
# 4 0.000000 0.000000 0.000000 -0.028051 0.000000 -0.075607
# 5 0.001872 -0.001841 -0.002644 0.000000 0.027700 0.000000
# 6 0.000000 0.000000 0.000000 -0.075607 0.000000 -0.023970
#
#
# Mechanical properties :
#
#
# Convention : Reuss Voigt Hill
#
# Bulk Modulus (GPa) = 33.58356 42.28551 37.93454
# Shear Modulus (GPa) = 109.93440 23.87805 66.90622
#
# Velocity S-wave (km/s) = 7.48916 3.49032 5.84251
# Velocity P-wave (km/s) = 9.58735 6.14954 8.05401
#
# Compressibility (1/GPa) = 0.02977647
#
# Stress axis : x y z
#
# Youngs Moduli (GPa) = 40.06419 105.56588 96.20984
#
# Poissons Ratio (x) = 0.45343 0.16551
# Poissons Ratio (y) = 0.17208 0.14524
# Poissons Ratio (z) = 0.06892 0.15937
#
# Static dielectric constant tensor:
#      x y z
#    x 1.706330 0.000000 -0.020030 
#    y 0.000000 1.764640 0.000000 
#    z -0.020030 0.000000 1.702830 
# 
# From -- ./inp_files/131359.got.cif
#   From: 2010.05.17/outbox.cif.g08.bks.cpg/sg12_66_cif.got.tgz:131359.got - 2010.06.03 13:09:07.
