data_PCOD9212183
_publ_section_title
;
Structure prediction by ZEFSAII (Michael W. Deem and Ramdas Pophale) SiO2 
 PCOD9212183
Probable space group: C 2/M
;
_chemical_formula_sum "Si O2"
_cell_formula_units_Z 64
_cell_length_a 30.314079
_cell_length_b 7.998654
_cell_length_c 14.751055
_cell_angle_alpha 90.000000
_cell_angle_beta 53.314902
_cell_angle_gamma 90.000000
_cell_volume 2868.279058
_symmetry_space_group_name_H-M "C 2/M"
_symmetry_group_IT_number 12
_symmetry_cell_setting 'monoclinic'
loop_
_space_group_symop_operation_xyz
x,y,z
-x,y,-z
-x,-y,-z
x,-y,z
1/2+x,1/2+y,z
1/2-x,1/2+y,-z
1/2-x,1/2-y,-z
1/2+x,1/2-y,z
loop_
_atom_site_type_symbol
_atom_site_label
_atom_site_fract_x
_atom_site_fract_y
_atom_site_fract_z
Si Si1 0.516203 0.202820 0.234839
Si Si2 0.666491 0.808794 0.260007
Si Si3 0.190133 0.187946 0.044202
Si Si4 0.716154 0.204347 0.381370
Si Si5 0.611369 0.193806 0.987908
Si Si6 0.839556 0.803537 0.261141
Si Si7 0.391223 0.804585 0.378722
Si Si8 0.055781 0.198301 0.382946
O O1 0.453011 0.265190 0.315074
O O2 0.546585 0.255802 0.289356
O O3 0.515546 0.000000 0.231607
O O4 0.554722 0.259238 0.103247
O O5 0.662045 0.697515 0.176584
O O6 0.708239 0.750932 0.285337
O O7 0.604825 0.796381 0.372024
O O8 0.678929 0.000000 0.218981
O O9 0.192243 0.000000 0.006548
O O10 0.250000 0.250000 0.000000
O O11 0.157360 0.292652 0.010581
O O12 0.776134 0.259708 0.340598
O O13 0.662239 0.265314 0.501766
O O14 0.716011 0.000000 0.384671
O O15 0.634341 0.281884 0.870316
O O16 0.603264 0.000000 0.974394
O O17 0.875160 0.712495 0.293232
O O18 0.838507 0.000000 0.284675
O O19 0.394290 0.000000 0.400006
O O20 0.000000 0.247144 0.500000
O O21 0.063808 0.000000 0.383896
#
# Coordination Sequence:
#
# PCOD9212183 Si02
#       8
#     8   8   8   8   8   8   8   8
#     4  10  22  40  64  89 119 161 211 259 312 374
#     4  11  21  37  61  89 120 160 206 250 303 368
#     4  12  24  39  60  89 125 165 205 253 305 366
#     4   9  20  38  62  90 122 157 204 257 311 374
#     4  11  23  41  63  90 122 163 211 261 310 371
#     4  11  23  40  62  91 123 162 205 258 322 381
#     4  10  21  41  65  90 118 157 207 264 317 372
#     4  11  23  37  56  87 126 163 201 250 309 372
#
# _framework density 22.313032
#
# number of rings (size 3 to 8) (size 9 to 14) (size 15 to 20)
#    0.000    1.375    1.250    4.500    0.000    4.500 
#    0.000    6.250    0.000    0.000    0.000    0.000 
#    0.000    0.000    0.000    0.000    0.000    0.000 
#
# Total GULP energy -178781.352875 kJ/mol
# GULP energy per Si atom -5586.917277 kJ/mol
# Density = 2.226225 g / cm^3
# Si number density = 22.313032 Si / 1000 Ang^3
#
#
#
# Elastic Constant Matrix: (Units=GPa)
#
#
# Indices 1 2 3 4 5 6 
#
# 1 96.7222 -4.6646 11.6933 0.0000 -16.3121 0.0000
# 2 -4.6646 29.7926 -0.0994 0.0000 -8.5031 0.0003
# 3 11.6933 -0.0994 85.2738 0.0000 -15.2357 0.0000
# 4 0.0000 0.0000 0.0000 25.4775 0.0000 -1.1727
# 5 -16.3121 -8.5031 -15.2357 0.0000 40.1290 0.0000
# 6 0.0000 0.0003 0.0000 -1.1727 0.0000 3.4555
#
#
#
# Elastic Compliance Matrix: (Units=1/GPa)
#
#
# Indices 1 2 3 4 5 6 
#
# 1 0.011432 0.003239 -0.000655 0.000000 0.005084 0.000000
# 2 0.003239 0.036822 0.001317 0.000000 0.009619 -0.000003
# 3 -0.000655 0.001317 0.012681 0.000000 0.004827 0.000000
# 4 0.000000 0.000000 0.000000 0.039873 0.000000 0.013532
# 5 0.005084 0.009619 0.004827 0.000000 0.030857 -0.000001
# 6 0.000000 -0.000003 0.000000 0.013532 -0.000001 0.293986
#
#
# Mechanical properties :
#
#
# Convention : Reuss Voigt Hill
#
# Bulk Modulus (GPa) = 14.54831 25.07192 19.81011
# Shear Modulus (GPa) = 11.34398 27.46967 19.40682
#
# Velocity S-wave (km/s) = 2.25722 3.51252 2.95236
# Velocity P-wave (km/s) = 3.65071 5.26414 4.52984
#
# Compressibility (1/GPa) = 0.06873652
#
# Stress axis : x y z
#
# Youngs Moduli (GPa) = 87.47527 27.15745 78.85933
#
# Poissons Ratio (x) = -0.08796 0.05169
# Poissons Ratio (y) = -0.28332 -0.10389
# Poissons Ratio (z) = 0.05733 -0.03578
#
# Static dielectric constant tensor:
#      x y z
#    x 1.814080 0.000000 -0.088670 
#    y 0.000000 1.796140 0.000000 
#    z -0.088670 0.000000 2.097940 
# 
# From -- ./inp_files/249877.got.cif
#   From: 2010.05.17/outbox.cif.g08.bks.cpg/sg12_125_cif.got.tgz:249877.got - 2010.06.03 13:09:07.
