data_PCOD9212319
_publ_section_title
;
Structure prediction by ZEFSAII (Michael W. Deem and Ramdas Pophale) SiO2 
 PCOD9212319
Probable space group: C 2/M
;
_chemical_formula_sum "Si O2"
_cell_formula_units_Z 36
_cell_length_a 5.125072
_cell_length_b 24.732959
_cell_length_c 13.289030
_cell_angle_alpha 90.000000
_cell_angle_beta 75.916880
_cell_angle_gamma 90.000000
_cell_volume 1633.863900
_symmetry_space_group_name_H-M "C 2/M"
_symmetry_group_IT_number 12
_symmetry_cell_setting 'monoclinic'
loop_
_space_group_symop_operation_xyz
x,y,z
-x,y,-z
-x,-y,-z
x,-y,z
1/2+x,1/2+y,z
1/2-x,1/2+y,-z
1/2-x,1/2-y,-z
1/2+x,1/2-y,z
loop_
_atom_site_type_symbol
_atom_site_label
_atom_site_fract_x
_atom_site_fract_y
_atom_site_fract_z
Si Si1 0.149540 0.378835 0.882665
Si Si2 0.182073 0.064066 0.801533
Si Si3 0.714525 0.434198 0.564422
Si Si4 0.500000 0.711329 0.500000
Si Si5 0.091620 0.213390 0.273583
O O1 0.397085 0.419946 0.876622
O O2 0.284233 0.327015 0.818496
O O3 0.929243 0.405090 0.829381
O O4 0.000000 0.365666 0.000000
O O5 0.163006 0.079579 0.685182
O O6 0.228503 0.000000 0.804278
O O7 0.500000 0.419423 0.500000
O O8 0.725999 0.500000 0.562567
O O9 0.000000 0.412250 0.500000
O O10 0.250000 0.750000 0.500000
O O11 0.562646 0.685231 0.386161
O O12 0.304032 0.262524 0.268098
#
# Coordination Sequence:
#
# PCOD9212319 Si02
#       5
#     8   8   8   4   8
#     4  12  26  42  63  96 130 170 229 272 311 386
#     4  11  24  43  64  90 130 176 221 272 323 373
#     4   9  17  33  58  85 117 156 200 257 320 378
#     4   8  16  34  62  90 119 156 197 250 314 390
#     4  10  21  41  67  94 127 164 206 264 332 386
#
# _framework density 22.033659
#
# number of rings (size 3 to 8) (size 9 to 14) (size 15 to 20)
#    0.000    1.778    0.000    4.000    0.000    7.111 
#    6.000    0.000    0.000    0.000    0.000    0.000 
#    0.000    0.000    0.000    0.000    0.000    0.000 
#
# Total GULP energy -100690.806450 kJ/mol
# GULP energy per Si atom -5593.933692 kJ/mol
# Density = 2.198351 g / cm^3
# Si number density = 22.033659 Si / 1000 Ang^3
#
#
#
# Elastic Constant Matrix: (Units=GPa)
#
#
# Indices 1 2 3 4 5 6 
#
# 1 114.5042 -8.7325 2.5115 0.0000 2.4696 0.0000
# 2 -8.7325 52.9810 30.2619 0.0000 1.8059 0.0000
# 3 2.5115 30.2619 120.9182 0.0000 -24.5158 0.0000
# 4 0.0000 0.0000 0.0000 21.0453 0.0000 -1.6913
# 5 2.4696 1.8059 -24.5158 0.0000 40.3307 0.0000
# 6 0.0000 0.0000 0.0000 -1.6913 0.0000 11.5595
#
#
#
# Elastic Compliance Matrix: (Units=1/GPa)
#
#
# Indices 1 2 3 4 5 6 
#
# 1 0.008937 0.002055 -0.000946 0.000000 -0.001214 0.000000
# 2 0.002055 0.023396 -0.006998 0.000000 -0.005427 0.000000
# 3 -0.000946 -0.006998 0.011538 0.000000 0.007385 0.000000
# 4 0.000000 0.000000 0.000000 0.048082 0.000000 0.007035
# 5 -0.001214 -0.005427 0.007385 0.000000 0.029602 0.000000
# 6 0.000000 0.000000 0.000000 0.007035 0.000000 0.087539
#
#
# Mechanical properties :
#
#
# Convention : Reuss Voigt Hill
#
# Bulk Modulus (GPa) = 31.16039 37.38723 34.27381
# Shear Modulus (GPa) = 21.59178 32.21126 26.90152
#
# Velocity S-wave (km/s) = 3.13380 3.82764 3.49797
# Velocity P-wave (km/s) = 5.22180 6.04479 5.64831
#
# Compressibility (1/GPa) = 0.03209202
#
# Stress axis : x y z
#
# Youngs Moduli (GPa) = 111.89502 42.74296 86.66676
#
# Poissons Ratio (x) = -0.08783 0.08199
# Poissons Ratio (y) = -0.22992 0.60651
# Poissons Ratio (z) = 0.10586 0.29913
#
# Static dielectric constant tensor:
#      x y z
#    x 1.755880 0.000000 -0.011340 
#    y 0.000000 1.837200 0.000000 
#    z -0.011340 0.000000 1.791060 
# 
# From -- ./inp_files/114978.got.cif
#   From: 2010.05.17/outbox.cif.g08.bks.cpg/sg12_58_cif.got.tgz:114978.got - 2010.06.03 13:09:07.
