data_PCOD9212134
_publ_section_title
;
Structure prediction by ZEFSAII (Michael W. Deem and Ramdas Pophale) SiO2 
 PCOD9212134
Probable space group: C 2/M
;
_chemical_formula_sum "Si O2"
_cell_formula_units_Z 64
_cell_length_a 15.934240
_cell_length_b 19.492688
_cell_length_c 31.117736
_cell_angle_alpha 90.000000
_cell_angle_beta 159.498383
_cell_angle_gamma 90.000000
_cell_volume 3385.081689
_symmetry_space_group_name_H-M "C 2/M"
_symmetry_group_IT_number 12
_symmetry_cell_setting 'monoclinic'
loop_
_space_group_symop_operation_xyz
x,y,z
-x,y,-z
-x,-y,-z
x,-y,z
1/2+x,1/2+y,z
1/2-x,1/2+y,-z
1/2-x,1/2-y,-z
1/2+x,1/2-y,z
loop_
_atom_site_type_symbol
_atom_site_label
_atom_site_fract_x
_atom_site_fract_y
_atom_site_fract_z
Si Si1 0.811197 0.777891 0.877407
Si Si2 0.479825 0.325295 0.768504
Si Si3 0.821404 0.419130 0.780240
Si Si4 0.409771 0.580038 0.655680
Si Si5 0.016893 0.917743 0.458285
Si Si6 0.084727 0.317879 0.372927
Si Si7 0.841430 0.312302 0.014735
Si Si8 0.552478 0.804277 0.457386
O O1 0.621999 0.737699 0.815868
O O2 0.653311 0.822239 0.769465
O O3 0.958027 0.721052 0.920532
O O4 0.000000 0.813225 0.000000
O O5 0.490764 0.387356 0.739750
O O6 0.206090 0.304046 0.645114
O O7 0.623812 0.340418 0.881332
O O8 0.884216 0.500000 0.807893
O O9 0.615526 0.412182 0.718113
O O10 0.702805 0.396708 0.678052
O O11 0.036552 0.370753 0.898029
O O12 0.353810 0.500000 0.632933
O O13 0.185632 0.625359 0.533123
O O14 0.255889 0.885538 0.553266
O O15 0.000000 0.896341 0.500000
O O16 0.026080 0.000000 0.461183
O O17 0.263695 0.256968 0.442983
O O18 0.018110 0.300169 0.389683
O O19 0.750000 0.250000 0.000000
#
# Coordination Sequence:
#
# PCOD9212134 Si02
#       8
#     8   8   8   8   8   8   8   8
#     4  10  22  38  55  87 122 157 202 254 303 367
#     4  11  23  37  57  89 128 163 210 251 300 372
#     4  10  21  41  64  89 124 168 206 256 319 373
#     4  11  22  39  62  89 131 168 204 255 310 377
#     4  10  23  39  61  91 117 151 209 264 316 373
#     4  11  22  37  63  85 122 159 204 259 313 372
#     4  11  23  39  62  87 126 166 214 257 304 359
#     4  11  23  36  57  93 124 161 208 248 315 370
#
# _framework density 18.906486000000001
#
# number of rings (size 3 to 8) (size 9 to 14) (size 15 to 20)
#    0.000    1.375    3.750    1.125    5.250    2.500 
#    0.000    1.250    0.000    2.625    0.000    0.000 
#    0.000    0.000    0.000    0.000    0.000    0.000 
#
# Total GULP energy -178751.224636 kJ/mol
# GULP energy per Si atom -5585.975770 kJ/mol
# Density = 1.886345 g / cm^3
# Si number density = 18.906486 Si / 1000 Ang^3
#
#
#
# Elastic Constant Matrix: (Units=GPa)
#
#
# Indices 1 2 3 4 5 6 
#
# 1 83.7755 30.2087 43.3551 -0.0012 -13.9918 0.0020
# 2 30.2087 39.5024 43.0552 0.0024 -8.8194 0.0022
# 3 43.3551 43.0552 128.9467 -0.0278 -31.9186 0.0129
# 4 -0.0012 0.0024 -0.0278 25.5572 0.0119 0.6584
# 5 -13.9918 -8.8194 -31.9186 0.0119 45.2777 0.0002
# 6 0.0020 0.0022 0.0129 0.6584 0.0002 24.6703
#
#
#
# Elastic Compliance Matrix: (Units=1/GPa)
#
#
# Indices 1 2 3 4 5 6 
#
# 1 0.016999 -0.010791 -0.001614 -0.000001 0.002013 0.000000
# 2 -0.010791 0.046793 -0.012798 -0.000017 -0.003242 0.000004
# 3 -0.001614 -0.012798 0.014332 0.000014 0.007111 -0.000007
# 4 -0.000001 -0.000017 0.000014 0.039155 -0.000004 -0.001045
# 5 0.002013 -0.003242 0.007111 -0.000004 0.027090 -0.000004
# 6 0.000000 0.000004 -0.000007 -0.001045 -0.000004 0.040563
#
#
# Mechanical properties :
#
#
# Convention : Reuss Voigt Hill
#
# Bulk Modulus (GPa) = 36.07977 53.94029 45.01003
# Shear Modulus (GPa) = 20.44342 28.14140 24.29241
#
# Velocity S-wave (km/s) = 3.29187 3.86223 3.58840
# Velocity P-wave (km/s) = 5.79424 6.96284 6.40524
#
# Compressibility (1/GPa) = 0.02771636
#
# Stress axis : x y z
#
# Youngs Moduli (GPa) = 58.82529 21.37070 69.77628
#
# Poissons Ratio (x) = 0.23062 0.11262
# Poissons Ratio (y) = 0.63480 0.89303
# Poissons Ratio (z) = 0.09495 0.27351
#
# Static dielectric constant tensor:
#      x y z
#    x 1.694960 0.000000 -0.030390 
#    y 0.000000 1.633090 -0.000010 
#    z -0.030390 -0.000010 1.655350 
# 
# From -- ./inp_files/377096.got.cif
#   From: 2010.05.17/outbox.cif.g08.bks.cpg/sg12_189_cif.got.tgz:377096.got - 2010.06.03 13:09:07.
