data_PCOD9212537
_publ_section_title
;
Structure prediction by ZEFSAII (Michael W. Deem and Ramdas Pophale) SiO2 
 PCOD9212537
Probable space group: C 2/M
;
_chemical_formula_sum "Si O2"
_cell_formula_units_Z 42
_cell_length_a 24.582393
_cell_length_b 15.230381
_cell_length_c 6.377798
_cell_angle_alpha 90.000000
_cell_angle_beta 119.664971
_cell_angle_gamma 90.000000
_cell_volume 2074.878194
_symmetry_space_group_name_H-M "C 2/M"
_symmetry_group_IT_number 12
_symmetry_cell_setting 'monoclinic'
loop_
_space_group_symop_operation_xyz
x,y,z
-x,y,-z
-x,-y,-z
x,-y,z
1/2+x,1/2+y,z
1/2-x,1/2+y,-z
1/2-x,1/2-y,-z
1/2+x,1/2-y,z
loop_
_atom_site_type_symbol
_atom_site_label
_atom_site_fract_x
_atom_site_fract_y
_atom_site_fract_z
Si Si1 0.877089 0.756503 0.695315
Si Si2 0.207820 0.328325 0.825614
Si Si3 0.830303 0.095350 0.920130
Si Si4 0.000000 0.500000 0.500000
Si Si5 0.085580 0.344519 0.850800
Si Si6 0.565916 0.660644 0.580055
O O1 0.829410 0.710830 0.443717
O O2 0.923408 0.814036 0.640349
O O3 0.843448 0.824317 0.787879
O O4 0.909646 0.681197 0.896073
O O5 0.155590 0.359941 0.890973
O O6 0.250000 0.250000 0.000000
O O7 0.258452 0.399044 0.852742
O O8 0.875439 0.110584 0.206480
O O9 0.844109 0.000000 0.852698
O O10 0.040599 0.422825 0.701193
O O11 0.064795 0.253895 0.699896
O O12 0.500000 0.615635 0.500000
#
# Coordination Sequence:
#
# PCOD9212537 Si02
#       6
#     8   8   8   2   8   8
#     4  10  21  42  66  92 124 179 218 265 333 407
#     4  11  20  42  65  92 129 177 219 269 334 400
#     4  11  24  38  62  98 130 164 216 278 329 389
#     4  12  24  48  62 104 148 172 222 286 340 388
#     4  10  23  39  66  93 131 175 217 268 325 402
#     4  10  21  43  65  88 124 173 213 261 332 395
#
# _framework density 20.242152000000001
#
# number of rings (size 3 to 8) (size 9 to 14) (size 15 to 20)
#    0.000    1.524    6.667    0.571    1.333    4.190 
#    1.714    5.714    0.000    0.000    0.000    0.000 
#    0.000    0.000    0.000    0.000    0.000    0.000 
#
# Total GULP energy -116950.379548 kJ/mol
# GULP energy per Si atom -5569.065693 kJ/mol
# Density = 2.019608 g / cm^3
# Si number density = 20.242152 Si / 1000 Ang^3
#
#
#
# Elastic Constant Matrix: (Units=GPa)
#
#
# Indices 1 2 3 4 5 6 
#
# 1 97.1688 -1.4884 52.1304 0.0000 8.4457 0.0000
# 2 -1.4884 91.4849 29.6285 0.0000 9.4532 0.0000
# 3 52.1304 29.6285 112.7452 0.0000 -1.7470 0.0000
# 4 0.0000 0.0000 0.0000 17.9634 0.0000 10.5464
# 5 8.4457 9.4532 -1.7470 0.0000 25.7442 0.0000
# 6 0.0000 0.0000 0.0000 10.5464 0.0000 11.6504
#
#
#
# Elastic Compliance Matrix: (Units=1/GPa)
#
#
# Indices 1 2 3 4 5 6 
#
# 1 0.015306 0.003594 -0.008128 0.000000 -0.006893 0.000000
# 2 0.003594 0.013363 -0.005273 0.000000 -0.006444 0.000000
# 3 -0.008128 -0.005273 0.014100 0.000000 0.005560 0.000000
# 4 0.000000 0.000000 0.000000 0.118815 0.000000 -0.107556
# 5 -0.006893 -0.006444 0.005560 0.000000 0.043848 0.000000
# 6 0.000000 0.000000 0.000000 -0.107556 0.000000 0.183197
#
#
# Mechanical properties :
#
#
# Convention : Reuss Voigt Hill
#
# Bulk Modulus (GPa) = 43.19034 51.32665 47.25849
# Shear Modulus (GPa) = 12.02029 25.81349 18.91689
#
# Velocity S-wave (km/s) = 2.43950 3.57492 3.06032
# Velocity P-wave (km/s) = 5.41461 6.51547 5.99038
#
# Compressibility (1/GPa) = 0.02315333
#
# Stress axis : x y z
#
# Youngs Moduli (GPa) = 65.33219 74.83444 70.92279
#
# Poissons Ratio (x) = -0.26894 0.57649
# Poissons Ratio (y) = -0.23479 0.37399
# Poissons Ratio (z) = 0.53105 0.39461
#
# Static dielectric constant tensor:
#      x y z
#    x 1.787170 0.000000 -0.002490 
#    y 0.000000 1.701220 0.000000 
#    z -0.002490 0.000000 1.722160 
# 
# From -- ./inp_files/28108.got.cif
#   From: 2010.05.17/outbox.cif.g08.bks.cpg/sg12_15_cif.got.tgz:28108.got - 2010.06.03 13:09:07.
