data_PCOD9212955
_publ_section_title
;
Structure prediction by ZEFSAII (Michael W. Deem and Ramdas Pophale) SiO2 
 PCOD9212955
Probable space group: C 2/M
;
_chemical_formula_sum "Si O2"
_cell_formula_units_Z 64
_cell_length_a 15.798872
_cell_length_b 17.342858
_cell_length_c 12.610208
_cell_angle_alpha 90.000000
_cell_angle_beta 89.353029
_cell_angle_gamma 90.000000
_cell_volume 3454.946376
_symmetry_space_group_name_H-M "C 2/M"
_symmetry_group_IT_number 12
_symmetry_cell_setting 'monoclinic'
loop_
_space_group_symop_operation_xyz
x,y,z
-x,y,-z
-x,-y,-z
x,-y,z
1/2+x,1/2+y,z
1/2-x,1/2+y,-z
1/2-x,1/2-y,-z
1/2+x,1/2-y,z
loop_
_atom_site_type_symbol
_atom_site_label
_atom_site_fract_x
_atom_site_fract_y
_atom_site_fract_z
Si Si1 0.838786 0.156283 0.221155
Si Si2 0.430335 0.808078 0.271165
Si Si3 0.420956 0.914336 0.079933
Si Si4 0.100534 0.227789 0.235703
Si Si5 0.900546 0.590325 0.472444
Si Si6 0.990419 0.909437 0.874211
Si Si7 0.800929 0.683067 0.940116
Si Si8 0.721155 0.801182 0.400571
O O1 0.869114 0.245475 0.217894
O O2 0.764765 0.141822 0.137850
O O3 0.797592 0.154823 0.338759
O O4 0.920140 0.106830 0.186486
O O5 0.450442 0.870778 0.183289
O O6 0.515971 0.760760 0.292879
O O7 0.392533 0.854103 0.370296
O O8 0.394856 0.000000 0.108648
O O9 0.500000 0.916032 0.000000
O O10 0.344189 0.872070 0.023506
O O11 0.077020 0.144645 0.186506
O O12 0.126740 0.278940 0.133960
O O13 0.176106 0.242739 0.317585
O O14 0.876709 0.500000 0.456875
O O15 0.845043 0.633250 0.562096
O O16 0.000000 0.591017 0.500000
O O17 0.969498 0.000000 0.870335
O O18 0.000000 0.887748 0.000000
O O19 0.750000 0.750000 0.000000
O O20 0.750000 0.750000 0.500000
#
# Coordination Sequence:
#
# PCOD9212955 Si02
#       8
#     8   8   8   8   8   8   8   8
#     4  10  22  35  64  90 115 156 199 249 293 357
#     4  11  19  38  59  87 116 151 202 242 289 367
#     4  11  23  36  54  84 121 156 191 240 296 354
#     4  10  22  36  61  89 112 160 205 245 288 361
#     4  11  23  39  60  87 118 152 194 246 301 355
#     4  10  22  41  64  92 125 160 202 249 302 362
#     4  11  20  35  56  83 119 155 196 235 294 358
#     4  11  22  41  63  89 120 157 206 249 304 358
#
# _framework density 18.524166000000001
#
# number of rings (size 3 to 8) (size 9 to 14) (size 15 to 20)
#    0.000    1.375    5.000    1.125    1.750    1.000 
#    0.000    3.125    0.000    0.750    0.000    0.000 
#    0.000    0.000    0.000    0.000    0.000    0.000 
#
# Total GULP energy -178433.360753 kJ/mol
# GULP energy per Si atom -5576.042524 kJ/mol
# Density = 1.848200 g / cm^3
# Si number density = 18.524166 Si / 1000 Ang^3
#
#
#
# Elastic Constant Matrix: (Units=GPa)
#
#
# Indices 1 2 3 4 5 6 
#
# 1 58.1775 17.1886 8.1190 0.0000 -6.3451 0.0000
# 2 17.1886 92.8361 22.4645 0.0000 7.5826 0.0000
# 3 8.1190 22.4645 71.8693 0.0000 -6.2261 0.0000
# 4 0.0000 0.0000 0.0000 17.1277 0.0000 -10.4068
# 5 -6.3451 7.5826 -6.2261 0.0000 37.1829 0.0000
# 6 0.0000 0.0000 0.0000 -10.4068 0.0000 9.8209
#
#
#
# Elastic Compliance Matrix: (Units=1/GPa)
#
#
# Indices 1 2 3 4 5 6 
#
# 1 0.018771 -0.003630 -0.000654 0.000000 0.003834 0.000000
# 2 -0.003630 0.012702 -0.003895 0.000000 -0.003862 0.000000
# 3 -0.000654 -0.003895 0.015489 0.000000 0.003276 0.000000
# 4 0.000000 0.000000 0.000000 0.163930 0.000000 0.173708
# 5 0.003834 -0.003862 0.003276 0.000000 0.028884 0.000000
# 6 0.000000 0.000000 0.000000 0.173708 0.000000 0.285894
#
#
# Mechanical properties :
#
#
# Convention : Reuss Voigt Hill
#
# Bulk Modulus (GPa) = 32.67514 35.38080 34.02797
# Shear Modulus (GPa) = 9.05422 24.50036 16.77729
#
# Velocity S-wave (km/s) = 2.21323 3.64072 3.01275
# Velocity P-wave (km/s) = 4.92023 6.06749 5.52373
#
# Compressibility (1/GPa) = 0.03060430
#
# Stress axis : x y z
#
# Youngs Moduli (GPa) = 53.27444 78.72970 64.56114
#
# Poissons Ratio (x) = 0.28582 0.04220
# Poissons Ratio (y) = 0.19341 0.25144
# Poissons Ratio (z) = 0.03482 0.30663
#
# Static dielectric constant tensor:
#      x y z
#    x 1.668780 0.000000 -0.017800 
#    y 0.000000 1.626580 0.000000 
#    z -0.017800 0.000000 1.649970 
# 
# From -- ./inp_files/146160.got.cif
#   From: 2010.05.17/outbox.cif.g08.bks.cpg/sg12_74_cif.got.tgz:146160.got - 2010.06.03 13:09:07.
