data_PCOD9212763
_publ_section_title
;
Structure prediction by ZEFSAII (Michael W. Deem and Ramdas Pophale) SiO2 
 PCOD9212763
Probable space group: C 2/M
;
_chemical_formula_sum "Si O2"
_cell_formula_units_Z 42
_cell_length_a 8.404516
_cell_length_b 32.456327
_cell_length_c 8.870264
_cell_angle_alpha 90.000000
_cell_angle_beta 117.530620
_cell_angle_gamma 90.000000
_cell_volume 2145.638968
_symmetry_space_group_name_H-M "C 2/M"
_symmetry_group_IT_number 12
_symmetry_cell_setting 'monoclinic'
loop_
_space_group_symop_operation_xyz
x,y,z
-x,y,-z
-x,-y,-z
x,-y,z
1/2+x,1/2+y,z
1/2-x,1/2+y,-z
1/2-x,1/2-y,-z
1/2+x,1/2-y,z
loop_
_atom_site_type_symbol
_atom_site_label
_atom_site_fract_x
_atom_site_fract_y
_atom_site_fract_z
Si Si1 0.000000 0.500000 0.500000
Si Si2 0.959842 0.308105 0.319146
Si Si3 0.170854 0.217574 0.678394
Si Si4 0.630225 0.430264 0.918269
Si Si5 0.174163 0.160197 0.968672
Si Si6 0.063424 0.000000 0.355558
Si Si7 0.400900 0.000000 0.115598
O O1 0.773244 0.500000 0.401563
O O2 0.004995 0.500000 0.317067
O O3 0.846432 0.266565 0.303619
O O4 0.000000 0.328011 0.500000
O O5 0.146328 0.293938 0.326430
O O6 0.845784 0.334739 0.152497
O O7 0.167969 0.194756 0.837244
O O8 0.000000 0.205746 0.500000
O O9 0.683025 0.384482 0.891741
O O10 0.528091 0.459288 0.756182
O O11 0.500000 0.422533 0.000000
O O12 0.786281 0.458290 0.054852
O O13 0.000000 0.164465 0.000000
O O14 0.000000 0.000000 0.500000
O O15 0.500000 0.000000 0.000000
#
# Coordination Sequence:
#
# PCOD9212763 Si02
#       7
#     2   8   8   8   8   4   4
#     4  12  20  38  72  98 128 158 236 256 324 396
#     4  11  22  40  62  91 122 164 215 266 314 379
#     4  11  22  39  63  89 126 163 211 265 317 378
#     4  10  21  44  61  81 134 164 198 256 323 370
#     4  11  23  39  63  89 122 170 207 257 322 381
#     4  11  22  41  70 100 122 173 214 266 323 399
#     4  11  22  39  64  94 124 167 210 264 319 391
#
# _framework density 19.574590000000001
#
# number of rings (size 3 to 8) (size 9 to 14) (size 15 to 20)
#    0.000    1.143    1.905    7.429    0.000    2.286 
#    1.714    1.905    0.000    0.000    0.000    0.000 
#    0.000    0.000    0.000    0.000    0.000    0.000 
#
# Total GULP energy -116988.355519 kJ/mol
# GULP energy per Si atom -5570.874072 kJ/mol
# Density = 1.953004 g / cm^3
# Si number density = 19.574590 Si / 1000 Ang^3
#
#
#
# Elastic Constant Matrix: (Units=GPa)
#
#
# Indices 1 2 3 4 5 6 
#
# 1 88.6832 4.6211 23.7353 0.0000 2.9803 0.0000
# 2 4.6211 51.0221 33.0805 0.0000 7.8977 0.0000
# 3 23.7353 33.0805 145.1882 0.0000 0.2631 0.0000
# 4 0.0000 0.0000 0.0000 -12.6020 0.0000 -8.8283
# 5 2.9803 7.8977 0.2631 0.0000 39.4478 0.0000
# 6 0.0000 0.0000 0.0000 -8.8283 0.0000 -8.4104
#
#
#
# Elastic Compliance Matrix: (Units=1/GPa)
#
#
# Indices 1 2 3 4 5 6 
#
# 1 0.011829 0.000387 -0.002020 0.000000 -0.000958 0.000000
# 2 0.000387 0.023863 -0.005492 0.000000 -0.004770 0.000000
# 3 -0.002020 -0.005492 0.008467 0.000000 0.001196 0.000000
# 4 0.000000 0.000000 0.000000 -0.299861 0.000000 0.314763
# 5 -0.000958 -0.004770 0.001196 0.000000 0.026369 0.000000
# 6 0.000000 0.000000 0.000000 0.314763 0.000000 -0.449306
#
#
# Mechanical properties :
#
#
# Convention : Reuss Voigt Hill
#
# Bulk Modulus (GPa) = 33.43516 45.30751 39.37133
# Shear Modulus (GPa) = -7.64036 18.58421 5.47192
#
# Velocity S-wave (km/s) = -1.97780 3.08458 1.67377
# Velocity P-wave (km/s) = 3.44999 5.99020 4.88799
#
# Compressibility (1/GPa) = 0.02990864
#
# Stress axis : x y z
#
# Youngs Moduli (GPa) = 84.53947 41.90541 118.10618
#
# Poissons Ratio (x) = -0.01620 0.23859
# Poissons Ratio (y) = -0.03269 0.64861
# Poissons Ratio (z) = 0.17078 0.23013
#
# Static dielectric constant tensor:
#      x y z
#    x 1.704360 0.000000 0.008580 
#    y 0.000000 1.761130 0.000000 
#    z 0.008580 0.000000 1.687190 
# 
# From -- ./inp_files/42387.got.cif
#   From: 2010.05.17/outbox.cif.g08.bks.cpg/sg12_22_cif.got.tgz:42387.got - 2010.06.03 13:09:07.
