data_PCOD9212444
_publ_section_title
;
Structure prediction by ZEFSAII (Michael W. Deem and Ramdas Pophale) SiO2 
 PCOD9212444
Probable space group: C 2/M
;
_chemical_formula_sum "Si O2"
_cell_formula_units_Z 40
_cell_length_a 17.427614
_cell_length_b 16.557853
_cell_length_c 11.556868
_cell_angle_alpha 90.000000
_cell_angle_beta 32.072003
_cell_angle_gamma 90.000000
_cell_volume 1770.777585
_symmetry_space_group_name_H-M "C 2/M"
_symmetry_group_IT_number 12
_symmetry_cell_setting 'monoclinic'
loop_
_space_group_symop_operation_xyz
x,y,z
-x,y,-z
-x,-y,-z
x,-y,z
1/2+x,1/2+y,z
1/2-x,1/2+y,-z
1/2-x,1/2-y,-z
1/2+x,1/2-y,z
loop_
_atom_site_type_symbol
_atom_site_label
_atom_site_fract_x
_atom_site_fract_y
_atom_site_fract_z
Si Si1 0.741451 0.403673 0.156779
Si Si2 0.131263 0.349460 0.423547
Si Si3 0.568220 0.091989 0.746057
Si Si4 0.159513 0.171599 0.489633
Si Si5 0.117580 0.902294 0.066191
O O1 0.745720 0.500000 0.146605
O O2 0.645513 0.377356 0.387135
O O3 0.688649 0.376491 0.098503
O O4 0.905736 0.376463 0.970295
O O5 0.094411 0.409143 0.575125
O O6 0.147045 0.263467 0.466495
O O7 0.000000 0.347152 0.500000
O O8 0.275466 0.374429 0.171348
O O9 0.687029 0.147755 0.653092
O O10 0.582391 0.000000 0.772971
O O11 0.036968 0.141292 0.734339
O O12 0.101515 0.000000 0.084361
#
# Coordination Sequence:
#
# PCOD9212444 Si02
#       5
#     8   8   8   8   8
#     4  10  21  41  71  98 131 180 230 276 332 408
#     4  12  26  44  71 100 140 182 226 278 344 411
#     4  11  24  45  71  99 135 181 230 278 336 409
#     4  12  26  42  67 101 144 176 221 287 348 399
#     4  11  24  44  72 102 135 182 234 281 333 404
#
# _framework density 22.588946
#
# number of rings (size 3 to 8) (size 9 to 14) (size 15 to 20)
#    0.000    0.800    2.000    5.400    2.800    6.400 
#    3.600    2.000    0.000    0.000    0.000    0.000 
#    0.000    0.000    0.000    0.000    0.000    0.000 
#
# Total GULP energy -112008.049067 kJ/mol
# GULP energy per Si atom -5600.402453 kJ/mol
# Density = 2.253753 g / cm^3
# Si number density = 22.588946 Si / 1000 Ang^3
#
#
#
# Elastic Constant Matrix: (Units=GPa)
#
#
# Indices 1 2 3 4 5 6 
#
# 1 70.2304 31.3701 1.7148 -0.0001 5.1754 0.0001
# 2 31.3701 61.9572 21.4596 -0.0001 -10.3104 0.0001
# 3 1.7148 21.4596 131.2620 -0.0002 15.3631 0.0002
# 4 -0.0001 -0.0001 -0.0002 22.5252 0.0000 -13.1194
# 5 5.1754 -10.3104 15.3631 0.0000 38.3205 0.0000
# 6 0.0001 0.0001 0.0002 -13.1194 0.0000 -3.8790
#
#
#
# Elastic Compliance Matrix: (Units=1/GPa)
#
#
# Indices 1 2 3 4 5 6 
#
# 1 0.020184 -0.012285 0.002571 0.000000 -0.007062 0.000000
# 2 -0.012285 0.026014 -0.005357 0.000000 0.010806 0.000000
# 3 0.002571 -0.005357 0.009097 0.000000 -0.005436 0.000000
# 4 0.000000 0.000000 0.000000 0.014948 0.000000 -0.050558
# 5 -0.007062 0.010806 -0.005436 0.000000 0.032136 0.000000
# 6 0.000000 0.000000 0.000000 -0.050558 0.000000 -0.086804
#
#
# Mechanical properties :
#
#
# Convention : Reuss Voigt Hill
#
# Bulk Modulus (GPa) = 39.75735 41.39317 40.57526
# Shear Modulus (GPa) = 92.41725 25.32035 58.86880
#
# Velocity S-wave (km/s) = 6.40323 3.35164 5.11052
# Velocity P-wave (km/s) = 8.50336 5.77428 7.26806
#
# Compressibility (1/GPa) = 0.02515258
#
# Stress axis : x y z
#
# Youngs Moduli (GPa) = 49.54393 38.44021 109.92852
#
# Poissons Ratio (x) = 0.47226 -0.28267
# Poissons Ratio (y) = 0.60867 0.58892
# Poissons Ratio (z) = -0.12740 0.20594
#
# Static dielectric constant tensor:
#      x y z
#    x 1.841060 0.000000 -0.008120 
#    y 0.000000 1.809510 0.000000 
#    z -0.008120 0.000000 1.839410 
# 
# From -- ./inp_files/158435.got.cif
#   From: 2010.05.17/outbox.cif.g08.bks.cpg/sg12_80_cif.got.tgz:158435.got - 2010.06.03 13:09:07.
