data_PCOD9212187
_publ_section_title
;
Structure prediction by ZEFSAII (Michael W. Deem and Ramdas Pophale) SiO2 
 PCOD9212187
Probable space group: C 2/M
;
_chemical_formula_sum "Si O2"
_cell_formula_units_Z 64
_cell_length_a 24.129844
_cell_length_b 8.829862
_cell_length_c 28.841418
_cell_angle_alpha 90.000000
_cell_angle_beta 32.904080
_cell_angle_gamma 90.000000
_cell_volume 3338.198616
_symmetry_space_group_name_H-M "C 2/M"
_symmetry_group_IT_number 12
_symmetry_cell_setting 'monoclinic'
loop_
_space_group_symop_operation_xyz
x,y,z
-x,y,-z
-x,-y,-z
x,-y,z
1/2+x,1/2+y,z
1/2-x,1/2+y,-z
1/2-x,1/2-y,-z
1/2+x,1/2-y,z
loop_
_atom_site_type_symbol
_atom_site_label
_atom_site_fract_x
_atom_site_fract_y
_atom_site_fract_z
Si Si1 0.781764 0.818569 0.593493
Si Si2 0.428840 0.681242 0.744131
Si Si3 0.516750 0.181599 0.103170
Si Si4 0.025242 0.679986 0.583702
Si Si5 0.956740 0.317690 0.248676
Si Si6 0.309278 0.818919 0.088323
Si Si7 0.841417 0.819952 0.162322
Si Si8 0.348921 0.318671 0.651155
O O1 0.859634 0.735470 0.504891
O O2 0.663588 0.780405 0.668708
O O3 0.813983 0.780870 0.623637
O O4 0.793052 0.000000 0.580213
O O5 0.434969 0.500000 0.735186
O O6 0.478461 0.756505 0.664090
O O7 0.487818 0.736380 0.748136
O O8 0.309365 0.723306 0.831843
O O9 0.505290 0.223982 0.164883
O O10 0.430852 0.262305 0.132881
O O11 0.498479 0.000000 0.113114
O O12 0.625558 0.214313 0.003372
O O13 0.019296 0.500000 0.587332
O O14 0.956067 0.748322 0.591000
O O15 0.965441 0.500000 0.248072
O O16 0.357447 0.735721 0.098643
O O17 0.315098 0.000000 0.092391
O O18 0.736916 0.744760 0.253972
O O19 0.832970 0.000000 0.169972
O O20 0.354436 0.500000 0.651471
#
# Coordination Sequence:
#
# PCOD9212187 Si02
#       8
#     8   8   8   8   8   8   8   8
#     4  10  22  41  65  91 121 162 203 243 302 369
#     4  11  24  42  63  88 120 163 209 253 303 360
#     4  10  21  41  65  90 121 164 206 246 303 369
#     4  12  25  40  62  94 126 159 199 252 307 357
#     4  10  22  42  65  89 119 158 207 258 304 354
#     4  10  22  40  64  89 121 165 208 246 299 370
#     4  12  23  35  59  94 129 161 198 251 307 357
#     4  11  21  39  65  91 123 164 202 242 299 369
#
# _framework density 19.172015999999999
#
# number of rings (size 3 to 8) (size 9 to 14) (size 15 to 20)
#    0.000    1.250    2.500    3.750    0.000    7.000 
#    0.000    0.000    0.000    0.000    0.000    0.000 
#    0.000    0.000    0.000    0.000    0.000    0.000 
#
# Total GULP energy -178973.267061 kJ/mol
# GULP energy per Si atom -5592.914596 kJ/mol
# Density = 1.912838 g / cm^3
# Si number density = 19.172016 Si / 1000 Ang^3
#
#
#
# Elastic Constant Matrix: (Units=GPa)
#
#
# Indices 1 2 3 4 5 6 
#
# 1 107.2757 38.3364 28.2398 -0.0059 0.3445 0.0062
# 2 38.3364 45.8284 38.6188 -0.0086 2.8694 0.0031
# 3 28.2398 38.6188 100.9778 -0.0038 8.3064 0.0036
# 4 -0.0059 -0.0086 -0.0038 8.4039 0.0005 3.0518
# 5 0.3445 2.8694 8.3064 0.0005 7.6547 -0.0005
# 6 0.0062 0.0031 0.0036 3.0518 -0.0005 30.4717
#
#
#
# Elastic Compliance Matrix: (Units=1/GPa)
#
#
# Indices 1 2 3 4 5 6 
#
# 1 0.013414 -0.011860 0.000514 -0.000002 0.003284 -0.000001
# 2 -0.011860 0.042698 -0.012891 0.000031 -0.001484 -0.000003
# 3 0.000514 -0.012891 0.015695 -0.000005 -0.012222 0.000000
# 4 -0.000002 0.000031 -0.000005 0.123483 -0.000016 -0.012367
# 5 0.003284 -0.001484 -0.012222 -0.000016 0.144310 0.000005
# 6 -0.000001 -0.000003 0.000000 -0.012367 0.000005 0.034056
#
#
# Mechanical properties :
#
#
# Convention : Reuss Voigt Hill
#
# Bulk Modulus (GPa) = 42.85743 51.60801 47.23272
# Shear Modulus (GPa) = 11.63043 19.23185 15.43114
#
# Velocity S-wave (km/s) = 2.46567 3.17064 2.84012
# Velocity P-wave (km/s) = 5.52347 6.35459 5.95355
#
# Compressibility (1/GPa) = 0.02333318
#
# Stress axis : x y z
#
# Youngs Moduli (GPa) = 74.54727 23.42046 63.71571
#
# Poissons Ratio (x) = 0.27778 -0.03277
# Poissons Ratio (y) = 0.88416 0.82134
# Poissons Ratio (z) = -0.03834 0.30191
#
# Static dielectric constant tensor:
#      x y z
#    x 1.634400 0.000000 0.002660 
#    y 0.000000 1.638120 0.000000 
#    z 0.002660 0.000000 1.674690 
# 
# From -- ./inp_files/382378.got.cif
#   From: 2010.05.17/outbox.cif.g08.bks.cpg/sg12_192_cif.got.tgz:382378.got - 2010.06.03 13:09:07.
