data_PCOD9212101
_publ_section_title
;
Structure prediction by ZEFSAII (Michael W. Deem and Ramdas Pophale) SiO2 
 PCOD9212101
Probable space group: C 2/M
;
_chemical_formula_sum "Si O2"
_cell_formula_units_Z 36
_cell_length_a 22.531530
_cell_length_b 13.411715
_cell_length_c 15.509265
_cell_angle_alpha 90.000000
_cell_angle_beta 24.354007
_cell_angle_gamma 90.000000
_cell_volume 1932.665601
_symmetry_space_group_name_H-M "C 2/M"
_symmetry_group_IT_number 12
_symmetry_cell_setting 'monoclinic'
loop_
_space_group_symop_operation_xyz
x,y,z
-x,y,-z
-x,-y,-z
x,-y,z
1/2+x,1/2+y,z
1/2-x,1/2+y,-z
1/2-x,1/2-y,-z
1/2+x,1/2-y,z
loop_
_atom_site_type_symbol
_atom_site_label
_atom_site_fract_x
_atom_site_fract_y
_atom_site_fract_z
Si Si1 0.841987 0.664753 0.422589
Si Si2 0.299600 0.500000 0.711837
Si Si3 0.500000 0.326040 0.500000
Si Si4 0.023886 0.000000 0.696618
Si Si5 0.416597 0.279251 0.791415
Si Si6 0.974974 0.500000 0.133420
Si Si7 0.129938 0.000000 0.757095
O O1 0.750000 0.750000 0.500000
O O2 0.736030 0.596570 0.621919
O O3 0.982956 0.711856 0.280450
O O4 0.893319 0.594392 0.277579
O O5 0.368197 0.401755 0.662093
O O6 0.347315 0.500000 0.546845
O O7 0.136031 0.500000 0.954221
O O8 0.483541 0.265818 0.608135
O O9 0.939357 0.103805 0.788522
O O10 0.070605 0.000000 0.735657
O O11 0.250000 0.250000 0.000000
O O12 0.000000 0.500000 0.000000
O O13 0.000000 0.000000 0.000000
#
# Coordination Sequence:
#
# PCOD9212101 Si02
#       7
#     8   4   4   4   8   4   4
#     4  11  24  43  64  95 131 167 217 269 322 391
#     4   9  17  37  59  91 118 159 204 267 319 365
#     4   9  20  34  62  87 124 158 210 257 314 375
#     4  10  21  41  63  90 140 163 214 281 324 370
#     4  11  23  40  66  94 130 174 217 268 330 391
#     4  11  24  37  67  95 124 159 222 266 316 378
#     4  11  24  43  63  92 134 179 213 271 331 389
#
# _framework density 18.627123000000001
#
# number of rings (size 3 to 8) (size 9 to 14) (size 15 to 20)
#    0.000    1.556    2.222    3.333    3.111    4.444 
#    0.000    0.000    0.000    4.667    0.000    0.000 
#    0.000    0.000    0.000    0.000    0.000    0.000 
#
# Total GULP energy -100349.076810 kJ/mol
# GULP energy per Si atom -5574.948712 kJ/mol
# Density = 1.858473 g / cm^3
# Si number density = 18.627123 Si / 1000 Ang^3
#
#
#
# Elastic Constant Matrix: (Units=GPa)
#
#
# Indices 1 2 3 4 5 6 
#
# 1 111.7541 53.4826 35.1709 0.0000 -2.5042 0.0000
# 2 53.4826 132.8869 69.8144 0.0000 -9.2481 0.0000
# 3 35.1709 69.8144 113.9018 0.0000 -16.8782 0.0000
# 4 0.0000 0.0000 0.0000 20.5483 0.0000 -14.7487
# 5 -2.5042 -9.2481 -16.8782 0.0000 38.3806 0.0000
# 6 0.0000 0.0000 0.0000 -14.7487 0.0000 26.1905
#
#
#
# Elastic Compliance Matrix: (Units=1/GPa)
#
#
# Indices 1 2 3 4 5 6 
#
# 1 0.011182 -0.003953 -0.001137 0.000000 -0.000723 0.000000
# 2 -0.003953 0.012501 -0.006454 0.000000 -0.000084 0.000000
# 3 -0.001137 -0.006454 0.013740 0.000000 0.004413 0.000000
# 4 0.000000 0.000000 0.000000 0.081681 0.000000 0.045997
# 5 -0.000723 -0.000084 0.004413 0.000000 0.027928 0.000000
# 6 0.000000 0.000000 0.000000 0.045997 0.000000 0.064084
#
#
# Mechanical properties :
#
#
# Convention : Reuss Voigt Hill
#
# Bulk Modulus (GPa) = 69.75962 75.05318 72.40640
# Shear Modulus (GPa) = 20.92194 30.36218 25.64206
#
# Velocity S-wave (km/s) = 3.35505 4.04170 3.71428
# Velocity P-wave (km/s) = 7.24847 7.88419 7.57300
#
# Compressibility (1/GPa) = 0.01433494
#
# Stress axis : x y z
#
# Youngs Moduli (GPa) = 89.43135 79.99170 72.77808
#
# Poissons Ratio (x) = 0.31624 0.08272
# Poissons Ratio (y) = 0.35356 0.46972
# Poissons Ratio (z) = 0.10165 0.51628
#
# Static dielectric constant tensor:
#      x y z
#    x 1.480660 0.000000 0.233820 
#    y 0.000000 1.624880 0.000000 
#    z 0.233820 0.000000 1.316420 
# 
# From -- ./inp_files/293061.got.cif
#   From: 2010.05.17/outbox.cif.g08.bks.cpg/sg12_147_cif.got.tgz:293061.got - 2010.06.03 13:09:07.
