data_PCOD9212839
_publ_section_title
;
Structure prediction by ZEFSAII (Michael W. Deem and Ramdas Pophale) SiO2 
 PCOD9212839
Probable space group: C 2/M
;
_chemical_formula_sum "Si O2"
_cell_formula_units_Z 40
_cell_length_a 7.500272
_cell_length_b 25.984591
_cell_length_c 9.524825
_cell_angle_alpha 90.000000
_cell_angle_beta 71.891556
_cell_angle_gamma 90.000000
_cell_volume 1764.364407
_symmetry_space_group_name_H-M "C 2/M"
_symmetry_group_IT_number 12
_symmetry_cell_setting 'monoclinic'
loop_
_space_group_symop_operation_xyz
x,y,z
-x,y,-z
-x,-y,-z
x,-y,z
1/2+x,1/2+y,z
1/2-x,1/2+y,-z
1/2-x,1/2-y,-z
1/2+x,1/2-y,z
loop_
_atom_site_type_symbol
_atom_site_label
_atom_site_fract_x
_atom_site_fract_y
_atom_site_fract_z
Si Si1 0.169832 0.124663 0.537042
Si Si2 0.617180 0.823474 0.268029
Si Si3 0.174444 0.060504 0.284526
Si Si4 0.169367 0.718164 0.844084
Si Si5 0.198962 0.123839 0.023511
O O1 0.305741 0.154588 0.606028
O O2 0.268272 0.090925 0.391677
O O3 0.000000 0.155922 0.500000
O O4 0.039254 0.083372 0.654123
O O5 0.741167 0.773118 0.201749
O O6 0.409790 0.803183 0.284033
O O7 0.657344 0.864944 0.136086
O O8 0.250178 0.078478 0.116443
O O9 0.177684 0.000000 0.303502
O O10 0.305212 0.675405 0.878413
O O11 0.000000 0.722526 0.000000
O O12 0.000000 0.115639 0.000000
#
# Coordination Sequence:
#
# PCOD9212839 Si02
#       5
#     8   8   8   8   8
#     4   8  18  33  55  76 110 137 176 222 269 308
#     4  11  19  35  53  82 109 148 176 216 262 325
#     4   9  19  35  57  80 105 139 183 227 269 310
#     4  10  22  31  56  78 118 143 175 212 276 316
#     4  11  18  34  55  82 108 137 184 220 260 318
#
# _framework density 22.671053000000001
#
# number of rings (size 3 to 8) (size 9 to 14) (size 15 to 20)
#    1.200    0.800    2.000    5.400    0.000    0.400 
#    0.000    5.000    0.000    9.000    0.000    0.000 
#    0.000    0.000    0.000    0.000    0.000    0.000 
#
# Total GULP energy -111664.053210 kJ/mol
# GULP energy per Si atom -5583.202661 kJ/mol
# Density = 2.261945 g / cm^3
# Si number density = 22.671053 Si / 1000 Ang^3
#
#
#
# Elastic Constant Matrix: (Units=GPa)
#
#
# Indices 1 2 3 4 5 6 
#
# 1 57.0644 25.7222 47.8109 0.0000 28.1720 0.0000
# 2 25.7222 95.4266 57.2108 0.0000 23.7374 0.0000
# 3 47.8109 57.2108 141.7537 0.0000 45.8055 0.0000
# 4 0.0000 0.0000 0.0000 20.6631 0.0000 4.2470
# 5 28.1720 23.7374 45.8055 0.0000 45.8902 0.0000
# 6 0.0000 0.0000 0.0000 4.2470 0.0000 10.3165
#
#
#
# Elastic Compliance Matrix: (Units=1/GPa)
#
#
# Indices 1 2 3 4 5 6 
#
# 1 0.028188 -0.001687 -0.005191 0.000000 -0.011250 0.000000
# 2 -0.001687 0.014097 -0.004574 0.000000 -0.001690 0.000000
# 3 -0.005191 -0.004574 0.013074 0.000000 -0.007497 0.000000
# 4 0.000000 0.000000 0.000000 0.052869 0.000000 -0.021765
# 5 -0.011250 -0.001690 -0.007497 0.000000 0.037055 0.000000
# 6 0.000000 0.000000 0.000000 -0.021765 0.000000 0.105892
#
#
# Mechanical properties :
#
#
# Convention : Reuss Voigt Hill
#
# Bulk Modulus (GPa) = 30.81277 61.74806 46.28041
# Shear Modulus (GPa) = 17.55019 26.27403 21.91211
#
# Velocity S-wave (km/s) = 2.78533 3.40799 3.11227
# Velocity P-wave (km/s) = 4.89538 6.54076 5.77695
#
# Compressibility (1/GPa) = 0.03245408
#
# Stress axis : x y z
#
# Youngs Moduli (GPa) = 35.47608 70.93798 76.48830
#
# Poissons Ratio (x) = 0.11970 0.39704
# Poissons Ratio (y) = 0.05986 0.34986
# Poissons Ratio (z) = 0.18415 0.32447
#
# Static dielectric constant tensor:
#      x y z
#    x 1.890140 0.000000 -0.038040 
#    y 0.000000 1.790470 0.000000 
#    z -0.038040 0.000000 1.948330 
# 
# From -- ./inp_files/40407.got.cif
#   From: 2010.05.17/outbox.cif.g08.bks.cpg/sg12_21_cif.got.tgz:40407.got - 2010.06.03 13:09:07.
