data_PCOD9212253
_publ_section_title
;
Structure prediction by ZEFSAII (Michael W. Deem and Ramdas Pophale) SiO2 
 PCOD9212253
Probable space group: C 2/M
;
_chemical_formula_sum "Si O2"
_cell_formula_units_Z 48
_cell_length_a 10.275504
_cell_length_b 26.669912
_cell_length_c 16.405559
_cell_angle_alpha 90.000000
_cell_angle_beta 32.944960
_cell_angle_gamma 90.000000
_cell_volume 2445.014344
_symmetry_space_group_name_H-M "C 2/M"
_symmetry_group_IT_number 12
_symmetry_cell_setting 'monoclinic'
loop_
_space_group_symop_operation_xyz
x,y,z
-x,y,-z
-x,-y,-z
x,-y,z
1/2+x,1/2+y,z
1/2-x,1/2+y,-z
1/2-x,1/2-y,-z
1/2+x,1/2-y,z
loop_
_atom_site_type_symbol
_atom_site_label
_atom_site_fract_x
_atom_site_fract_y
_atom_site_fract_z
Si Si1 0.003399 0.055544 0.584363
Si Si2 0.035459 0.557302 0.075291
Si Si3 0.281524 0.878999 0.865407
Si Si4 0.908321 0.606719 0.461113
Si Si5 0.766500 0.259597 0.896493
Si Si6 0.268053 0.779453 0.572778
O O1 0.734530 0.052093 0.752880
O O2 0.000000 0.083854 0.500000
O O3 0.163807 0.080410 0.566790
O O4 0.108622 0.000000 0.514755
O O5 0.141312 0.500000 0.017289
O O6 0.151143 0.592715 0.084768
O O7 0.000000 0.575641 0.000000
O O8 0.423659 0.896633 0.708401
O O9 0.319399 0.818658 0.851843
O O10 0.000000 0.887193 0.000000
O O11 0.840788 0.664087 0.513897
O O12 0.000000 0.586485 0.500000
O O13 0.001120 0.227156 0.748871
O O14 0.500000 0.248221 0.000000
O O15 0.750000 0.250000 0.000000
O O16 0.500000 0.759092 0.500000
O O17 0.250000 0.750000 0.500000
#
# Coordination Sequence:
#
# PCOD9212253 Si02
#       6
#     8   8   8   8   8   8
#     4  10  21  41  66  93 127 162 211 270 318 374
#     4  10  23  43  67  96 129 167 212 266 323 384
#     4  11  25  43  64  93 132 169 211 266 322 385
#     4  11  25  41  65  94 128 171 215 262 320 383
#     4  11  25  43  63  93 130 169 212 268 326 380
#     4  11  23  41  64  90 125 166 218 266 312 379
#
# _framework density 19.631786999999999
#
# number of rings (size 3 to 8) (size 9 to 14) (size 15 to 20)
#    0.000    1.333    3.333    1.000    9.333    4.667 
#    0.000    0.000    0.000    0.000    0.000    0.000 
#    0.000    0.000    0.000    0.000    0.000    0.000 
#
# Total GULP energy -133634.170669 kJ/mol
# GULP energy per Si atom -5568.090445 kJ/mol
# Density = 1.958710 g / cm^3
# Si number density = 19.631787 Si / 1000 Ang^3
#
#
#
# Elastic Constant Matrix: (Units=GPa)
#
#
# Indices 1 2 3 4 5 6 
#
# 1 192.1150 41.0962 38.1637 -0.0006 -0.8870 0.0013
# 2 41.0962 29.4247 -1.9734 -0.0002 -6.8717 0.0004
# 3 38.1637 -1.9734 99.5386 -0.0023 6.9798 0.0050
# 4 -0.0006 -0.0002 -0.0023 116.0474 0.0011 -177.1594
# 5 -0.8870 -6.8717 6.9798 0.0011 42.2482 -0.0024
# 6 0.0013 0.0004 0.0050 -177.1594 -0.0024 394.4210
#
#
#
# Elastic Compliance Matrix: (Units=1/GPa)
#
#
# Indices 1 2 3 4 5 6 
#
# 1 0.008549 -0.012470 -0.003435 0.000000 -0.001281 0.000000
# 2 -0.012470 0.053525 0.005312 0.000000 0.007566 0.000000
# 3 -0.003435 0.005312 0.011547 0.000000 -0.001116 0.000000
# 4 0.000000 0.000000 0.000000 0.027417 0.000000 0.012315
# 5 -0.001281 0.007566 -0.001116 0.000000 0.025058 0.000000
# 6 0.000000 0.000000 0.000000 0.012315 0.000000 0.008067
#
#
# Mechanical properties :
#
#
# Convention : Reuss Voigt Hill
#
# Bulk Modulus (GPa) = 19.07166 52.85014 35.96090
# Shear Modulus (GPa) = 28.93066 126.79611 77.86338
#
# Velocity S-wave (km/s) = 3.84300 8.04533 6.30460
# Velocity P-wave (km/s) = 5.42469 10.64342 8.44718
#
# Compressibility (1/GPa) = 0.05243382
#
# Stress axis : x y z
#
# Youngs Moduli (GPa) = 116.96996 18.68299 86.60272
#
# Poissons Ratio (x) = 0.23298 0.29750
# Poissons Ratio (y) = 1.45861 -0.46000
# Poissons Ratio (z) = 0.40181 -0.09924
#
# Static dielectric constant tensor:
#      x y z
#    x 1.698120 0.000000 0.107530 
#    y 0.000000 1.142140 0.000000 
#    z 0.107530 0.000000 1.484490 
# 
# From -- ./inp_files/80592.got.cif
#   From: 2010.05.17/outbox.cif.g08.bks.cpg/sg12_41_cif.got.tgz:80592.got - 2010.06.03 13:09:07.
