data_PCOD9212271
_publ_section_title
;
Structure prediction by ZEFSAII (Michael W. Deem and Ramdas Pophale) SiO2 
 PCOD9212271
Probable space group: C 2/M
;
_chemical_formula_sum "Si O2"
_cell_formula_units_Z 34
_cell_length_a 20.307605
_cell_length_b 12.980369
_cell_length_c 5.954522
_cell_angle_alpha 90.000000
_cell_angle_beta 56.067444
_cell_angle_gamma 90.000000
_cell_volume 1302.300616
_symmetry_space_group_name_H-M "C 2/M"
_symmetry_group_IT_number 12
_symmetry_cell_setting 'monoclinic'
loop_
_space_group_symop_operation_xyz
x,y,z
-x,y,-z
-x,-y,-z
x,-y,z
1/2+x,1/2+y,z
1/2-x,1/2+y,-z
1/2-x,1/2-y,-z
1/2+x,1/2-y,z
loop_
_atom_site_type_symbol
_atom_site_label
_atom_site_fract_x
_atom_site_fract_y
_atom_site_fract_z
Si Si1 0.542310 0.384766 0.669321
Si Si2 0.275726 0.390794 0.033204
Si Si3 0.804448 0.695345 0.211038
Si Si4 0.500000 0.000000 0.500000
Si Si5 0.894921 0.343986 0.420923
O O1 0.500000 0.382087 0.500000
O O2 0.580315 0.500000 0.598587
O O3 0.590229 0.277739 0.582694
O O4 0.500000 0.381120 0.000000
O O5 0.311550 0.500000 0.027366
O O6 0.325966 0.292593 0.013979
O O7 0.188392 0.380250 0.310379
O O8 0.250991 0.380264 0.822414
O O9 0.750000 0.750000 0.500000
O O10 0.878365 0.641586 0.186573
O O11 0.538863 0.089515 0.589081
#
# Coordination Sequence:
#
# PCOD9212271 Si02
#       5
#     8   8   8   2   8
#     4  10  23  44  68  95 136 190 244 296 350 427
#     4  10  21  41  66  96 134 173 234 298 363 429
#     4   9  22  40  63  91 128 178 228 289 349 427
#     4  12  24  40  64 112 150 184 230 288 366 464
#     4  11  23  41  65 100 142 179 234 284 364 439
#
# _framework density 26.107644000000001
#
# number of rings (size 3 to 8) (size 9 to 14) (size 15 to 20)
#    0.000    1.882    2.353    0.000    4.941    1.882 
#    0.000   11.176    0.000    0.000    0.000    0.000 
#    0.000    0.000    0.000    0.000    0.000    0.000 
#
# Total GULP energy -94638.303103 kJ/mol
# GULP energy per Si atom -5566.959006 kJ/mol
# Density = 2.604822 g / cm^3
# Si number density = 26.107644 Si / 1000 Ang^3
#
#
#
# Elastic Constant Matrix: (Units=GPa)
#
#
# Indices 1 2 3 4 5 6 
#
# 1 118.9712 52.8185 57.3435 0.0000 51.4139 0.0000
# 2 52.8185 183.3629 30.4956 0.0000 12.1779 0.0000
# 3 57.3435 30.4956 128.2102 0.0000 9.9868 0.0000
# 4 0.0000 0.0000 0.0000 16.9604 0.0000 1.2611
# 5 51.4139 12.1779 9.9868 0.0000 61.3335 0.0000
# 6 0.0000 0.0000 0.0000 1.2611 0.0000 -8.7942
#
#
#
# Elastic Compliance Matrix: (Units=1/GPa)
#
#
# Indices 1 2 3 4 5 6 
#
# 1 0.019526 -0.003533 -0.006758 0.000000 -0.014566 0.000000
# 2 -0.003533 0.006369 -0.000068 0.000000 0.001708 0.000000
# 3 -0.006758 -0.000068 0.010530 0.000000 0.003964 0.000000
# 4 0.000000 0.000000 0.000000 0.058339 0.000000 0.008366
# 5 -0.014566 0.001708 0.003964 0.000000 0.027530 0.000000
# 6 0.000000 0.000000 0.000000 0.008366 0.000000 -0.112511
#
#
# Mechanical properties :
#
#
# Convention : Reuss Voigt Hill
#
# Bulk Modulus (GPa) = 63.66698 79.09551 71.38125
# Shear Modulus (GPa) = 139.90775 33.22572 86.56673
#
# Velocity S-wave (km/s) = 7.32838 3.57128 5.76451
# Velocity P-wave (km/s) = 9.80031 6.88238 8.46798
#
# Compressibility (1/GPa) = 0.01570673
#
# Stress axis : x y z
#
# Youngs Moduli (GPa) = 51.21246 157.00428 94.96872
#
# Poissons Ratio (x) = 0.55474 0.64184
# Poissons Ratio (y) = 0.18095 0.00643
# Poissons Ratio (z) = 0.34611 0.01063
#
# Static dielectric constant tensor:
#      x y z
#    x 2.093970 0.000000 0.004460 
#    y 0.000000 2.001210 0.000000 
#    z 0.004460 0.000000 2.257100 
# 
# From -- ./inp_files/23601.got.cif
#   From: 2010.05.17/outbox.cif.g08.bks.cpg/sg12_12_cif.got.tgz:23601.got - 2010.06.03 13:09:07.
