data_PCOD9212312
_publ_section_title
;
Structure prediction by ZEFSAII (Michael W. Deem and Ramdas Pophale) SiO2 
 PCOD9212312
Probable space group: C 2/M
;
_chemical_formula_sum "Si O2"
_cell_formula_units_Z 48
_cell_length_a 17.466238
_cell_length_b 26.357815
_cell_length_c 10.520604
_cell_angle_alpha 90.000000
_cell_angle_beta 27.654036
_cell_angle_gamma 90.000000
_cell_volume 2247.970476
_symmetry_space_group_name_H-M "C 2/M"
_symmetry_group_IT_number 12
_symmetry_cell_setting 'monoclinic'
loop_
_space_group_symop_operation_xyz
x,y,z
-x,y,-z
-x,-y,-z
x,-y,z
1/2+x,1/2+y,z
1/2-x,1/2+y,-z
1/2-x,1/2-y,-z
1/2+x,1/2-y,z
loop_
_atom_site_type_symbol
_atom_site_label
_atom_site_fract_x
_atom_site_fract_y
_atom_site_fract_z
Si Si1 0.311868 0.113853 0.804657
Si Si2 0.310016 0.442829 0.787937
Si Si3 0.252727 0.232533 0.849702
Si Si4 0.966179 0.882804 0.191913
Si Si5 0.615453 0.274094 0.602540
Si Si6 0.670768 0.943339 0.711921
O O1 0.500000 0.096474 0.500000
O O2 0.299987 0.173227 0.787730
O O3 0.284882 0.098375 0.990204
O O4 0.139214 0.094723 0.991931
O O5 0.500000 0.428682 0.500000
O O6 0.293745 0.500000 0.868593
O O7 0.253742 0.446269 0.726956
O O8 0.359459 0.257424 0.580821
O O9 0.250000 0.250000 0.000000
O O10 0.064646 0.242025 0.084345
O O11 0.899279 0.835136 0.370951
O O12 0.809955 0.920094 0.418159
O O13 0.000000 0.864128 0.000000
O O14 0.750000 0.250000 0.500000
O O15 0.628691 0.000000 0.725229
O O16 0.500000 0.915802 0.000000
#
# Coordination Sequence:
#
# PCOD9212312 Si02
#       6
#     8   8   8   8   8   8
#     4  11  24  40  62  93 130 165 212 263 317 384
#     4  10  21  41  67  93 127 170 215 263 319 385
#     4  11  24  40  63  93 126 165 214 265 321 376
#     4  11  25  42  64  96 130 170 217 266 324 385
#     4  11  23  43  63  89 128 169 212 265 317 388
#     4  10  23  43  66  97 131 169 215 265 325 387
#
# _framework density 21.352592999999999
#
# number of rings (size 3 to 8) (size 9 to 14) (size 15 to 20)
#    0.000    1.333    1.667    4.000    4.667    2.000 
#    0.000    0.000    0.000    0.000    0.000    0.000 
#    0.000    0.000    0.000    0.000    0.000    0.000 
#
# Total GULP energy -133740.178804 kJ/mol
# GULP energy per Si atom -5572.507450 kJ/mol
# Density = 2.130399 g / cm^3
# Si number density = 21.352593 Si / 1000 Ang^3
#
#
#
# Elastic Constant Matrix: (Units=GPa)
#
#
# Indices 1 2 3 4 5 6 
#
# 1 39.9321 -4.4994 18.7151 -0.0010 5.8675 -0.0007
# 2 -4.4994 44.6138 37.0327 -0.0003 17.5696 -0.0002
# 3 18.7151 37.0327 136.5492 -0.0032 -12.9644 -0.0004
# 4 -0.0010 -0.0003 -0.0032 46.2518 0.0005 8.2355
# 5 5.8675 17.5696 -12.9644 0.0005 52.5473 0.0004
# 6 -0.0007 -0.0002 -0.0004 8.2355 0.0004 28.2821
#
#
#
# Elastic Compliance Matrix: (Units=1/GPa)
#
#
# Indices 1 2 3 4 5 6 
#
# 1 0.033348 0.016369 -0.010120 0.000000 -0.011694 0.000001
# 2 0.016369 0.046635 -0.016942 0.000000 -0.021600 0.000001
# 3 -0.010120 -0.016942 0.014285 0.000001 0.010319 0.000000
# 4 0.000000 0.000000 0.000001 0.022803 0.000000 -0.006640
# 5 -0.011694 -0.021600 0.010319 0.000000 0.030104 -0.000001
# 6 0.000001 0.000001 0.000000 -0.006640 -0.000001 0.037292
#
#
# Mechanical properties :
#
#
# Convention : Reuss Voigt Hill
#
# Bulk Modulus (GPa) = 13.72090 35.95465 24.83777
# Shear Modulus (GPa) = 21.72523 36.73935 29.23229
#
# Velocity S-wave (km/s) = 3.19321 4.15252 3.70405
# Velocity P-wave (km/s) = 4.47608 6.31398 5.47273
#
# Compressibility (1/GPa) = 0.07288152
#
# Stress axis : x y z
#
# Youngs Moduli (GPa) = 29.98667 21.44314 70.00432
#
# Poissons Ratio (x) = -0.35100 0.70845
# Poissons Ratio (y) = -0.49085 1.18600
# Poissons Ratio (z) = 0.30347 0.36329
#
# Static dielectric constant tensor:
#      x y z
#    x 1.780060 0.000000 -0.029120 
#    y 0.000000 1.854340 0.000000 
#    z -0.029120 0.000000 1.790900 
# 
# From -- ./inp_files/170685.got.cif
#   From: 2010.05.17/outbox.cif.g08.bks.cpg/sg12_86_cif.got.tgz:170685.got - 2010.06.03 13:09:07.
