data_PCOD9212497
_publ_section_title
;
Structure prediction by ZEFSAII (Michael W. Deem and Ramdas Pophale) SiO2 
 PCOD9212497
Probable space group: C 2/M
;
_chemical_formula_sum "Si O2"
_cell_formula_units_Z 42
_cell_length_a 9.364757
_cell_length_b 17.422255
_cell_length_c 13.024352
_cell_angle_alpha 90.000000
_cell_angle_beta 113.359867
_cell_angle_gamma 90.000000
_cell_volume 1950.810568
_symmetry_space_group_name_H-M "C 2/M"
_symmetry_group_IT_number 12
_symmetry_cell_setting 'monoclinic'
loop_
_space_group_symop_operation_xyz
x,y,z
-x,y,-z
-x,-y,-z
x,-y,z
1/2+x,1/2+y,z
1/2-x,1/2+y,-z
1/2-x,1/2-y,-z
1/2+x,1/2-y,z
loop_
_atom_site_type_symbol
_atom_site_label
_atom_site_fract_x
_atom_site_fract_y
_atom_site_fract_z
Si Si1 0.000000 0.000000 0.500000
Si Si2 0.392202 0.712366 0.664988
Si Si3 0.462910 0.087838 0.804881
Si Si4 0.624178 0.088701 0.625686
Si Si5 0.323899 0.646106 0.378977
Si Si6 0.925432 0.261277 0.078825
O O1 0.132894 0.930956 0.547162
O O2 0.268516 0.645956 0.655362
O O3 0.518780 0.686280 0.617365
O O4 0.289249 0.787744 0.608988
O O5 0.496585 0.729069 0.795692
O O6 0.540586 0.096011 0.712911
O O7 0.282783 0.113220 0.744047
O O8 0.544919 0.148052 0.901293
O O9 0.476418 0.000000 0.839547
O O10 0.500000 0.103882 0.500000
O O11 0.675980 0.000000 0.630300
O O12 0.750000 0.250000 0.000000
O O13 0.000000 0.225063 0.000000
#
# Coordination Sequence:
#
# PCOD9212497 Si02
#       6
#     2   8   8   8   8   8
#     4  12  28  40  68 102 134 188 218 270 322 396
#     4  11  24  44  67 100 133 177 224 280 327 401
#     4  10  21  42  63  96 135 174 221 279 334 398
#     4  10  23  39  65  97 139 181 221 266 329 394
#     4  11  25  42  68  96 141 174 226 266 327 390
#     4  11  22  41  68  90 122 168 223 281 341 394
#
# _framework density 21.529513000000001
#
# number of rings (size 3 to 8) (size 9 to 14) (size 15 to 20)
#    0.000    1.333    0.952    5.714    5.333    1.143 
#    0.000    0.952    0.000    3.429    0.000    0.000 
#    0.000    0.000    0.000    0.000    0.000    0.000 
#
# Total GULP energy -117076.324778 kJ/mol
# GULP energy per Si atom -5575.063085 kJ/mol
# Density = 2.148051 g / cm^3
# Si number density = 21.529513 Si / 1000 Ang^3
#
#
#
# Elastic Constant Matrix: (Units=GPa)
#
#
# Indices 1 2 3 4 5 6 
#
# 1 110.7515 62.4907 39.3263 0.0000 21.9376 0.0000
# 2 62.4907 170.7276 69.7267 0.0000 24.2780 0.0000
# 3 39.3263 69.7267 117.3926 0.0000 14.6123 0.0000
# 4 0.0000 0.0000 0.0000 15.2534 0.0000 -0.4799
# 5 21.9376 24.2780 14.6123 0.0000 48.1441 0.0000
# 6 0.0000 0.0000 0.0000 -0.4799 0.0000 29.0821
#
#
#
# Elastic Compliance Matrix: (Units=1/GPa)
#
#
# Indices 1 2 3 4 5 6 
#
# 1 0.012148 -0.003270 -0.001708 0.000000 -0.003368 0.000000
# 2 -0.003270 0.008941 -0.003990 0.000000 -0.001808 0.000000
# 3 -0.001708 -0.003990 0.011550 0.000000 -0.000715 0.000000
# 4 0.000000 0.000000 0.000000 0.065593 0.000000 0.001082
# 5 -0.003368 -0.001808 -0.000715 0.000000 0.023434 0.000000
# 6 0.000000 0.000000 0.000000 0.001082 0.000000 0.034403
#
#
# Mechanical properties :
#
#
# Convention : Reuss Voigt Hill
#
# Bulk Modulus (GPa) = 68.01742 82.43991 75.22867
# Shear Modulus (GPa) = 27.94768 33.65114 30.79941
#
# Velocity S-wave (km/s) = 3.60684 3.95780 3.78639
# Velocity P-wave (km/s) = 7.00050 7.69807 7.35755
#
# Compressibility (1/GPa) = 0.01470212
#
# Stress axis : x y z
#
# Youngs Moduli (GPa) = 82.31885 111.84709 86.58325
#
# Poissons Ratio (x) = 0.36573 0.14789
# Poissons Ratio (y) = 0.26917 0.34547
# Poissons Ratio (z) = 0.14061 0.44628
#
# Static dielectric constant tensor:
#      x y z
#    x 1.851390 0.000000 -0.076300 
#    y 0.000000 1.778880 0.000000 
#    z -0.076300 0.000000 1.802360 
# 
# From -- ./inp_files/196067.got.cif
#   From: 2010.05.17/outbox.cif.g08.bks.cpg/sg12_99_cif.got.tgz:196067.got - 2010.06.03 13:09:07.
