data_PCOD9212171
_publ_section_title
;
Structure prediction by ZEFSAII (Michael W. Deem and Ramdas Pophale) SiO2 
 PCOD9212171
Probable space group: C 2/M
;
_chemical_formula_sum "Si O2"
_cell_formula_units_Z 48
_cell_length_a 14.997764
_cell_length_b 15.338176
_cell_length_c 11.263441
_cell_angle_alpha 90.000000
_cell_angle_beta 89.945709
_cell_angle_gamma 90.000000
_cell_volume 2591.022150
_symmetry_space_group_name_H-M "C 2/M"
_symmetry_group_IT_number 12
_symmetry_cell_setting 'monoclinic'
loop_
_space_group_symop_operation_xyz
x,y,z
-x,y,-z
-x,-y,-z
x,-y,z
1/2+x,1/2+y,z
1/2-x,1/2+y,-z
1/2-x,1/2-y,-z
1/2+x,1/2-y,z
loop_
_atom_site_type_symbol
_atom_site_label
_atom_site_fract_x
_atom_site_fract_y
_atom_site_fract_z
Si Si1 0.098158 0.245851 0.722642
Si Si2 0.445614 0.500000 0.804094
Si Si3 0.903138 0.189555 0.764182
Si Si4 0.768244 0.305416 0.617301
Si Si5 0.898006 0.401307 0.456966
Si Si6 0.130108 0.000000 0.928231
Si Si7 0.338795 0.696572 0.028246
O O1 0.170704 0.177080 0.671155
O O2 0.117149 0.334472 0.651176
O O3 0.114367 0.245337 0.862938
O O4 0.994893 0.223792 0.708401
O O5 0.407247 0.586047 0.742749
O O6 0.552908 0.500000 0.826663
O O7 0.412703 0.500000 0.940194
O O8 0.822516 0.244073 0.708394
O O9 0.896708 0.197238 0.907341
O O10 0.750000 0.250000 0.500000
O O11 0.832580 0.380547 0.567900
O O12 0.884362 0.500000 0.417324
O O13 0.000000 0.390835 0.500000
O O14 0.177162 0.095383 0.930436
O O15 0.250000 0.750000 0.000000
#
# Coordination Sequence:
#
# PCOD9212171 Si02
#       7
#     8   4   8   8   8   4   8
#     4  11  21  38  64  86 119 160 201 248 308 357
#     4   9  18  32  58  86 116 160 195 238 296 361
#     4  11  20  38  62  88 125 158 201 246 302 372
#     4  10  22  39  58  88 115 153 205 251 300 355
#     4  10  21  41  65  82 111 158 205 249 301 364
#     4   9  18  34  54  87 124 159 204 230 293 376
#     4  11  21  37  59  93 127 167 198 248 303 358
#
# _framework density 18.525507000000001
#
# number of rings (size 3 to 8) (size 9 to 14) (size 15 to 20)
#    0.000    1.667    5.000    0.500    0.000    0.000 
#   10.500    0.000    1.833    5.000    0.000    0.000 
#    0.000    0.000    0.000    0.000    0.000    0.000 
#
# Total GULP energy -133625.663764 kJ/mol
# GULP energy per Si atom -5567.735990 kJ/mol
# Density = 1.848334 g / cm^3
# Si number density = 18.525507 Si / 1000 Ang^3
#
#
#
# Elastic Constant Matrix: (Units=GPa)
#
#
# Indices 1 2 3 4 5 6 
#
# 1 62.5487 16.0695 4.5745 0.0000 -22.8445 0.0000
# 2 16.0695 117.8211 31.1033 0.0000 -3.6577 0.0000
# 3 4.5745 31.1033 81.5322 0.0000 -8.4372 0.0000
# 4 0.0000 0.0000 0.0000 29.9287 0.0000 0.1767
# 5 -22.8445 -3.6577 -8.4372 0.0000 33.8655 0.0000
# 6 0.0000 0.0000 0.0000 0.1767 0.0000 9.9537
#
#
#
# Elastic Compliance Matrix: (Units=1/GPa)
#
#
# Indices 1 2 3 4 5 6 
#
# 1 0.022092 -0.002925 0.001422 0.000000 0.014941 0.000000
# 2 -0.002925 0.009826 -0.003776 0.000000 -0.001852 0.000000
# 3 0.001422 -0.003776 0.014045 0.000000 0.004051 0.000000
# 4 0.000000 0.000000 0.000000 0.033416 0.000000 -0.000593
# 5 0.014941 -0.001852 0.004051 0.000000 0.040416 0.000000
# 6 0.000000 0.000000 0.000000 -0.000593 0.000000 0.100476
#
#
# Mechanical properties :
#
#
# Convention : Reuss Voigt Hill
#
# Bulk Modulus (GPa) = 28.24406 40.59963 34.42184
# Shear Modulus (GPa) = 20.60762 28.75990 24.68376
#
# Velocity S-wave (km/s) = 3.33887 3.94439 3.65419
# Velocity P-wave (km/s) = 5.49028 6.53509 6.03534
#
# Compressibility (1/GPa) = 0.03540567
#
# Stress axis : x y z
#
# Youngs Moduli (GPa) = 45.26596 101.77463 71.19999
#
# Poissons Ratio (x) = 0.29766 -0.10127
# Poissons Ratio (y) = 0.13239 0.26885
# Poissons Ratio (z) = -0.06438 0.38429
#
# Static dielectric constant tensor:
#      x y z
#    x 1.679790 0.000000 -0.023650 
#    y 0.000000 1.666870 0.000000 
#    z -0.023650 0.000000 1.644710 
# 
# From -- ./inp_files/142931.got.cif
#   From: 2010.05.17/outbox.cif.g08.bks.cpg/sg12_72_cif.got.tgz:142931.got - 2010.06.03 13:09:07.
