data_PCOD9212607
_publ_section_title
;
Structure prediction by ZEFSAII (Michael W. Deem and Ramdas Pophale) SiO2 
 PCOD9212607
Probable space group: C 2/M
;
_chemical_formula_sum "Si O2"
_cell_formula_units_Z 32
_cell_length_a 20.360484
_cell_length_b 14.696458
_cell_length_c 5.660206
_cell_angle_alpha 90.000000
_cell_angle_beta 47.703920
_cell_angle_gamma 90.000000
_cell_volume 1252.781147
_symmetry_space_group_name_H-M "C 2/M"
_symmetry_group_IT_number 12
_symmetry_cell_setting 'monoclinic'
loop_
_space_group_symop_operation_xyz
x,y,z
-x,y,-z
-x,-y,-z
x,-y,z
1/2+x,1/2+y,z
1/2-x,1/2+y,-z
1/2-x,1/2-y,-z
1/2+x,1/2-y,z
loop_
_atom_site_type_symbol
_atom_site_label
_atom_site_fract_x
_atom_site_fract_y
_atom_site_fract_z
Si Si1 0.785155 0.890374 0.260643
Si Si2 0.985698 0.136971 0.785689
Si Si3 0.616815 0.808769 0.469584
Si Si4 0.873223 0.394885 0.055500
O O1 0.723004 0.829274 0.241459
O O2 0.733288 0.887142 0.636805
O O3 0.789171 0.000000 0.188009
O O4 0.880341 0.844005 0.042057
O O5 0.000000 0.091268 0.500000
O O6 0.059252 0.217030 0.609774
O O7 0.000000 0.089703 0.000000
O O8 0.591417 0.856720 0.780732
O O9 0.598443 0.851187 0.257520
O O10 0.896698 0.500000 0.986491
#
# Coordination Sequence:
#
# PCOD9212607 Si02
#       4
#     8   8   8   8
#     4   9  23  45  75 103 137 185 237 289 349 418
#     4  12  28  44  66 106 148 183 230 291 356 420
#     4  10  21  42  69 104 143 181 230 291 353 415
#     4   9  18  39  73 103 134 182 236 288 347 414
#
# _framework density 25.543171000000001
#
# number of rings (size 3 to 8) (size 9 to 14) (size 15 to 20)
#    1.500    0.500    0.000    3.000    3.500    3.000 
#    0.000    0.000    0.000   25.500    0.000    5.250 
#    0.000    0.000    0.000    0.000    0.000    0.000 
#
# Total GULP energy -89136.025802 kJ/mol
# GULP energy per Si atom -5571.001613 kJ/mol
# Density = 2.548503 g / cm^3
# Si number density = 25.543171 Si / 1000 Ang^3
#
#
#
# Elastic Constant Matrix: (Units=GPa)
#
#
# Indices 1 2 3 4 5 6 
#
# 1 -187.0999 29.5231 303.4491 0.0000 -14.6774 0.0000
# 2 29.5231 190.1436 107.8582 0.0000 24.3009 0.0000
# 3 303.4491 107.8582 66.6388 0.0000 56.6138 0.0000
# 4 0.0000 0.0000 0.0000 -9.1458 0.0000 -87.1751
# 5 -14.6774 24.3009 56.6138 0.0000 77.6519 0.0000
# 6 0.0000 0.0000 0.0000 -87.1751 0.0000 35.9301
#
#
#
# Elastic Compliance Matrix: (Units=1/GPa)
#
#
# Indices 1 2 3 4 5 6 
#
# 1 0.000226 -0.001777 0.003513 0.000000 -0.001962 0.000000
# 2 -0.001777 0.006700 -0.001802 0.000000 -0.001119 0.000000
# 3 0.003513 -0.001802 0.002319 0.000000 -0.000463 0.000000
# 4 0.000000 0.000000 0.000000 -0.004532 0.000000 -0.010996
# 5 -0.001962 -0.001119 -0.000463 0.000000 0.013195 0.000000
# 6 0.000000 0.000000 0.000000 -0.010996 0.000000 0.001154
#
#
# Mechanical properties :
#
#
# Convention : Reuss Voigt Hill
#
# Bulk Modulus (GPa) = 109.72459 105.70482 107.71470
# Shear Modulus (GPa) = 224.90970 -3.85596 110.52687
#
# Velocity S-wave (km/s) = 9.39372 -1.22999 6.58518
# Velocity P-wave (km/s) = 12.67698 6.28136 10.00403
#
# Compressibility (1/GPa) = 0.00911373
#
# Stress axis : x y z
#
# Youngs Moduli (GPa) = 4419.31779 149.25094 431.23803
#
# Poissons Ratio (x) = 0.26523 -1.51491
# Poissons Ratio (y) = 7.85334 0.77696
# Poissons Ratio (z) = -15.52481 0.26890
#
# Static dielectric constant tensor:
#      x y z
#    x 2.062700 0.000000 -0.053520 
#    y 0.000000 2.011460 0.000000 
#    z -0.053520 0.000000 2.003080 
# 
# From -- ./inp_files/14847.got.cif
#   From: 2010.05.17/outbox.cif.g08.bks.cpg/sg12_8_cif.got.tgz:14847.got - 2010.06.03 13:09:07.
