data_PCOD9212702
_publ_section_title
;
Structure prediction by ZEFSAII (Michael W. Deem and Ramdas Pophale) SiO2 
 PCOD9212702
Probable space group: C 2/M
;
_chemical_formula_sum "Si O2"
_cell_formula_units_Z 64
_cell_length_a 10.979405
_cell_length_b 30.333796
_cell_length_c 16.911374
_cell_angle_alpha 90.000000
_cell_angle_beta 150.682371
_cell_angle_gamma 90.000000
_cell_volume 2757.851553
_symmetry_space_group_name_H-M "C 2/M"
_symmetry_group_IT_number 12
_symmetry_cell_setting 'monoclinic'
loop_
_space_group_symop_operation_xyz
x,y,z
-x,y,-z
-x,-y,-z
x,-y,z
1/2+x,1/2+y,z
1/2-x,1/2+y,-z
1/2-x,1/2-y,-z
1/2+x,1/2-y,z
loop_
_atom_site_type_symbol
_atom_site_label
_atom_site_fract_x
_atom_site_fract_y
_atom_site_fract_z
Si Si1 0.258712 0.577098 0.318671
Si Si2 0.841333 0.164200 0.218096
Si Si3 0.772617 0.326999 0.669116
Si Si4 0.112318 0.830943 0.145549
Si Si5 0.719656 0.403230 0.955271
Si Si6 0.458990 0.259873 0.180453
Si Si7 0.100259 0.372337 0.467165
Si Si8 0.562455 0.448263 0.338605
O O1 0.500000 0.554015 0.500000
O O2 0.235245 0.621730 0.359059
O O3 0.369866 0.572982 0.292871
O O4 0.960459 0.572371 0.129439
O O5 0.135044 0.152033 0.393816
O O6 0.705545 0.165630 0.224501
O O7 0.735300 0.131809 0.091043
O O8 0.846702 0.213386 0.188746
O O9 0.500000 0.308979 0.500000
O O10 0.940918 0.287397 0.737135
O O11 0.383326 0.852612 0.291194
O O12 0.928086 0.871121 0.068174
O O13 0.126909 0.794320 0.223933
O O14 0.000000 0.813486 0.000000
O O15 0.538460 0.437075 0.806558
O O16 0.250000 0.250000 0.000000
O O17 0.176992 0.423339 0.500784
O O18 0.000000 0.367221 0.500000
O O19 0.574860 0.500000 0.358094
#
# Coordination Sequence:
#
# PCOD9212702 Si02
#       8
#     8   8   8   8   8   8   8   8
#     4  11  24  42  66  97 137 175 220 266 336 403
#     4  10  22  41  65  87 129 177 220 278 330 389
#     4  11  24  39  60  94 127 175 221 276 331 384
#     4  11  25  41  68  95 131 181 224 276 334 393
#     4  10  21  43  67  94 129 176 214 267 332 402
#     4  11  25  39  58  93 130 173 232 278 324 379
#     4  11  20  45  70  93 127 173 217 268 336 398
#     4  11  24  43  73 105 128 169 218 272 332 406
#
# _framework density 23.206468999999998
#
# number of rings (size 3 to 8) (size 9 to 14) (size 15 to 20)
#    0.000    1.250    6.250    1.875    5.250    4.000 
#    0.000    0.000    0.000    0.750    0.000    0.000 
#    0.000    0.000    0.000    0.000    0.000    0.000 
#
# Total GULP energy -178322.831097 kJ/mol
# GULP energy per Si atom -5572.588472 kJ/mol
# Density = 2.315365 g / cm^3
# Si number density = 23.206469 Si / 1000 Ang^3
#
#
#
# Elastic Constant Matrix: (Units=GPa)
#
#
# Indices 1 2 3 4 5 6 
#
# 1 50.2061 11.9481 4.2970 0.0000 -5.0253 0.0000
# 2 11.9481 109.1688 23.1421 0.0000 2.9653 0.0000
# 3 4.2970 23.1421 136.3104 0.0000 7.9119 0.0000
# 4 0.0000 0.0000 0.0000 6.6060 0.0000 -10.6890
# 5 -5.0253 2.9653 7.9119 0.0000 31.0318 0.0000
# 6 0.0000 0.0000 0.0000 -10.6890 0.0000 7.3490
#
#
#
# Elastic Compliance Matrix: (Units=1/GPa)
#
#
# Indices 1 2 3 4 5 6 
#
# 1 0.020875 -0.002283 -0.000487 0.000000 0.003723 0.000000
# 2 -0.002283 0.009759 -0.001532 0.000000 -0.000912 0.000000
# 3 -0.000487 -0.001532 0.007722 0.000000 -0.001901 0.000000
# 4 0.000000 0.000000 0.000000 -0.111842 0.000000 -0.162674
# 5 0.003723 -0.000912 -0.001901 0.000000 0.033400 0.000000
# 6 0.000000 0.000000 0.000000 -0.162674 0.000000 -0.100535
#
#
# Mechanical properties :
#
#
# Convention : Reuss Voigt Hill
#
# Bulk Modulus (GPa) = 33.60872 41.60665 37.60768
# Shear Modulus (GPa) = -40.95020 26.08388 -7.43316
#
# Velocity S-wave (km/s) = -4.20527 3.35624 -1.79165
# Velocity P-wave (km/s) = 3.01085 5.74342 3.45845
#
# Compressibility (1/GPa) = 0.02975418
#
# Stress axis : x y z
#
# Youngs Moduli (GPa) = 47.90323 102.46429 129.50026
#
# Poissons Ratio (x) = 0.23390 0.06302
# Poissons Ratio (y) = 0.10935 0.19840
# Poissons Ratio (z) = 0.02331 0.15698
#
# Static dielectric constant tensor:
#      x y z
#    x 1.957220 0.000000 -0.010800 
#    y 0.000000 1.894800 0.000000 
#    z -0.010800 0.000000 1.961800 
# 
# From -- ./inp_files/266321.got.cif
#   From: 2010.05.17/outbox.cif.g08.bks.cpg/sg12_134_cif.got.tgz:266321.got - 2010.06.03 13:09:07.
