data_PCOD9212420
_publ_section_title
;
Structure prediction by ZEFSAII (Michael W. Deem and Ramdas Pophale) SiO2 
 PCOD9212420
Probable space group: C 2/M
;
_chemical_formula_sum "Si O2"
_cell_formula_units_Z 48
_cell_length_a 20.768156
_cell_length_b 26.483370
_cell_length_c 8.965452
_cell_angle_alpha 90.000000
_cell_angle_beta 29.267800
_cell_angle_gamma 90.000000
_cell_volume 2410.774284
_symmetry_space_group_name_H-M "C 2/M"
_symmetry_group_IT_number 12
_symmetry_cell_setting 'monoclinic'
loop_
_space_group_symop_operation_xyz
x,y,z
-x,y,-z
-x,-y,-z
x,-y,z
1/2+x,1/2+y,z
1/2-x,1/2+y,-z
1/2-x,1/2-y,-z
1/2+x,1/2-y,z
loop_
_atom_site_type_symbol
_atom_site_label
_atom_site_fract_x
_atom_site_fract_y
_atom_site_fract_z
Si Si1 0.270063 0.848416 0.265204
Si Si2 0.886067 0.056837 0.106963
Si Si3 0.629034 0.057100 0.834055
Si Si4 0.978909 0.146067 0.718155
Si Si5 0.646778 0.790305 0.644798
Si Si6 0.708724 0.741610 0.914505
O O1 0.340496 0.901780 0.099793
O O2 0.297072 0.839741 0.387465
O O3 0.325515 0.797649 0.076946
O O4 0.119016 0.850407 0.519879
O O5 0.751865 0.056214 0.471995
O O6 0.905055 0.000000 0.004783
O O7 0.899000 0.101080 0.959585
O O8 0.000000 0.064993 0.000000
O O9 0.613049 0.000000 0.925030
O O10 0.500000 0.070193 0.000000
O O11 0.000000 0.135663 0.500000
O O12 0.905037 0.200015 0.876373
O O13 0.750000 0.750000 0.500000
O O14 0.668775 0.782455 0.425891
O O15 0.500000 0.781817 0.000000
O O16 0.750000 0.750000 0.000000
#
# Coordination Sequence:
#
# PCOD9212420 Si02
#       6
#     8   8   8   8   8   8
#     4  11  23  40  65  95 132 170 231 272 340 394
#     4  10  21  41  71 102 129 167 220 280 339 402
#     4  10  21  41  70 102 134 168 216 279 341 401
#     4  12  25  42  64  98 138 180 222 283 342 404
#     4  10  24  39  63  91 123 164 223 274 324 396
#     4  11  25  41  62  90 138 180 221 274 342 402
#
# _framework density 19.910616999999998
#
# number of rings (size 3 to 8) (size 9 to 14) (size 15 to 20)
#    0.000    1.333    3.333    1.500    9.333    0.333 
#    0.000    0.000    0.000    0.000    0.000    3.500 
#    0.000    0.000    0.000    0.000    0.000    0.000 
#
# Total GULP energy -133860.243303 kJ/mol
# GULP energy per Si atom -5577.510138 kJ/mol
# Density = 1.986530 g / cm^3
# Si number density = 19.910617 Si / 1000 Ang^3
#
#
#
# Elastic Constant Matrix: (Units=GPa)
#
#
# Indices 1 2 3 4 5 6 
#
# 1 100.5562 63.3439 67.6287 0.0002 -6.9273 -0.0002
# 2 63.3439 165.9865 17.7300 0.0001 -2.6614 0.0000
# 3 67.6287 17.7300 88.0364 0.0011 -14.5904 -0.0003
# 4 0.0002 0.0001 0.0011 29.9255 -0.0004 -2.6570
# 5 -6.9273 -2.6614 -14.5904 -0.0004 43.0974 0.0003
# 6 -0.0002 0.0000 -0.0003 -2.6570 0.0003 33.7064
#
#
#
# Elastic Compliance Matrix: (Units=1/GPa)
#
#
# Indices 1 2 3 4 5 6 
#
# 1 0.030350 -0.009286 -0.021963 0.000001 -0.003131 0.000000
# 2 -0.009286 0.008999 0.005473 0.000000 0.000916 0.000000
# 3 -0.021963 0.005473 0.028181 -0.000001 0.006348 0.000000
# 4 0.000001 0.000000 -0.000001 0.033652 0.000000 0.002653
# 5 -0.003131 0.000916 0.006348 0.000000 0.024906 0.000000
# 6 0.000000 0.000000 0.000000 0.002653 0.000000 0.029877
#
#
# Mechanical properties :
#
#
# Convention : Reuss Voigt Hill
#
# Bulk Modulus (GPa) = 62.59176 72.44272 67.51724
# Shear Modulus (GPa) = 23.49150 35.07096 29.28123
#
# Velocity S-wave (km/s) = 3.43862 4.20148 3.83905
# Velocity P-wave (km/s) = 6.87532 7.74594 7.32358
#
# Compressibility (1/GPa) = 0.01597654
#
# Stress axis : x y z
#
# Youngs Moduli (GPa) = 32.94861 111.12910 35.48514
#
# Poissons Ratio (x) = 1.03200 0.77937
# Poissons Ratio (y) = 0.30598 -0.19422
# Poissons Ratio (z) = 0.72366 -0.60825
#
# Static dielectric constant tensor:
#      x y z
#    x 1.756040 0.000000 0.019930 
#    y 0.000000 1.860000 0.000000 
#    z 0.019930 0.000000 1.752100 
# 
# From -- ./inp_files/91185.got.cif
#   From: 2010.05.17/outbox.cif.g08.bks.cpg/sg12_46_cif.got.tgz:91185.got - 2010.06.03 13:09:07.
