data_PCOD9212896
_publ_section_title
;
Structure prediction by ZEFSAII (Michael W. Deem and Ramdas Pophale) SiO2 
 PCOD9212896
Probable space group: C 2/M
;
_chemical_formula_sum "Si O2"
_cell_formula_units_Z 48
_cell_length_a 21.268573
_cell_length_b 22.612775
_cell_length_c 10.803180
_cell_angle_alpha 90.000000
_cell_angle_beta 31.778381
_cell_angle_gamma 90.000000
_cell_volume 2736.236336
_symmetry_space_group_name_H-M "C 2/M"
_symmetry_group_IT_number 12
_symmetry_cell_setting 'monoclinic'
loop_
_space_group_symop_operation_xyz
x,y,z
-x,y,-z
-x,-y,-z
x,-y,z
1/2+x,1/2+y,z
1/2-x,1/2+y,-z
1/2-x,1/2-y,-z
1/2+x,1/2-y,z
loop_
_atom_site_type_symbol
_atom_site_label
_atom_site_fract_x
_atom_site_fract_y
_atom_site_fract_z
Si Si1 0.824761 0.233011 0.997299
Si Si2 0.540299 0.500000 0.134063
Si Si3 0.372490 0.892573 0.265742
Si Si4 0.798868 0.809682 0.593571
Si Si5 0.474682 0.380563 0.687444
Si Si6 0.298682 0.500000 0.376877
Si Si7 0.954624 0.278018 0.217846
O O1 0.740510 0.257161 0.248387
O O2 0.750000 0.250000 0.000000
O O3 0.869263 0.165987 0.898562
O O4 0.948343 0.264716 0.837208
O O5 0.547947 0.441559 0.204481
O O6 0.411417 0.500000 0.281478
O O7 0.641787 0.500000 0.858322
O O8 0.305772 0.853593 0.272123
O O9 0.401329 0.843454 0.321687
O O10 0.284331 0.943195 0.458912
O O11 0.500000 0.914801 0.000000
O O12 0.858969 0.774471 0.381206
O O13 0.903189 0.850172 0.472075
O O14 0.500000 0.389498 0.500000
O O15 0.000000 0.276583 0.000000
#
# Coordination Sequence:
#
# PCOD9212896 Si02
#       7
#     8   4   8   8   8   4   8
#     4  11  22  38  61  94 126 161 205 252 316 378
#     4  11  25  44  60  93 119 167 213 257 327 361
#     4  11  21  39  59  89 123 163 210 251 316 369
#     4  11  21  37  60  92 127 156 202 261 312 377
#     4  11  23  40  64  88 124 166 210 255 313 378
#     4  11  25  40  62  87 123 161 209 273 304 375
#     4  10  22  34  58  91 122 162 200 251 320 373
#
# _framework density 17.542345000000001
#
# number of rings (size 3 to 8) (size 9 to 14) (size 15 to 20)
#    0.000    1.167    6.667    1.000    2.333    1.333 
#    0.000    0.000    0.000    0.000    0.000    4.667 
#    0.000    0.000    0.000    0.000    0.000    0.000 
#
# Total GULP energy -133610.702462 kJ/mol
# GULP energy per Si atom -5567.112603 kJ/mol
# Density = 1.750242 g / cm^3
# Si number density = 17.542345 Si / 1000 Ang^3
#
#
#
# Elastic Constant Matrix: (Units=GPa)
#
#
# Indices 1 2 3 4 5 6 
#
# 1 106.2947 72.7736 49.6825 0.0125 -8.3034 0.0005
# 2 72.7736 161.1104 84.9373 0.0235 13.8457 0.0009
# 3 49.6825 84.9373 118.0582 0.1061 0.5698 0.0040
# 4 0.0125 0.0235 0.1061-6009.1203 -0.0276 -217.0760
# 5 -8.3034 13.8457 0.5698 -0.0276 29.6740 -0.0010
# 6 0.0005 0.0009 0.0040 -217.0760 -0.0010 16.5743
#
#
#
# Elastic Compliance Matrix: (Units=1/GPa)
#
#
# Indices 1 2 3 4 5 6 
#
# 1 0.015357 -0.006687 -0.001687 0.000000 0.007450 0.000000
# 2 -0.006687 0.013560 -0.006902 0.000000 -0.008066 0.000000
# 3 -0.001687 -0.006902 0.014134 0.000000 0.002477 0.000000
# 4 0.000000 0.000000 0.000000 -0.000113 0.000000 -0.001480
# 5 0.007450 -0.008066 0.002477 0.000000 0.039500 0.000000
# 6 0.000000 0.000000 0.000000 -0.001480 0.000000 0.040957
#
#
# Mechanical properties :
#
#
# Convention : Reuss Voigt Hill
#
# Bulk Modulus (GPa) = 80.02029 88.91668 84.46848
# Shear Modulus (GPa) = 31.62267 -1180.70306 -574.54019
#
# Velocity S-wave (km/s) = 4.25037 -25.97152 -18.11704
# Velocity P-wave (km/s) = 8.35476 29.13011 19.73273
#
# Compressibility (1/GPa) = 0.01249683
#
# Stress axis : x y z
#
# Youngs Moduli (GPa) = 65.11737 73.74809 70.74909
#
# Poissons Ratio (x) = 0.49318 0.11938
# Poissons Ratio (y) = 0.43546 0.48834
# Poissons Ratio (z) = 0.10988 0.50904
#
# Static dielectric constant tensor:
#      x y z
#    x 1.607980 0.000000 -0.028050 
#    y 0.000000 1.587950 0.000000 
#    z -0.028050 0.000000 1.660530 
# 
# From -- ./inp_files/169609.got.cif
#   From: 2010.05.17/outbox.cif.g08.bks.cpg/sg12_85_cif.got.tgz:169609.got - 2010.06.03 13:09:07.
