data_PCOD9212140
_publ_section_title
;
Structure prediction by ZEFSAII (Michael W. Deem and Ramdas Pophale) SiO2 
 PCOD9212140
Probable space group: C 2/M
;
_chemical_formula_sum "Si O2"
_cell_formula_units_Z 28
_cell_length_a 18.424211
_cell_length_b 13.078719
_cell_length_c 5.088823
_cell_angle_alpha 90.000000
_cell_angle_beta 104.435925
_cell_angle_gamma 90.000000
_cell_volume 1187.512966
_symmetry_space_group_name_H-M "C 2/M"
_symmetry_group_IT_number 12
_symmetry_cell_setting 'monoclinic'
loop_
_space_group_symop_operation_xyz
x,y,z
-x,y,-z
-x,-y,-z
x,-y,z
1/2+x,1/2+y,z
1/2-x,1/2+y,-z
1/2-x,1/2-y,-z
1/2+x,1/2-y,z
loop_
_atom_site_type_symbol
_atom_site_label
_atom_site_fract_x
_atom_site_fract_y
_atom_site_fract_z
Si Si1 0.798254 0.380548 0.502794
Si Si2 0.946656 0.500000 0.204936
Si Si3 0.805662 0.119012 0.082357
Si Si4 0.412332 0.212016 0.978971
O O1 0.822691 0.500000 0.515715
O O2 0.734836 0.373343 0.673827
O O3 0.866560 0.312718 0.670889
O O4 0.755684 0.354640 0.196739
O O5 0.000000 0.500000 0.500000
O O6 0.903870 0.606696 0.138156
O O7 0.000000 0.500000 0.000000
O O8 0.826441 0.000000 0.061556
O O9 0.874914 0.193480 0.093309
O O10 0.500000 0.228189 0.000000
#
# Coordination Sequence:
#
# PCOD9212140 Si02
#       4
#     8   4   8   8
#     4  10  21  41  64  91 123 164 210 259 305 370
#     4  10  24  40  58  90 126 160 197 246 315 366
#     4  10  23  41  65  91 123 166 212 253 307 370
#     4  11  23  41  64  93 129 163 205 261 314 371
#
# _framework density 23.578688
#
# number of rings (size 3 to 8) (size 9 to 14) (size 15 to 20)
#    0.000    1.714    1.429    1.714    0.000    9.714 
#    0.000    0.000    0.000    6.000    0.000    0.000 
#    0.000    0.000    0.000    0.000    0.000    0.000 
#
# Total GULP energy -78542.174853 kJ/mol
# GULP energy per Si atom -5610.155347 kJ/mol
# Density = 2.352502 g / cm^3
# Si number density = 23.578688 Si / 1000 Ang^3
#
#
#
# Elastic Constant Matrix: (Units=GPa)
#
#
# Indices 1 2 3 4 5 6 
#
# 1 168.5359 71.6003 40.4233 0.0000 19.9966 0.0000
# 2 71.6003 151.2235 16.6028 0.0000 18.2093 0.0000
# 3 40.4233 16.6028 128.3957 0.0000 -12.3143 0.0000
# 4 0.0000 0.0000 0.0000 33.0708 0.0000 7.3532
# 5 19.9966 18.2093 -12.3143 0.0000 34.0439 0.0000
# 6 0.0000 0.0000 0.0000 7.3532 0.0000 52.6400
#
#
#
# Elastic Compliance Matrix: (Units=1/GPa)
#
#
# Indices 1 2 3 4 5 6 
#
# 1 0.008420 -0.003192 -0.002641 0.000000 -0.004194 0.000000
# 2 -0.003192 0.008502 -0.000363 0.000000 -0.002804 0.000000
# 3 -0.002641 -0.000363 0.009152 0.000000 0.005056 0.000000
# 4 0.000000 0.000000 0.000000 0.031207 0.000000 -0.004359
# 5 -0.004194 -0.002804 0.005056 0.000000 0.035166 0.000000
# 6 0.000000 0.000000 0.000000 -0.004359 0.000000 0.019606
#
#
# Mechanical properties :
#
#
# Convention : Reuss Voigt Hill
#
# Bulk Modulus (GPa) = 73.08858 78.37865 75.73361
# Shear Modulus (GPa) = 38.75828 45.25285 42.00556
#
# Velocity S-wave (km/s) = 4.05876 4.38565 4.22537
# Velocity P-wave (km/s) = 7.28215 7.67846 7.48293
#
# Compressibility (1/GPa) = 0.01368203
#
# Stress axis : x y z
#
# Youngs Moduli (GPa) = 118.75880 117.62570 109.27051
#
# Poissons Ratio (x) = 0.37546 0.28853
# Poissons Ratio (y) = 0.37907 0.03970
# Poissons Ratio (z) = 0.31358 0.04273
#
# Static dielectric constant tensor:
#      x y z
#    x 1.892580 0.000000 -0.034380 
#    y 0.000000 1.960020 0.000000 
#    z -0.034380 0.000000 1.893350 
# 
# From -- ./inp_files/14122.got.cif
#   From: 2010.05.17/outbox.cif.g08.bks.cpg/sg12_8_cif.got.tgz:14122.got - 2010.06.03 13:09:07.
