data_PCOD9212131
_publ_section_title
;
Structure prediction by ZEFSAII (Michael W. Deem and Ramdas Pophale) SiO2 
 PCOD9212131
Probable space group: C 2/M
;
_chemical_formula_sum "Si O2"
_cell_formula_units_Z 40
_cell_length_a 13.409694
_cell_length_b 13.764862
_cell_length_c 13.068092
_cell_angle_alpha 90.000000
_cell_angle_beta 112.084576
_cell_angle_gamma 90.000000
_cell_volume 2235.163060
_symmetry_space_group_name_H-M "C 2/M"
_symmetry_group_IT_number 12
_symmetry_cell_setting 'monoclinic'
loop_
_space_group_symop_operation_xyz
x,y,z
-x,y,-z
-x,-y,-z
x,-y,z
1/2+x,1/2+y,z
1/2-x,1/2+y,-z
1/2-x,1/2-y,-z
1/2+x,1/2-y,z
loop_
_atom_site_type_symbol
_atom_site_label
_atom_site_fract_x
_atom_site_fract_y
_atom_site_fract_z
Si Si1 0.500000 0.823438 0.000000
Si Si2 0.433982 0.344124 0.812796
Si Si3 0.841044 0.500000 0.994640
Si Si4 0.124911 0.500000 0.577044
Si Si5 0.764796 0.000000 0.826878
Si Si6 0.108283 0.000000 0.812648
Si Si7 0.622292 0.500000 0.573933
Si Si8 0.290531 0.350558 0.553071
O O1 0.536968 0.751457 0.108238
O O2 0.592359 0.900816 0.002016
O O3 0.345404 0.408714 0.840139
O O4 0.540917 0.408257 0.831571
O O5 0.377649 0.336952 0.678257
O O6 0.731615 0.500000 0.889892
O O7 0.795061 0.500000 0.090322
O O8 0.165726 0.500000 0.708997
O O9 0.187991 0.408486 0.555702
O O10 0.000000 0.500000 0.500000
O O11 0.118816 0.000000 0.694217
O O12 0.500000 0.500000 0.500000
O O13 0.670016 0.408710 0.531285
O O14 0.250000 0.250000 0.500000
#
# Coordination Sequence:
#
# PCOD9212131 Si02
#       8
#     4   8   4   4   4   4   4   8
#     4  11  26  43  58  88 126 155 200 251 302 360
#     4  10  21  41  64  89 118 156 203 250 295 357
#     4  11  26  43  58  88 123 162 196 250 308 351
#     4   9  20  40  58  86 123 161 197 241 296 355
#     4   9  20  41  64  84 118 156 202 247 297 355
#     4  11  22  40  68  90 118 160 202 249 302 349
#     4  11  20  41  62  92 127 155 197 251 295 356
#     4  10  22  38  60  91 124 159 198 244 299 352
#
# _framework density 17.895786000000001
#
# number of rings (size 3 to 8) (size 9 to 14) (size 15 to 20)
#    0.000    1.800    2.000    2.400    2.800    7.200 
#    7.200    0.000    0.000    0.000    0.000    0.000 
#    0.000    0.000    0.000    0.000    0.000    0.000 
#
# Total GULP energy -111336.993657 kJ/mol
# GULP energy per Si atom -5566.849683 kJ/mol
# Density = 1.785505 g / cm^3
# Si number density = 17.895786 Si / 1000 Ang^3
#
#
#
# Elastic Constant Matrix: (Units=GPa)
#
#
# Indices 1 2 3 4 5 6 
#
# 1 121.4975 57.3831 94.5207 0.0000 3.4329 0.0000
# 2 57.3831 155.5210 77.7347 0.0000 -1.0121 0.0000
# 3 94.5207 77.7347 133.2162 0.0000 -6.5659 0.0000
# 4 0.0000 0.0000 0.0000 -183.5595 0.0000 207.9599
# 5 3.4329 -1.0121 -6.5659 0.0000 43.0193 0.0000
# 6 0.0000 0.0000 0.0000 207.9599 0.0000 -196.5484
#
#
#
# Elastic Compliance Matrix: (Units=1/GPa)
#
#
# Indices 1 2 3 4 5 6 
#
# 1 0.018913 -0.000291 -0.013425 0.000000 -0.003565 0.000000
# 2 -0.000291 0.009097 -0.005129 0.000000 -0.000546 0.000000
# 3 -0.013425 -0.005129 0.020224 0.000000 0.004037 0.000000
# 4 0.000000 0.000000 0.000000 0.027416 0.000000 0.029008
# 5 -0.003565 -0.000546 0.004037 0.000000 0.024133 0.000000
# 6 0.000000 0.000000 0.000000 0.029008 0.000000 0.025605
#
#
# Mechanical properties :
#
#
# Convention : Reuss Voigt Hill
#
# Bulk Modulus (GPa) = 94.84033 96.61239 95.72636
# Shear Modulus (GPa) = 30.01300 -55.37797 -12.68249
#
# Velocity S-wave (km/s) = 4.09968 -5.56883 -2.66500
# Velocity P-wave (km/s) = 8.69027 3.57129 6.64360
#
# Compressibility (1/GPa) = 0.01054404
#
# Stress axis : x y z
#
# Youngs Moduli (GPa) = 52.87277 109.92057 49.44623
#
# Poissons Ratio (x) = 0.03202 0.66383
# Poissons Ratio (y) = 0.01540 0.25360
# Poissons Ratio (z) = 0.70983 0.56376
#
# Static dielectric constant tensor:
#      x y z
#    x 1.573130 0.000000 0.022340 
#    y 0.000000 1.538820 0.000000 
#    z 0.022340 0.000000 1.576650 
# 
# From -- ./inp_files/129670.got.cif
#   From: 2010.05.17/outbox.cif.g08.bks.cpg/sg12_65_cif.got.tgz:129670.got - 2010.06.03 13:09:07.
