data_PCOD9212568
_publ_section_title
;
Structure prediction by ZEFSAII (Michael W. Deem and Ramdas Pophale) SiO2 
 PCOD9212568
Probable space group: C 2/M
;
_chemical_formula_sum "Si O2"
_cell_formula_units_Z 64
_cell_length_a 14.630465
_cell_length_b 17.984020
_cell_length_c 17.588904
_cell_angle_alpha 90.000000
_cell_angle_beta 139.319628
_cell_angle_gamma 90.000000
_cell_volume 3016.642131
_symmetry_space_group_name_H-M "C 2/M"
_symmetry_group_IT_number 12
_symmetry_cell_setting 'monoclinic'
loop_
_space_group_symop_operation_xyz
x,y,z
-x,y,-z
-x,-y,-z
x,-y,z
1/2+x,1/2+y,z
1/2-x,1/2+y,-z
1/2-x,1/2-y,-z
1/2+x,1/2-y,z
loop_
_atom_site_type_symbol
_atom_site_label
_atom_site_fract_x
_atom_site_fract_y
_atom_site_fract_z
Si Si1 0.888419 0.175635 0.245195
Si Si2 0.512250 0.910894 0.919574
Si Si3 0.285999 0.587438 0.319393
Si Si4 0.214309 0.837286 0.975045
Si Si5 0.661602 0.310408 0.106741
Si Si6 0.320333 0.087464 0.318194
Si Si7 0.865015 0.649246 0.502794
Si Si8 0.833154 0.814808 0.487856
O O1 0.841701 0.109508 0.271504
O O2 0.772367 0.241557 0.179412
O O3 0.038156 0.196805 0.373073
O O4 0.897551 0.153393 0.162864
O O5 0.376151 0.887315 0.786627
O O6 0.650114 0.879327 0.969287
O O7 0.515591 0.000000 0.920968
O O8 0.500000 0.888330 0.000000
O O9 0.296031 0.500000 0.336916
O O10 0.355873 0.629980 0.432914
O O11 0.180558 0.855786 0.039971
O O12 0.250000 0.750000 0.000000
O O13 0.701335 0.365668 0.199963
O O14 0.500000 0.284415 0.000000
O O15 0.305803 0.095233 0.400261
O O16 0.470082 0.127368 0.391047
O O17 0.324659 0.000000 0.300626
O O18 0.824976 0.732171 0.447858
O O19 0.792885 0.652242 0.540204
#
# Coordination Sequence:
#
# PCOD9212568 Si02
#       8
#     8   8   8   8   8   8   8   8
#     4  11  23  43  66  95 139 180 221 284 348 410
#     4  10  21  42  67  95 133 183 227 273 341 413
#     4  11  25  40  65 101 138 179 222 272 340 409
#     4  10  24  38  65 101 134 172 231 284 338 404
#     4  11  26  44  70 102 135 180 234 290 347 406
#     4  11  24  46  72  97 138 183 229 279 340 407
#     4  10  23  44  68 101 127 176 231 276 336 399
#     4  11  24  40  70  99 136 174 222 286 338 405
#
# _framework density 21.215641999999999
#
# number of rings (size 3 to 8) (size 9 to 14) (size 15 to 20)
#    0.000    1.375    2.500    1.875    8.750    3.750 
#    0.000    0.000    0.000    0.000    0.000    0.000 
#    0.000    0.000    0.000    0.000    0.000    0.000 
#
# Total GULP energy -178618.743499 kJ/mol
# GULP energy per Si atom -5581.835734 kJ/mol
# Density = 2.116735 g / cm^3
# Si number density = 21.215642 Si / 1000 Ang^3
#
#
#
# Elastic Constant Matrix: (Units=GPa)
#
#
# Indices 1 2 3 4 5 6 
#
# 1 52.2694 14.2740 32.5540 0.0000 -3.5293 0.0000
# 2 14.2740 63.0239 28.6042 0.0000 -3.8266 0.0000
# 3 32.5540 28.6042 103.0621 0.0001 -7.3850 0.0000
# 4 0.0000 0.0000 0.0001 -6.0748 0.0001 17.5295
# 5 -3.5293 -3.8266 -7.3850 0.0001 32.1468 0.0000
# 6 0.0000 0.0000 0.0000 17.5295 0.0000 17.2799
#
#
#
# Elastic Compliance Matrix: (Units=1/GPa)
#
#
# Indices 1 2 3 4 5 6 
#
# 1 0.024123 -0.002269 -0.006934 0.000000 0.000785 0.000000
# 2 -0.002269 0.018400 -0.004322 0.000000 0.000948 0.000000
# 3 -0.006934 -0.004322 0.013219 0.000000 0.001761 0.000000
# 4 0.000000 0.000000 0.000000 -0.041916 0.000000 0.042521
# 5 0.000785 0.000948 0.001761 0.000000 0.031711 0.000000
# 6 0.000000 0.000000 0.000000 0.042521 0.000000 0.014736
#
#
# Mechanical properties :
#
#
# Convention : Reuss Voigt Hill
#
# Bulk Modulus (GPa) = 34.85269 41.02442 37.93856
# Shear Modulus (GPa) = 51.60719 18.19860 34.90290
#
# Velocity S-wave (km/s) = 4.93740 2.93199 4.06044
# Velocity P-wave (km/s) = 6.99767 5.55346 6.31697
#
# Compressibility (1/GPa) = 0.02869219
#
# Stress axis : x y z
#
# Youngs Moduli (GPa) = 41.45500 54.34744 75.65005
#
# Poissons Ratio (x) = 0.12331 0.52452
# Poissons Ratio (y) = 0.09406 0.32698
# Poissons Ratio (z) = 0.28743 0.23490
#
# Static dielectric constant tensor:
#      x y z
#    x 1.776980 0.000000 0.026610 
#    y 0.000000 1.735990 0.000000 
#    z 0.026610 0.000000 1.818920 
# 
# From -- ./inp_files/271766.got.cif
#   From: 2010.05.17/outbox.cif.g08.bks.cpg/sg12_136_cif.got.tgz:271766.got - 2010.06.03 13:09:07.
