data_PCOD9212214
_publ_section_title
;
Structure prediction by ZEFSAII (Michael W. Deem and Ramdas Pophale) SiO2 
 PCOD9212214
Probable space group: C 2/M
;
_chemical_formula_sum "Si O2"
_cell_formula_units_Z 52
_cell_length_a 22.722912
_cell_length_b 11.718795
_cell_length_c 11.644717
_cell_angle_alpha 90.000000
_cell_angle_beta 50.824996
_cell_angle_gamma 90.000000
_cell_volume 2403.814399
_symmetry_space_group_name_H-M "C 2/M"
_symmetry_group_IT_number 12
_symmetry_cell_setting 'monoclinic'
loop_
_space_group_symop_operation_xyz
x,y,z
-x,y,-z
-x,-y,-z
x,-y,z
1/2+x,1/2+y,z
1/2-x,1/2+y,-z
1/2-x,1/2-y,-z
1/2+x,1/2-y,z
loop_
_atom_site_type_symbol
_atom_site_label
_atom_site_fract_x
_atom_site_fract_y
_atom_site_fract_z
Si Si1 0.172910 0.500000 0.935914
Si Si2 0.183584 0.628090 0.343891
Si Si3 0.390181 0.737755 0.370056
Si Si4 0.909772 0.000000 0.743164
Si Si5 0.917660 0.000000 0.455527
Si Si6 0.540724 0.810507 0.069823
Si Si7 0.139940 0.130420 0.833321
Si Si8 0.701059 0.684258 0.152510
O O1 0.240912 0.599522 0.853837
O O2 0.106063 0.400061 0.020374
O O3 0.157101 0.500000 0.350102
O O4 0.156807 0.668620 0.501879
O O5 0.274798 0.628850 0.224883
O O6 0.159162 0.724310 0.284478
O O7 0.385985 0.617895 0.443845
O O8 0.475037 0.786297 0.243806
O O9 0.359283 0.707038 0.282467
O O10 0.861231 0.890779 0.834989
O O11 0.911799 0.000000 0.600654
O O12 0.993698 0.000000 0.685243
O O13 0.500000 0.848744 0.000000
O O14 0.580445 0.690737 0.989322
O O15 0.117943 0.000000 0.833477
O O16 0.750000 0.750000 0.000000
#
# Coordination Sequence:
#
# PCOD9212214 Si02
#       8
#     4   8   8   4   4   8   8   8
#     4  11  23  45  67  92 123 174 209 271 317 379
#     4  11  24  43  63  94 131 169 211 269 319 381
#     4  11  23  40  64  97 134 173 207 260 321 386
#     4  10  24  43  65  91 119 163 228 270 312 378
#     4  11  22  40  67  89 127 170 212 268 319 376
#     4  10  23  39  65  99 133 167 212 255 321 388
#     4  10  21  41  65  96 131 171 218 257 313 382
#     4  11  25  45  68  92 120 165 225 270 322 376
#
# _framework density 21.632285
#
# number of rings (size 3 to 8) (size 9 to 14) (size 15 to 20)
#    0.000    1.385    3.846    0.692    6.462    0.923 
#    1.385    0.000    0.000    1.846    0.000    0.000 
#    0.000    0.000    0.000    0.000    0.000    0.000 
#
# Total GULP energy -144800.069001 kJ/mol
# GULP energy per Si atom -5569.233423 kJ/mol
# Density = 2.158305 g / cm^3
# Si number density = 21.632285 Si / 1000 Ang^3
#
#
#
# Elastic Constant Matrix: (Units=GPa)
#
#
# Indices 1 2 3 4 5 6 
#
# 1 27.5914 9.7503 -5.1401 0.0000 -8.2826 0.0000
# 2 9.7503 136.2264 26.5474 0.0000 -2.7197 0.0000
# 3 -5.1401 26.5474 72.6409 0.0000 -8.4109 0.0000
# 4 0.0000 0.0000 0.0000 28.0551 0.0000 -26.5977
# 5 -8.2826 -2.7197 -8.4109 0.0000 29.9900 0.0000
# 6 0.0000 0.0000 0.0000 -26.5977 0.0000 1.4158
#
#
#
# Elastic Compliance Matrix: (Units=1/GPa)
#
#
# Indices 1 2 3 4 5 6 
#
# 1 0.042694 -0.003961 0.005987 0.000000 0.013111 0.000000
# 2 -0.003961 0.008271 -0.003455 0.000000 -0.001313 0.000000
# 3 0.005987 -0.003455 0.016132 0.000000 0.005864 0.000000
# 4 0.000000 0.000000 0.000000 -0.002120 0.000000 -0.039834
# 5 0.013111 -0.001313 0.005864 0.000000 0.038491 0.000000
# 6 0.000000 0.000000 0.000000 -0.039834 0.000000 -0.042016
#
#
# Mechanical properties :
#
#
# Convention : Reuss Voigt Hill
#
# Bulk Modulus (GPa) = 15.56701 33.19709 24.38205
# Shear Modulus (GPa) = 58.32783 25.57892 41.95337
#
# Velocity S-wave (km/s) = 5.19826 3.44240 4.40862
# Velocity P-wave (km/s) = 6.57579 5.58386 6.10002
#
# Compressibility (1/GPa) = 0.06423842
#
# Stress axis : x y z
#
# Youngs Moduli (GPa) = 23.42260 120.89983 61.98988
#
# Poissons Ratio (x) = 0.47884 -0.37111
# Poissons Ratio (y) = 0.09277 0.21418
# Poissons Ratio (z) = -0.14022 0.41772
#
# Static dielectric constant tensor:
#      x y z
#    x 1.800790 0.000000 0.031200 
#    y 0.000000 1.781920 0.000000 
#    z 0.031200 0.000000 1.790060 
# 
# From -- ./inp_files/175210.got.cif
#   From: 2010.05.17/outbox.cif.g08.bks.cpg/sg12_88_cif.got.tgz:175210.got - 2010.06.03 13:09:07.
