data_PCOD9212780
_publ_section_title
;
Structure prediction by ZEFSAII (Michael W. Deem and Ramdas Pophale) SiO2 
 PCOD9212780
Probable space group: C 2/M
;
_chemical_formula_sum "Si O2"
_cell_formula_units_Z 48
_cell_length_a 10.404079
_cell_length_b 25.413787
_cell_length_c 15.129214
_cell_angle_alpha 90.000000
_cell_angle_beta 141.732136
_cell_angle_gamma 90.000000
_cell_volume 2477.522800
_symmetry_space_group_name_H-M "C 2/M"
_symmetry_group_IT_number 12
_symmetry_cell_setting 'monoclinic'
loop_
_space_group_symop_operation_xyz
x,y,z
-x,y,-z
-x,-y,-z
x,-y,z
1/2+x,1/2+y,z
1/2-x,1/2+y,-z
1/2-x,1/2-y,-z
1/2+x,1/2-y,z
loop_
_atom_site_type_symbol
_atom_site_label
_atom_site_fract_x
_atom_site_fract_y
_atom_site_fract_z
Si Si1 0.500000 0.083091 0.000000
Si Si2 0.686657 0.392242 0.171594
Si Si3 0.535025 0.687020 0.419257
Si Si4 0.454840 0.000000 0.303309
Si Si5 0.565034 0.390863 0.790010
Si Si6 0.676705 0.000000 0.232986
Si Si7 0.006225 0.306566 0.608710
Si Si8 0.411444 0.500000 0.628234
O O1 0.691858 0.110877 0.057003
O O2 0.603814 0.048714 0.133326
O O3 0.813937 0.447705 0.241677
O O4 0.572976 0.377128 0.201339
O O5 0.853492 0.345192 0.256841
O O6 0.500000 0.395552 0.000000
O O7 0.500000 0.668070 0.500000
O O8 0.454269 0.646448 0.304231
O O9 0.432553 0.744947 0.356647
O O10 0.777290 0.691443 0.526453
O O11 0.666184 0.000000 0.476177
O O12 0.553313 0.000000 0.257761
O O13 0.479680 0.448568 0.718654
O O14 0.927333 0.000000 0.367567
O O15 0.000000 0.321939 0.500000
#
# Coordination Sequence:
#
# PCOD9212780 Si02
#       8
#     4   8   8   4   8   4   8   4
#     4   9  20  36  60  80 124 172 206 245 328 370
#     4  12  26  41  63  94 133 173 209 258 324 388
#     4  10  22  39  69  94 119 165 222 264 317 374
#     4  12  24  37  63  94 129 165 213 258 315 388
#     4  11  22  41  61  93 129 168 211 267 314 384
#     4   9  19  39  55  83 127 170 205 260 303 377
#     4  10  21  44  67  90 127 168 210 270 320 369
#     4  10  23  36  63  94 123 165 216 260 318 370
#
# _framework density 19.374192000000001
#
# number of rings (size 3 to 8) (size 9 to 14) (size 15 to 20)
#    0.000    1.500    1.667    3.500    0.000    7.333 
#    1.500    0.833    0.000    0.000    0.000    0.000 
#    0.000    0.000    0.000    0.000    0.000    0.000 
#
# Total GULP energy -133785.296207 kJ/mol
# GULP energy per Si atom -5574.387342 kJ/mol
# Density = 1.933010 g / cm^3
# Si number density = 19.374192 Si / 1000 Ang^3
#
#
#
# Elastic Constant Matrix: (Units=GPa)
#
#
# Indices 1 2 3 4 5 6 
#
# 1 85.6603 -0.6925 11.1705 0.0000 8.2699 0.0000
# 2 -0.6925 80.8792 48.8911 0.0000 8.1446 0.0000
# 3 11.1705 48.8911 106.6842 0.0000 21.4902 0.0000
# 4 0.0000 0.0000 0.0000 70.2614 0.0000 -1.6182
# 5 8.2699 8.1446 21.4902 0.0000 30.8131 0.0000
# 6 0.0000 0.0000 0.0000 -1.6182 0.0000 32.6112
#
#
#
# Elastic Compliance Matrix: (Units=1/GPa)
#
#
# Indices 1 2 3 4 5 6 
#
# 1 0.012104 0.001125 -0.001243 0.000000 -0.002679 0.000000
# 2 0.001125 0.017238 -0.008190 0.000000 0.000853 0.000000
# 3 -0.001243 -0.008190 0.014838 0.000000 -0.007850 0.000000
# 4 0.000000 0.000000 0.000000 0.014249 0.000000 0.000707
# 5 -0.002679 0.000853 -0.007850 0.000000 0.038422 0.000000
# 6 0.000000 0.000000 0.000000 0.000707 0.000000 0.030699
#
#
# Mechanical properties :
#
#
# Convention : Reuss Voigt Hill
#
# Bulk Modulus (GPa) = 36.27871 43.55131 39.91501
# Shear Modulus (GPa) = 32.60409 40.99412 36.79910
#
# Velocity S-wave (km/s) = 4.10672 4.60490 4.36292
# Velocity P-wave (km/s) = 6.42283 7.12750 6.78432
#
# Compressibility (1/GPa) = 0.02756437
#
# Stress axis : x y z
#
# Youngs Moduli (GPa) = 82.61832 58.00991 67.39396
#
# Poissons Ratio (x) = -0.06526 0.08379
# Poissons Ratio (y) = -0.09294 0.55194
# Poissons Ratio (z) = 0.10272 0.47508
#
# Static dielectric constant tensor:
#      x y z
#    x 1.711040 0.000000 0.010660 
#    y 0.000000 1.710030 0.000000 
#    z 0.010660 0.000000 1.710100 
# 
# From -- ./inp_files/200271.got.cif
#   From: 2010.05.17/outbox.cif.g08.bks.cpg/sg12_101_cif.got.tgz:200271.got - 2010.06.03 13:09:07.
