data_PCOD9212394
_publ_section_title
;
Structure prediction by ZEFSAII (Michael W. Deem and Ramdas Pophale) SiO2 
 PCOD9212394
Probable space group: C 2/M
;
_chemical_formula_sum "Si O2"
_cell_formula_units_Z 64
_cell_length_a 11.416858
_cell_length_b 15.145102
_cell_length_c 27.942640
_cell_angle_alpha 90.000000
_cell_angle_beta 143.082933
_cell_angle_gamma 90.000000
_cell_volume 2902.109508
_symmetry_space_group_name_H-M "C 2/M"
_symmetry_group_IT_number 12
_symmetry_cell_setting 'monoclinic'
loop_
_space_group_symop_operation_xyz
x,y,z
-x,y,-z
-x,-y,-z
x,-y,z
1/2+x,1/2+y,z
1/2-x,1/2+y,-z
1/2-x,1/2-y,-z
1/2+x,1/2-y,z
loop_
_atom_site_type_symbol
_atom_site_label
_atom_site_fract_x
_atom_site_fract_y
_atom_site_fract_z
Si Si1 0.344290 0.854188 0.410558
Si Si2 0.075187 0.901703 0.844824
Si Si3 0.722281 0.293303 0.812189
Si Si4 0.082509 0.598978 0.402072
Si Si5 0.573217 0.601509 0.680872
Si Si6 0.486104 0.340283 0.547093
Si Si7 0.610677 0.800233 0.991196
Si Si8 0.826701 0.401115 0.227715
O O1 0.500000 0.888497 0.500000
O O2 0.398092 0.893702 0.376914
O O3 0.138530 0.878452 0.365568
O O4 0.392865 0.750037 0.420411
O O5 0.067278 0.838488 0.796662
O O6 0.874675 0.901578 0.808247
O O7 0.115698 0.000000 0.840708
O O8 0.250157 0.870465 0.936975
O O9 0.702102 0.326677 0.751310
O O10 0.694025 0.188477 0.808807
O O11 0.928764 0.327927 0.899293
O O12 0.161485 0.500000 0.433442
O O13 0.249982 0.665864 0.473425
O O14 0.004654 0.611532 0.323096
O O15 0.628518 0.500000 0.708960
O O16 0.561943 0.615959 0.620303
O O17 0.500000 0.388125 0.500000
O O18 0.500000 0.752284 0.000000
O O19 0.750000 0.750000 0.000000
O O20 0.847240 0.500000 0.212609
#
# Coordination Sequence:
#
# PCOD9212394 Si02
#       8
#     8   8   8   8   8   8   8   8
#     4  11  23  38  65  90 117 161 222 281 337 392
#     4  10  21  41  71 103 138 178 227 280 340 414
#     4  11  23  39  69  99 139 168 223 285 345 394
#     4  11  22  39  61  87 123 166 219 277 335 403
#     4  12  26  44  67  99 134 172 223 284 347 402
#     4  11  26  42  63  86 128 176 225 272 340 407
#     4  10  21  41  69 106 140 186 231 278 349 415
#     4  10  22  40  65  94 126 173 225 275 340 409
#
# _framework density 22.052924000000001
#
# number of rings (size 3 to 8) (size 9 to 14) (size 15 to 20)
#    0.000    1.250    2.500    3.000    5.250    5.250 
#    0.000    0.000    0.000    7.500    0.000    0.000 
#    0.000    0.000    0.000    0.000    0.000    0.000 
#
# Total GULP energy -178646.386099 kJ/mol
# GULP energy per Si atom -5582.699566 kJ/mol
# Density = 2.200273 g / cm^3
# Si number density = 22.052924 Si / 1000 Ang^3
#
#
#
# Elastic Constant Matrix: (Units=GPa)
#
#
# Indices 1 2 3 4 5 6 
#
# 1 83.2381 27.4901 2.1071 0.0000 -15.8543 0.0000
# 2 27.4901 141.4516 14.3090 0.0000 -9.2900 0.0000
# 3 2.1071 14.3090 93.8474 0.0000 -13.0920 0.0000
# 4 0.0000 0.0000 0.0000 20.3848 0.0000 -2.1717
# 5 -15.8543 -9.2900 -13.0920 0.0000 23.3206 0.0000
# 6 0.0000 0.0000 0.0000 -2.1717 0.0000 30.1056
#
#
#
# Elastic Compliance Matrix: (Units=1/GPa)
#
#
# Indices 1 2 3 4 5 6 
#
# 1 0.014615 -0.002339 0.001394 0.000000 0.009787 0.000000
# 2 -0.002339 0.007684 -0.000992 0.000000 0.000915 0.000000
# 3 0.001394 -0.000992 0.011775 0.000000 0.007163 0.000000
# 4 0.000000 0.000000 0.000000 0.049436 0.000000 0.003566
# 5 0.009787 0.000915 0.007163 0.000000 0.053919 0.000000
# 6 0.000000 0.000000 0.000000 0.003566 0.000000 0.033474
#
#
# Mechanical properties :
#
#
# Convention : Reuss Voigt Hill
#
# Bulk Modulus (GPa) = 33.11128 45.14997 39.13062
# Shear Modulus (GPa) = 27.04999 33.07092 30.06045
#
# Velocity S-wave (km/s) = 3.50608 3.87669 3.69603
# Velocity P-wave (km/s) = 5.60688 6.36837 5.99972
#
# Compressibility (1/GPa) = 0.03020119
#
# Stress axis : x y z
#
# Youngs Moduli (GPa) = 68.42372 130.13368 84.92771
#
# Poissons Ratio (x) = 0.30432 -0.11836
# Poissons Ratio (y) = 0.16001 0.08421
# Poissons Ratio (z) = -0.09536 0.12903
#
# Static dielectric constant tensor:
#      x y z
#    x 1.870750 0.000000 0.026560 
#    y 0.000000 1.839740 0.000000 
#    z 0.026560 0.000000 1.837780 
# 
# From -- ./inp_files/358460.got.cif
#   From: 2010.05.17/outbox.cif.g08.bks.cpg/sg12_180_cif.got.tgz:358460.got - 2010.06.03 13:09:07.
