data_PCOD9212992
_publ_section_title
;
Structure prediction by ZEFSAII (Michael W. Deem and Ramdas Pophale) SiO2 
 PCOD9212992
Probable space group: C 2/M
;
_chemical_formula_sum "Si O2"
_cell_formula_units_Z 64
_cell_length_a 12.654691
_cell_length_b 23.646415
_cell_length_c 9.401262
_cell_angle_alpha 90.000000
_cell_angle_beta 103.445662
_cell_angle_gamma 90.000000
_cell_volume 2736.107774
_symmetry_space_group_name_H-M "C 2/M"
_symmetry_group_IT_number 12
_symmetry_cell_setting 'monoclinic'
loop_
_space_group_symop_operation_xyz
x,y,z
-x,y,-z
-x,-y,-z
x,-y,z
1/2+x,1/2+y,z
1/2-x,1/2+y,-z
1/2-x,1/2-y,-z
1/2+x,1/2-y,z
loop_
_atom_site_type_symbol
_atom_site_label
_atom_site_fract_x
_atom_site_fract_y
_atom_site_fract_z
Si Si1 0.427048 0.136012 0.707444
Si Si2 0.806616 0.408111 0.418306
Si Si3 0.401995 0.436958 0.797877
Si Si4 0.297911 0.676369 0.276506
Si Si5 0.784924 0.147454 0.963378
Si Si6 0.102722 0.564784 0.870170
Si Si7 0.908138 0.061065 0.351538
Si Si8 0.360486 0.796875 0.315520
O O1 0.379937 0.089064 0.580764
O O2 0.331093 0.173551 0.741728
O O3 0.491787 0.099214 0.842528
O O4 0.518786 0.178060 0.670278
O O5 0.686889 0.432786 0.358809
O O6 0.864420 0.429369 0.290053
O O7 0.802688 0.339697 0.406193
O O8 0.387225 0.500000 0.857345
O O9 0.370909 0.385513 0.891308
O O10 0.521886 0.433461 0.771875
O O11 0.338733 0.616816 0.349333
O O12 0.351918 0.732302 0.356050
O O13 0.327060 0.675479 0.118532
O O14 0.700289 0.097398 0.977741
O O15 0.712155 0.190891 0.848282
O O16 0.095440 0.500000 0.906081
O O17 0.000000 0.059361 0.500000
O O18 0.850400 0.000000 0.332077
#
# Coordination Sequence:
#
# PCOD9212992 Si02
#       8
#     8   8   8   8   8   8   8   8
#     4  10  22  36  54  86 118 143 183 232 278 335
#     4   9  17  34  58  86 113 141 186 233 273 336
#     4   9  18  36  61  83 113 153 184 225 277 320
#     4  12  24  38  59  81 109 152 188 227 284 339
#     4   9  20  38  56  84 111 141 193 234 266 327
#     4   9  18  34  58  84 115 151 184 229 279 323
#     4  10  23  40  56  83 117 145 185 236 279 327
#     4   9  21  38  57  80 111 145 184 236 282 325
#
# _framework density 23.390891
#
# number of rings (size 3 to 8) (size 9 to 14) (size 15 to 20)
#    0.000    2.875    0.000    4.125    0.000    9.000 
#    0.000    3.125    0.000    0.000    0.000    0.000 
#    0.000    0.000    0.000    0.000    0.000    0.000 
#
# Total GULP energy -178636.567669 kJ/mol
# GULP energy per Si atom -5582.392740 kJ/mol
# Density = 2.333765 g / cm^3
# Si number density = 23.390891 Si / 1000 Ang^3
#
#
#
# Elastic Constant Matrix: (Units=GPa)
#
#
# Indices 1 2 3 4 5 6 
#
# 1 77.7566 43.2271 -15.0910 0.0000 -0.5411 0.0000
# 2 43.2271 156.1357 -9.4260 0.0000 9.3425 0.0000
# 3 -15.0910 -9.4260 51.3938 0.0000 -2.6239 0.0000
# 4 0.0000 0.0000 0.0000 11.9781 0.0000 3.5246
# 5 -0.5411 9.3425 -2.6239 0.0000 23.7194 0.0000
# 6 0.0000 0.0000 0.0000 3.5246 0.0000 20.2553
#
#
#
# Elastic Compliance Matrix: (Units=1/GPa)
#
#
# Indices 1 2 3 4 5 6 
#
# 1 0.016090 -0.004361 0.004054 0.000000 0.002533 0.000000
# 2 -0.004361 0.007801 -0.000012 0.000000 -0.003174 0.000000
# 3 0.004054 -0.000012 0.020768 0.000000 0.002395 0.000000
# 4 0.000000 0.000000 0.000000 0.087991 0.000000 -0.015311
# 5 0.002533 -0.003174 0.002395 0.000000 0.043732 0.000000
# 6 0.000000 0.000000 0.000000 -0.015311 0.000000 0.052034
#
#
# Mechanical properties :
#
#
# Convention : Reuss Voigt Hill
#
# Bulk Modulus (GPa) = 22.71673 35.85625 29.28649
# Shear Modulus (GPa) = 20.51465 28.96230 24.73848
#
# Velocity S-wave (km/s) = 2.96469 3.52261 3.25562
# Velocity P-wave (km/s) = 4.63164 5.64867 5.16524
#
# Compressibility (1/GPa) = 0.04402042
#
# Stress axis : x y z
#
# Youngs Moduli (GPa) = 62.15174 128.18327 48.15093
#
# Poissons Ratio (x) = 0.55905 -0.19520
# Poissons Ratio (y) = 0.27107 0.00057
# Poissons Ratio (z) = -0.25196 0.00152
#
# Static dielectric constant tensor:
#      x y z
#    x 1.930220 0.000000 -0.039300 
#    y 0.000000 1.856120 0.000000 
#    z -0.039300 0.000000 1.980100 
# 
# From -- ./inp_files/135990.got.cif
#   From: 2010.05.17/outbox.cif.g08.bks.cpg/sg12_68_cif.got.tgz:135990.got - 2010.06.03 13:09:07.
