data_PCOD9212114
_publ_section_title
;
Structure prediction by ZEFSAII (Michael W. Deem and Ramdas Pophale) SiO2 
 PCOD9212114
Probable space group: C 2/M
;
_chemical_formula_sum "Si O2"
_cell_formula_units_Z 28
_cell_length_a 27.585860
_cell_length_b 10.085152
_cell_length_c 11.121699
_cell_angle_alpha 90.000000
_cell_angle_beta 20.272459
_cell_angle_gamma 90.000000
_cell_volume 1072.072813
_symmetry_space_group_name_H-M "C 2/M"
_symmetry_group_IT_number 12
_symmetry_cell_setting 'monoclinic'
loop_
_space_group_symop_operation_xyz
x,y,z
-x,y,-z
-x,-y,-z
x,-y,z
1/2+x,1/2+y,z
1/2-x,1/2+y,-z
1/2-x,1/2-y,-z
1/2+x,1/2-y,z
loop_
_atom_site_type_symbol
_atom_site_label
_atom_site_fract_x
_atom_site_fract_y
_atom_site_fract_z
Si Si1 0.128217 0.500000 0.588185
Si Si2 0.086188 0.218731 0.412051
Si Si3 0.606255 0.000000 0.382996
Si Si4 0.000000 0.251357 0.000000
Si Si5 0.809785 0.000000 0.680972
Si Si6 0.193761 0.000000 0.585091
O O1 0.194976 0.500000 0.300573
O O2 0.045511 0.639674 0.793737
O O3 0.218675 0.500000 0.497678
O O4 0.022142 0.363672 0.581902
O O5 0.093505 0.125543 0.510335
O O6 0.000000 0.161110 0.500000
O O7 0.250000 0.250000 0.000000
O O8 0.697113 0.000000 0.050668
O O9 0.884559 0.143264 0.228701
O O10 0.755850 0.000000 0.671403
#
# Coordination Sequence:
#
# PCOD9212114 Si02
#       6
#     4   8   4   4   4   4
#     4  11  23  47  71  97 145 181 238 291 353 425
#     4  10  21  41  63  97 139 178 225 285 354 427
#     4  10  22  43  65 103 131 178 229 286 358 419
#     4  10  24  44  66 106 128 188 238 278 356 420
#     4  10  22  43  65 103 131 178 229 286 358 419
#     4  11  23  47  71  97 145 181 238 291 353 425
#
# _framework density 26.117629999999998
#
# number of rings (size 3 to 8) (size 9 to 14) (size 15 to 20)
#    0.000    1.714    0.000    3.429    0.000    0.000 
#   61.714    0.000    0.000    0.000    0.000    0.000 
#    0.000    0.000    0.000    0.000    0.000    0.000 
#
# Total GULP energy -78067.154936 kJ/mol
# GULP energy per Si atom -5576.225353 kJ/mol
# Density = 2.605818 g / cm^3
# Si number density = 26.117630 Si / 1000 Ang^3
#
#
#
# Elastic Constant Matrix: (Units=GPa)
#
#
# Indices 1 2 3 4 5 6 
#
# 1 245.0202 36.3186 69.9332 0.0000 26.8541 0.0000
# 2 36.3186 237.1977 37.4798 0.0000 15.1423 0.0000
# 3 69.9332 37.4798 74.3438 0.0000 10.9264 0.0000
# 4 0.0000 0.0000 0.0000 41.1733 0.0000 2.1320
# 5 26.8541 15.1423 10.9264 0.0000 28.9980 0.0000
# 6 0.0000 0.0000 0.0000 2.1320 0.0000 43.7369
#
#
#
# Elastic Compliance Matrix: (Units=1/GPa)
#
#
# Indices 1 2 3 4 5 6 
#
# 1 0.005914 0.000131 -0.005096 0.000000 -0.003625 0.000000
# 2 0.000131 0.004656 -0.002218 0.000000 -0.001717 0.000000
# 3 -0.005096 -0.002218 0.019584 0.000000 -0.001501 0.000000
# 4 0.000000 0.000000 0.000000 0.024349 0.000000 -0.001187
# 5 -0.003625 -0.001717 -0.001501 0.000000 0.039304 0.000000
# 6 0.000000 0.000000 0.000000 -0.001187 0.000000 0.022922
#
#
# Mechanical properties :
#
#
# Convention : Reuss Voigt Hill
#
# Bulk Modulus (GPa) = 63.34419 93.78055 78.56237
# Shear Modulus (GPa) = 36.66830 50.30365 43.48597
#
# Velocity S-wave (km/s) = 3.75102 4.39343 4.08487
# Velocity P-wave (km/s) = 6.56249 7.85629 7.23835
#
# Compressibility (1/GPa) = 0.01578677
#
# Stress axis : x y z
#
# Youngs Moduli (GPa) = 169.09942 214.77997 51.06230
#
# Poissons Ratio (x) = -0.02818 0.26023
# Poissons Ratio (y) = -0.02218 0.11327
# Poissons Ratio (z) = 0.86177 0.47645
#
# Static dielectric constant tensor:
#      x y z
#    x 2.063370 0.000000 -0.072760 
#    y 0.000000 2.139590 0.000000 
#    z -0.072760 0.000000 2.255680 
# 
# From -- ./inp_files/181421.got.cif
#   From: 2010.05.17/outbox.cif.g08.bks.cpg/sg12_91_cif.got.tgz:181421.got - 2010.06.03 13:09:07.
