data_PCOD9212020
_publ_section_title
;
Structure prediction by ZEFSAII (Michael W. Deem and Ramdas Pophale) SiO2 
 PCOD9212020
Probable space group: C 2/M
;
_chemical_formula_sum "Si O2"
_cell_formula_units_Z 64
_cell_length_a 13.782471
_cell_length_b 28.709822
_cell_length_c 15.673324
_cell_angle_alpha 90.000000
_cell_angle_beta 36.885296
_cell_angle_gamma 90.000000
_cell_volume 3722.421336
_symmetry_space_group_name_H-M "C 2/M"
_symmetry_group_IT_number 12
_symmetry_cell_setting 'monoclinic'
loop_
_space_group_symop_operation_xyz
x,y,z
-x,y,-z
-x,-y,-z
x,-y,z
1/2+x,1/2+y,z
1/2-x,1/2+y,-z
1/2-x,1/2-y,-z
1/2+x,1/2-y,z
loop_
_atom_site_type_symbol
_atom_site_label
_atom_site_fract_x
_atom_site_fract_y
_atom_site_fract_z
Si Si1 0.145897 0.203569 0.658833
Si Si2 0.249385 0.053802 0.726558
Si Si3 0.586645 0.054030 0.575405
Si Si4 0.687584 0.824118 0.082043
Si Si5 0.216378 0.226088 0.148446
Si Si6 0.308401 0.289650 0.638240
Si Si7 0.509951 0.362272 0.897886
Si Si8 0.835076 0.644611 0.384958
O O1 0.224446 0.250987 0.637401
O O2 0.109484 0.171275 0.765753
O O3 0.261052 0.175182 0.514281
O O4 0.973230 0.214433 0.736522
O O5 0.399843 0.065653 0.683108
O O6 0.319564 0.057268 0.580965
O O7 0.101946 0.088895 0.838620
O O8 0.205413 0.000000 0.772566
O O9 0.660774 0.091167 0.588242
O O10 0.593719 0.000000 0.597974
O O11 0.740410 0.779062 0.100614
O O12 0.518149 0.841026 0.236036
O O13 0.682260 0.805549 0.988680
O O14 0.827702 0.862431 0.990996
O O15 0.249293 0.217187 0.224155
O O16 0.500000 0.282218 0.500000
O O17 0.265314 0.339533 0.627477
O O18 0.500000 0.343014 0.000000
#
# Coordination Sequence:
#
# PCOD9212020 Si02
#       8
#     8   8   8   8   8   8   8   8
#     4  11  22  38  56  79 117 151 196 237 277 334
#     4   9  18  35  57  85 116 150 189 235 290 351
#     4   9  19  36  60  84 112 146 188 242 298 345
#     4  10  22  36  56  77 120 156 190 228 282 339
#     4  10  21  41  52  78 117 159 192 234 276 338
#     4  12  23  34  58  84 110 149 197 238 281 328
#     4  11  21  34  52  84 114 159 190 225 277 342
#     4  12  21  38  57  84 108 148 195 239 285 336
#
# _framework density 17.193109
#
# number of rings (size 3 to 8) (size 9 to 14) (size 15 to 20)
#    0.000    1.500    3.750    3.375    0.000    1.750 
#    0.000    0.625    0.000    0.375    0.000    2.625 
#    0.000    0.000    0.000    0.000    0.000    0.000 
#
# Total GULP energy -178675.292113 kJ/mol
# GULP energy per Si atom -5583.602879 kJ/mol
# Density = 1.715398 g / cm^3
# Si number density = 17.193109 Si / 1000 Ang^3
#
#
#
# Elastic Constant Matrix: (Units=GPa)
#
#
# Indices 1 2 3 4 5 6 
#
# 1 53.4956 41.5673 27.1200 -0.0001 11.2399 0.0001
# 2 41.5673 81.6977 35.3364 0.0000 -0.0570 0.0000
# 3 27.1200 35.3364 102.7130 0.0000 3.6111 0.0000
# 4 -0.0001 0.0000 0.0000 16.2926 0.0000 -8.6413
# 5 11.2399 -0.0570 3.6111 0.0000 34.6697 0.0000
# 6 0.0001 0.0000 0.0000 -8.6413 0.0000 28.3576
#
#
#
# Elastic Compliance Matrix: (Units=1/GPa)
#
#
# Indices 1 2 3 4 5 6 
#
# 1 0.035771 -0.016793 -0.003271 0.000000 -0.011284 0.000000
# 2 -0.016793 0.022274 -0.003434 0.000000 0.005839 0.000000
# 3 -0.003271 -0.003434 0.011787 0.000000 -0.000173 0.000000
# 4 0.000000 0.000000 0.000000 0.073210 0.000000 0.022309
# 5 -0.011284 0.005839 -0.000173 0.000000 0.032530 0.000000
# 6 0.000000 0.000000 0.000000 0.022309 0.000000 0.042062
#
#
# Mechanical properties :
#
#
# Convention : Reuss Voigt Hill
#
# Bulk Modulus (GPa) = 43.79132 49.55042 46.67087
# Shear Modulus (GPa) = 18.36608 24.78947 21.57778
#
# Velocity S-wave (km/s) = 3.27191 3.80126 3.54648
# Velocity P-wave (km/s) = 6.30868 6.93892 6.63129
#
# Compressibility (1/GPa) = 0.02283558
#
# Stress axis : x y z
#
# Youngs Moduli (GPa) = 27.95580 44.89543 84.83922
#
# Poissons Ratio (x) = 0.75394 0.27749
# Poissons Ratio (y) = 0.46947 0.29135
# Poissons Ratio (z) = 0.09144 0.15418
#
# Static dielectric constant tensor:
#      x y z
#    x 1.593790 0.000000 -0.004080 
#    y 0.000000 1.572150 0.000000 
#    z -0.004080 0.000000 1.605690 
# 
# From -- ./inp_files/218936.got.cif
#   From: 2010.05.17/outbox.cif.g08.bks.cpg/sg12_110_cif.got.tgz:218936.got - 2010.06.03 13:09:07.
