data_PCOD9212872
_publ_section_title
;
Structure prediction by ZEFSAII (Michael W. Deem and Ramdas Pophale) SiO2 
 PCOD9212872
Probable space group: C 2/M
;
_chemical_formula_sum "Si O2"
_cell_formula_units_Z 40
_cell_length_a 8.910686
_cell_length_b 21.992152
_cell_length_c 16.703031
_cell_angle_alpha 90.000000
_cell_angle_beta 136.701821
_cell_angle_gamma 90.000000
_cell_volume 2244.753259
_symmetry_space_group_name_H-M "C 2/M"
_symmetry_group_IT_number 12
_symmetry_cell_setting 'monoclinic'
loop_
_space_group_symop_operation_xyz
x,y,z
-x,y,-z
-x,-y,-z
x,-y,z
1/2+x,1/2+y,z
1/2-x,1/2+y,-z
1/2-x,1/2-y,-z
1/2+x,1/2-y,z
loop_
_atom_site_type_symbol
_atom_site_label
_atom_site_fract_x
_atom_site_fract_y
_atom_site_fract_z
Si Si1 0.283526 0.566919 0.803627
Si Si2 0.557194 0.201006 0.905738
Si Si3 0.341902 0.827645 0.365534
Si Si4 0.574879 0.745762 0.745571
Si Si5 0.202316 0.431997 0.960988
O O1 0.224247 0.500000 0.750199
O O2 0.197121 0.617748 0.711032
O O3 0.204632 0.570824 0.864921
O O4 0.546479 0.570773 0.912673
O O5 0.542100 0.205050 0.803230
O O6 0.324863 0.222968 0.849128
O O7 0.598834 0.131742 0.947713
O O8 0.750000 0.250000 0.000000
O O9 0.500000 0.842389 0.500000
O O10 0.443901 0.774337 0.349719
O O11 0.107531 0.804680 0.307536
O O12 0.116241 0.500000 0.949655
#
# Coordination Sequence:
#
# PCOD9212872 Si02
#       5
#     8   8   8   8   8
#     4   9  18  32  53  79 104 135 178 218 263 319
#     4  11  20  32  55  82 113 141 172 218 271 326
#     4  11  21  37  55  74 105 143 183 224 265 308
#     4  10  22  34  50  80 109 137 180 220 266 318
#     4   9  17  32  54  78 108 141 171 211 270 336
#
# _framework density 17.819329
#
# number of rings (size 3 to 8) (size 9 to 14) (size 15 to 20)
#    0.000    2.000    2.000    4.800    2.800    0.400 
#    0.000    1.000    0.000    4.800    0.000    2.800 
#    0.000    0.000    0.000    0.000    0.000    0.000 
#
# Total GULP energy -111489.149044 kJ/mol
# GULP energy per Si atom -5574.457452 kJ/mol
# Density = 1.777877 g / cm^3
# Si number density = 17.819329 Si / 1000 Ang^3
#
#
#
# Elastic Constant Matrix: (Units=GPa)
#
#
# Indices 1 2 3 4 5 6 
#
# 1 83.6291 27.5229 27.0498 0.0000 -0.1726 0.0000
# 2 27.5229 122.7283 40.6146 0.0000 -0.3073 0.0000
# 3 27.0498 40.6146 85.3096 0.0000 -10.7834 0.0000
# 4 0.0000 0.0000 0.0000 19.3501 0.0000 -2.1614
# 5 -0.1726 -0.3073 -10.7834 0.0000 24.4732 0.0000
# 6 0.0000 0.0000 0.0000 -2.1614 0.0000 19.0117
#
#
#
# Elastic Compliance Matrix: (Units=1/GPa)
#
#
# Indices 1 2 3 4 5 6 
#
# 1 0.013757 -0.001877 -0.003663 0.000000 -0.001541 0.000000
# 2 -0.001877 0.010023 -0.004408 0.000000 -0.001830 0.000000
# 3 -0.003663 -0.004408 0.015855 0.000000 0.006905 0.000000
# 4 0.000000 0.000000 0.000000 0.052344 0.000000 0.005951
# 5 -0.001541 -0.001830 0.006905 0.000000 0.043870 0.000000
# 6 0.000000 0.000000 0.000000 0.005951 0.000000 0.053276
#
#
# Mechanical properties :
#
#
# Convention : Reuss Voigt Hill
#
# Bulk Modulus (GPa) = 50.66137 53.56016 52.11077
# Shear Modulus (GPa) = 23.19107 25.66564 24.42836
#
# Velocity S-wave (km/s) = 3.61148 3.79928 3.70657
# Velocity P-wave (km/s) = 6.77368 7.02628 6.90114
#
# Compressibility (1/GPa) = 0.01973890
#
# Stress axis : x y z
#
# Youngs Moduli (GPa) = 72.69084 99.76919 63.07162
#
# Poissons Ratio (x) = 0.18723 0.23105
# Poissons Ratio (y) = 0.13642 0.27803
# Poissons Ratio (z) = 0.26629 0.43979
#
# Static dielectric constant tensor:
#      x y z
#    x 1.631780 0.000000 -0.020170 
#    y 0.000000 1.651330 0.000000 
#    z -0.020170 0.000000 1.588750 
# 
# From -- ./inp_files/120058.got.cif
#   From: 2010.05.17/outbox.cif.g08.bks.cpg/sg12_61_cif.got.tgz:120058.got - 2010.06.03 13:09:07.
