data_PCOD9212424
_publ_section_title
;
Structure prediction by ZEFSAII (Michael W. Deem and Ramdas Pophale) SiO2 
 PCOD9212424
Probable space group: C 2/M
;
_chemical_formula_sum "Si O2"
_cell_formula_units_Z 32
_cell_length_a 12.931313
_cell_length_b 14.312840
_cell_length_c 8.916017
_cell_angle_alpha 90.000000
_cell_angle_beta 124.752836
_cell_angle_gamma 90.000000
_cell_volume 1355.843788
_symmetry_space_group_name_H-M "C 2/M"
_symmetry_group_IT_number 12
_symmetry_cell_setting 'monoclinic'
loop_
_space_group_symop_operation_xyz
x,y,z
-x,y,-z
-x,-y,-z
x,-y,z
1/2+x,1/2+y,z
1/2-x,1/2+y,-z
1/2-x,1/2-y,-z
1/2+x,1/2-y,z
loop_
_atom_site_type_symbol
_atom_site_label
_atom_site_fract_x
_atom_site_fract_y
_atom_site_fract_z
Si Si1 0.377486 0.389111 0.305794
Si Si2 0.534086 0.109177 0.700737
Si Si3 0.333124 0.607931 0.932575
Si Si4 0.836668 0.273370 0.714418
O O1 0.500000 0.358196 0.500000
O O2 0.361442 0.500000 0.317194
O O3 0.252479 0.337368 0.255831
O O4 0.396571 0.374469 0.145111
O O5 0.500000 0.132850 0.500000
O O6 0.683426 0.118739 0.838503
O O7 0.456995 0.171414 0.752867
O O8 0.500279 0.000000 0.695017
O O9 0.354002 0.500000 0.904242
O O10 0.366142 0.680358 0.831204
O O11 0.750000 0.250000 0.500000
#
# Coordination Sequence:
#
# PCOD9212424 Si02
#       4
#     8   8   8   8
#     4  10  24  47  71  99 139 183 231 289 348 409
#     4  10  21  41  70 103 140 179 228 286 342 406
#     4  10  23  46  73 102 140 184 231 285 344 411
#     4  12  24  39  71 104 139 178 231 282 348 412
#
# _framework density 23.601538999999999
#
# number of rings (size 3 to 8) (size 9 to 14) (size 15 to 20)
#    0.000    1.500    2.500    1.500    3.500    2.000 
#    4.500    3.750    0.000    5.250    0.000    0.000 
#    0.000    0.000    0.000    0.000    0.000    0.000 
#
# Total GULP energy -89788.318968 kJ/mol
# GULP energy per Si atom -5611.769935 kJ/mol
# Density = 2.354782 g / cm^3
# Si number density = 23.601539 Si / 1000 Ang^3
#
#
#
# Elastic Constant Matrix: (Units=GPa)
#
#
# Indices 1 2 3 4 5 6 
#
# 1 172.2415 117.6193 47.6109 0.0000 -8.9721 0.0000
# 2 117.6193 184.3317 85.0863 0.0000 -32.1585 0.0000
# 3 47.6109 85.0863 163.5764 0.0000 -0.5094 0.0000
# 4 0.0000 0.0000 0.0000 26.7808 0.0000 -28.7747
# 5 -8.9721 -32.1585 -0.5094 0.0000 33.8975 0.0000
# 6 0.0000 0.0000 0.0000 -28.7747 0.0000 37.0767
#
#
#
# Elastic Compliance Matrix: (Units=1/GPa)
#
#
# Indices 1 2 3 4 5 6 
#
# 1 0.010973 -0.008429 0.001175 0.000000 -0.005075 0.000000
# 2 -0.008429 0.015561 -0.005602 0.000000 0.012447 0.000000
# 3 0.001175 -0.005602 0.008670 0.000000 -0.004873 0.000000
# 4 0.000000 0.000000 0.000000 0.224764 0.000000 0.174436
# 5 -0.005075 0.012447 -0.004873 0.000000 0.039893 0.000000
# 6 0.000000 0.000000 0.000000 0.174436 0.000000 0.162349
#
#
# Mechanical properties :
#
#
# Convention : Reuss Voigt Hill
#
# Bulk Modulus (GPa) = 105.35928 113.42030 109.38979
# Shear Modulus (GPa) = 10.18152 37.53989 23.86070
#
# Velocity S-wave (km/s) = 2.07925 3.99252 3.18304
# Velocity P-wave (km/s) = 7.10649 8.33152 7.74327
#
# Compressibility (1/GPa) = 0.00949133
#
# Stress axis : x y z
#
# Youngs Moduli (GPa) = 91.13415 64.26268 115.33826
#
# Poissons Ratio (x) = 0.54169 -0.13553
# Poissons Ratio (y) = 0.76820 0.64613
# Poissons Ratio (z) = -0.10709 0.36000
#
# Static dielectric constant tensor:
#      x y z
#    x 1.862950 0.000000 0.022660 
#    y 0.000000 1.884460 0.000000 
#    z 0.022660 0.000000 1.871560 
# 
# From -- ./inp_files/45400.got.cif
#   From: 2010.05.17/outbox.cif.g08.bks.cpg/sg12_23_cif.got.tgz:45400.got - 2010.06.03 13:09:07.
