data_PCOD9212849
_publ_section_title
;
Structure prediction by ZEFSAII (Michael W. Deem and Ramdas Pophale) SiO2 
 PCOD9212849
Probable space group: C 2/M
;
_chemical_formula_sum "Si O2"
_cell_formula_units_Z 44
_cell_length_a 9.410840
_cell_length_b 22.214347
_cell_length_c 14.031645
_cell_angle_alpha 90.000000
_cell_angle_beta 130.907658
_cell_angle_gamma 90.000000
_cell_volume 2216.959973
_symmetry_space_group_name_H-M "C 2/M"
_symmetry_group_IT_number 12
_symmetry_cell_setting 'monoclinic'
loop_
_space_group_symop_operation_xyz
x,y,z
-x,y,-z
-x,-y,-z
x,-y,z
1/2+x,1/2+y,z
1/2-x,1/2+y,-z
1/2-x,1/2-y,-z
1/2+x,1/2-y,z
loop_
_atom_site_type_symbol
_atom_site_label
_atom_site_fract_x
_atom_site_fract_y
_atom_site_fract_z
Si Si1 0.206622 0.254686 0.591351
Si Si2 0.711705 0.134393 0.259016
Si Si3 0.410850 0.695923 0.179564
Si Si4 0.000000 0.910271 0.000000
Si Si5 0.777462 0.000000 0.035208
Si Si6 0.831742 0.500000 0.790833
Si Si7 0.208345 0.324051 0.891926
O O1 0.250000 0.250000 0.500000
O O2 0.208401 0.187010 0.637061
O O3 0.368351 0.294903 0.709994
O O4 0.000000 0.281786 0.500000
O O5 0.489627 0.150348 0.158255
O O6 0.814477 0.146848 0.203929
O O7 0.725599 0.062990 0.284583
O O8 0.673613 0.628561 0.116168
O O9 0.328860 0.761202 0.176012
O O10 0.839977 0.811096 0.041019
O O11 0.103041 0.946023 0.960234
O O12 0.755743 0.000000 0.139949
O O13 0.560437 0.000000 0.903106
#
# Coordination Sequence:
#
# PCOD9212849 Si02
#       7
#     8   8   8   4   4   4   8
#     4  11  23  43  65  90 121 162 212 265 318 370
#     4  11  22  39  64  91 125 170 205 255 308 378
#     4  10  22  36  59  92 129 162 202 259 320 377
#     4  11  20  34  52  88 126 179 198 250 298 373
#     4  10  22  36  56  78 136 174 216 237 298 385
#     4  11  22  42  57  92 120 180 211 249 299 381
#     4  10  22  32  56  95 133 159 200 253 321 380
#
# _framework density 19.846997000000002
#
# number of rings (size 3 to 8) (size 9 to 14) (size 15 to 20)
#    0.000    1.455    3.636    1.636   10.182    0.000 
#    0.000    0.455    0.000    0.000    0.000    1.273 
#    0.000    0.000    0.000    0.000    0.000    0.000 
#
# Total GULP energy -122679.593863 kJ/mol
# GULP energy per Si atom -5576.345176 kJ/mol
# Density = 1.980182 g / cm^3
# Si number density = 19.846997 Si / 1000 Ang^3
#
#
#
# Elastic Constant Matrix: (Units=GPa)
#
#
# Indices 1 2 3 4 5 6 
#
# 1 126.2206 24.1223 29.7604 0.0000 21.4698 0.0000
# 2 24.1223 106.6702 9.4243 0.0000 13.2307 0.0000
# 3 29.7604 9.4243 71.2480 0.0000 16.4736 0.0000
# 4 0.0000 0.0000 0.0000 14.0095 0.0000 2.2161
# 5 21.4698 13.2307 16.4736 0.0000 38.2924 0.0000
# 6 0.0000 0.0000 0.0000 2.2161 0.0000 41.7210
#
#
#
# Elastic Compliance Matrix: (Units=1/GPa)
#
#
# Indices 1 2 3 4 5 6 
#
# 1 0.009501 -0.001446 -0.002955 0.000000 -0.003556 0.000000
# 2 -0.001446 0.010036 -0.000121 0.000000 -0.002604 0.000000
# 3 -0.002955 -0.000121 0.016538 0.000000 -0.005416 0.000000
# 4 0.000000 0.000000 0.000000 0.071985 0.000000 -0.003824
# 5 -0.003556 -0.002604 -0.005416 0.000000 0.031338 0.000000
# 6 0.000000 0.000000 0.000000 -0.003824 0.000000 0.024172
#
#
# Mechanical properties :
#
#
# Convention : Reuss Voigt Hill
#
# Bulk Modulus (GPa) = 36.99678 47.86141 42.42910
# Shear Modulus (GPa) = 27.52936 34.86003 31.19470
#
# Velocity S-wave (km/s) = 3.72839 4.19554 3.96884
# Velocity P-wave (km/s) = 6.10049 6.90200 6.51358
#
# Compressibility (1/GPa) = 0.02702938
#
# Stress axis : x y z
#
# Youngs Moduli (GPa) = 105.25647 99.64622 60.46650
#
# Poissons Ratio (x) = 0.14412 0.17867
# Poissons Ratio (y) = 0.15224 0.00732
# Poissons Ratio (z) = 0.31103 0.01207
#
# Static dielectric constant tensor:
#      x y z
#    x 1.715060 0.000000 -0.012140 
#    y 0.000000 1.828740 0.000000 
#    z -0.012140 0.000000 1.685710 
# 
# From -- ./inp_files/197304.got.cif
#   From: 2010.05.17/outbox.cif.g08.bks.cpg/sg12_99_cif.got.tgz:197304.got - 2010.06.03 13:09:07.
