data_PCOD9212160
_publ_section_title
;
Structure prediction by ZEFSAII (Michael W. Deem and Ramdas Pophale) SiO2 
 PCOD9212160
Probable space group: C 2/M
;
_chemical_formula_sum "Si O2"
_cell_formula_units_Z 36
_cell_length_a 21.992521
_cell_length_b 15.166427
_cell_length_c 7.292400
_cell_angle_alpha 90.000000
_cell_angle_beta 140.943444
_cell_angle_gamma 90.000000
_cell_volume 1532.602153
_symmetry_space_group_name_H-M "C 2/M"
_symmetry_group_IT_number 12
_symmetry_cell_setting 'monoclinic'
loop_
_space_group_symop_operation_xyz
x,y,z
-x,y,-z
-x,-y,-z
x,-y,z
1/2+x,1/2+y,z
1/2-x,1/2+y,-z
1/2-x,1/2-y,-z
1/2+x,1/2-y,z
loop_
_atom_site_type_symbol
_atom_site_label
_atom_site_fract_x
_atom_site_fract_y
_atom_site_fract_z
Si Si1 0.619072 0.500000 0.875906
Si Si2 0.725763 0.000000 0.501208
Si Si3 0.112898 0.680220 0.208408
Si Si4 0.189506 0.199489 0.709542
Si Si5 0.474151 0.668457 0.160048
Si Si6 0.691030 0.500000 0.666092
O O1 0.577142 0.586649 0.869912
O O2 0.389747 0.500000 0.364361
O O3 0.732555 0.500000 0.196403
O O4 0.664083 0.086884 0.317181
O O5 0.816707 0.000000 0.572525
O O6 0.175463 0.739966 0.495960
O O7 0.095317 0.746312 0.997939
O O8 0.000000 0.664157 0.000000
O O9 0.076185 0.187785 0.492527
O O10 0.231007 0.099841 0.787073
O O11 0.250000 0.250000 0.000000
O O12 0.500000 0.651969 0.000000
#
# Coordination Sequence:
#
# PCOD9212160 Si02
#       6
#     4   4   8   8   8   4
#     4  12  24  40  65  96 136 177 210 267 336 388
#     4  12  23  42  68  94 132 175 221 270 326 395
#     4   9  21  41  69  94 122 172 222 272 331 388
#     4  10  21  41  64  94 130 163 213 269 324 388
#     4   9  20  40  66  95 126 169 219 267 326 391
#     4  12  27  38  60 101 132 166 222 267 313 395
#
# _framework density 23.489460999999999
#
# number of rings (size 3 to 8) (size 9 to 14) (size 15 to 20)
#    0.000    2.222    0.000    5.333    0.000    7.111 
#    0.000    3.889    0.000   16.000    0.000    0.000 
#    0.000    0.000    0.000    0.000    0.000    0.000 
#
# Total GULP energy -100399.622734 kJ/mol
# GULP energy per Si atom -5577.756819 kJ/mol
# Density = 2.343600 g / cm^3
# Si number density = 23.489461 Si / 1000 Ang^3
#
#
#
# Elastic Constant Matrix: (Units=GPa)
#
#
# Indices 1 2 3 4 5 6 
#
# 1 78.5719 49.1797 35.1075 0.0000 0.7829 0.0000
# 2 49.1797 249.1360 76.0125 0.0000 -1.6228 0.0000
# 3 35.1075 76.0125 165.6047 0.0000 0.2769 0.0000
# 4 0.0000 0.0000 0.0000 38.4991 0.0000 -14.0078
# 5 0.7829 -1.6228 0.2769 0.0000 23.8715 0.0000
# 6 0.0000 0.0000 0.0000 -14.0078 0.0000 -19.5065
#
#
#
# Elastic Compliance Matrix: (Units=1/GPa)
#
#
# Indices 1 2 3 4 5 6 
#
# 1 0.015155 -0.002344 -0.002136 0.000000 -0.000632 0.000000
# 2 -0.002344 0.005033 -0.001814 0.000000 0.000440 0.000000
# 3 -0.002136 -0.001814 0.007324 0.000000 -0.000138 0.000000
# 4 0.000000 0.000000 0.000000 0.020594 0.000000 -0.014789
# 5 -0.000632 0.000440 -0.000138 0.000000 0.041943 0.000000
# 6 0.000000 0.000000 0.000000 -0.014789 0.000000 -0.040645
#
#
# Mechanical properties :
#
#
# Convention : Reuss Voigt Hill
#
# Bulk Modulus (GPa) = 67.00439 90.43468 78.71954
# Shear Modulus (GPa) = 74.66444 30.77369 52.71907
#
# Velocity S-wave (km/s) = 5.64406 3.62347 4.74262
# Velocity P-wave (km/s) = 8.42977 7.48931 7.97342
#
# Compressibility (1/GPa) = 0.01492440
#
# Stress axis : x y z
#
# Youngs Moduli (GPa) = 65.98477 198.69298 136.53622
#
# Poissons Ratio (x) = 0.46575 0.29161
# Poissons Ratio (y) = 0.15467 0.24766
# Poissons Ratio (z) = 0.14093 0.36041
#
# Static dielectric constant tensor:
#      x y z
#    x 2.022680 0.000000 0.014110 
#    y 0.000000 1.876320 0.000000 
#    z 0.014110 0.000000 1.859280 
# 
# From -- ./inp_files/105123.got.cif
#   From: 2010.05.17/outbox.cif.g08.bks.cpg/sg12_53_cif.got.tgz:105123.got - 2010.06.03 13:09:07.
