data_PCOD9212566
_publ_section_title
;
Structure prediction by ZEFSAII (Michael W. Deem and Ramdas Pophale) SiO2 
 PCOD9212566
Probable space group: C 2/M
;
_chemical_formula_sum "Si O2"
_cell_formula_units_Z 42
_cell_length_a 9.926956
_cell_length_b 15.352577
_cell_length_c 17.057789
_cell_angle_alpha 90.000000
_cell_angle_beta 58.658404
_cell_angle_gamma 90.000000
_cell_volume 2220.339596
_symmetry_space_group_name_H-M "C 2/M"
_symmetry_group_IT_number 12
_symmetry_cell_setting 'monoclinic'
loop_
_space_group_symop_operation_xyz
x,y,z
-x,y,-z
-x,-y,-z
x,-y,z
1/2+x,1/2+y,z
1/2-x,1/2+y,-z
1/2-x,1/2-y,-z
1/2+x,1/2-y,z
loop_
_atom_site_type_symbol
_atom_site_label
_atom_site_fract_x
_atom_site_fract_y
_atom_site_fract_z
Si Si1 0.814877 0.254634 0.067543
Si Si2 0.712902 0.898835 0.797986
Si Si3 0.880349 0.599524 0.812974
Si Si4 0.128368 0.826276 0.404312
Si Si5 0.000000 0.500000 0.500000
Si Si6 0.048337 0.654667 0.604286
O O1 0.756418 0.335020 0.138683
O O2 0.756114 0.167528 0.128025
O O3 0.750000 0.250000 0.000000
O O4 0.000000 0.260828 0.000000
O O5 0.532256 0.884669 0.823184
O O6 0.821519 0.876229 0.690017
O O7 0.730925 0.000000 0.813378
O O8 0.830152 0.500000 0.838451
O O9 0.944493 0.614657 0.706212
O O10 0.287680 0.814066 0.406576
O O11 0.000000 0.870977 0.500000
O O12 0.047903 0.735839 0.401910
O O13 0.927331 0.577558 0.464808
#
# Coordination Sequence:
#
# PCOD9212566 Si02
#       6
#     8   8   8   8   2   8
#     4  12  24  41  69  98 128 168 216 276 332 387
#     4  10  23  43  67  95 132 174 220 264 325 398
#     4  10  21  42  67  94 130 174 212 265 328 391
#     4  11  23  41  69  97 132 176 217 266 325 388
#     4  12  24  40  66 104 124 170 234 254 326 396
#     4  11  23  41  67  94 133 176 218 262 324 393
#
# _framework density 18.916024
#
# number of rings (size 3 to 8) (size 9 to 14) (size 15 to 20)
#    0.000    1.143    5.714    0.571    1.333    1.905 
#    0.000    0.000    0.000    0.000    0.000    0.000 
#    0.000    0.000    0.000    0.000    0.000    0.000 
#
# Total GULP energy -116983.357861 kJ/mol
# GULP energy per Si atom -5570.636089 kJ/mol
# Density = 1.887297 g / cm^3
# Si number density = 18.916024 Si / 1000 Ang^3
#
#
#
# Elastic Constant Matrix: (Units=GPa)
#
#
# Indices 1 2 3 4 5 6 
#
# 1 93.1320 43.7944 44.4217 0.0000 18.9437 0.0000
# 2 43.7944 117.4545 54.4430 0.0000 4.0308 0.0000
# 3 44.4217 54.4430 104.8128 0.0000 0.9154 0.0000
# 4 0.0000 0.0000 0.0000 7.1293 0.0000 1.8271
# 5 18.9437 4.0308 0.9154 0.0000 28.8238 0.0000
# 6 0.0000 0.0000 0.0000 1.8271 0.0000 23.9837
#
#
#
# Elastic Compliance Matrix: (Units=1/GPa)
#
#
# Indices 1 2 3 4 5 6 
#
# 1 0.017086 -0.003549 -0.005306 0.000000 -0.010564 0.000000
# 2 -0.003549 0.012006 -0.004739 0.000000 0.000804 0.000000
# 3 -0.005306 -0.004739 0.014219 0.000000 0.003698 0.000000
# 4 0.000000 0.000000 0.000000 0.143060 0.000000 -0.010899
# 5 -0.010564 0.000804 0.003698 0.000000 0.041407 0.000000
# 6 0.000000 0.000000 0.000000 -0.010899 0.000000 0.042525
#
#
# Mechanical properties :
#
#
# Convention : Reuss Voigt Hill
#
# Bulk Modulus (GPa) = 62.02195 66.74638 64.38416
# Shear Modulus (GPa) = 16.50895 23.50336 20.00615
#
# Velocity S-wave (km/s) = 2.95744 3.52875 3.25565
# Velocity P-wave (km/s) = 6.67242 7.20868 6.94572
#
# Compressibility (1/GPa) = 0.01612332
#
# Stress axis : x y z
#
# Youngs Moduli (GPa) = 58.52810 83.28878 70.32852
#
# Poissons Ratio (x) = 0.29558 0.37314
# Poissons Ratio (y) = 0.20771 0.33332
# Poissons Ratio (z) = 0.31053 0.39474
#
# Static dielectric constant tensor:
#      x y z
#    x 1.632240 0.000000 0.013160 
#    y 0.000000 1.637400 0.000000 
#    z 0.013160 0.000000 1.688910 
# 
# From -- ./inp_files/195856.got.cif
#   From: 2010.05.17/outbox.cif.g08.bks.cpg/sg12_98_cif.got.tgz:195856.got - 2010.06.03 13:09:07.
