data_PCOD9212360
_publ_section_title
;
Structure prediction by ZEFSAII (Michael W. Deem and Ramdas Pophale) SiO2 
 PCOD9212360
Probable space group: C 2/M
;
_chemical_formula_sum "Si O2"
_cell_formula_units_Z 56
_cell_length_a 11.693699
_cell_length_b 14.293781
_cell_length_c 24.922867
_cell_angle_alpha 90.000000
_cell_angle_beta 42.711419
_cell_angle_gamma 90.000000
_cell_volume 2825.678666
_symmetry_space_group_name_H-M "C 2/M"
_symmetry_group_IT_number 12
_symmetry_cell_setting 'monoclinic'
loop_
_space_group_symop_operation_xyz
x,y,z
-x,y,-z
-x,-y,-z
x,-y,z
1/2+x,1/2+y,z
1/2-x,1/2+y,-z
1/2-x,1/2-y,-z
1/2+x,1/2-y,z
loop_
_atom_site_type_symbol
_atom_site_label
_atom_site_fract_x
_atom_site_fract_y
_atom_site_fract_z
Si Si1 0.730097 0.834828 0.867886
Si Si2 0.359847 0.111566 0.501538
Si Si3 0.850185 0.665200 0.988880
Si Si4 0.701963 0.500000 0.983915
Si Si5 0.738775 0.603795 0.263394
Si Si6 0.679915 0.500000 0.864777
Si Si7 0.549911 0.751516 0.626969
Si Si8 0.948773 0.340871 0.772206
O O1 0.717874 0.877590 0.931478
O O2 0.757121 0.890300 0.803278
O O3 0.862493 0.751566 0.825857
O O4 0.539552 0.799000 0.927946
O O5 0.500000 0.115408 0.500000
O O6 0.425287 0.169841 0.427263
O O7 0.197286 0.173011 0.575070
O O8 0.325764 0.000000 0.503011
O O9 0.820177 0.585832 0.956788
O O10 0.750000 0.750000 0.000000
O O11 0.521401 0.500000 0.077973
O O12 0.673219 0.500000 0.931146
O O13 0.674170 0.500000 0.300138
O O14 0.619990 0.690185 0.321458
O O15 0.917319 0.616976 0.232062
O O16 0.795257 0.410818 0.809696
O O17 0.540936 0.805888 0.686490
#
# Coordination Sequence:
#
# PCOD9212360 Si02
#       8
#     8   8   8   4   8   4   8   8
#     4  10  23  36  58  82 117 156 207 257 317 374
#     4  10  21  41  68  94 130 167 203 248 307 363
#     4  11  22  38  58  82 114 156 207 265 318 369
#     4  11  24  37  60  84 118 159 218 262 319 373
#     4  11  22  38  62  87 126 165 204 256 318 367
#     4  11  22  38  58  86 118 160 209 263 315 369
#     4  10  23  40  63  97 127 163 210 253 299 378
#     4  11  22  39  61  88 124 164 207 260 314 374
#
# _framework density 19.818248000000001
#
# number of rings (size 3 to 8) (size 9 to 14) (size 15 to 20)
#    0.000    1.429    0.714    4.714    3.000    4.000 
#    0.000    0.000    0.000    4.714    0.000    0.000 
#    0.000    0.000    0.000    0.000    0.000    0.000 
#
# Total GULP energy -156050.384577 kJ/mol
# GULP energy per Si atom -5573.228021 kJ/mol
# Density = 1.977314 g / cm^3
# Si number density = 19.818248 Si / 1000 Ang^3
#
#
#
# Elastic Constant Matrix: (Units=GPa)
#
#
# Indices 1 2 3 4 5 6 
#
# 1 77.4181 26.8842 26.6562 0.0000 -0.2014 0.0000
# 2 26.8842 107.1537 33.3012 0.0000 8.3188 0.0000
# 3 26.6562 33.3012 101.4550 -0.0001 8.8873 0.0000
# 4 0.0000 0.0000 -0.0001 26.1618 0.0000 -4.4203
# 5 -0.2014 8.3188 8.8873 0.0000 22.6858 0.0000
# 6 0.0000 0.0000 0.0000 -4.4203 0.0000 12.0375
#
#
#
# Elastic Compliance Matrix: (Units=1/GPa)
#
#
# Indices 1 2 3 4 5 6 
#
# 1 0.015058 -0.002977 -0.003196 0.000000 0.002477 0.000000
# 2 -0.002977 0.011127 -0.002600 0.000000 -0.003088 0.000000
# 3 -0.003196 -0.002600 0.011876 0.000000 -0.003728 0.000000
# 4 0.000000 0.000000 0.000000 0.040752 0.000000 0.014964
# 5 0.002477 -0.003088 -0.003728 0.000000 0.046695 0.000000
# 6 0.000000 0.000000 0.000000 0.014964 0.000000 0.088569
#
#
# Mechanical properties :
#
#
# Convention : Reuss Voigt Hill
#
# Bulk Modulus (GPa) = 48.74373 51.07889 49.91131
# Shear Modulus (GPa) = 20.96786 25.45603 23.21195
#
# Velocity S-wave (km/s) = 3.25623 3.58784 3.42605
# Velocity P-wave (km/s) = 6.22785 6.55691 6.39450
#
# Compressibility (1/GPa) = 0.02051546
#
# Stress axis : x y z
#
# Youngs Moduli (GPa) = 66.41194 89.87206 84.20240
#
# Poissons Ratio (x) = 0.26754 0.26912
# Poissons Ratio (y) = 0.19770 0.21889
# Poissons Ratio (z) = 0.21226 0.23363
#
# Static dielectric constant tensor:
#      x y z
#    x 1.692680 0.000000 0.000820 
#    y 0.000000 1.610820 0.000000 
#    z 0.000820 0.000000 1.750410 
# 
# From -- ./inp_files/358208.got.cif
#   From: 2010.05.17/outbox.cif.g08.bks.cpg/sg12_180_cif.got.tgz:358208.got - 2010.06.03 13:09:07.
