data_PCOD9212551
_publ_section_title
;
Structure prediction by ZEFSAII (Michael W. Deem and Ramdas Pophale) SiO2 
 PCOD9212551
Probable space group: C 2/M
;
_chemical_formula_sum "Si O2"
_cell_formula_units_Z 42
_cell_length_a 5.163877
_cell_length_b 14.183485
_cell_length_c 28.091292
_cell_angle_alpha 90.000000
_cell_angle_beta 66.092337
_cell_angle_gamma 90.000000
_cell_volume 1880.925787
_symmetry_space_group_name_H-M "C 2/M"
_symmetry_group_IT_number 12
_symmetry_cell_setting 'monoclinic'
loop_
_space_group_symop_operation_xyz
x,y,z
-x,y,-z
-x,-y,-z
x,-y,z
1/2+x,1/2+y,z
1/2-x,1/2+y,-z
1/2-x,1/2-y,-z
1/2+x,1/2-y,z
loop_
_atom_site_type_symbol
_atom_site_label
_atom_site_fract_x
_atom_site_fract_y
_atom_site_fract_z
Si Si1 0.380078 0.885539 0.682229
Si Si2 0.738793 0.887224 0.744803
Si Si3 0.346200 0.196214 0.144995
Si Si4 0.204878 0.685217 0.565540
Si Si5 0.500000 0.500000 0.500000
Si Si6 0.318972 0.113141 0.967897
O O1 0.503216 0.856491 0.724448
O O2 0.563204 0.841313 0.626662
O O3 0.050766 0.859422 0.703571
O O4 0.400672 0.000000 0.677225
O O5 0.688469 0.854738 0.802095
O O6 0.734252 0.000000 0.745492
O O7 0.538099 0.286500 0.145129
O O8 0.538408 0.146154 0.091307
O O9 0.478740 0.750122 0.554869
O O10 0.285453 0.585528 0.535251
O O11 0.314246 0.000000 0.966977
O O12 0.500000 0.142052 0.000000
O O13 0.000000 0.146320 0.000000
#
# Coordination Sequence:
#
# PCOD9212551 Si02
#       6
#     8   8   8   8   2   8
#     4  10  21  42  66  97 131 174 217 279 333 393
#     4  10  22  40  66  90 129 174 217 260 326 390
#     4  12  25  38  58  90 126 161 203 263 322 375
#     4  12  27  46  75 107 139 189 234 284 353 408
#     4  12  28  54  72 104 156 178 240 298 324 424
#     4  10  22  41  63  84 113 157 208 256 310 386
#
# _framework density 22.329429999999999
#
# number of rings (size 3 to 8) (size 9 to 14) (size 15 to 20)
#    0.000    1.143    0.952    4.571    0.000    8.381 
#    0.000    7.619    0.000    0.000    0.000    0.000 
#    0.000    0.000    0.000    0.000    0.000    0.000 
#
# Total GULP energy -117299.312482 kJ/mol
# GULP energy per Si atom -5585.681547 kJ/mol
# Density = 2.227861 g / cm^3
# Si number density = 22.329430 Si / 1000 Ang^3
#
#
#
# Elastic Constant Matrix: (Units=GPa)
#
#
# Indices 1 2 3 4 5 6 
#
# 1 109.2268 19.6176 9.9713 0.0000 -2.6983 0.0000
# 2 19.6176 138.0242 28.0500 0.0000 -1.0625 0.0000
# 3 9.9713 28.0500 110.2623 0.0000 -9.6361 0.0000
# 4 0.0000 0.0000 0.0000 31.3892 0.0000 4.3544
# 5 -2.6983 -1.0625 -9.6361 0.0000 34.8232 0.0000
# 6 0.0000 0.0000 0.0000 4.3544 0.0000 358.4715
#
#
#
# Elastic Compliance Matrix: (Units=1/GPa)
#
#
# Indices 1 2 3 4 5 6 
#
# 1 0.009436 -0.001237 -0.000490 0.000000 0.000558 0.000000
# 2 -0.001237 0.007806 -0.001908 0.000000 -0.000386 0.000000
# 3 -0.000490 -0.001908 0.009828 0.000000 0.002623 0.000000
# 4 0.000000 0.000000 0.000000 0.031912 0.000000 -0.000388
# 5 0.000558 -0.000386 0.002623 0.000000 0.029474 0.000000
# 6 0.000000 0.000000 0.000000 -0.000388 0.000000 0.002794
#
#
# Mechanical properties :
#
#
# Convention : Reuss Voigt Hill
#
# Bulk Modulus (GPa) = 50.50379 52.53233 51.51806
# Shear Modulus (GPa) = 47.56507 104.92844 76.24675
#
# Velocity S-wave (km/s) = 4.62036 6.86244 5.84982
# Velocity P-wave (km/s) = 7.15055 9.29343 8.29151
#
# Compressibility (1/GPa) = 0.01980050
#
# Stress axis : x y z
#
# Youngs Moduli (GPa) = 105.97731 128.11224 101.74908
#
# Poissons Ratio (x) = 0.15852 0.04984
# Poissons Ratio (y) = 0.13113 0.19409
# Poissons Ratio (z) = 0.05191 0.24437
#
# Static dielectric constant tensor:
#      x y z
#    x 1.804960 0.000000 -0.001540 
#    y 0.000000 1.826070 0.000000 
#    z -0.001540 0.000000 1.780440 
# 
# From -- ./inp_files/330869.got.cif
#   From: 2010.05.17/outbox.cif.g08.bks.cpg/sg12_166_cif.got.tgz:330869.got - 2010.06.03 13:09:07.
