data_PCOD9212867
_publ_section_title
;
Structure prediction by ZEFSAII (Michael W. Deem and Ramdas Pophale) SiO2 
 PCOD9212867
Probable space group: C 2/M
;
_chemical_formula_sum "Si O2"
_cell_formula_units_Z 56
_cell_length_a 17.226719
_cell_length_b 13.808886
_cell_length_c 30.699392
_cell_angle_alpha 90.000000
_cell_angle_beta 154.699707
_cell_angle_gamma 90.000000
_cell_volume 3120.954132
_symmetry_space_group_name_H-M "C 2/M"
_symmetry_group_IT_number 12
_symmetry_cell_setting 'monoclinic'
loop_
_space_group_symop_operation_xyz
x,y,z
-x,y,-z
-x,-y,-z
x,-y,z
1/2+x,1/2+y,z
1/2-x,1/2+y,-z
1/2-x,1/2-y,-z
1/2+x,1/2-y,z
loop_
_atom_site_type_symbol
_atom_site_label
_atom_site_fract_x
_atom_site_fract_y
_atom_site_fract_z
Si Si1 0.843203 0.887042 0.359244
Si Si2 0.517521 0.197749 0.144220
Si Si3 0.578928 0.389713 0.137935
Si Si4 0.886854 0.615119 0.898174
Si Si5 0.254240 0.114303 0.588125
Si Si6 0.768662 0.611136 0.092794
Si Si7 0.878358 0.285864 0.236915
O O1 0.717595 0.825898 0.263971
O O2 0.775527 0.875392 0.374806
O O3 0.057486 0.866129 0.467270
O O4 0.818202 0.000000 0.335327
O O5 0.499057 0.313192 0.131602
O O6 0.504075 0.153655 0.088887
O O7 0.379364 0.149542 0.107458
O O8 0.589901 0.500000 0.158522
O O9 0.767920 0.346777 0.216976
O O10 0.441836 0.386656 0.027277
O O11 0.858096 0.500000 0.880258
O O12 0.700080 0.676982 0.802033
O O13 0.000000 0.634478 0.000000
O O14 0.410551 0.187263 0.652366
O O15 0.300464 0.000000 0.603895
O O16 0.821436 0.500000 0.128026
O O17 0.817148 0.672772 0.159114
#
# Coordination Sequence:
#
# PCOD9212867 Si02
#       7
#     8   8   8   8   8   8   8
#     4   9  17  31  53  82 105 127 168 224 269 303
#     4  11  20  35  57  76 101 137 180 222 258 295
#     4  10  22  34  46  73 112 142 169 204 258 324
#     4  10  22  38  53  73 107 147 183 215 249 303
#     4   9  17  30  53  82 108 129 162 217 276 316
#     4  11  20  32  54  80 102 132 176 223 260 302
#     4  11  19  33  55  78 106 139 168 210 271 320
#
# _framework density 17.94323
#
# number of rings (size 3 to 8) (size 9 to 14) (size 15 to 20)
#    0.000    1.857    1.429    6.000    0.000    1.143 
#    0.000    5.000    0.000    2.571    0.000    2.000 
#    0.000    0.000    0.000    0.000    0.000    0.000 
#
# Total GULP energy -156279.660609 kJ/mol
# GULP energy per Si atom -5581.416450 kJ/mol
# Density = 1.790239 g / cm^3
# Si number density = 17.943230 Si / 1000 Ang^3
#
#
#
# Elastic Constant Matrix: (Units=GPa)
#
#
# Indices 1 2 3 4 5 6 
#
# 1 41.8786 10.2280 -3.8881 -0.0002 4.2418 0.0004
# 2 10.2280 104.5744 20.6759 -0.0002 5.8134 0.0000
# 3 -3.8881 20.6759 61.7705 -0.0006 8.5441 0.0019
# 4 -0.0002 -0.0002 -0.0006 25.9119 0.0000 7.8160
# 5 4.2418 5.8134 8.5441 0.0000 31.0283 0.0002
# 6 0.0004 0.0000 0.0019 7.8160 0.0002 3.6348
#
#
#
# Elastic Compliance Matrix: (Units=1/GPa)
#
#
# Indices 1 2 3 4 5 6 
#
# 1 0.025244 -0.002867 0.003068 0.000005 -0.003759 -0.000014
# 2 -0.002867 0.010597 -0.003646 -0.000002 -0.000590 0.000007
# 3 0.003068 -0.003646 0.018262 0.000010 -0.004765 -0.000031
# 4 0.000005 -0.000002 0.000010 0.109830 -0.000001 -0.236171
# 5 -0.003759 -0.000590 -0.004765 -0.000001 0.034165 0.000003
# 6 -0.000014 0.000007 -0.000031 -0.236171 0.000003 0.782961
#
#
# Mechanical properties :
#
#
# Convention : Reuss Voigt Hill
#
# Bulk Modulus (GPa) = 21.18007 29.13945 25.15976
# Shear Modulus (GPa) = 4.98164 24.19552 14.58858
#
# Velocity S-wave (km/s) = 1.66804 3.67611 2.85448
# Velocity P-wave (km/s) = 3.94200 5.85606 4.99163
#
# Compressibility (1/GPa) = 0.04721421
#
# Stress axis : x y z
#
# Youngs Moduli (GPa) = 39.61293 94.37026 54.75997
#
# Poissons Ratio (x) = 0.27054 -0.16803
# Poissons Ratio (y) = 0.11356 0.19964
# Poissons Ratio (z) = -0.12155 0.34405
#
# Static dielectric constant tensor:
#      x y z
#    x 1.619370 0.000000 0.019440 
#    y 0.000000 1.617080 0.000000 
#    z 0.019440 0.000000 1.628240 
# 
# From -- ./inp_files/361461.got.cif
#   From: 2010.05.17/outbox.cif.g08.bks.cpg/sg12_181_cif.got.tgz:361461.got - 2010.06.03 13:09:07.
