data_PCOD9212997
_publ_section_title
;
Structure prediction by ZEFSAII (Michael W. Deem and Ramdas Pophale) SiO2 
 PCOD9212997
Probable space group: C 2/M
;
_chemical_formula_sum "Si O2"
_cell_formula_units_Z 56
_cell_length_a 27.636494
_cell_length_b 23.890073
_cell_length_c 12.489515
_cell_angle_alpha 90.000000
_cell_angle_beta 20.391300
_cell_angle_gamma 90.000000
_cell_volume 2873.169142
_symmetry_space_group_name_H-M "C 2/M"
_symmetry_group_IT_number 12
_symmetry_cell_setting 'monoclinic'
loop_
_space_group_symop_operation_xyz
x,y,z
-x,y,-z
-x,-y,-z
x,-y,z
1/2+x,1/2+y,z
1/2-x,1/2+y,-z
1/2-x,1/2-y,-z
1/2+x,1/2-y,z
loop_
_atom_site_type_symbol
_atom_site_label
_atom_site_fract_x
_atom_site_fract_y
_atom_site_fract_z
Si Si1 0.174192 0.563705 0.345821
Si Si2 0.348899 0.399554 0.792961
Si Si3 0.642617 0.293724 0.772576
Si Si4 0.524680 0.213785 0.187324
Si Si5 0.087621 0.385169 0.212366
Si Si6 0.878689 0.374593 0.333308
Si Si7 0.119829 0.227328 0.330635
O O1 0.217071 0.500000 0.238992
O O2 0.168720 0.580608 0.480469
O O3 0.017711 0.574124 0.630048
O O4 0.273825 0.602021 0.064866
O O5 0.500000 0.426815 0.500000
O O6 0.379674 0.339488 0.675387
O O7 0.224284 0.417601 0.971439
O O8 0.750000 0.250000 0.500000
O O9 0.735751 0.349653 0.582457
O O10 0.500000 0.298782 0.000000
O O11 0.606262 0.264689 0.962047
O O12 0.605393 0.169390 0.097876
O O13 0.453726 0.176071 0.242993
O O14 0.406836 0.243467 0.502218
O O15 0.000000 0.367822 0.500000
O O16 0.000000 0.393603 0.000000
O O17 0.000000 0.244879 0.500000
O O18 0.250000 0.250000 0.000000
#
# Coordination Sequence:
#
# PCOD9212997 Si02
#       7
#     8   8   8   8   8   8   8
#     4  10  23  44  67  85 111 156 208 262 307 345
#     4  10  22  36  54  91 125 157 198 240 297 359
#     4  12  23  39  57  90 124 166 196 233 302 359
#     4  11  21  33  60  82 127 162 200 236 280 354
#     4   9  19  37  57  86 120 157 208 244 280 347
#     4  11  23  42  61  90 119 151 207 256 302 360
#     4  11  22  32  49  82 123 165 197 228 277 341
#
# _framework density 19.490672
#
# number of rings (size 3 to 8) (size 9 to 14) (size 15 to 20)
#    0.000    1.429    2.857    3.857    8.000    3.143 
#    0.000    0.000    0.000    0.429    0.000    0.000 
#    0.000    0.000    0.000    0.000    0.000    0.000 
#
# Total GULP energy -155972.094658 kJ/mol
# GULP energy per Si atom -5570.431952 kJ/mol
# Density = 1.944631 g / cm^3
# Si number density = 19.490672 Si / 1000 Ang^3
#
#
#
# Elastic Constant Matrix: (Units=GPa)
#
#
# Indices 1 2 3 4 5 6 
#
# 1 86.6849 6.4514 49.7030 0.0014 -12.1396 -0.0006
# 2 6.4514 33.5630 -0.2401 0.0009 0.1131 -0.0004
# 3 49.7030 -0.2401 126.3804 0.0031 -10.5000 -0.0002
# 4 0.0014 0.0009 0.0031 0.9885 -0.0013 -3.5363
# 5 -12.1396 0.1131 -10.5000 -0.0013 47.9382 0.0004
# 6 -0.0006 -0.0004 -0.0002 -3.5363 0.0004 2.0634
#
#
#
# Elastic Compliance Matrix: (Units=1/GPa)
#
#
# Indices 1 2 3 4 5 6 
#
# 1 0.015506 -0.003031 -0.005884 -0.000002 0.002645 -0.000001
# 2 -0.003031 0.030388 0.001202 0.000002 -0.000576 0.000008
# 3 -0.005884 0.001202 0.010292 0.000005 0.000761 0.000008
# 4 -0.000002 0.000002 0.000005 -0.197163 -0.000002 -0.337899
# 5 0.002645 -0.000576 0.000761 -0.000002 0.021698 -0.000007
# 6 -0.000001 0.000008 0.000008 -0.337899 -0.000007 -0.094458
#
#
# Mechanical properties :
#
#
# Convention : Reuss Voigt Hill
#
# Bulk Modulus (GPa) = 24.53446 39.82854 32.18150
# Shear Modulus (GPa) = -27.06765 22.91230 -2.07768
#
# Velocity S-wave (km/s) = -3.73064 3.43235 -1.03359
# Velocity P-wave (km/s) = 2.43757 6.01557 3.88879
#
# Compressibility (1/GPa) = 0.04075900
#
# Stress axis : x y z
#
# Youngs Moduli (GPa) = 64.49154 32.90777 97.15991
#
# Poissons Ratio (x) = 0.09976 0.57171
# Poissons Ratio (y) = 0.19551 -0.11680
# Poissons Ratio (z) = 0.37948 -0.03956
#
# Static dielectric constant tensor:
#      x y z
#    x 1.738010 0.000000 -0.046150 
#    y 0.000000 1.697420 0.000000 
#    z -0.046150 0.000000 1.717970 
# 
# From -- ./inp_files/185133.got.cif
#   From: 2010.05.17/outbox.cif.g08.bks.cpg/sg12_93_cif.got.tgz:185133.got - 2010.06.03 13:09:07.
