data_PCOD9212044
_publ_section_title
;
Structure prediction by ZEFSAII (Michael W. Deem and Ramdas Pophale) SiO2 
 PCOD9212044
Probable space group: C 2/M
;
_chemical_formula_sum "Si O2"
_cell_formula_units_Z 36
_cell_length_a 27.266043
_cell_length_b 13.598580
_cell_length_c 9.398697
_cell_angle_alpha 90.000000
_cell_angle_beta 147.134436
_cell_angle_gamma 90.000000
_cell_volume 1891.119252
_symmetry_space_group_name_H-M "C 2/M"
_symmetry_group_IT_number 12
_symmetry_cell_setting 'monoclinic'
loop_
_space_group_symop_operation_xyz
x,y,z
-x,y,-z
-x,-y,-z
x,-y,z
1/2+x,1/2+y,z
1/2-x,1/2+y,-z
1/2-x,1/2-y,-z
1/2+x,1/2-y,z
loop_
_atom_site_type_symbol
_atom_site_label
_atom_site_fract_x
_atom_site_fract_y
_atom_site_fract_z
Si Si1 0.920500 0.500000 0.420180
Si Si2 0.979790 0.000000 0.205067
Si Si3 0.359624 0.500000 0.627596
Si Si4 0.788603 0.335591 0.696038
Si Si5 0.336468 0.794909 0.134226
Si Si6 0.064195 0.500000 0.021976
Si Si7 0.000000 0.156169 0.500000
O O1 0.860066 0.403322 0.249835
O O2 0.000000 0.500000 0.500000
O O3 0.984639 0.500000 0.712110
O O4 0.970604 0.090349 0.292957
O O5 0.074702 0.000000 0.349395
O O6 0.910858 0.000000 0.904789
O O7 0.295175 0.405997 0.470393
O O8 0.750000 0.250000 0.500000
O O9 0.823381 0.297111 0.932317
O O10 0.868645 0.405256 0.827265
O O11 0.420984 0.724653 0.365398
O O12 0.250000 0.750000 0.000000
O O13 0.000000 0.500000 0.000000
#
# Coordination Sequence:
#
# PCOD9212044 Si02
#       7
#     4   4   4   8   8   4   4
#     4  12  22  48  68  90 135 174 217 278 328 392
#     4  10  22  39  62  87 126 166 200 261 316 377
#     4  10  21  41  61  85 125 167 201 248 325 373
#     4  11  23  42  63  95 132 162 215 269 317 388
#     4  12  25  41  70  98 126 174 220 269 332 390
#     4  11  25  44  68  95 130 177 218 272 333 385
#     4  11  22  41  62  94 128 157 220 263 316 384
#
# _framework density 19.036345000000001
#
# number of rings (size 3 to 8) (size 9 to 14) (size 15 to 20)
#    0.000    0.889    3.333    3.333    3.111    1.778 
#    8.000    0.000    0.000    0.000    0.000    0.000 
#    0.000    0.000    0.000    0.000    0.000    0.000 
#
# Total GULP energy -100460.373050 kJ/mol
# GULP energy per Si atom -5581.131836 kJ/mol
# Density = 1.899302 g / cm^3
# Si number density = 19.036345 Si / 1000 Ang^3
#
#
#
# Elastic Constant Matrix: (Units=GPa)
#
#
# Indices 1 2 3 4 5 6 
#
# 1 112.6139 32.8114 21.2550 0.0000 10.3765 0.0000
# 2 32.8114 137.5110 44.0188 0.0000 10.6458 0.0000
# 3 21.2550 44.0188 82.7840 0.0000 -3.0538 0.0000
# 4 0.0000 0.0000 0.0000 43.8205 0.0000 7.0264
# 5 10.3765 10.6458 -3.0538 0.0000 49.4606 0.0000
# 6 0.0000 0.0000 0.0000 7.0264 0.0000 20.9050
#
#
#
# Elastic Compliance Matrix: (Units=1/GPa)
#
#
# Indices 1 2 3 4 5 6 
#
# 1 0.009855 -0.001662 -0.001713 0.000000 -0.001815 0.000000
# 2 -0.001662 0.009285 -0.004582 0.000000 -0.001933 0.000000
# 3 -0.001713 -0.004582 0.015040 0.000000 0.002274 0.000000
# 4 0.000000 0.000000 0.000000 0.024120 0.000000 -0.008107
# 5 -0.001815 -0.001933 0.002274 0.000000 0.021155 0.000000
# 6 0.000000 0.000000 0.000000 -0.008107 0.000000 0.050560
#
#
# Mechanical properties :
#
#
# Convention : Reuss Voigt Hill
#
# Bulk Modulus (GPa) = 54.74986 58.78658 56.76822
# Shear Modulus (GPa) = 32.89072 38.49213 35.69143
#
# Velocity S-wave (km/s) = 4.16117 4.50158 4.33472
# Velocity P-wave (km/s) = 7.20488 7.61362 7.41207
#
# Compressibility (1/GPa) = 0.01826489
#
# Stress axis : x y z
#
# Youngs Moduli (GPa) = 101.47209 107.69974 66.49125
#
# Poissons Ratio (x) = 0.17905 0.11392
# Poissons Ratio (y) = 0.16870 0.30464
# Poissons Ratio (z) = 0.17385 0.49344
#
# Static dielectric constant tensor:
#      x y z
#    x 1.634890 0.000000 -0.066130 
#    y 0.000000 1.641990 0.000000 
#    z -0.066130 0.000000 1.768070 
# 
# From -- ./inp_files/86474.got.cif
#   From: 2010.05.17/outbox.cif.g08.bks.cpg/sg12_44_cif.got.tgz:86474.got - 2010.06.03 13:09:07.
