data_PCOD9212863
_publ_section_title
;
Structure prediction by ZEFSAII (Michael W. Deem and Ramdas Pophale) SiO2 
 PCOD9212863
Probable space group: C 2/M
;
_chemical_formula_sum "Si O2"
_cell_formula_units_Z 44
_cell_length_a 12.604766
_cell_length_b 21.591138
_cell_length_c 12.621664
_cell_angle_alpha 90.000000
_cell_angle_beta 47.791749
_cell_angle_gamma 90.000000
_cell_volume 2544.332623
_symmetry_space_group_name_H-M "C 2/M"
_symmetry_group_IT_number 12
_symmetry_cell_setting 'monoclinic'
loop_
_space_group_symop_operation_xyz
x,y,z
-x,y,-z
-x,-y,-z
x,-y,z
1/2+x,1/2+y,z
1/2-x,1/2+y,-z
1/2-x,1/2-y,-z
1/2+x,1/2-y,z
loop_
_atom_site_type_symbol
_atom_site_label
_atom_site_fract_x
_atom_site_fract_y
_atom_site_fract_z
Si Si1 0.462207 0.170157 0.690143
Si Si2 0.500000 0.802291 0.000000
Si Si3 0.719928 0.868619 0.385606
Si Si4 0.814379 0.000000 0.236276
Si Si5 0.222352 0.369261 0.988124
Si Si6 0.003568 0.786494 0.797372
Si Si7 0.656577 0.500000 0.036022
O O1 0.357305 0.165577 0.660693
O O2 0.610657 0.138427 0.556165
O O3 0.489285 0.240310 0.708162
O O4 0.384329 0.137511 0.840703
O O5 0.367790 0.845251 0.052043
O O6 0.466341 0.757273 0.121378
O O7 0.870295 0.835285 0.303694
O O8 0.745058 0.938727 0.332066
O O9 0.799493 0.000000 0.118353
O O10 0.983844 0.000000 0.149046
O O11 0.355059 0.322457 0.915718
O O12 0.283687 0.438435 0.948182
#
# Coordination Sequence:
#
# PCOD9212863 Si02
#       7
#     8   4   8   4   8   8   4
#     4  10  22  34  53  86 116 142 181 231 286 329
#     4  10  22  33  58  83 110 144 190 238 282 312
#     4  11  21  36  56  83 115 148 182 225 287 338
#     4  11  22  36  59  85 114 147 188 237 279 339
#     4  11  21  38  57  84 112 148 191 233 276 332
#     4  11  20  37  58  82 114 148 187 230 276 340
#     4  11  22  36  60  84 111 149 194 233 277 333
#
# _framework density 17.293337000000001
#
# number of rings (size 3 to 8) (size 9 to 14) (size 15 to 20)
#    0.000    1.273    3.636    4.909    0.000    2.545 
#    0.000    0.000    0.000    0.000    0.000    5.091 
#    0.000    0.000    0.000    0.000    0.000    0.000 
#
# Total GULP energy -122825.390240 kJ/mol
# GULP energy per Si atom -5582.972284 kJ/mol
# Density = 1.725398 g / cm^3
# Si number density = 17.293337 Si / 1000 Ang^3
#
#
#
# Elastic Constant Matrix: (Units=GPa)
#
#
# Indices 1 2 3 4 5 6 
#
# 1 99.2810 61.5282 44.9693 0.0000 -14.7613 0.0000
# 2 61.5282 139.3148 55.0657 0.0000 -3.0072 0.0000
# 3 44.9693 55.0657 110.0928 0.0000 -10.6627 0.0000
# 4 0.0000 0.0000 0.0000 47.6223 0.0000 -26.0446
# 5 -14.7613 -3.0072 -10.6627 0.0000 15.6352 0.0000
# 6 0.0000 0.0000 0.0000 -26.0446 0.0000 47.8232
#
#
#
# Elastic Compliance Matrix: (Units=1/GPa)
#
#
# Indices 1 2 3 4 5 6 
#
# 1 0.017055 -0.006230 -0.002577 0.000000 0.013146 0.000000
# 2 -0.006230 0.011252 -0.003687 0.000000 -0.006232 0.000000
# 3 -0.002577 -0.003687 0.012501 0.000000 0.005383 0.000000
# 4 0.000000 0.000000 0.000000 0.029906 0.000000 0.016287
# 5 0.013146 -0.006232 0.005383 0.000000 0.078842 0.000000
# 6 0.000000 0.000000 0.000000 0.016287 0.000000 0.029780
#
#
# Mechanical properties :
#
#
# Convention : Reuss Voigt Hill
#
# Bulk Modulus (GPa) = 63.20820 74.64612 68.92716
# Shear Modulus (GPa) = 23.85504 34.69115 29.27309
#
# Velocity S-wave (km/s) = 3.71810 4.48374 4.11875
# Velocity P-wave (km/s) = 7.42040 8.37040 7.90968
#
# Compressibility (1/GPa) = 0.01582073
#
# Stress axis : x y z
#
# Youngs Moduli (GPa) = 58.63255 88.87109 79.99077
#
# Poissons Ratio (x) = 0.55367 0.20615
# Poissons Ratio (y) = 0.36528 0.29492
# Poissons Ratio (z) = 0.15111 0.32766
#
# Static dielectric constant tensor:
#      x y z
#    x 1.587840 0.000000 -0.002300 
#    y 0.000000 1.570000 0.000000 
#    z -0.002300 0.000000 1.586180 
# 
# From -- ./inp_files/79216.got.cif
#   From: 2010.05.17/outbox.cif.g08.bks.cpg/sg12_40_cif.got.tgz:79216.got - 2010.06.03 13:09:07.
