data_PCOD9212462
_publ_section_title
;
Structure prediction by ZEFSAII (Michael W. Deem and Ramdas Pophale) SiO2 
 PCOD9212462
Probable space group: C 2/M
;
_chemical_formula_sum "Si O2"
_cell_formula_units_Z 50
_cell_length_a 14.841906
_cell_length_b 24.530936
_cell_length_c 11.174000
_cell_angle_alpha 90.000000
_cell_angle_beta 139.663759
_cell_angle_gamma 90.000000
_cell_volume 2633.293831
_symmetry_space_group_name_H-M "C 2/M"
_symmetry_group_IT_number 12
_symmetry_cell_setting 'monoclinic'
loop_
_space_group_symop_operation_xyz
x,y,z
-x,y,-z
-x,-y,-z
x,-y,z
1/2+x,1/2+y,z
1/2-x,1/2+y,-z
1/2-x,1/2-y,-z
1/2+x,1/2-y,z
loop_
_atom_site_type_symbol
_atom_site_label
_atom_site_fract_x
_atom_site_fract_y
_atom_site_fract_z
Si Si1 0.690314 0.596417 0.298268
Si Si2 0.167358 0.300713 0.674846
Si Si3 0.390324 0.562172 0.039967
Si Si4 0.163848 0.307532 0.173481
Si Si5 0.000000 0.500000 0.000000
Si Si6 0.180038 0.639305 0.934221
Si Si7 0.886901 0.406534 0.704094
O O1 0.763979 0.653180 0.339472
O O2 0.529265 0.598485 0.173901
O O3 0.778941 0.572389 0.496277
O O4 0.681847 0.564247 0.164096
O O5 0.237467 0.244013 0.709205
O O6 0.203222 0.319684 0.846954
O O7 0.000000 0.298989 0.500000
O O8 0.427661 0.500000 0.105082
O O9 0.283708 0.588732 0.023332
O O10 0.173775 0.354831 0.283239
O O11 0.200512 0.332619 0.081843
O O12 0.000000 0.291268 0.000000
O O13 0.064919 0.452090 0.154038
O O14 0.023917 0.615871 0.775189
#
# Coordination Sequence:
#
# PCOD9212462 Si02
#       7
#     8   8   8   8   2   8   8
#     4  10  22  41  61  93 129 155 210 258 313 383
#     4  11  22  38  64  92 123 161 203 259 317 367
#     4  10  23  39  62  91 125 165 204 261 324 364
#     4  10  23  41  60  89 127 165 206 252 308 384
#     4  12  24  40  72  86 128 178 200 268 304 366
#     4  10  21  42  59  91 126 157 214 255 301 377
#     4  11  23  42  65  92 123 164 217 252 309 368
#
# _framework density 18.987627
#
# number of rings (size 3 to 8) (size 9 to 14) (size 15 to 20)
#    0.000    1.600    4.000    1.440    7.840    1.920 
#    0.000    0.800    0.000    1.920    0.000    0.000 
#    0.000    0.000    0.000    0.000    0.000    0.000 
#
# Total GULP energy -139254.299679 kJ/mol
# GULP energy per Si atom -5570.171987 kJ/mol
# Density = 1.894441 g / cm^3
# Si number density = 18.987627 Si / 1000 Ang^3
#
#
#
# Elastic Constant Matrix: (Units=GPa)
#
#
# Indices 1 2 3 4 5 6 
#
# 1 96.7209 53.8583 40.8417 0.0000 2.7808 0.0000
# 2 53.8583 107.9925 44.1953 0.0000 19.2240 0.0000
# 3 40.8417 44.1953 91.5276 0.0000 -0.7149 0.0000
# 4 0.0000 0.0000 0.0000 -1.4203 0.0000 -5.6097
# 5 2.7808 19.2240 -0.7149 0.0000 16.5098 0.0000
# 6 0.0000 0.0000 0.0000 -5.6097 0.0000 -5.1979
#
#
#
# Elastic Compliance Matrix: (Units=1/GPa)
#
#
# Indices 1 2 3 4 5 6 
#
# 1 0.015800 -0.007586 -0.003341 0.000000 0.006027 0.000000
# 2 -0.007586 0.019403 -0.006152 0.000000 -0.021581 0.000000
# 3 -0.003341 -0.006152 0.015453 0.000000 0.008396 0.000000
# 4 0.000000 0.000000 0.000000 0.215812 0.000000 -0.232906
# 5 0.006027 -0.021581 0.008396 0.000000 0.085048 0.000000
# 6 0.000000 0.000000 0.000000 -0.232906 0.000000 0.058971
#
#
# Mechanical properties :
#
#
# Convention : Reuss Voigt Hill
#
# Bulk Modulus (GPa) = 60.61265 63.78129 62.19697
# Shear Modulus (GPa) = 11.10758 12.46801 11.78780
#
# Velocity S-wave (km/s) = 2.42128 2.56528 2.49432
# Velocity P-wave (km/s) = 6.30938 6.51445 6.41274
#
# Compressibility (1/GPa) = 0.01649821
#
# Stress axis : x y z
#
# Youngs Moduli (GPa) = 63.28938 51.53923 64.71380
#
# Poissons Ratio (x) = 0.39097 0.21618
# Poissons Ratio (y) = 0.48010 0.39815
# Poissons Ratio (z) = 0.21142 0.31709
#
# Static dielectric constant tensor:
#      x y z
#    x 1.649640 0.000000 0.000260 
#    y 0.000000 1.656240 0.000000 
#    z 0.000260 0.000000 1.666850 
# 
# From -- ./inp_files/148936.got.cif
#   From: 2010.05.17/outbox.cif.g08.bks.cpg/sg12_75_cif.got.tgz:148936.got - 2010.06.03 13:09:07.
