data_PCOD9212370
_publ_section_title
;
Structure prediction by ZEFSAII (Michael W. Deem and Ramdas Pophale) SiO2 
 PCOD9212370
Probable space group: C 2/M
;
_chemical_formula_sum "Si O2"
_cell_formula_units_Z 40
_cell_length_a 14.380178
_cell_length_b 16.282914
_cell_length_c 13.900441
_cell_angle_alpha 90.000000
_cell_angle_beta 149.347078
_cell_angle_gamma 90.000000
_cell_volume 1659.417506
_symmetry_space_group_name_H-M "C 2/M"
_symmetry_group_IT_number 12
_symmetry_cell_setting 'monoclinic'
loop_
_space_group_symop_operation_xyz
x,y,z
-x,y,-z
-x,-y,-z
x,-y,z
1/2+x,1/2+y,z
1/2-x,1/2+y,-z
1/2-x,1/2-y,-z
1/2+x,1/2-y,z
loop_
_atom_site_type_symbol
_atom_site_label
_atom_site_fract_x
_atom_site_fract_y
_atom_site_fract_z
Si Si1 0.101499 0.401481 0.185614
Si Si2 0.669436 0.151437 0.536525
Si Si3 0.754188 0.400692 0.984284
Si Si4 0.578709 0.661078 0.418862
Si Si5 0.727216 0.094028 0.790286
O O1 0.104071 0.500000 0.184229
O O2 0.305078 0.373782 0.389171
O O3 0.000000 0.371372 0.000000
O O4 0.961679 0.375553 0.145680
O O5 0.593196 0.241783 0.445796
O O6 0.810126 0.131741 0.577461
O O7 0.759162 0.145700 0.722414
O O8 0.491803 0.094331 0.386303
O O9 0.746579 0.500000 0.976800
O O10 0.623649 0.367799 0.784620
O O11 0.697241 0.373620 0.040714
O O12 0.785985 0.000000 0.826703
#
# Coordination Sequence:
#
# PCOD9212370 Si02
#       5
#     8   8   8   8   8
#     4  10  22  41  63  90 124 166 214 260 312 373
#     4  10  22  39  59  96 127 170 208 250 325 383
#     4  10  22  40  68  97 122 165 215 266 322 373
#     4  11  23  41  60  93 132 165 210 257 316 385
#     4  10  21  41  68  96 127 167 215 267 321 376
#
# _framework density 24.104844
#
# number of rings (size 3 to 8) (size 9 to 14) (size 15 to 20)
#    0.000    1.800    2.000    1.800    0.000    8.000 
#    7.200    5.000    0.000    0.000    0.000    0.000 
#    0.000    0.000    0.000    0.000    0.000    0.000 
#
# Total GULP energy -111824.503903 kJ/mol
# GULP energy per Si atom -5591.225195 kJ/mol
# Density = 2.404998 g / cm^3
# Si number density = 24.104844 Si / 1000 Ang^3
#
#
#
# Elastic Constant Matrix: (Units=GPa)
#
#
# Indices 1 2 3 4 5 6 
#
# 1 82.6892 17.5895 27.0843 0.0002 -22.0086 0.0000
# 2 17.5895 21.8570 14.9808 0.0000 -4.7645 0.0000
# 3 27.0843 14.9808 150.8146 0.0002 -19.1951 0.0000
# 4 0.0002 0.0000 0.0002 -1.1037 0.0000 -11.1188
# 5 -22.0086 -4.7645 -19.1951 0.0000 51.2445 0.0000
# 6 0.0000 0.0000 0.0000 -11.1188 0.0000 15.8266
#
#
#
# Elastic Compliance Matrix: (Units=1/GPa)
#
#
# Indices 1 2 3 4 5 6 
#
# 1 0.016307 -0.011150 -0.001115 0.000000 0.005550 0.000000
# 2 -0.011150 0.057125 -0.003786 -0.000001 -0.000896 0.000000
# 3 -0.001115 -0.003786 0.007457 0.000000 0.001962 0.000000
# 4 0.000000 -0.000001 0.000000 -0.112169 0.000000 -0.078804
# 5 0.005550 -0.000896 0.001962 0.000000 0.022550 0.000000
# 6 0.000000 0.000000 0.000000 -0.078804 0.000000 0.007822
#
#
# Mechanical properties :
#
#
# Convention : Reuss Voigt Hill
#
# Bulk Modulus (GPa) = 20.49694 41.62999 31.06347
# Shear Modulus (GPa) = 105.36389 26.24055 65.80222
#
# Velocity S-wave (km/s) = 6.61858 3.30297 5.23045
# Velocity P-wave (km/s) = 8.18102 5.64394 7.02792
#
# Compressibility (1/GPa) = 0.04878776
#
# Stress axis : x y z
#
# Youngs Moduli (GPa) = 61.32168 17.50561 134.10797
#
# Poissons Ratio (x) = 0.19518 0.14950
# Poissons Ratio (y) = 0.68372 0.50773
# Poissons Ratio (z) = 0.06836 0.06628
#
# Static dielectric constant tensor:
#      x y z
#    x 1.980140 0.000000 -0.038970 
#    y 0.000000 1.852340 0.000000 
#    z -0.038970 0.000000 1.940570 
# 
# From -- ./inp_files/216944.got.cif
#   From: 2010.05.17/outbox.cif.g08.bks.cpg/sg12_109_cif.got.tgz:216944.got - 2010.06.03 13:09:07.
