data_PCOD9212667
_publ_section_title
;
Structure prediction by ZEFSAII (Michael W. Deem and Ramdas Pophale) SiO2 
 PCOD9212667
Probable space group: C 2/M
;
_chemical_formula_sum "Si O2"
_cell_formula_units_Z 52
_cell_length_a 8.939638
_cell_length_b 27.738671
_cell_length_c 15.012130
_cell_angle_alpha 90.000000
_cell_angle_beta 39.409924
_cell_angle_gamma 90.000000
_cell_volume 2363.354319
_symmetry_space_group_name_H-M "C 2/M"
_symmetry_group_IT_number 12
_symmetry_cell_setting 'monoclinic'
loop_
_space_group_symop_operation_xyz
x,y,z
-x,y,-z
-x,-y,-z
x,-y,z
1/2+x,1/2+y,z
1/2-x,1/2+y,-z
1/2-x,1/2-y,-z
1/2+x,1/2-y,z
loop_
_atom_site_type_symbol
_atom_site_label
_atom_site_fract_x
_atom_site_fract_y
_atom_site_fract_z
Si Si1 0.225435 0.591957 0.446113
Si Si2 0.127178 0.796032 0.856875
Si Si3 0.410161 0.652852 0.809638
Si Si4 0.220984 0.946798 0.296160
Si Si5 0.667604 0.289999 0.336387
Si Si6 0.000000 0.582306 0.000000
Si Si7 0.481220 0.861439 0.287069
O O1 0.356727 0.620976 0.308184
O O2 0.447804 0.565023 0.393592
O O3 0.000000 0.566943 0.500000
O O4 0.121409 0.628760 0.567333
O O5 0.307246 0.761204 0.722588
O O6 0.244836 0.847291 0.830508
O O7 0.936612 0.805906 0.868675
O O8 0.000000 0.773325 0.000000
O O9 0.383898 0.673929 0.722110
O O10 0.203325 0.618499 0.937814
O O11 0.373575 0.946761 0.135537
O O12 0.356678 0.905985 0.291467
O O13 0.230489 0.000000 0.333123
O O14 0.500000 0.288473 0.500000
O O15 0.896490 0.313489 0.275106
#
# Coordination Sequence:
#
# PCOD9212667 Si02
#       7
#     8   8   8   8   8   4   8
#     4  11  22  42  70 100 131 179 222 281 352 414
#     4  12  29  41  64 100 139 187 238 288 350 409
#     4  11  23  43  68  94 138 181 232 286 348 407
#     4  11  24  43  72 103 136 176 229 286 350 421
#     4  12  25  42  67 101 137 184 237 291 347 414
#     4  10  21  42  74  92 130 184 226 276 341 412
#     4  12  23  44  69  96 140 177 229 286 356 410
#
# _framework density 22.002624999999998
#
# number of rings (size 3 to 8) (size 9 to 14) (size 15 to 20)
#    0.000    0.615    6.154    2.538    3.231    4.000 
#    0.000    0.000    0.000    1.385    0.000    0.000 
#    0.000    0.000    0.000    0.000    0.000    0.000 
#
# Total GULP energy -144822.324748 kJ/mol
# GULP energy per Si atom -5570.089413 kJ/mol
# Density = 2.195255 g / cm^3
# Si number density = 22.002625 Si / 1000 Ang^3
#
#
#
# Elastic Constant Matrix: (Units=GPa)
#
#
# Indices 1 2 3 4 5 6 
#
# 1 97.4898 31.9094 24.6889 0.0000 -7.2127 0.0000
# 2 31.9094 80.6640 4.1677 0.0000 -10.3968 0.0000
# 3 24.6889 4.1677 99.2741 0.0000 -8.2814 0.0000
# 4 0.0000 0.0000 0.0000 -21.4061 0.0000 -8.2150
# 5 -7.2127 -10.3968 -8.2814 0.0000 17.7640 0.0000
# 6 0.0000 0.0000 0.0000 -8.2150 0.0000 14.7455
#
#
#
# Elastic Compliance Matrix: (Units=1/GPa)
#
#
# Indices 1 2 3 4 5 6 
#
# 1 0.012594 -0.004702 -0.002848 0.000000 0.001034 0.000000
# 2 -0.004702 0.015165 0.001159 0.000000 0.007507 0.000000
# 3 -0.002848 0.001159 0.011126 0.000000 0.004708 0.000000
# 4 0.000000 0.000000 0.000000 -0.038487 0.000000 -0.021442
# 5 0.001034 0.007507 0.004708 0.000000 0.063302 0.000000
# 6 0.000000 0.000000 0.000000 -0.021442 0.000000 0.055872
#
#
# Mechanical properties :
#
#
# Convention : Reuss Voigt Hill
#
# Bulk Modulus (GPa) = 38.31125 44.32887 41.32006
# Shear Modulus (GPa) = 35.44727 16.66480 26.05603
#
# Velocity S-wave (km/s) = 4.01814 2.75508 3.44499
# Velocity P-wave (km/s) = 6.24317 5.50558 5.88594
#
# Compressibility (1/GPa) = 0.02610199
#
# Stress axis : x y z
#
# Youngs Moduli (GPa) = 79.40137 65.94273 89.88248
#
# Poissons Ratio (x) = 0.31004 0.25603
# Poissons Ratio (y) = 0.37332 -0.10416
# Poissons Ratio (z) = 0.22617 -0.07642
#
# Static dielectric constant tensor:
#      x y z
#    x 1.875110 0.000000 -0.075210 
#    y 0.000000 1.823110 0.000000 
#    z -0.075210 0.000000 1.907380 
# 
# From -- ./inp_files/201169.got.cif
#   From: 2010.05.17/outbox.cif.g08.bks.cpg/sg12_101_cif.got.tgz:201169.got - 2010.06.03 13:09:07.
