data_PCOD9212823
_publ_section_title
;
Structure prediction by ZEFSAII (Michael W. Deem and Ramdas Pophale) SiO2 
 PCOD9212823
Probable space group: C 2/M
;
_chemical_formula_sum "Si O2"
_cell_formula_units_Z 44
_cell_length_a 15.665318
_cell_length_b 24.724584
_cell_length_c 8.978921
_cell_angle_alpha 90.000000
_cell_angle_beta 145.384684
_cell_angle_gamma 90.000000
_cell_volume 1975.556450
_symmetry_space_group_name_H-M "C 2/M"
_symmetry_group_IT_number 12
_symmetry_cell_setting 'monoclinic'
loop_
_space_group_symop_operation_xyz
x,y,z
-x,y,-z
-x,-y,-z
x,-y,z
1/2+x,1/2+y,z
1/2-x,1/2+y,-z
1/2-x,1/2-y,-z
1/2+x,1/2-y,z
loop_
_atom_site_type_symbol
_atom_site_label
_atom_site_fract_x
_atom_site_fract_y
_atom_site_fract_z
Si Si1 0.325391 0.907150 0.427433
Si Si2 0.276431 0.666241 0.154404
Si Si3 0.000000 0.900566 0.000000
Si Si4 0.455600 0.809757 0.770633
Si Si5 0.158039 0.437439 0.893216
Si Si6 0.468366 0.309642 0.707720
O O1 0.333552 0.847155 0.512850
O O2 0.485512 0.933153 0.705092
O O3 0.335629 0.911987 0.263690
O O4 0.161182 0.930376 0.231470
O O5 0.384090 0.691355 0.185315
O O6 0.333614 0.683405 0.397654
O O7 0.270761 0.600971 0.144117
O O8 0.105301 0.683029 0.886263
O O9 0.995445 0.860505 0.852087
O O10 0.432353 0.745756 0.740686
O O11 0.500000 0.829429 0.000000
O O12 0.199142 0.500000 0.945281
#
# Coordination Sequence:
#
# PCOD9212823 Si02
#       6
#     8   8   4   8   8   8
#     4  10  22  37  64  96 123 164 211 257 311 378
#     4  10  23  40  62  95 124 166 222 267 302 378
#     4  12  22  38  63  92 146 162 205 260 314 374
#     4  11  23  38  61  93 134 178 210 248 307 379
#     4  10  21  45  71  88 117 166 218 270 328 378
#     4  11  23  38  62  93 137 173 208 251 317 372
#
# _framework density 22.272207000000002
#
# number of rings (size 3 to 8) (size 9 to 14) (size 15 to 20)
#    0.000    1.455    2.727    2.727    2.545    7.273 
#    0.000    3.636    0.000   27.818    0.000    0.000 
#    0.000    0.000    0.000    0.000    0.000    0.000 
#
# Total GULP energy -122774.355793 kJ/mol
# GULP energy per Si atom -5580.652536 kJ/mol
# Density = 2.222151 g / cm^3
# Si number density = 22.272207 Si / 1000 Ang^3
#
#
#
# Elastic Constant Matrix: (Units=GPa)
#
#
# Indices 1 2 3 4 5 6 
#
# 1 71.3203 10.8318 24.5979 0.0000 16.5825 0.0000
# 2 10.8318 101.3663 11.8226 0.0000 -8.2398 0.0000
# 3 24.5979 11.8226 48.2106 0.0000 20.1313 0.0000
# 4 0.0000 0.0000 0.0000 4.6735 0.0000 13.0707
# 5 16.5825 -8.2398 20.1313 0.0000 44.4372 0.0000
# 6 0.0000 0.0000 0.0000 13.0707 0.0000 -6.3509
#
#
#
# Elastic Compliance Matrix: (Units=1/GPa)
#
#
# Indices 1 2 3 4 5 6 
#
# 1 0.017505 -0.001329 -0.007122 0.000000 -0.003552 0.000000
# 2 -0.001329 0.010779 -0.003709 0.000000 0.004175 0.000000
# 3 -0.007122 -0.003709 0.030170 0.000000 -0.011698 0.000000
# 4 0.000000 0.000000 0.000000 0.031672 0.000000 0.065183
# 5 -0.003552 0.004175 -0.011698 0.000000 0.029903 0.000000
# 6 0.000000 0.000000 0.000000 0.065183 0.000000 -0.023306
#
#
# Mechanical properties :
#
#
# Convention : Reuss Voigt Hill
#
# Bulk Modulus (GPa) = 29.29504 35.04463 32.16983
# Shear Modulus (GPa) = 37.75838 20.12828 28.94333
#
# Velocity S-wave (km/s) = 4.12189 3.00949 3.60881
# Velocity P-wave (km/s) = 5.98623 5.27682 5.64269
#
# Compressibility (1/GPa) = 0.03413547
#
# Stress axis : x y z
#
# Youngs Moduli (GPa) = 57.12510 92.77232 33.14498
#
# Poissons Ratio (x) = 0.12326 0.23607
# Poissons Ratio (y) = 0.07590 0.12292
# Poissons Ratio (z) = 0.40687 0.34406
#
# Static dielectric constant tensor:
#      x y z
#    x 1.849680 0.000000 0.051130 
#    y 0.000000 1.839540 0.000000 
#    z 0.051130 0.000000 1.837790 
# 
# From -- ./inp_files/67171.got.cif
#   From: 2010.05.17/outbox.cif.g08.bks.cpg/sg12_34_cif.got.tgz:67171.got - 2010.06.03 13:09:07.
