data_PCOD9212772
_publ_section_title
;
Structure prediction by ZEFSAII (Michael W. Deem and Ramdas Pophale) SiO2 
 PCOD9212772
Probable space group: C 2/M
;
_chemical_formula_sum "Si O2"
_cell_formula_units_Z 52
_cell_length_a 9.202283
_cell_length_b 18.069447
_cell_length_c 19.171720
_cell_angle_alpha 90.000000
_cell_angle_beta 46.804036
_cell_angle_gamma 90.000000
_cell_volume 2324.015864
_symmetry_space_group_name_H-M "C 2/M"
_symmetry_group_IT_number 12
_symmetry_cell_setting 'monoclinic'
loop_
_space_group_symop_operation_xyz
x,y,z
-x,y,-z
-x,-y,-z
x,-y,z
1/2+x,1/2+y,z
1/2-x,1/2+y,-z
1/2-x,1/2-y,-z
1/2+x,1/2-y,z
loop_
_atom_site_type_symbol
_atom_site_label
_atom_site_fract_x
_atom_site_fract_y
_atom_site_fract_z
Si Si1 0.000000 0.207679 0.500000
Si Si2 0.437182 0.377255 0.219171
Si Si3 0.229259 0.387095 0.145913
Si Si4 0.807981 0.413501 0.354943
Si Si5 0.219567 0.000000 0.154865
Si Si6 0.713893 0.770259 0.932773
Si Si7 0.514656 0.145611 0.421327
Si Si8 0.676483 0.000000 0.044239
O O1 0.858978 0.150614 0.589203
O O2 0.059964 0.270597 0.538171
O O3 0.354272 0.411454 0.173172
O O4 0.574915 0.432099 0.217877
O O5 0.592697 0.313540 0.152897
O O6 0.242589 0.349734 0.322442
O O7 0.295152 0.303434 0.110326
O O8 0.252734 0.431436 0.066007
O O9 0.995903 0.395482 0.242954
O O10 0.748050 0.500000 0.364927
O O11 0.897507 0.400096 0.402577
O O12 0.434416 0.000000 0.120167
O O13 0.257663 0.000000 0.057953
O O14 0.500000 0.811444 0.000000
O O15 0.750000 0.750000 0.000000
O O16 0.500000 0.105991 0.500000
#
# Coordination Sequence:
#
# PCOD9212772 Si02
#       8
#     4   8   8   8   4   8   8   4
#     4  10  21  44  65  98 136 182 222 286 361 402
#     4  11  24  45  68 100 133 184 231 284 340 419
#     4  11  24  44  68  94 139 184 227 274 352 414
#     4  11  22  42  69 101 137 176 234 290 339 424
#     4  11  27  41  70  98 139 172 228 292 346 401
#     4  12  25  42  65 101 134 178 232 285 340 410
#     4   9  23  43  69  96 134 185 225 283 352 415
#     4  11  25  45  65  99 136 181 221 283 348 417
#
# _framework density 22.375063000000001
#
# number of rings (size 3 to 8) (size 9 to 14) (size 15 to 20)
#    0.462    0.769    2.308    3.000    7.538    0.923 
#    2.769    0.000    0.000    0.000    0.000    0.000 
#    0.000    0.000    0.000    0.000    0.000    0.000 
#
# Total GULP energy -145038.201409 kJ/mol
# GULP energy per Si atom -5578.392362 kJ/mol
# Density = 2.232414 g / cm^3
# Si number density = 22.375063 Si / 1000 Ang^3
#
#
#
# Elastic Constant Matrix: (Units=GPa)
#
#
# Indices 1 2 3 4 5 6 
#
# 1 71.5908 0.4890 23.4332 0.0003 -15.6875 0.0000
# 2 0.4890 74.8581 3.0366 0.0002 -1.9481 0.0000
# 3 23.4332 3.0366 58.5113 0.0005 8.5087 0.0002
# 4 0.0003 0.0002 0.0005 7.5331 -0.0003 -17.4849
# 5 -15.6875 -1.9481 8.5087 -0.0003 28.7541 -0.0001
# 6 0.0000 0.0000 0.0002 -17.4849 -0.0001 29.2914
#
#
#
# Elastic Compliance Matrix: (Units=1/GPa)
#
#
# Indices 1 2 3 4 5 6 
#
# 1 0.020459 0.000655 -0.010300 -0.000002 0.014254 -0.000001
# 2 0.000655 0.013445 -0.001196 0.000000 0.001622 0.000000
# 3 -0.010300 -0.001196 0.023101 0.000006 -0.012537 0.000003
# 4 -0.000002 0.000000 0.000006 -0.344334 -0.000007 -0.205543
# 5 0.014254 0.001622 -0.012537 -0.000007 0.046374 -0.000004
# 6 -0.000001 0.000000 0.000003 -0.205543 -0.000004 -0.088554
#
#
# Mechanical properties :
#
#
# Convention : Reuss Voigt Hill
#
# Bulk Modulus (GPa) = 28.31073 28.76421 28.53747
# Shear Modulus (GPa) = -16.88889 24.98248 4.04680
#
# Velocity S-wave (km/s) = -2.75036 3.34508 1.34631
# Velocity P-wave (km/s) = 1.61069 5.27284 3.89853
#
# Compressibility (1/GPa) = 0.03532230
#
# Stress axis : x y z
#
# Youngs Moduli (GPa) = 48.87877 74.37678 43.28810
#
# Poissons Ratio (x) = -0.04873 0.44588
# Poissons Ratio (y) = -0.03202 0.05177
# Poissons Ratio (z) = 0.50347 0.08896
#
# Static dielectric constant tensor:
#      x y z
#    x 1.877740 0.000000 -0.050390 
#    y 0.000000 1.742470 0.000000 
#    z -0.050390 0.000000 1.873570 
# 
# From -- ./inp_files/301096.got.cif
#   From: 2010.05.17/outbox.cif.g08.bks.cpg/sg12_151_cif.got.tgz:301096.got - 2010.06.03 13:09:07.
