data_PCOD9212717
_publ_section_title
;
Structure prediction by ZEFSAII (Michael W. Deem and Ramdas Pophale) SiO2 
 PCOD9212717
Probable space group: C 2/M
;
_chemical_formula_sum "Si O2"
_cell_formula_units_Z 64
_cell_length_a 12.546477
_cell_length_b 16.100101
_cell_length_c 15.326717
_cell_angle_alpha 90.000000
_cell_angle_beta 108.847127
_cell_angle_gamma 90.000000
_cell_volume 2929.994891
_symmetry_space_group_name_H-M "C 2/M"
_symmetry_group_IT_number 12
_symmetry_cell_setting 'monoclinic'
loop_
_space_group_symop_operation_xyz
x,y,z
-x,y,-z
-x,-y,-z
x,-y,z
1/2+x,1/2+y,z
1/2-x,1/2+y,-z
1/2-x,1/2-y,-z
1/2+x,1/2-y,z
loop_
_atom_site_type_symbol
_atom_site_label
_atom_site_fract_x
_atom_site_fract_y
_atom_site_fract_z
Si Si1 0.447453 0.902465 0.889162
Si Si2 0.275023 0.403128 0.922421
Si Si3 0.541747 0.753623 0.411613
Si Si4 0.600513 0.816477 0.788246
Si Si5 0.715973 0.654971 0.892192
Si Si6 0.873554 0.589997 0.505247
Si Si7 0.463435 0.401936 0.855997
Si Si8 0.853101 0.903395 0.647318
O O1 0.502653 0.841603 0.831657
O O2 0.313406 0.886975 0.860931
O O3 0.469557 0.000000 0.874253
O O4 0.500000 0.887694 0.000000
O O5 0.280781 0.500000 0.950160
O O6 0.185557 0.394018 0.820360
O O7 0.394963 0.368796 0.920870
O O8 0.237790 0.351727 0.997009
O O9 0.500000 0.747108 0.500000
O O10 0.451014 0.786621 0.316777
O O11 0.632695 0.828748 0.436737
O O12 0.589270 0.664334 0.398881
O O13 0.680400 0.742335 0.842985
O O14 0.593454 0.613031 0.871810
O O15 0.854156 0.500000 0.543696
O O16 0.779904 0.598405 0.405837
O O17 0.000000 0.587640 0.500000
O O18 0.448916 0.500000 0.862313
O O19 0.393205 0.375957 0.752950
O O20 0.888890 0.000000 0.643770
#
# Coordination Sequence:
#
# PCOD9212717 Si02
#       8
#     8   8   8   8   8   8   8   8
#     4  11  25  47  74 102 146 198 243 295 361 438
#     4  11  24  42  70 101 143 189 235 291 355 430
#     4  11  25  46  70 100 136 185 237 299 365 433
#     4  12  27  44  69 108 142 187 241 302 360 429
#     4  12  24  44  71 101 145 190 240 288 354 433
#     4   9  20  39  67  97 127 167 220 283 352 420
#     4  10  22  39  68 103 138 180 231 287 348 424
#     4  10  21  43  68  98 136 180 233 295 360 427
#
# _framework density 21.843042000000001
#
# number of rings (size 3 to 8) (size 9 to 14) (size 15 to 20)
#    0.000    1.250    2.500    2.625    5.250    2.250 
#    2.250    0.000    0.000    0.000    0.000    0.000 
#    0.000    0.000    0.000    0.000    0.000    0.000 
#
# Total GULP energy -178475.802612 kJ/mol
# GULP energy per Si atom -5577.368832 kJ/mol
# Density = 2.179333 g / cm^3
# Si number density = 21.843042 Si / 1000 Ang^3
#
#
#
# Elastic Constant Matrix: (Units=GPa)
#
#
# Indices 1 2 3 4 5 6 
#
# 1 114.1425 15.8229 38.2197 0.0000 5.5390 0.0000
# 2 15.8229 83.1337 38.4693 0.0000 -11.9405 0.0000
# 3 38.2197 38.4693 105.8977 0.0000 17.0804 0.0000
# 4 0.0000 0.0000 0.0000 22.1070 0.0000 11.5217
# 5 5.5390 -11.9405 17.0804 0.0000 30.6750 0.0000
# 6 0.0000 0.0000 0.0000 11.5217 0.0000 10.4375
#
#
#
# Elastic Compliance Matrix: (Units=1/GPa)
#
#
# Indices 1 2 3 4 5 6 
#
# 1 0.009971 -0.000266 -0.003510 0.000000 0.000050 0.000000
# 2 -0.000266 0.017439 -0.008066 0.000000 0.011328 0.000000
# 3 -0.003510 -0.008066 0.015430 0.000000 -0.011098 0.000000
# 4 0.000000 0.000000 0.000000 0.106513 0.000000 -0.117577
# 5 0.000050 0.011328 -0.011098 0.000000 0.043180 0.000000
# 6 0.000000 0.000000 0.000000 -0.117577 0.000000 0.225599
#
#
# Mechanical properties :
#
#
# Convention : Reuss Voigt Hill
#
# Bulk Modulus (GPa) = 52.20521 54.24419 53.22470
# Shear Modulus (GPa) = 11.15571 26.68802 18.92186
#
# Velocity S-wave (km/s) = 2.26237 3.49923 2.94643
# Velocity P-wave (km/s) = 5.54765 6.41979 5.99959
#
# Compressibility (1/GPa) = 0.01915518
#
# Stress axis : x y z
#
# Youngs Moduli (GPa) = 100.29360 57.34298 64.80927
#
# Poissons Ratio (x) = 0.01527 0.22747
# Poissons Ratio (y) = 0.02671 0.52275
# Poissons Ratio (z) = 0.35202 0.46252
#
# Static dielectric constant tensor:
#      x y z
#    x 1.855300 0.000000 0.013380 
#    y 0.000000 1.860380 0.000000 
#    z 0.013380 0.000000 1.846030 
# 
# From -- ./inp_files/216377.got.cif
#   From: 2010.05.17/outbox.cif.g08.bks.cpg/sg12_109_cif.got.tgz:216377.got - 2010.06.03 13:09:07.
