data_PCOD9212587
_publ_section_title
;
Structure prediction by ZEFSAII (Michael W. Deem and Ramdas Pophale) SiO2 
 PCOD9212587
Probable space group: C 2/M
;
_chemical_formula_sum "Si O2"
_cell_formula_units_Z 64
_cell_length_a 18.656306
_cell_length_b 14.373418
_cell_length_c 18.951558
_cell_angle_alpha 90.000000
_cell_angle_beta 139.573312
_cell_angle_gamma 90.000000
_cell_volume 3295.517087
_symmetry_space_group_name_H-M "C 2/M"
_symmetry_group_IT_number 12
_symmetry_cell_setting 'monoclinic'
loop_
_space_group_symop_operation_xyz
x,y,z
-x,y,-z
-x,-y,-z
x,-y,z
1/2+x,1/2+y,z
1/2-x,1/2+y,-z
1/2-x,1/2-y,-z
1/2+x,1/2-y,z
loop_
_atom_site_type_symbol
_atom_site_label
_atom_site_fract_x
_atom_site_fract_y
_atom_site_fract_z
Si Si1 0.251181 0.393827 0.318167
Si Si2 0.373678 0.215097 0.109810
Si Si3 0.889514 0.899352 0.871394
Si Si4 0.065485 0.212793 0.351040
Si Si5 0.066308 0.233101 0.617384
Si Si6 0.836537 0.396786 0.217368
Si Si7 0.280494 0.889987 0.537757
Si Si8 0.961056 0.703124 0.890328
O O1 0.283468 0.500000 0.330873
O O2 0.335401 0.328870 0.339322
O O3 0.245080 0.377929 0.397769
O O4 0.129758 0.372411 0.197586
O O5 0.464108 0.280232 0.219314
O O6 0.355901 0.130814 0.151104
O O7 0.435124 0.193372 0.083287
O O8 0.250000 0.250000 0.000000
O O9 0.790824 0.891969 0.853849
O O10 0.902455 0.804917 0.836741
O O11 0.876196 0.000000 0.823995
O O12 0.000000 0.903269 0.000000
O O13 0.171007 0.147055 0.414888
O O14 0.119814 0.316618 0.401121
O O15 0.011771 0.181152 0.384901
O O16 0.108419 0.320187 0.692713
O O17 0.000000 0.265544 0.500000
O O18 0.878226 0.500000 0.262288
O O19 0.302990 0.000000 0.541717
O O20 0.000000 0.696584 0.000000
#
# Coordination Sequence:
#
# PCOD9212587 Si02
#       8
#     8   8   8   8   8   8   8   8
#     4  11  23  40  65  93 124 167 217 266 325 384
#     4  11  23  39  63  92 130 175 213 257 319 383
#     4   9  17  33  60  88 113 152 201 247 301 366
#     4  10  22  39  66  94 128 167 209 261 320 381
#     4  11  22  39  63  93 130 159 205 259 318 377
#     4  10  22  40  63  90 124 164 205 251 313 381
#     4  10  21  42  68  95 124 164 214 264 322 384
#     4  11  22  39  64  90 129 167 213 264 321 374
#
# _framework density 19.42032
#
# number of rings (size 3 to 8) (size 9 to 14) (size 15 to 20)
#    0.000    1.625    3.750    1.500    1.750    3.750 
#    0.000    1.250    0.000    0.750    0.000    0.000 
#    0.000    0.000    0.000    0.000    0.000    0.000 
#
# Total GULP energy -178411.286092 kJ/mol
# GULP energy per Si atom -5575.352690 kJ/mol
# Density = 1.937612 g / cm^3
# Si number density = 19.420320 Si / 1000 Ang^3
#
#
#
# Elastic Constant Matrix: (Units=GPa)
#
#
# Indices 1 2 3 4 5 6 
#
# 1 118.0345 28.7390 31.4147 0.0000 11.9744 0.0000
# 2 28.7390 71.9533 11.1909 0.0000 5.4283 0.0000
# 3 31.4147 11.1909 99.1600 0.0000 6.5968 0.0000
# 4 0.0000 0.0000 0.0000 374.1887 0.0000 86.6553
# 5 11.9744 5.4283 6.5968 0.0000 24.6046 0.0000
# 6 0.0000 0.0000 0.0000 86.6553 0.0000 42.9026
#
#
#
# Elastic Compliance Matrix: (Units=1/GPa)
#
#
# Indices 1 2 3 4 5 6 
#
# 1 0.010387 -0.003465 -0.002662 0.000000 -0.003577 0.000000
# 2 -0.003465 0.015486 -0.000545 0.000000 -0.001584 0.000000
# 3 -0.002662 -0.000545 0.011093 0.000000 -0.001559 0.000000
# 4 0.000000 0.000000 0.000000 0.005021 0.000000 -0.010142
# 5 -0.003577 -0.001584 -0.001559 0.000000 0.043151 0.000000
# 6 0.000000 0.000000 0.000000 -0.010142 0.000000 0.043793
#
#
# Mechanical properties :
#
#
# Convention : Reuss Voigt Hill
#
# Bulk Modulus (GPa) = 42.33015 47.98189 45.15602
# Shear Modulus (GPa) = 33.30049 102.85941 68.07995
#
# Velocity S-wave (km/s) = 4.14541 7.28559 5.92724
# Velocity P-wave (km/s) = 6.69005 9.77414 8.37528
#
# Compressibility (1/GPa) = 0.02362383
#
# Stress axis : x y z
#
# Youngs Moduli (GPa) = 96.27417 64.57434 90.14605
#
# Poissons Ratio (x) = 0.22374 0.23994
# Poissons Ratio (y) = 0.33358 0.04909
# Poissons Ratio (z) = 0.25625 0.03517
#
# Static dielectric constant tensor:
#      x y z
#    x 1.787990 0.000000 0.052410 
#    y 0.000000 1.714090 0.000000 
#    z 0.052410 0.000000 1.701570 
# 
# From -- ./inp_files/278199.got.cif
#   From: 2010.05.17/outbox.cif.g08.bks.cpg/sg12_140_cif.got.tgz:278199.got - 2010.06.03 13:09:07.
