data_PCOD9212740
_publ_section_title
;
Structure prediction by ZEFSAII (Michael W. Deem and Ramdas Pophale) SiO2 
 PCOD9212740
Probable space group: C 2/M
;
_chemical_formula_sum "Si O2"
_cell_formula_units_Z 40
_cell_length_a 5.385374
_cell_length_b 28.242561
_cell_length_c 11.012808
_cell_angle_alpha 90.000000
_cell_angle_beta 80.821042
_cell_angle_gamma 90.000000
_cell_volume 1653.563671
_symmetry_space_group_name_H-M "C 2/M"
_symmetry_group_IT_number 12
_symmetry_cell_setting 'monoclinic'
loop_
_space_group_symop_operation_xyz
x,y,z
-x,y,-z
-x,-y,-z
x,-y,z
1/2+x,1/2+y,z
1/2-x,1/2+y,-z
1/2-x,1/2-y,-z
1/2+x,1/2-y,z
loop_
_atom_site_type_symbol
_atom_site_label
_atom_site_fract_x
_atom_site_fract_y
_atom_site_fract_z
Si Si1 0.327464 0.449902 0.395904
Si Si2 0.846038 0.267039 0.859957
Si Si3 0.936583 0.920057 0.130909
Si Si4 0.728591 0.148227 0.529738
Si Si5 0.906530 0.631209 0.183046
O O1 0.500000 0.455107 0.500000
O O2 0.178530 0.500000 0.396457
O O3 0.466457 0.446158 0.256668
O O4 0.226589 0.397241 0.436114
O O5 0.587634 0.264696 0.803339
O O6 0.965895 0.318742 0.855501
O O7 0.750000 0.250000 0.000000
O O8 0.158728 0.880145 0.122480
O O9 0.642934 0.904551 0.152312
O O10 0.000000 0.945234 0.000000
O O11 0.500000 0.179304 0.500000
O O12 0.688317 0.132701 0.670995
O O13 0.000000 0.170512 0.500000
#
# Coordination Sequence:
#
# PCOD9212740 Si02
#       5
#     8   8   8   8   8
#     4  10  21  43  71 100 137 178 235 283 327 398
#     4  10  23  39  62  95 129 171 220 269 341 394
#     4  12  26  40  65 104 137 184 223 271 351 388
#     4  11  20  40  66 100 124 176 230 272 330 388
#     4  12  23  43  68  96 138 174 226 284 324 418
#
# _framework density 24.190179000000001
#
# number of rings (size 3 to 8) (size 9 to 14) (size 15 to 20)
#    0.000    1.000    6.000    1.800    8.400    0.800 
#    0.000    1.000    0.000    6.000    0.000    0.000 
#    0.000    0.000    0.000    0.000    0.000    0.000 
#
# Total GULP energy -111404.531209 kJ/mol
# GULP energy per Si atom -5570.226560 kJ/mol
# Density = 2.413512 g / cm^3
# Si number density = 24.190179 Si / 1000 Ang^3
#
#
#
# Elastic Constant Matrix: (Units=GPa)
#
#
# Indices 1 2 3 4 5 6 
#
# 1 177.8542 -1.7400 19.4067 0.0000 -30.4104 0.0000
# 2 -1.7400 60.3642 5.3461 0.0000 -11.1390 0.0000
# 3 19.4067 5.3461 194.6176 0.0000 -9.9332 0.0000
# 4 0.0000 0.0000 0.0000 -7.6533 0.0000 52.5877
# 5 -30.4104 -11.1390 -9.9332 0.0000 34.5987 0.0000
# 6 0.0000 0.0000 0.0000 52.5877 0.0000 -162.7870
#
#
#
# Elastic Compliance Matrix: (Units=1/GPa)
#
#
# Indices 1 2 3 4 5 6 
#
# 1 0.006750 0.001386 -0.000391 0.000000 0.006267 0.000000
# 2 0.001386 0.017904 -0.000278 0.000000 0.006902 0.000000
# 3 -0.000391 -0.000278 0.005240 0.000000 0.001071 0.000000
# 4 0.000000 0.000000 0.000000 0.107124 0.000000 0.034606
# 5 0.006267 0.006902 0.001071 0.000000 0.036941 0.000000
# 6 0.000000 0.000000 0.000000 0.034606 0.000000 0.005036
#
#
# Mechanical properties :
#
#
# Convention : Reuss Voigt Hill
#
# Bulk Modulus (GPa) = 31.92067 53.20686 42.56377
# Shear Modulus (GPa) = 26.59505 0.15321 13.37413
#
# Velocity S-wave (km/s) = 3.31934 0.25194 2.35388
# Velocity P-wave (km/s) = 5.28347 4.70400 5.00213
#
# Compressibility (1/GPa) = 0.03132766
#
# Stress axis : x y z
#
# Youngs Moduli (GPa) = 148.13927 55.85229 190.85461
#
# Poissons Ratio (x) = -0.07739 0.07469
# Poissons Ratio (y) = -0.20527 0.05300
# Poissons Ratio (z) = 0.05797 0.01551
#
# Static dielectric constant tensor:
#      x y z
#    x 2.117670 0.000000 0.017880 
#    y 0.000000 2.007660 0.000000 
#    z 0.017880 0.000000 1.936210 
# 
# From -- ./inp_files/116021.got.cif
#   From: 2010.05.17/outbox.cif.g08.bks.cpg/sg12_59_cif.got.tgz:116021.got - 2010.06.03 13:09:07.
