data_PCOD9212591
_publ_section_title
;
Structure prediction by ZEFSAII (Michael W. Deem and Ramdas Pophale) SiO2 
 PCOD9212591
Probable space group: C 2/M
;
_chemical_formula_sum "Si O2"
_cell_formula_units_Z 48
_cell_length_a 18.561191
_cell_length_b 20.780414
_cell_length_c 5.389826
_cell_angle_alpha 90.000000
_cell_angle_beta 70.639051
_cell_angle_gamma 90.000000
_cell_volume 1961.341106
_symmetry_space_group_name_H-M "C 2/M"
_symmetry_group_IT_number 12
_symmetry_cell_setting 'monoclinic'
loop_
_space_group_symop_operation_xyz
x,y,z
-x,y,-z
-x,-y,-z
x,-y,z
1/2+x,1/2+y,z
1/2-x,1/2+y,-z
1/2-x,1/2-y,-z
1/2+x,1/2-y,z
loop_
_atom_site_type_symbol
_atom_site_label
_atom_site_fract_x
_atom_site_fract_y
_atom_site_fract_z
Si Si1 0.580838 0.256148 0.537916
Si Si2 0.689725 0.329991 0.083982
Si Si3 0.732221 0.431330 0.409626
Si Si4 0.830223 0.356246 0.635971
Si Si5 0.450415 0.074327 0.811199
Si Si6 0.583670 0.611004 0.847378
O O1 0.500000 0.246159 0.500000
O O2 0.641581 0.273029 0.252612
O O3 0.616969 0.189971 0.593090
O O4 0.576410 0.317974 0.723973
O O5 0.734928 0.368512 0.239073
O O6 0.750146 0.320509 0.797189
O O7 0.624452 0.377696 0.061605
O O8 0.741924 0.500000 0.272039
O O9 0.798036 0.419629 0.536665
O O10 0.646652 0.427963 0.622452
O O11 0.881079 0.379020 0.811455
O O12 0.500000 0.074933 0.500000
O O13 0.425292 0.000000 0.880200
O O14 0.500000 0.091779 0.000000
O O15 0.500000 0.584878 0.000000
#
# Coordination Sequence:
#
# PCOD9212591 Si02
#       6
#     8   8   8   8   8   8
#     4  11  22  41  67  96 132 172 217 279 340 413
#     4  10  23  41  64  94 133 172 221 276 346 402
#     4  10  24  42  65  96 134 175 226 279 337 406
#     4  11  24  41  65  99 133 175 229 275 345 412
#     4  10  23  44  68  97 139 186 238 293 345 409
#     4  10  21  42  68  95 131 172 219 276 345 411
#
# _framework density 24.473047999999999
#
# number of rings (size 3 to 8) (size 9 to 14) (size 15 to 20)
#    0.000    1.667    1.667    1.500    2.333   11.000 
#    3.000    0.833    0.000    0.000    0.000    0.000 
#    0.000    0.000    0.000    0.000    0.000    0.000 
#
# Total GULP energy -133995.065969 kJ/mol
# GULP energy per Si atom -5583.127749 kJ/mol
# Density = 2.441735 g / cm^3
# Si number density = 24.473048 Si / 1000 Ang^3
#
#
#
# Elastic Constant Matrix: (Units=GPa)
#
#
# Indices 1 2 3 4 5 6 
#
# 1 146.4186 40.7700 26.7724 0.0000 2.7340 0.0000
# 2 40.7700 75.2700 13.1181 0.0000 -23.0885 0.0000
# 3 26.7724 13.1181 43.3355 0.0000 5.5886 0.0000
# 4 0.0000 0.0000 0.0000 6.5779 0.0000 -5.0418
# 5 2.7340 -23.0885 5.5886 0.0000 30.8041 0.0000
# 6 0.0000 0.0000 0.0000 -5.0418 0.0000 33.3479
#
#
#
# Elastic Compliance Matrix: (Units=1/GPa)
#
#
# Indices 1 2 3 4 5 6 
#
# 1 0.009120 -0.005748 -0.003312 0.000000 -0.004517 0.000000
# 2 -0.005748 0.023275 -0.005949 0.000000 0.019034 0.000000
# 3 -0.003312 -0.005949 0.028118 0.000000 -0.009266 0.000000
# 4 0.000000 0.000000 0.000000 0.171950 0.000000 0.025997
# 5 -0.004517 0.019034 -0.009266 0.000000 0.048812 0.000000
# 6 0.000000 0.000000 0.000000 0.025997 0.000000 0.033917
#
#
# Mechanical properties :
#
#
# Convention : Reuss Voigt Hill
#
# Bulk Modulus (GPa) = 32.79303 47.37168 40.08236
# Shear Modulus (GPa) = 14.06967 26.43689 20.25328
#
# Velocity S-wave (km/s) = 2.40032 3.29027 2.87988
# Velocity P-wave (km/s) = 4.59465 5.81663 5.24137
#
# Compressibility (1/GPa) = 0.03049428
#
# Stress axis : x y z
#
# Youngs Moduli (GPa) = 109.64573 42.96546 35.56503
#
# Poissons Ratio (x) = 0.24698 0.11778
# Poissons Ratio (y) = 0.63029 0.21157
# Poissons Ratio (z) = 0.36313 0.25559
#
# Static dielectric constant tensor:
#      x y z
#    x 1.890110 0.000000 -0.022120 
#    y 0.000000 1.963450 0.000000 
#    z -0.022120 0.000000 2.030340 
# 
# From -- ./inp_files/16674.got.cif
#   From: 2010.05.17/outbox.cif.g08.bks.cpg/sg12_9_cif.got.tgz:16674.got - 2010.06.03 13:09:07.
