data_PCOD9212732
_publ_section_title
;
Structure prediction by ZEFSAII (Michael W. Deem and Ramdas Pophale) SiO2 
 PCOD9212732
Probable space group: C 2/M
;
_chemical_formula_sum "Si O2"
_cell_formula_units_Z 40
_cell_length_a 16.327372
_cell_length_b 26.422730
_cell_length_c 8.342718
_cell_angle_alpha 90.000000
_cell_angle_beta 35.646872
_cell_angle_gamma 90.000000
_cell_volume 2097.548935
_symmetry_space_group_name_H-M "C 2/M"
_symmetry_group_IT_number 12
_symmetry_cell_setting 'monoclinic'
loop_
_space_group_symop_operation_xyz
x,y,z
-x,y,-z
-x,-y,-z
x,-y,z
1/2+x,1/2+y,z
1/2-x,1/2+y,-z
1/2-x,1/2-y,-z
1/2+x,1/2-y,z
loop_
_atom_site_type_symbol
_atom_site_label
_atom_site_fract_x
_atom_site_fract_y
_atom_site_fract_z
Si Si1 0.184288 0.781439 0.458975
Si Si2 0.055046 0.152674 0.235666
Si Si3 0.355112 0.179036 0.639470
Si Si4 0.152844 0.372976 0.699683
Si Si5 0.920516 0.057628 0.296571
O O1 0.250000 0.750000 0.500000
O O2 0.164398 0.739406 0.355192
O O3 0.289427 0.828786 0.272527
O O4 0.034450 0.808183 0.732521
O O5 0.000000 0.164021 0.500000
O O6 0.007517 0.096157 0.268111
O O7 0.218905 0.159883 0.950493
O O8 0.500000 0.169269 0.500000
O O9 0.354471 0.151840 0.466073
O O10 0.267258 0.417370 0.519461
O O11 0.000000 0.389106 0.000000
O O12 0.913089 0.000000 0.366598
O O13 0.000000 0.057912 0.000000
#
# Coordination Sequence:
#
# PCOD9212732 Si02
#       5
#     8   8   8   8   8
#     4   9  22  36  60  86 121 162 208 243 289 345
#     4  11  24  40  61  92 124 160 205 249 302 363
#     4  11  24  38  57  86 130 165 197 242 296 356
#     4  10  22  39  62  90 119 154 201 252 299 351
#     4  10  21  43  70  88 111 155 206 259 308 359
#
# _framework density 19.069877000000002
#
# number of rings (size 3 to 8) (size 9 to 14) (size 15 to 20)
#    0.000    1.800    2.000    0.600   11.200    2.400 
#    0.000    0.000    0.000    1.200    0.000    0.000 
#    0.000    0.000    0.000    0.000    0.000    0.000 
#
# Total GULP energy -111661.911833 kJ/mol
# GULP energy per Si atom -5583.095592 kJ/mol
# Density = 1.902647 g / cm^3
# Si number density = 19.069877 Si / 1000 Ang^3
#
#
#
# Elastic Constant Matrix: (Units=GPa)
#
#
# Indices 1 2 3 4 5 6 
#
# 1 94.3973 50.7534 56.5791 0.0000 -25.9215 0.0000
# 2 50.7534 149.5147 59.3301 0.0000 -22.0474 0.0000
# 3 56.5791 59.3301 158.0052 0.0000 -33.8576 0.0000
# 4 0.0000 0.0000 0.0000 12.0429 0.0000 4.5888
# 5 -25.9215 -22.0474 -33.8576 0.0000 40.8642 0.0000
# 6 0.0000 0.0000 0.0000 4.5888 0.0000 10.4421
#
#
#
# Elastic Compliance Matrix: (Units=1/GPa)
#
#
# Indices 1 2 3 4 5 6 
#
# 1 0.015827 -0.003260 -0.003245 0.000000 0.005592 0.000000
# 2 -0.003260 0.008694 -0.001867 0.000000 0.001076 0.000000
# 3 -0.003245 -0.001867 0.009161 0.000000 0.004525 0.000000
# 4 0.000000 0.000000 0.000000 0.099737 0.000000 -0.043830
# 5 0.005592 0.001076 0.004525 0.000000 0.032348 0.000000
# 6 0.000000 0.000000 0.000000 -0.043830 0.000000 0.115027
#
#
# Mechanical properties :
#
#
# Convention : Reuss Voigt Hill
#
# Bulk Modulus (GPa) = 59.03490 81.69358 70.36424
# Shear Modulus (GPa) = 16.49155 28.35348 22.42252
#
# Velocity S-wave (km/s) = 2.94393 3.86011 3.43273
# Velocity P-wave (km/s) = 6.52533 7.92461 7.25877
#
# Compressibility (1/GPa) = 0.01693913
#
# Stress axis : x y z
#
# Youngs Moduli (GPa) = 63.18362 115.01600 109.15344
#
# Poissons Ratio (x) = 0.37499 0.35419
# Poissons Ratio (y) = 0.20600 0.20375
# Poissons Ratio (z) = 0.20502 0.21469
#
# Static dielectric constant tensor:
#      x y z
#    x 1.719840 0.000000 0.013860 
#    y 0.000000 1.654290 0.000000 
#    z 0.013860 0.000000 1.648990 
# 
# From -- ./inp_files/40548.got.cif
#   From: 2010.05.17/outbox.cif.g08.bks.cpg/sg12_21_cif.got.tgz:40548.got - 2010.06.03 13:09:07.
