data_PCOD9212384
_publ_section_title
;
Structure prediction by ZEFSAII (Michael W. Deem and Ramdas Pophale) SiO2 
 PCOD9212384
Probable space group: C 2/M
;
_chemical_formula_sum "Si O2"
_cell_formula_units_Z 44
_cell_length_a 26.587602
_cell_length_b 15.445472
_cell_length_c 15.838877
_cell_angle_alpha 90.000000
_cell_angle_beta 160.944900
_cell_angle_gamma 90.000000
_cell_volume 2123.526633
_symmetry_space_group_name_H-M "C 2/M"
_symmetry_group_IT_number 12
_symmetry_cell_setting 'monoclinic'
loop_
_space_group_symop_operation_xyz
x,y,z
-x,y,-z
-x,-y,-z
x,-y,z
1/2+x,1/2+y,z
1/2-x,1/2+y,-z
1/2-x,1/2-y,-z
1/2+x,1/2-y,z
loop_
_atom_site_type_symbol
_atom_site_label
_atom_site_fract_x
_atom_site_fract_y
_atom_site_fract_z
Si Si1 0.655444 0.654769 0.709693
Si Si2 0.259033 0.500000 0.029457
Si Si3 0.605894 0.500000 0.941351
Si Si4 0.121614 0.308461 0.252213
Si Si5 0.634017 0.360881 0.480303
Si Si6 0.925628 0.500000 0.545863
Si Si7 0.502021 0.175901 0.766069
O O1 0.500000 0.699360 0.500000
O O2 0.687945 0.580404 0.829595
O O3 0.638025 0.617785 0.586540
O O4 0.819708 0.702813 0.966193
O O5 0.336377 0.500000 0.062681
O O6 0.075459 0.500000 0.723441
O O7 0.497567 0.415647 0.775480
O O8 0.756052 0.500000 0.237778
O O9 0.250000 0.250000 0.500000
O O10 0.212205 0.371803 0.332160
O O11 0.027498 0.343601 0.182391
O O12 0.000000 0.258744 0.000000
O O13 0.596533 0.258472 0.419011
O O14 0.953174 0.588530 0.641414
#
# Coordination Sequence:
#
# PCOD9212384 Si02
#       7
#     8   4   4   8   8   4   8
#     4  11  20  38  64  91 129 166 216 266 323 387
#     4  10  21  42  62  91 125 182 211 271 325 387
#     4  12  24  43  65  97 135 171 219 269 332 401
#     4  10  21  41  68  98 133 177 221 275 329 393
#     4  11  24  39  67 100 128 172 218 272 327 394
#     4  10  25  44  66  90 136 176 215 272 331 396
#     4  10  24  43  65  96 131 173 218 269 331 388
#
# _framework density 20.720248000000002
#
# number of rings (size 3 to 8) (size 9 to 14) (size 15 to 20)
#    0.000    1.455    3.636    1.091    2.545    2.909 
#    0.000    1.818    0.000    0.000    0.000    0.000 
#    0.000    0.000    0.000    0.000    0.000    0.000 
#
# Total GULP energy -122579.580496 kJ/mol
# GULP energy per Si atom -5571.799113 kJ/mol
# Density = 2.067309 g / cm^3
# Si number density = 20.720248 Si / 1000 Ang^3
#
#
#
# Elastic Constant Matrix: (Units=GPa)
#
#
# Indices 1 2 3 4 5 6 
#
# 1 131.8566 3.5501 33.3634 0.0000 15.3580 0.0000
# 2 3.5501 65.3595 15.6309 0.0000 0.3853 0.0000
# 3 33.3634 15.6309 123.7237 0.0000 -9.6977 0.0000
# 4 0.0000 0.0000 0.0000 16.9023 0.0000 13.3478
# 5 15.3580 0.3853 -9.6977 0.0000 33.0929 0.0000
# 6 0.0000 0.0000 0.0000 13.3478 0.0000 23.4090
#
#
#
# Elastic Compliance Matrix: (Units=1/GPa)
#
#
# Indices 1 2 3 4 5 6 
#
# 1 0.008863 0.000218 -0.002805 0.000000 -0.004938 0.000000
# 2 0.000218 0.015802 -0.002126 0.000000 -0.000909 0.000000
# 3 -0.002805 -0.002126 0.009428 0.000000 0.004089 0.000000
# 4 0.000000 0.000000 0.000000 0.107627 0.000000 -0.061369
# 5 -0.004938 -0.000909 0.004089 0.000000 0.033718 0.000000
# 6 0.000000 0.000000 0.000000 -0.061369 0.000000 0.077711
#
#
# Mechanical properties :
#
#
# Convention : Reuss Voigt Hill
#
# Bulk Modulus (GPa) = 40.53901 47.33650 43.93775
# Shear Modulus (GPa) = 18.46404 32.57387 25.51896
#
# Velocity S-wave (km/s) = 2.98839 3.96925 3.51322
# Velocity P-wave (km/s) = 5.61379 6.62583 6.14070
#
# Compressibility (1/GPa) = 0.02466760
#
# Stress axis : x y z
#
# Youngs Moduli (GPa) = 112.83056 63.28299 106.06736
#
# Poissons Ratio (x) = -0.01382 0.29747
# Poissons Ratio (y) = -0.02465 0.22555
# Poissons Ratio (z) = 0.31644 0.13457
#
# Static dielectric constant tensor:
#      x y z
#    x 1.825360 0.000000 0.013960 
#    y 0.000000 1.722430 0.000000 
#    z 0.013960 0.000000 1.816020 
# 
# From -- ./inp_files/247027.got.cif
#   From: 2010.05.17/outbox.cif.g08.bks.cpg/sg12_124_cif.got.tgz:247027.got - 2010.06.03 13:09:07.
