data_PCOD9212947
_publ_section_title
;
Structure prediction by ZEFSAII (Michael W. Deem and Ramdas Pophale) SiO2 
 PCOD9212947
Probable space group: C 2/M
;
_chemical_formula_sum "Si O2"
_cell_formula_units_Z 60
_cell_length_a 8.526802
_cell_length_b 29.205817
_cell_length_c 11.154392
_cell_angle_alpha 90.000000
_cell_angle_beta 79.635899
_cell_angle_gamma 90.000000
_cell_volume 2732.481420
_symmetry_space_group_name_H-M "C 2/M"
_symmetry_group_IT_number 12
_symmetry_cell_setting 'monoclinic'
loop_
_space_group_symop_operation_xyz
x,y,z
-x,y,-z
-x,-y,-z
x,-y,z
1/2+x,1/2+y,z
1/2-x,1/2+y,-z
1/2-x,1/2-y,-z
1/2+x,1/2-y,z
loop_
_atom_site_type_symbol
_atom_site_label
_atom_site_fract_x
_atom_site_fract_y
_atom_site_fract_z
Si Si1 0.611218 0.767251 0.706007
Si Si2 0.661205 0.358898 0.045619
Si Si3 0.452666 0.051183 0.267385
Si Si4 0.291159 0.805610 0.811286
Si Si5 0.903758 0.180941 0.679288
Si Si6 0.000000 0.415130 0.000000
Si Si7 0.647338 0.584784 0.426776
Si Si8 0.864215 0.626547 0.600770
O O1 0.479657 0.798923 0.784707
O O2 0.714427 0.742391 0.791873
O O3 0.744404 0.800226 0.632834
O O4 0.524228 0.724559 0.651988
O O5 0.619638 0.333796 0.177095
O O6 0.827363 0.388323 0.032407
O O7 0.500000 0.379564 0.000000
O O8 0.715467 0.321966 0.941818
O O9 0.265363 0.061286 0.316060
O O10 0.546883 0.090018 0.327120
O O11 0.488724 0.000000 0.305635
O O12 0.500531 0.056732 0.122815
O O13 0.268756 0.839943 0.701858
O O14 0.927157 0.131011 0.619766
O O15 0.500000 0.556745 0.500000
O O16 0.756529 0.599334 0.523175
O O17 0.000000 0.651014 0.500000
#
# Coordination Sequence:
#
# PCOD9212947 Si02
#       8
#     8   8   8   8   8   4   8   8
#     4  10  22  35  60  85 131 169 226 282 335 390
#     4  12  24  39  72  95 136 182 232 280 338 423
#     4  11  24  45  73 103 132 167 215 271 346 419
#     4  11  21  39  55  90 125 169 220 276 332 385
#     4  11  22  41  56  96 130 177 230 282 340 395
#     4  12  23  44  74 106 138 176 216 282 344 418
#     4  11  24  42  69  93 134 178 224 278 333 400
#     4  10  22  41  65  89 124 174 219 266 326 404
#
# _framework density 21.958062000000002
#
# number of rings (size 3 to 8) (size 9 to 14) (size 15 to 20)
#    0.000    1.067    4.000    3.400    0.000    5.867 
#    0.000   13.333    0.000    0.800    0.000    0.000 
#    0.000    0.000    0.000    0.000    0.000    0.000 
#
# Total GULP energy -167251.928227 kJ/mol
# GULP energy per Si atom -5575.064274 kJ/mol
# Density = 2.190808 g / cm^3
# Si number density = 21.958062 Si / 1000 Ang^3
#
#
#
# Elastic Constant Matrix: (Units=GPa)
#
#
# Indices 1 2 3 4 5 6 
#
# 1 100.0684 5.3920 8.1943 0.0000 -6.4593 0.0000
# 2 5.3920 59.7623 18.6457 0.0000 -2.0090 0.0000
# 3 8.1943 18.6457 125.6521 0.0000 -1.3304 0.0000
# 4 0.0000 0.0000 0.0000 -17.4891 0.0000 1.3962
# 5 -6.4593 -2.0090 -1.3304 0.0000 23.7879 0.0000
# 6 0.0000 0.0000 0.0000 1.3962 0.0000 9.7076
#
#
#
# Elastic Compliance Matrix: (Units=1/GPa)
#
#
# Indices 1 2 3 4 5 6 
#
# 1 0.010247 -0.000665 -0.000541 0.000000 0.002696 0.000000
# 2 -0.000665 0.017631 -0.002561 0.000000 0.001165 0.000000
# 3 -0.000541 -0.002561 0.008375 0.000000 0.000105 0.000000
# 4 0.000000 0.000000 0.000000 -0.056530 0.000000 0.008130
# 5 0.002696 0.001165 0.000105 0.000000 0.042875 0.000000
# 6 0.000000 0.000000 0.000000 0.008130 0.000000 0.101843
#
#
# Mechanical properties :
#
#
# Convention : Reuss Voigt Hill
#
# Bulk Modulus (GPa) = 34.81922 38.88296 36.85109
# Shear Modulus (GPa) = 35.32368 20.08467 27.70418
#
# Velocity S-wave (km/s) = 4.01520 3.02765 3.55588
# Velocity P-wave (km/s) = 6.11452 5.47435 5.80327
#
# Compressibility (1/GPa) = 0.02871977
#
# Stress axis : x y z
#
# Youngs Moduli (GPa) = 97.58632 56.71816 119.40517
#
# Poissons Ratio (x) = 0.03772 0.06460
# Poissons Ratio (y) = 0.06491 0.30575
# Poissons Ratio (z) = 0.05280 0.14523
#
# Static dielectric constant tensor:
#      x y z
#    x 1.925390 0.000000 -0.047860 
#    y 0.000000 1.792930 0.000000 
#    z -0.047860 0.000000 1.812930 
# 
# From -- ./inp_files/125715.got.cif
#   From: 2010.05.17/outbox.cif.g08.bks.cpg/sg12_63_cif.got.tgz:125715.got - 2010.06.03 13:09:07.
