data_PCOD9212085
_publ_section_title
;
Structure prediction by ZEFSAII (Michael W. Deem and Ramdas Pophale) SiO2 
 PCOD9212085
Probable space group: C 2/M
;
_chemical_formula_sum "Si O2"
_cell_formula_units_Z 64
_cell_length_a 12.109274
_cell_length_b 15.146448
_cell_length_c 26.696720
_cell_angle_alpha 90.000000
_cell_angle_beta 37.860517
_cell_angle_gamma 90.000000
_cell_volume 3005.191506
_symmetry_space_group_name_H-M "C 2/M"
_symmetry_group_IT_number 12
_symmetry_cell_setting 'monoclinic'
loop_
_space_group_symop_operation_xyz
x,y,z
-x,y,-z
-x,-y,-z
x,-y,z
1/2+x,1/2+y,z
1/2-x,1/2+y,-z
1/2-x,1/2-y,-z
1/2+x,1/2-y,z
loop_
_atom_site_type_symbol
_atom_site_label
_atom_site_fract_x
_atom_site_fract_y
_atom_site_fract_z
Si Si1 0.051976 0.654156 0.153157
Si Si2 0.611030 0.392836 0.565667
Si Si3 0.209907 0.894933 0.022713
Si Si4 0.180433 0.101174 0.245784
Si Si5 0.113082 0.848200 0.163219
Si Si6 0.517792 0.786919 0.552124
Si Si7 0.722271 0.900668 0.291375
Si Si8 0.802026 0.103957 0.155038
O O1 0.037805 0.753561 0.175525
O O2 0.186423 0.613612 0.146457
O O3 0.854283 0.614182 0.218494
O O4 0.147265 0.648190 0.065193
O O5 0.612460 0.500000 0.553421
O O6 0.500133 0.383677 0.657506
O O7 0.519347 0.318569 0.562834
O O8 0.806792 0.347146 0.497945
O O9 0.235514 0.877221 0.072590
O O10 0.007908 0.862639 0.079877
O O11 0.220805 0.000000 0.010072
O O12 0.195263 0.155095 0.188971
O O13 0.180010 0.000000 0.229067
O O14 0.934454 0.907026 0.226409
O O15 0.500000 0.797735 0.500000
O O16 0.363105 0.833068 0.639569
O O17 0.704598 0.864398 0.240723
O O18 0.644042 0.000000 0.323430
O O19 0.823558 0.000000 0.156982
#
# Coordination Sequence:
#
# PCOD9212085 Si02
#       8
#     8   8   8   8   8   8   8   8
#     4  12  24  37  63  90 127 166 215 262 313 388
#     4  10  24  44  64  95 136 170 208 261 324 384
#     4  10  21  41  63  86 121 163 215 267 318 375
#     4  11  24  43  64  90 128 170 208 252 320 390
#     4  11  24  38  61  92 128 165 206 268 325 374
#     4  11  23  41  70  99 127 166 219 266 313 382
#     4  10  21  41  69  96 125 164 219 271 319 377
#     4   9  20  39  64  90 121 163 212 271 321 371
#
# _framework density 21.296479000000001
#
# number of rings (size 3 to 8) (size 9 to 14) (size 15 to 20)
#    0.000    1.500    0.000    5.625    5.250    3.750 
#    4.500    1.250    0.000    0.000    0.000    0.000 
#    0.000    0.000    0.000    0.000    0.000    0.000 
#
# Total GULP energy -178536.194527 kJ/mol
# GULP energy per Si atom -5579.256079 kJ/mol
# Density = 2.124801 g / cm^3
# Si number density = 21.296479 Si / 1000 Ang^3
#
#
#
# Elastic Constant Matrix: (Units=GPa)
#
#
# Indices 1 2 3 4 5 6 
#
# 1 33.5209 7.2498 7.7666 0.0006 5.7417 -0.0006
# 2 7.2498 99.9693 38.3890 0.0002 1.0552 0.0004
# 3 7.7666 38.3890 78.1027 0.0004 21.1260 0.0004
# 4 0.0006 0.0002 0.0004 25.8682 0.0004 0.7519
# 5 5.7417 1.0552 21.1260 0.0004 12.9913 -0.0002
# 6 -0.0006 0.0004 0.0004 0.7519 -0.0002 53.0722
#
#
#
# Elastic Compliance Matrix: (Units=1/GPa)
#
#
# Indices 1 2 3 4 5 6 
#
# 1 0.033358 -0.003908 0.004473 -0.000001 -0.021700 0.000000
# 2 -0.003908 0.014921 -0.012648 0.000000 0.021083 0.000000
# 3 0.004473 -0.012648 0.033621 0.000000 -0.055623 0.000000
# 4 -0.000001 0.000000 0.000000 0.038673 -0.000002 -0.000548
# 5 -0.021700 0.021083 -0.055623 -0.000002 0.175304 0.000001
# 6 0.000000 0.000000 0.000000 -0.000548 0.000001 0.018850
#
#
# Mechanical properties :
#
#
# Convention : Reuss Voigt Hill
#
# Bulk Modulus (GPa) = 17.32067 35.37818 26.34943
# Shear Modulus (GPa) = 13.96111 28.93219 21.44665
#
# Velocity S-wave (km/s) = 2.56317 3.68984 3.17685
# Velocity P-wave (km/s) = 4.11224 5.89928 5.08488
#
# Compressibility (1/GPa) = 0.05773450
#
# Stress axis : x y z
#
# Youngs Moduli (GPa) = 29.97794 67.02013 29.74331
#
# Poissons Ratio (x) = 0.26191 -0.13305
# Poissons Ratio (y) = 0.11715 0.37619
# Poissons Ratio (z) = -0.13410 0.84767
#
# Static dielectric constant tensor:
#      x y z
#    x 1.788210 0.000000 -0.005500 
#    y 0.000000 1.598230 0.000000 
#    z -0.005500 0.000000 1.748310 
# 
# From -- ./inp_files/358426.got.cif
#   From: 2010.05.17/outbox.cif.g08.bks.cpg/sg12_180_cif.got.tgz:358426.got - 2010.06.03 13:09:07.
