data_PCOD9212887
_publ_section_title
;
Structure prediction by ZEFSAII (Michael W. Deem and Ramdas Pophale) SiO2 
 PCOD9212887
Probable space group: C 2/M
;
_chemical_formula_sum "Si O2"
_cell_formula_units_Z 40
_cell_length_a 14.354392
_cell_length_b 14.438184
_cell_length_c 11.977307
_cell_angle_alpha 90.000000
_cell_angle_beta 122.761619
_cell_angle_gamma 90.000000
_cell_volume 2087.449780
_symmetry_space_group_name_H-M "C 2/M"
_symmetry_group_IT_number 12
_symmetry_cell_setting 'monoclinic'
loop_
_space_group_symop_operation_xyz
x,y,z
-x,y,-z
-x,-y,-z
x,-y,z
1/2+x,1/2+y,z
1/2-x,1/2+y,-z
1/2-x,1/2-y,-z
1/2+x,1/2-y,z
loop_
_atom_site_type_symbol
_atom_site_label
_atom_site_fract_x
_atom_site_fract_y
_atom_site_fract_z
Si Si1 0.538985 0.000000 0.152993
Si Si2 0.495844 0.322768 0.743061
Si Si3 0.394008 0.799555 0.847508
Si Si4 0.826455 0.294065 0.244118
Si Si5 0.000000 0.204206 0.500000
Si Si6 0.931948 0.000000 0.072632
Si Si7 0.182326 0.500000 0.837138
O O1 0.605464 0.903302 0.202715
O O2 0.429766 0.000000 0.160647
O O3 0.500000 0.000000 0.000000
O O4 0.400427 0.272782 0.749685
O O5 0.590672 0.243487 0.797656
O O6 0.475823 0.347779 0.600343
O O7 0.534003 0.409827 0.837163
O O8 0.283781 0.766825 0.838470
O O9 0.500000 0.790305 0.000000
O O10 0.814021 0.403664 0.227852
O O11 0.893449 0.265862 0.399240
O O12 0.000000 0.000000 0.000000
O O13 0.799343 0.000000 0.976682
#
# Coordination Sequence:
#
# PCOD9212887 Si02
#       7
#     4   8   8   8   4   4   4
#     4  10  22  34  56  92 124 165 217 252 326 395
#     4  10  22  42  60  92 131 170 218 267 313 399
#     4  11  22  38  63  93 133 168 218 272 336 386
#     4  10  23  41  64  95 129 176 218 271 323 385
#     4   8  22  44  62  94 122 188 218 260 328 372
#     4  12  26  39  65 101 133 169 217 269 349 394
#     4  12  22  41  67  96 133 171 216 278 333 388
#
# _framework density 19.162137000000001
#
# number of rings (size 3 to 8) (size 9 to 14) (size 15 to 20)
#    1.200    0.400    2.000    3.000    5.600    3.200 
#    0.000    0.000    0.000    0.000    0.000    0.000 
#    0.000    0.000    0.000    0.000    0.000    0.000 
#
# Total GULP energy -111336.552675 kJ/mol
# GULP energy per Si atom -5566.827634 kJ/mol
# Density = 1.911852 g / cm^3
# Si number density = 19.162137 Si / 1000 Ang^3
#
#
#
# Elastic Constant Matrix: (Units=GPa)
#
#
# Indices 1 2 3 4 5 6 
#
# 1 33.3060 1.6263 4.0591 0.0000 0.7540 0.0000
# 2 1.6263 100.6008 30.4839 0.0000 8.0630 0.0000
# 3 4.0591 30.4839 86.5325 0.0000 -7.9763 0.0000
# 4 0.0000 0.0000 0.0000 13.5615 0.0000 -19.2360
# 5 0.7540 8.0630 -7.9763 0.0000 31.4840 0.0000
# 6 0.0000 0.0000 0.0000 -19.2360 0.0000 17.4219
#
#
#
# Elastic Compliance Matrix: (Units=1/GPa)
#
#
# Indices 1 2 3 4 5 6 
#
# 1 0.030236 0.000071 -0.001548 0.000000 -0.001134 0.000000
# 2 0.000071 0.011626 -0.004478 0.000000 -0.004114 0.000000
# 3 -0.001548 -0.004478 0.013634 0.000000 0.004638 0.000000
# 4 0.000000 0.000000 0.000000 -0.130251 0.000000 -0.143814
# 5 -0.001134 -0.004114 0.004638 0.000000 0.034018 0.000000
# 6 0.000000 0.000000 0.000000 -0.143814 0.000000 -0.101390
#
#
# Mechanical properties :
#
#
# Convention : Reuss Voigt Hill
#
# Bulk Modulus (GPa) = 22.94331 32.53085 27.73708
# Shear Modulus (GPa) = -43.21919 24.77814 -9.22052
#
# Velocity S-wave (km/s) = -4.75431 3.59984 -2.19597
# Velocity P-wave (km/s) = 4.25895 5.85593 2.84194
#
# Compressibility (1/GPa) = 0.04358568
#
# Stress axis : x y z
#
# Youngs Moduli (GPa) = 33.07369 86.01592 73.34595
#
# Poissons Ratio (x) = -0.00613 0.11354
# Poissons Ratio (y) = -0.00236 0.32845
# Poissons Ratio (z) = 0.05120 0.38518
#
# Static dielectric constant tensor:
#      x y z
#    x 1.664860 0.000000 0.006360 
#    y 0.000000 1.705070 0.000000 
#    z 0.006360 0.000000 1.651480 
# 
# From -- ./inp_files/142246.got.cif
#   From: 2010.05.17/outbox.cif.g08.bks.cpg/sg12_72_cif.got.tgz:142246.got - 2010.06.03 13:09:07.
