data_PCOD9212529
_publ_section_title
;
Structure prediction by ZEFSAII (Michael W. Deem and Ramdas Pophale) SiO2 
 PCOD9212529
Probable space group: C 2/M
;
_chemical_formula_sum "Si O2"
_cell_formula_units_Z 28
_cell_length_a 11.600766
_cell_length_b 16.833316
_cell_length_c 7.467797
_cell_angle_alpha 90.000000
_cell_angle_beta 110.115538
_cell_angle_gamma 90.000000
_cell_volume 1369.351403
_symmetry_space_group_name_H-M "C 2/M"
_symmetry_group_IT_number 12
_symmetry_cell_setting 'monoclinic'
loop_
_space_group_symop_operation_xyz
x,y,z
-x,y,-z
-x,-y,-z
x,-y,z
1/2+x,1/2+y,z
1/2-x,1/2+y,-z
1/2-x,1/2-y,-z
1/2+x,1/2-y,z
loop_
_atom_site_type_symbol
_atom_site_label
_atom_site_fract_x
_atom_site_fract_y
_atom_site_fract_z
Si Si1 0.034344 0.089756 0.803793
Si Si2 0.786010 0.406316 0.089446
Si Si3 0.000000 0.671166 0.000000
Si Si4 0.666005 0.292748 0.312358
O O1 0.941963 0.151360 0.666837
O O2 0.014603 0.000000 0.731045
O O3 0.178798 0.108705 0.883464
O O4 0.000000 0.091556 0.000000
O O5 0.778063 0.500000 0.129941
O O6 0.917863 0.382474 0.085928
O O7 0.749540 0.349972 0.234112
O O8 0.905882 0.728354 0.845532
O O9 0.750000 0.250000 0.500000
#
# Coordination Sequence:
#
# PCOD9212529 Si02
#       4
#     8   8   4   8
#     4   8  15  34  62  86 114 161 211 252 304 368
#     4  10  21  42  66  90 126 173 210 256 319 376
#     4  12  23  40  61  96 130 164 214 262 311 372
#     4  11  22  37  64  96 126 162 212 263 319 371
#
# _framework density 20.447637
#
# number of rings (size 3 to 8) (size 9 to 14) (size 15 to 20)
#    0.000    2.000    4.286    3.857    0.000    1.143 
#    0.000    7.143    0.000    3.429    0.000    0.000 
#    0.000    0.000    0.000    0.000    0.000    0.000 
#
# Total GULP energy -78197.980530 kJ/mol
# GULP energy per Si atom -5585.570038 kJ/mol
# Density = 2.040110 g / cm^3
# Si number density = 20.447637 Si / 1000 Ang^3
#
#
#
# Elastic Constant Matrix: (Units=GPa)
#
#
# Indices 1 2 3 4 5 6 
#
# 1 128.6021 67.5426 34.6622 0.0000 1.5445 0.0000
# 2 67.5426 142.2692 81.3895 0.0000 22.8759 0.0000
# 3 34.6622 81.3895 112.1992 0.0000 20.8532 0.0000
# 4 0.0000 0.0000 0.0000 26.2451 0.0000 22.2975
# 5 1.5445 22.8759 20.8532 0.0000 13.0498 0.0000
# 6 0.0000 0.0000 0.0000 22.2975 0.0000 14.0047
#
#
#
# Elastic Compliance Matrix: (Units=1/GPa)
#
#
# Indices 1 2 3 4 5 6 
#
# 1 0.011489 -0.006972 -0.000726 0.000000 0.012023 0.000000
# 2 -0.006972 0.017272 -0.006972 0.000000 -0.018311 0.000000
# 3 -0.000726 -0.006972 0.016937 0.000000 -0.014758 0.000000
# 4 0.000000 0.000000 0.000000 -0.108041 0.000000 0.172017
# 5 0.012023 -0.018311 -0.014758 0.000000 0.130888 0.000000
# 6 0.000000 0.000000 0.000000 0.172017 0.000000 -0.202471
#
#
# Mechanical properties :
#
#
# Convention : Reuss Voigt Hill
#
# Bulk Modulus (GPa) = 61.13319 83.36212 72.24766
# Shear Modulus (GPa) = -50.43716 23.95833 -13.23941
#
# Velocity S-wave (km/s) = -4.97193 3.42671 -2.54732
# Velocity P-wave (km/s) = 1.73139 7.51755 5.17281
#
# Compressibility (1/GPa) = 0.01635773
#
# Stress axis : x y z
#
# Youngs Moduli (GPa) = 87.03883 57.89835 59.04131
#
# Poissons Ratio (x) = 0.40368 0.04288
# Poissons Ratio (y) = 0.60685 0.41162
# Poissons Ratio (z) = 0.06322 0.40365
#
# Static dielectric constant tensor:
#      x y z
#    x 1.760770 0.000000 -0.019580 
#    y 0.000000 1.733570 0.000000 
#    z -0.019580 0.000000 1.743040 
# 
# From -- ./inp_files/44767.got.cif
#   From: 2010.05.17/outbox.cif.g08.bks.cpg/sg12_23_cif.got.tgz:44767.got - 2010.06.03 13:09:07.
