data_PCOD9212089
_publ_section_title
;
Structure prediction by ZEFSAII (Michael W. Deem and Ramdas Pophale) SiO2 
 PCOD9212089
Probable space group: C 2/M
;
_chemical_formula_sum "Si O2"
_cell_formula_units_Z 56
_cell_length_a 19.123820
_cell_length_b 9.207205
_cell_length_c 28.421104
_cell_angle_alpha 90.000000
_cell_angle_beta 145.294150
_cell_angle_gamma 90.000000
_cell_volume 2849.266016
_symmetry_space_group_name_H-M "C 2/M"
_symmetry_group_IT_number 12
_symmetry_cell_setting 'monoclinic'
loop_
_space_group_symop_operation_xyz
x,y,z
-x,y,-z
-x,-y,-z
x,-y,z
1/2+x,1/2+y,z
1/2-x,1/2+y,-z
1/2-x,1/2-y,-z
1/2+x,1/2-y,z
loop_
_atom_site_type_symbol
_atom_site_label
_atom_site_fract_x
_atom_site_fract_y
_atom_site_fract_z
Si Si1 0.522883 0.673313 0.877568
Si Si2 0.323431 0.667320 0.425363
Si Si3 0.074463 0.331577 0.346836
Si Si4 0.880632 0.174274 0.172280
Si Si5 0.263929 0.172017 0.297561
Si Si6 0.099186 0.325424 0.015736
Si Si7 0.507293 0.327819 0.608803
O O1 0.536221 0.500000 0.891588
O O2 0.591965 0.711496 0.867189
O O3 0.378285 0.705493 0.790905
O O4 0.571401 0.755240 0.950004
O O5 0.333232 0.500000 0.413088
O O6 0.206806 0.673974 0.395498
O O7 0.296611 0.774582 0.368013
O O8 0.442145 0.700105 0.522593
O O9 0.043323 0.500000 0.337707
O O10 0.071016 0.245384 0.393558
O O11 0.975639 0.258274 0.257592
O O12 0.739846 0.208671 0.106915
O O13 0.899570 0.000000 0.187749
O O14 0.358015 0.257980 0.316538
O O15 0.282060 0.000000 0.302985
O O16 0.090519 0.500000 0.006594
O O17 0.000000 0.278114 0.000000
O O18 0.512651 0.500000 0.618519
#
# Coordination Sequence:
#
# PCOD9212089 Si02
#       7
#     8   8   8   8   8   8   8
#     4  10  22  40  62  88 120 159 201 245 296 355
#     4  10  22  41  62  88 120 160 207 252 303 362
#     4  11  23  39  62  92 122 157 206 253 301 360
#     4  10  21  41  63  87 122 162 202 243 298 360
#     4  11  23  39  61  91 124 159 204 253 302 358
#     4  10  23  40  62  93 123 154 197 245 297 359
#     4  11  24  40  60  86 123 165 204 252 308 359
#
# _framework density 19.654184000000001
#
# number of rings (size 3 to 8) (size 9 to 14) (size 15 to 20)
#    0.000    1.571    1.429    2.571    2.000    6.000 
#    0.000    0.000    0.000    0.000    0.000    0.000 
#    0.000    0.000    0.000    0.000    0.000    0.000 
#
# Total GULP energy -156555.081458 kJ/mol
# GULP energy per Si atom -5591.252909 kJ/mol
# Density = 1.960945 g / cm^3
# Si number density = 19.654184 Si / 1000 Ang^3
#
#
#
# Elastic Constant Matrix: (Units=GPa)
#
#
# Indices 1 2 3 4 5 6 
#
# 1 37.2048 13.0029 9.7368 0.0000 14.0701 0.0000
# 2 13.0029 38.1312 26.2593 0.0000 4.0663 0.0000
# 3 9.7368 26.2593 64.7537 0.0000 11.4496 0.0000
# 4 0.0000 0.0000 0.0000 28.8704 0.0000 -8.4177
# 5 14.0701 4.0663 11.4496 0.0000 33.6865 0.0000
# 6 0.0000 0.0000 0.0000 -8.4177 0.0000 31.7856
#
#
#
# Elastic Compliance Matrix: (Units=1/GPa)
#
#
# Indices 1 2 3 4 5 6 
#
# 1 0.035984 -0.012154 0.002039 0.000000 -0.014255 0.000000
# 2 -0.012154 0.040506 -0.015567 0.000000 0.005478 0.000000
# 3 0.002039 -0.015567 0.022628 0.000000 -0.006663 0.000000
# 4 0.000000 0.000000 0.000000 0.037536 0.000000 0.009940
# 5 -0.014255 0.005478 -0.006663 0.000000 0.037243 0.000000
# 6 0.000000 0.000000 0.000000 0.009940 0.000000 0.034093
#
#
# Mechanical properties :
#
#
# Convention : Reuss Voigt Hill
#
# Bulk Modulus (GPa) = 20.94168 26.45419 23.69793
# Shear Modulus (GPa) = 18.16378 24.94123 21.55251
#
# Velocity S-wave (km/s) = 3.04331 3.56617 3.31507
# Velocity P-wave (km/s) = 4.79867 5.51777 5.17074
#
# Compressibility (1/GPa) = 0.04775166
#
# Stress axis : x y z
#
# Youngs Moduli (GPa) = 27.79039 24.68755 44.19358
#
# Poissons Ratio (x) = 0.30006 -0.09010
# Poissons Ratio (y) = 0.33778 0.68798
# Poissons Ratio (z) = -0.05666 0.38432
#
# Static dielectric constant tensor:
#      x y z
#    x 1.705060 0.000000 0.012890 
#    y 0.000000 1.651680 0.000000 
#    z 0.012890 0.000000 1.652900 
# 
# From -- ./inp_files/275250.got.cif
#   From: 2010.05.17/outbox.cif.g08.bks.cpg/sg12_138_cif.got.tgz:275250.got - 2010.06.03 13:09:07.
