data_PCOD9212725
_publ_section_title
;
Structure prediction by ZEFSAII (Michael W. Deem and Ramdas Pophale) SiO2 
 PCOD9212725
Probable space group: C 2/M
;
_chemical_formula_sum "Si O2"
_cell_formula_units_Z 40
_cell_length_a 9.397174
_cell_length_b 17.784527
_cell_length_c 11.583628
_cell_angle_alpha 90.000000
_cell_angle_beta 98.905641
_cell_angle_gamma 90.000000
_cell_volume 1912.567599
_symmetry_space_group_name_H-M "C 2/M"
_symmetry_group_IT_number 12
_symmetry_cell_setting 'monoclinic'
loop_
_space_group_symop_operation_xyz
x,y,z
-x,y,-z
-x,-y,-z
x,-y,z
1/2+x,1/2+y,z
1/2-x,1/2+y,-z
1/2-x,1/2-y,-z
1/2+x,1/2-y,z
loop_
_atom_site_type_symbol
_atom_site_label
_atom_site_fract_x
_atom_site_fract_y
_atom_site_fract_z
Si Si1 0.656415 0.147031 0.534103
Si Si2 0.351904 0.589256 0.930616
Si Si3 0.335003 0.185866 0.944215
Si Si4 0.804888 0.797871 0.324379
Si Si5 0.928588 0.087844 0.683875
O O1 0.500000 0.110438 0.500000
O O2 0.700636 0.180462 0.416218
O O3 0.644621 0.214489 0.628252
O O4 0.792646 0.095865 0.582872
O O5 0.358347 0.500000 0.930276
O O6 0.359426 0.611833 0.798250
O O7 0.500000 0.620807 0.000000
O O8 0.225751 0.611969 0.000402
O O9 0.285962 0.194313 0.805442
O O10 0.500000 0.192439 0.000000
O O11 0.250000 0.250000 0.000000
O O12 0.942009 0.854811 0.331012
O O13 0.976971 0.000000 0.694922
#
# Coordination Sequence:
#
# PCOD9212725 Si02
#       5
#     8   8   8   8   8
#     4  11  25  42  67  95 133 176 224 282 337 389
#     4  10  21  43  69  96 133 174 215 271 342 404
#     4  12  27  40  67 102 135 172 224 281 329 402
#     4  11  24  43  67  96 133 180 223 272 335 407
#     4  11  24  45  72  99 134 178 226 275 333 407
#
# _framework density 20.914290999999999
#
# number of rings (size 3 to 8) (size 9 to 14) (size 15 to 20)
#    0.000    1.000    2.000    4.800    8.400    2.400 
#    0.000    0.000    0.000    0.000    0.000    0.000 
#    0.000    0.000    0.000    0.000    0.000    0.000 
#
# Total GULP energy -111611.550134 kJ/mol
# GULP energy per Si atom -5580.577507 kJ/mol
# Density = 2.086669 g / cm^3
# Si number density = 20.914291 Si / 1000 Ang^3
#
#
#
# Elastic Constant Matrix: (Units=GPa)
#
#
# Indices 1 2 3 4 5 6 
#
# 1 159.8297 34.0927 62.6523 0.0000 23.4007 0.0000
# 2 34.0927 70.6581 24.2540 0.0000 -4.8999 0.0000
# 3 62.6523 24.2540 126.3103 0.0000 3.3953 0.0000
# 4 0.0000 0.0000 0.0000 21.0650 0.0000 -11.9971
# 5 23.4007 -4.8999 3.3953 0.0000 27.7059 0.0000
# 6 0.0000 0.0000 0.0000 -11.9971 0.0000 22.9712
#
#
#
# Elastic Compliance Matrix: (Units=1/GPa)
#
#
# Indices 1 2 3 4 5 6 
#
# 1 0.009910 -0.004036 -0.003909 0.000000 -0.008605 0.000000
# 2 -0.004036 0.017056 -0.001450 0.000000 0.006603 0.000000
# 3 -0.003909 -0.001450 0.010086 0.000000 0.001809 0.000000
# 4 0.000000 0.000000 0.000000 0.067570 0.000000 0.035290
# 5 -0.008605 0.006603 0.001809 0.000000 0.044307 0.000000
# 6 0.000000 0.000000 0.000000 0.035290 0.000000 0.061963
#
#
# Mechanical properties :
#
#
# Convention : Reuss Voigt Hill
#
# Bulk Modulus (GPa) = 54.76500 66.53290 60.64895
# Shear Modulus (GPa) = 21.20702 30.06836 25.63769
#
# Velocity S-wave (km/s) = 3.18779 3.79581 3.50501
# Velocity P-wave (km/s) = 6.30806 7.14787 6.74106
#
# Compressibility (1/GPa) = 0.01825984
#
# Stress axis : x y z
#
# Youngs Moduli (GPa) = 100.91011 58.63026 99.14855
#
# Poissons Ratio (x) = 0.23666 0.38758
# Poissons Ratio (y) = 0.40731 0.14381
# Poissons Ratio (z) = 0.39447 0.08504
#
# Static dielectric constant tensor:
#      x y z
#    x 1.626090 0.000000 0.069740 
#    y 0.000000 1.447630 0.000000 
#    z 0.069740 0.000000 1.824920 
# 
# From -- ./inp_files/119068.got.cif
#   From: 2010.05.17/outbox.cif.g08.bks.cpg/sg12_60_cif.got.tgz:119068.got - 2010.06.03 13:09:07.
