data_PCOD9212988
_publ_section_title
;
Structure prediction by ZEFSAII (Michael W. Deem and Ramdas Pophale) SiO2 
 PCOD9212988
Probable space group: C 2/M
;
_chemical_formula_sum "Si O2"
_cell_formula_units_Z 60
_cell_length_a 14.403665
_cell_length_b 19.549098
_cell_length_c 15.627274
_cell_angle_alpha 90.000000
_cell_angle_beta 43.512413
_cell_angle_gamma 90.000000
_cell_volume 3029.662796
_symmetry_space_group_name_H-M "C 2/M"
_symmetry_group_IT_number 12
_symmetry_cell_setting 'monoclinic'
loop_
_space_group_symop_operation_xyz
x,y,z
-x,y,-z
-x,-y,-z
x,-y,z
1/2+x,1/2+y,z
1/2-x,1/2+y,-z
1/2-x,1/2-y,-z
1/2+x,1/2-y,z
loop_
_atom_site_type_symbol
_atom_site_label
_atom_site_fract_x
_atom_site_fract_y
_atom_site_fract_z
Si Si1 0.210848 0.075962 0.065216
Si Si2 0.271332 0.577698 0.440902
Si Si3 0.565287 0.577995 0.845536
Si Si4 0.545638 0.422942 0.354059
Si Si5 0.500000 0.691163 0.000000
Si Si6 0.352848 0.217420 0.498301
Si Si7 0.144679 0.779392 0.319575
Si Si8 0.823160 0.286593 0.028728
O O1 0.126684 0.076547 0.210024
O O2 0.322152 0.134279 0.002355
O O3 0.092424 0.089216 0.075142
O O4 0.265442 0.000000 0.014389
O O5 0.221274 0.500000 0.484486
O O6 0.350007 0.582428 0.297809
O O7 0.389061 0.588993 0.433070
O O8 0.160728 0.636530 0.509219
O O9 0.581022 0.500000 0.866400
O O10 0.601904 0.637079 0.887705
O O11 0.562043 0.500000 0.377669
O O12 0.608922 0.359250 0.361833
O O13 0.543754 0.743119 0.044753
O O14 0.250000 0.250000 0.500000
O O15 0.503926 0.244824 0.384801
O O16 0.313864 0.241058 0.620975
O O17 0.244841 0.778666 0.171791
O O18 0.750000 0.250000 0.000000
#
# Coordination Sequence:
#
# PCOD9212988 Si02
#       8
#     8   8   8   8   4   8   8   8
#     4   8  15  31  52  73 105 145 177 218 273 319
#     4   9  17  32  55  79 105 144 182 219 271 324
#     4   9  17  30  51  79 108 137 179 231 275 317
#     4   8  14  29  54  80 106 135 177 229 270 312
#     4  12  21  30  51  82 112 140 182 226 285 320
#     4  11  21  36  57  80 113 145 178 224 274 329
#     4  10  22  36  54  84 111 146 187 217 280 331
#     4  11  22  36  55  82 114 143 182 233 273 326
#
# _framework density 19.804183999999999
#
# number of rings (size 3 to 8) (size 9 to 14) (size 15 to 20)
#    0.000    2.400    2.667    2.600    0.000    1.067 
#    0.000    3.667    0.000    2.400    0.000    0.000 
#    0.000    0.000    0.000    0.000    0.000    0.000 
#
# Total GULP energy -167125.166763 kJ/mol
# GULP energy per Si atom -5570.838892 kJ/mol
# Density = 1.975911 g / cm^3
# Si number density = 19.804184 Si / 1000 Ang^3
#
#
#
# Elastic Constant Matrix: (Units=GPa)
#
#
# Indices 1 2 3 4 5 6 
#
# 1 71.7967 37.5616 -4.3295 0.0001 8.2400 -0.0001
# 2 37.5616 167.9425 -2.3902 0.0001 -10.0447 -0.0001
# 3 -4.3295 -2.3902 30.2138 0.0004 8.0615 -0.0002
# 4 0.0001 0.0001 0.0004 19.3840 -0.0003 -5.8608
# 5 8.2400 -10.0447 8.0615 -0.0003 19.5666 0.0001
# 6 -0.0001 -0.0001 -0.0002 -5.8608 0.0001 16.8196
#
#
#
# Elastic Compliance Matrix: (Units=1/GPa)
#
#
# Indices 1 2 3 4 5 6 
#
# 1 0.018145 -0.004718 0.005519 0.000000 -0.012337 0.000000
# 2 -0.004718 0.007374 -0.001834 0.000000 0.006528 0.000000
# 3 0.005519 -0.001834 0.038890 -0.000001 -0.019288 0.000000
# 4 0.000000 0.000000 -0.000001 0.057664 0.000001 0.020093
# 5 -0.012337 0.006528 -0.019288 0.000001 0.067601 0.000000
# 6 0.000000 0.000000 0.000000 0.020093 0.000000 0.066456
#
#
# Mechanical properties :
#
#
# Convention : Reuss Voigt Hill
#
# Bulk Modulus (GPa) = 16.04066 36.84852 26.44459
# Shear Modulus (GPa) = 17.92265 27.09479 22.50872
#
# Velocity S-wave (km/s) = 3.01157 3.70284 3.37495
# Velocity P-wave (km/s) = 4.49555 6.07686 5.34501
#
# Compressibility (1/GPa) = 0.06234158
#
# Stress axis : x y z
#
# Youngs Moduli (GPa) = 55.11170 135.61401 25.71381
#
# Poissons Ratio (x) = 0.63977 -0.14190
# Poissons Ratio (y) = 0.25999 0.04717
# Poissons Ratio (z) = -0.30414 0.24877
#
# Static dielectric constant tensor:
#      x y z
#    x 0.935120 0.000010 0.090350 
#    y 0.000010 1.730020 0.000000 
#    z 0.090350 0.000000 1.704110 
# 
# From -- ./inp_files/271176.got.cif
#   From: 2010.05.17/outbox.cif.g08.bks.cpg/sg12_136_cif.got.tgz:271176.got - 2010.06.03 13:09:07.
