data_PCOD9212489
_publ_section_title
;
Structure prediction by ZEFSAII (Michael W. Deem and Ramdas Pophale) SiO2 
 PCOD9212489
Probable space group: C 2/M
;
_chemical_formula_sum "Si O2"
_cell_formula_units_Z 58
_cell_length_a 16.500282
_cell_length_b 9.323954
_cell_length_c 19.438029
_cell_angle_alpha 90.000000
_cell_angle_beta 119.493689
_cell_angle_gamma 90.000000
_cell_volume 2602.960343
_symmetry_space_group_name_H-M "C 2/M"
_symmetry_group_IT_number 12
_symmetry_cell_setting 'monoclinic'
loop_
_space_group_symop_operation_xyz
x,y,z
-x,y,-z
-x,-y,-z
x,-y,z
1/2+x,1/2+y,z
1/2-x,1/2+y,-z
1/2-x,1/2-y,-z
1/2+x,1/2-y,z
loop_
_atom_site_type_symbol
_atom_site_label
_atom_site_fract_x
_atom_site_fract_y
_atom_site_fract_z
Si Si1 0.154345 0.662814 0.386893
Si Si2 0.968016 0.330247 0.237743
Si Si3 0.986751 0.166844 0.113594
Si Si4 0.179506 0.328964 0.172788
Si Si5 0.327709 0.841765 0.305090
Si Si6 0.500000 0.500000 0.500000
Si Si7 0.299703 0.331358 0.958229
Si Si8 0.637341 0.766714 0.532073
O O1 0.174538 0.500000 0.375102
O O2 0.250459 0.746635 0.423205
O O3 0.117339 0.663214 0.450062
O O4 0.071381 0.716138 0.304138
O O5 0.969400 0.500000 0.219401
O O6 0.902703 0.316438 0.276661
O O7 0.939618 0.230986 0.162681
O O8 0.076678 0.264847 0.139734
O O9 0.909978 0.174056 0.021645
O O10 0.012946 0.000000 0.133077
O O11 0.177976 0.500000 0.166414
O O12 0.248159 0.277182 0.262102
O O13 0.216979 0.252085 0.119403
O O14 0.376204 0.839091 0.399540
O O15 0.285640 0.000000 0.276837
O O16 0.576677 0.624002 0.510879
O O17 0.272593 0.500000 0.942641
O O18 0.250000 0.250000 0.000000
#
# Coordination Sequence:
#
# PCOD9212489 Si02
#       8
#     8   8   8   8   8   2   8   8
#     4  10  21  42  63  90 125 176 223 273 333 407
#     4  10  22  40  64  92 127 169 222 274 335 395
#     4  11  24  43  65  95 131 174 224 275 330 401
#     4  12  26  42  67  98 133 175 219 275 341 404
#     4  11  24  43  67  97 130 176 223 283 339 404
#     4  12  24  40  58 104 132 170 220 280 338 396
#     4  11  24  43  68  98 135 176 222 277 332 397
#     4  11  23  39  65  93 134 173 221 277 339 400
#
# _framework density 22.282321
#
# number of rings (size 3 to 8) (size 9 to 14) (size 15 to 20)
#    0.000    1.103    0.690    5.379    0.966    7.724 
#    3.724    2.759    0.000    0.000    0.000    0.000 
#    0.000    0.000    0.000    0.000    0.000    0.000 
#
# Total GULP energy -161921.883535 kJ/mol
# GULP energy per Si atom -5583.513225 kJ/mol
# Density = 2.223161 g / cm^3
# Si number density = 22.282321 Si / 1000 Ang^3
#
#
#
# Elastic Constant Matrix: (Units=GPa)
#
#
# Indices 1 2 3 4 5 6 
#
# 1 74.9257 31.3117 1.8442 0.0000 -6.3222 0.0000
# 2 31.3117 127.7403 13.3165 0.0000 -1.6934 0.0000
# 3 1.8442 13.3165 80.3715 0.0000 -11.5880 0.0000
# 4 0.0000 0.0000 0.0000 -27.6711 0.0000 2.0565
# 5 -6.3222 -1.6934 -11.5880 0.0000 42.6931 0.0000
# 6 0.0000 0.0000 0.0000 2.0565 0.0000 32.3750
#
#
#
# Elastic Compliance Matrix: (Units=1/GPa)
#
#
# Indices 1 2 3 4 5 6 
#
# 1 0.015080 -0.003729 0.000596 0.000000 0.002247 0.000000
# 2 -0.003729 0.008888 -0.001474 0.000000 -0.000600 0.000000
# 3 0.000596 -0.001474 0.013193 0.000000 0.003611 0.000000
# 4 0.000000 0.000000 0.000000 -0.035969 0.000000 0.002285
# 5 0.002247 -0.000600 0.003611 0.000000 0.024712 0.000000
# 6 0.000000 0.000000 0.000000 0.002285 0.000000 0.030743
#
#
# Mechanical properties :
#
#
# Convention : Reuss Voigt Hill
#
# Bulk Modulus (GPa) = 35.78059 41.77582 38.77821
# Shear Modulus (GPa) = 66.51070 25.25040 45.88055
#
# Velocity S-wave (km/s) = 5.46936 3.36996 4.54261
# Velocity P-wave (km/s) = 7.48184 5.82506 6.70482
#
# Compressibility (1/GPa) = 0.02794811
#
# Stress axis : x y z
#
# Youngs Moduli (GPa) = 66.31432 112.51111 75.79610
#
# Poissons Ratio (x) = 0.41952 -0.04515
# Poissons Ratio (y) = 0.24726 0.11169
# Poissons Ratio (z) = -0.03950 0.16579
#
# Static dielectric constant tensor:
#      x y z
#    x 1.863150 0.000000 -0.011290 
#    y 0.000000 1.775840 0.000000 
#    z -0.011290 0.000000 1.833440 
# 
# From -- ./inp_files/314854.got.cif
#   From: 2010.05.17/outbox.cif.g08.bks.cpg/sg12_158_cif.got.tgz:314854.got - 2010.06.03 13:09:07.
