data_PCOD9212414
_publ_section_title
;
Structure prediction by ZEFSAII (Michael W. Deem and Ramdas Pophale) SiO2 
 PCOD9212414
Probable space group: C 2/M
;
_chemical_formula_sum "Si O2"
_cell_formula_units_Z 48
_cell_length_a 22.648688
_cell_length_b 24.291647
_cell_length_c 9.730345
_cell_angle_alpha 90.000000
_cell_angle_beta 27.288907
_cell_angle_gamma 90.000000
_cell_volume 2454.405288
_symmetry_space_group_name_H-M "C 2/M"
_symmetry_group_IT_number 12
_symmetry_cell_setting 'monoclinic'
loop_
_space_group_symop_operation_xyz
x,y,z
-x,y,-z
-x,-y,-z
x,-y,z
1/2+x,1/2+y,z
1/2-x,1/2+y,-z
1/2-x,1/2-y,-z
1/2+x,1/2-y,z
loop_
_atom_site_type_symbol
_atom_site_label
_atom_site_fract_x
_atom_site_fract_y
_atom_site_fract_z
Si Si1 0.868451 0.863130 0.217719
Si Si2 0.772388 0.656375 0.211863
Si Si3 0.468427 0.752088 0.906389
Si Si4 0.458404 0.936297 0.735325
Si Si5 0.125075 0.436099 0.651389
Si Si6 0.627944 0.723631 0.327723
O O1 0.808760 0.841472 0.482419
O O2 0.755343 0.901412 0.394828
O O3 0.907581 0.809670 0.045630
O O4 0.000000 0.891444 0.000000
O O5 0.680813 0.665339 0.270761
O O6 0.873498 0.705493 0.028251
O O7 0.848552 0.600353 0.030630
O O8 0.589766 0.751832 0.552184
O O9 0.500000 0.767934 0.000000
O O10 0.500000 0.914863 0.500000
O O11 0.577327 0.934396 0.593848
O O12 0.418167 0.000000 0.804509
O O13 0.146595 0.500000 0.648163
O O14 0.000000 0.416469 0.000000
O O15 0.500000 0.722660 0.500000
O O16 0.750000 0.750000 0.000000
#
# Coordination Sequence:
#
# PCOD9212414 Si02
#       6
#     8   8   8   8   8   8
#     4  11  23  41  62  98 138 172 215 274 334 395
#     4  12  24  41  67  97 128 181 214 272 342 385
#     4  11  25  42  64  96 139 178 222 269 329 407
#     4  10  24  44  67  97 129 166 225 281 328 392
#     4  10  21  41  70 100 127 168 228 281 323 386
#     4  12  26  44  63  95 138 176 225 271 319 396
#
# _framework density 19.556671999999999
#
# number of rings (size 3 to 8) (size 9 to 14) (size 15 to 20)
#    0.000    1.000    6.667    0.500    4.667    1.667 
#    0.000    0.000    0.000    0.500    0.000    0.000 
#    0.000    0.000    0.000    0.000    0.000    0.000 
#
# Total GULP energy -133856.238625 kJ/mol
# GULP energy per Si atom -5577.343276 kJ/mol
# Density = 1.951216 g / cm^3
# Si number density = 19.556672 Si / 1000 Ang^3
#
#
#
# Elastic Constant Matrix: (Units=GPa)
#
#
# Indices 1 2 3 4 5 6 
#
# 1 95.6809 22.6764 32.7127 0.0001 -3.5829 0.0000
# 2 22.6764 49.6432 40.3786 0.0001 -10.2819 0.0000
# 3 32.7127 40.3786 131.6213 0.0003 -1.3832 -0.0001
# 4 0.0001 0.0001 0.0003 20.3179 -0.0002 -6.1144
# 5 -3.5829 -10.2819 -1.3832 -0.0002 39.6751 0.0000
# 6 0.0000 0.0000 -0.0001 -6.1144 0.0000 29.0021
#
#
#
# Elastic Compliance Matrix: (Units=1/GPa)
#
#
# Indices 1 2 3 4 5 6 
#
# 1 0.012010 -0.004084 -0.001732 0.000000 -0.000034 0.000000
# 2 -0.004084 0.030120 -0.008150 0.000000 0.007153 0.000000
# 3 -0.001732 -0.008150 0.010508 0.000000 -0.001902 0.000000
# 4 0.000000 0.000000 0.000000 0.052552 0.000000 0.011079
# 5 -0.000034 0.007153 -0.001902 0.000000 0.026989 0.000000
# 6 0.000000 0.000000 0.000000 0.011079 0.000000 0.036816
#
#
# Mechanical properties :
#
#
# Convention : Reuss Voigt Hill
#
# Bulk Modulus (GPa) = 40.47678 52.05341 46.26510
# Shear Modulus (GPa) = 24.37083 29.87753 27.12418
#
# Velocity S-wave (km/s) = 3.53394 3.91287 3.72822
# Velocity P-wave (km/s) = 6.11504 6.86211 6.49932
#
# Compressibility (1/GPa) = 0.02470552
#
# Stress axis : x y z
#
# Youngs Moduli (GPa) = 83.26124 33.20087 95.16242
#
# Poissons Ratio (x) = 0.13560 0.16486
# Poissons Ratio (y) = 0.34005 0.77556
# Poissons Ratio (z) = 0.14425 0.27058
#
# Static dielectric constant tensor:
#      x y z
#    x 1.747960 0.000000 -0.012430 
#    y 0.000000 1.710480 0.000000 
#    z -0.012430 0.000000 1.767410 
# 
# From -- ./inp_files/91203.got.cif
#   From: 2010.05.17/outbox.cif.g08.bks.cpg/sg12_46_cif.got.tgz:91203.got - 2010.06.03 13:09:07.
