data_PCOD9212906
_publ_section_title
;
Structure prediction by ZEFSAII (Michael W. Deem and Ramdas Pophale) SiO2 
 PCOD9212906
Probable space group: C 2/M
;
_chemical_formula_sum "Si O2"
_cell_formula_units_Z 56
_cell_length_a 9.437778
_cell_length_b 27.103525
_cell_length_c 12.006859
_cell_angle_alpha 90.000000
_cell_angle_beta 77.401510
_cell_angle_gamma 90.000000
_cell_volume 2997.369482
_symmetry_space_group_name_H-M "C 2/M"
_symmetry_group_IT_number 12
_symmetry_cell_setting 'monoclinic'
loop_
_space_group_symop_operation_xyz
x,y,z
-x,y,-z
-x,-y,-z
x,-y,z
1/2+x,1/2+y,z
1/2-x,1/2+y,-z
1/2-x,1/2-y,-z
1/2+x,1/2-y,z
loop_
_atom_site_type_symbol
_atom_site_label
_atom_site_fract_x
_atom_site_fract_y
_atom_site_fract_z
Si Si1 0.503551 0.230928 0.124928
Si Si2 0.964928 0.443986 0.873502
Si Si3 0.159856 0.897857 0.978031
Si Si4 0.857842 0.306405 0.574315
Si Si5 0.137449 0.807715 0.410172
Si Si6 0.801490 0.363980 0.186510
Si Si7 0.289369 0.308713 0.186782
O O1 0.411702 0.180529 0.137505
O O2 0.411683 0.270982 0.208590
O O3 0.663954 0.220386 0.140559
O O4 0.500000 0.250332 0.000000
O O5 0.979331 0.500000 0.830992
O O6 0.797323 0.426475 0.900710
O O7 0.085954 0.407714 0.799860
O O8 0.000000 0.442938 0.000000
O O9 0.146496 0.849190 0.904992
O O10 0.210321 0.881858 0.094110
O O11 0.000000 0.922309 0.000000
O O12 0.892317 0.250346 0.611751
O O13 0.756990 0.304087 0.485303
O O14 0.786757 0.331899 0.692363
O O15 0.000000 0.330586 0.500000
O O16 0.196759 0.840662 0.298678
O O17 0.000000 0.828665 0.500000
#
# Coordination Sequence:
#
# PCOD9212906 Si02
#       7
#     8   8   8   8   8   8   8
#     4  12  22  34  49  79 115 158 190 229 278 340
#     4   9  19  40  66  86 108 144 188 238 298 352
#     4  11  24  35  55  90 120 144 185 235 292 347
#     4  10  22  35  50  73 106 161 206 232 266 321
#     4  10  22  36  53  75 110 153 200 238 269 317
#     4  11  20  40  58  81 116 149 193 236 278 348
#     4  12  24  34  52  77 118 156 195 230 279 336
#
# _framework density 18.683047999999999
#
# number of rings (size 3 to 8) (size 9 to 14) (size 15 to 20)
#    0.000    1.286    4.286    2.143    8.000    0.286 
#    0.000    0.000    0.000    0.429    0.000    2.000 
#    0.000    0.000    0.000    0.000    0.000    0.000 
#
# Total GULP energy -156223.632563 kJ/mol
# GULP energy per Si atom -5579.415449 kJ/mol
# Density = 1.864053 g / cm^3
# Si number density = 18.683048 Si / 1000 Ang^3
#
#
#
# Elastic Constant Matrix: (Units=GPa)
#
#
# Indices 1 2 3 4 5 6 
#
# 1 67.5390 11.0721 -3.0629 0.0000 -11.2687 0.0000
# 2 11.0721 67.6657 11.5500 0.0000 -13.0210 0.0000
# 3 -3.0629 11.5500 86.7954 0.0000 -14.8297 0.0000
# 4 0.0000 0.0000 0.0000 9.0076 0.0000 -7.3514
# 5 -11.2687 -13.0210 -14.8297 0.0000 32.5809 0.0000
# 6 0.0000 0.0000 0.0000 -7.3514 0.0000 15.9212
#
#
#
# Elastic Compliance Matrix: (Units=1/GPa)
#
#
# Indices 1 2 3 4 5 6 
#
# 1 0.016134 -0.001857 0.001782 0.000000 0.005649 0.000000
# 2 -0.001857 0.016325 -0.001337 0.000000 0.005274 0.000000
# 3 0.001782 -0.001337 0.012769 0.000000 0.005894 0.000000
# 4 0.000000 0.000000 0.000000 0.178152 0.000000 0.082260
# 5 0.005649 0.005274 0.005894 0.000000 0.037437 0.000000
# 6 0.000000 0.000000 0.000000 0.082260 0.000000 0.100792
#
#
# Mechanical properties :
#
#
# Convention : Reuss Voigt Hill
#
# Bulk Modulus (GPa) = 23.58274 29.01317 26.29796
# Shear Modulus (GPa) = 13.20762 24.99800 19.10281
#
# Velocity S-wave (km/s) = 2.66170 3.66184 3.20107
# Velocity P-wave (km/s) = 4.70065 5.78287 5.26962
#
# Compressibility (1/GPa) = 0.04240389
#
# Stress axis : x y z
#
# Youngs Moduli (GPa) = 61.98084 61.25417 78.31363
#
# Poissons Ratio (x) = 0.11375 -0.13953
# Poissons Ratio (y) = 0.11510 0.10470
# Poissons Ratio (z) = -0.11043 0.08189
#
# Static dielectric constant tensor:
#      x y z
#    x 1.658440 0.000000 -0.035850 
#    y 0.000000 1.638080 0.000000 
#    z -0.035850 0.000000 1.681750 
# 
# From -- ./inp_files/124271.got.cif
#   From: 2010.05.17/outbox.cif.g08.bks.cpg/sg12_63_cif.got.tgz:124271.got - 2010.06.03 13:09:07.
