data_PCOD9212976
_publ_section_title
;
Structure prediction by ZEFSAII (Michael W. Deem and Ramdas Pophale) SiO2 
 PCOD9212976
Probable space group: C 2/M
;
_chemical_formula_sum "Si O2"
_cell_formula_units_Z 36
_cell_length_a 24.582914
_cell_length_b 13.628944
_cell_length_c 5.118562
_cell_angle_alpha 90.000000
_cell_angle_beta 63.448962
_cell_angle_gamma 90.000000
_cell_volume 1534.057447
_symmetry_space_group_name_H-M "C 2/M"
_symmetry_group_IT_number 12
_symmetry_cell_setting 'monoclinic'
loop_
_space_group_symop_operation_xyz
x,y,z
-x,y,-z
-x,-y,-z
x,-y,z
1/2+x,1/2+y,z
1/2-x,1/2+y,-z
1/2-x,1/2-y,-z
1/2+x,1/2-y,z
loop_
_atom_site_type_symbol
_atom_site_label
_atom_site_fract_x
_atom_site_fract_y
_atom_site_fract_z
Si Si1 0.746525 0.615517 0.274841
Si Si2 0.928066 0.197054 0.211288
Si Si3 0.456680 0.500000 0.345847
Si Si4 0.677904 0.697869 0.927856
Si Si5 0.543859 0.892423 0.653045
O O1 0.758915 0.500000 0.233266
O O2 0.716755 0.644396 0.615493
O O3 0.804184 0.687162 0.114187
O O4 0.700584 0.650376 0.146015
O O5 0.890732 0.187940 0.025299
O O6 0.913300 0.299015 0.388822
O O7 0.919072 0.099328 0.399216
O O8 0.000000 0.201834 0.000000
O O9 0.500000 0.500000 0.500000
O O10 0.500000 0.500000 0.000000
O O11 0.500000 0.874609 0.500000
O O12 0.573387 0.000000 0.556436
O O13 0.500000 0.899322 0.000000
#
# Coordination Sequence:
#
# PCOD9212976 Si02
#       5
#     8   8   4   8   8
#     4  10  22  42  66  88 122 158 208 268 309 360
#     4  10  22  39  59  89 128 160 198 249 296 375
#     4  10  22  36  52  80 120 164 194 228 281 350
#     4  10  23  40  63  96 118 161 212 249 316 371
#     4   9  18  33  53  76 108 152 193 234 286 344
#
# _framework density 23.467181
#
# number of rings (size 3 to 8) (size 9 to 14) (size 15 to 20)
#    0.000    2.222    0.000    1.333    3.111    8.000 
#    0.000    0.000    0.000   10.667    0.000    0.000 
#    0.000    0.000    0.000    0.000    0.000    0.000 
#
# Total GULP energy -100654.746330 kJ/mol
# GULP energy per Si atom -5591.930352 kJ/mol
# Density = 2.341377 g / cm^3
# Si number density = 23.467181 Si / 1000 Ang^3
#
#
#
# Elastic Constant Matrix: (Units=GPa)
#
#
# Indices 1 2 3 4 5 6 
#
# 1 119.3051 33.4017 19.5885 0.0000 21.2097 0.0000
# 2 33.4017 245.9458 14.3470 0.0000 23.8571 0.0000
# 3 19.5885 14.3470 90.0928 0.0000 21.9430 0.0000
# 4 0.0000 0.0000 0.0000 15.7535 0.0000 11.6939
# 5 21.2097 23.8571 21.9430 0.0000 40.9793 0.0000
# 6 0.0000 0.0000 0.0000 11.6939 0.0000 12.0230
#
#
#
# Elastic Compliance Matrix: (Units=1/GPa)
#
#
# Indices 1 2 3 4 5 6 
#
# 1 0.009471 -0.000853 -0.000978 0.000000 -0.003882 0.000000
# 2 -0.000853 0.004387 0.000002 0.000000 -0.002113 0.000000
# 3 -0.000978 0.000002 0.012867 0.000000 -0.006385 0.000000
# 4 0.000000 0.000000 0.000000 0.228321 0.000000 -0.222070
# 5 -0.003882 -0.002113 -0.006385 0.000000 0.031061 0.000000
# 6 0.000000 0.000000 0.000000 -0.222070 0.000000 0.299163
#
#
# Mechanical properties :
#
#
# Convention : Reuss Voigt Hill
#
# Bulk Modulus (GPa) = 43.35251 65.55757 54.45504
# Shear Modulus (GPa) = 8.38059 39.61828 23.99943
#
# Velocity S-wave (km/s) = 1.89181 4.11328 3.20141
# Velocity P-wave (km/s) = 4.82553 7.11022 6.07622
#
# Compressibility (1/GPa) = 0.02306671
#
# Stress axis : x y z
#
# Youngs Moduli (GPa) = 105.58216 227.96484 77.71765
#
# Poissons Ratio (x) = 0.19438 0.07601
# Poissons Ratio (y) = 0.09003 -0.00012
# Poissons Ratio (z) = 0.10326 -0.00035
#
# Static dielectric constant tensor:
#      x y z
#    x 1.905710 0.000000 -0.074640 
#    y 0.000000 2.165240 0.000000 
#    z -0.074640 0.000000 1.904300 
# 
# From -- ./inp_files/19677.got.cif
#   From: 2010.05.17/outbox.cif.g08.bks.cpg/sg12_10_cif.got.tgz:19677.got - 2010.06.03 13:09:07.
