data_PCOD9212391
_publ_section_title
;
Structure prediction by ZEFSAII (Michael W. Deem and Ramdas Pophale) SiO2 
 PCOD9212391
Probable space group: C 2/M
;
_chemical_formula_sum "Si O2"
_cell_formula_units_Z 44
_cell_length_a 11.877090
_cell_length_b 24.176170
_cell_length_c 8.780005
_cell_angle_alpha 90.000000
_cell_angle_beta 122.980695
_cell_angle_gamma 90.000000
_cell_volume 2114.845795
_symmetry_space_group_name_H-M "C 2/M"
_symmetry_group_IT_number 12
_symmetry_cell_setting 'monoclinic'
loop_
_space_group_symop_operation_xyz
x,y,z
-x,y,-z
-x,-y,-z
x,-y,z
1/2+x,1/2+y,z
1/2-x,1/2+y,-z
1/2-x,1/2-y,-z
1/2+x,1/2-y,z
loop_
_atom_site_type_symbol
_atom_site_label
_atom_site_fract_x
_atom_site_fract_y
_atom_site_fract_z
Si Si1 0.883044 0.285263 0.132157
Si Si2 0.254842 0.378664 0.139542
Si Si3 0.982378 0.177176 0.812052
Si Si4 0.336667 0.500000 0.194074
Si Si5 0.853657 0.000000 0.576511
Si Si6 0.000000 0.333925 0.500000
Si Si7 0.233278 0.617226 0.487416
O O1 0.002762 0.243715 0.178629
O O2 0.901375 0.297959 0.322993
O O3 0.750000 0.250000 0.000000
O O4 0.859583 0.342267 0.025650
O O5 0.397361 0.350775 0.197027
O O6 0.264046 0.442932 0.096914
O O7 0.236779 0.377362 0.307683
O O8 0.843548 0.158161 0.639075
O O9 0.000000 0.158951 0.000000
O O10 0.349310 0.500000 0.388078
O O11 0.491853 0.500000 0.255839
O O12 0.780374 0.944049 0.569009
O O13 0.910194 0.368906 0.548923
#
# Coordination Sequence:
#
# PCOD9212391 Si02
#       7
#     8   8   8   4   4   4   8
#     4  10  25  44  64  96 137 174 224 274 332 396
#     4  10  21  41  69 102 131 170 223 279 333 399
#     4  11  23  40  65  97 136 172 219 281 333 396
#     4   9  16  36  71 102 129 164 224 278 333 390
#     4   9  18  37  67 103 129 170 221 279 329 399
#     4  12  28  45  62  94 138 181 224 276 336 396
#     4  11  23  41  69  97 135 178 225 272 336 395
#
# _framework density 20.805299000000002
#
# number of rings (size 3 to 8) (size 9 to 14) (size 15 to 20)
#    0.000    1.636    1.818    2.727    7.636    1.091 
#    0.000    5.455    0.000    3.273    0.000    0.000 
#    0.000    0.000    0.000    0.000    0.000    0.000 
#
# Total GULP energy -122919.949698 kJ/mol
# GULP energy per Si atom -5587.270441 kJ/mol
# Density = 2.075795 g / cm^3
# Si number density = 20.805299 Si / 1000 Ang^3
#
#
#
# Elastic Constant Matrix: (Units=GPa)
#
#
# Indices 1 2 3 4 5 6 
#
# 1 110.0240 34.8994 29.7689 0.0000 -11.8532 0.0000
# 2 34.8994 155.6118 59.1119 0.0000 11.3154 0.0000
# 3 29.7689 59.1119 111.6079 0.0000 -1.6520 0.0000
# 4 0.0000 0.0000 0.0000 30.4732 0.0000 1.5542
# 5 -11.8532 11.3154 -1.6520 0.0000 29.3423 0.0000
# 6 0.0000 0.0000 0.0000 1.5542 0.0000 12.5997
#
#
#
# Elastic Compliance Matrix: (Units=1/GPa)
#
#
# Indices 1 2 3 4 5 6 
#
# 1 0.010769 -0.002157 -0.001655 0.000000 0.005089 0.000000
# 2 -0.002157 0.008819 -0.004162 0.000000 -0.004506 0.000000
# 3 -0.001655 -0.004162 0.011629 0.000000 0.001591 0.000000
# 4 0.000000 0.000000 0.000000 0.033023 0.000000 -0.004074
# 5 0.005089 -0.004506 0.001591 0.000000 0.037964 0.000000
# 6 0.000000 0.000000 0.000000 -0.004074 0.000000 0.079869
#
#
# Mechanical properties :
#
#
# Convention : Reuss Voigt Hill
#
# Bulk Modulus (GPa) = 65.48903 69.42268 67.45585
# Shear Modulus (GPa) = 24.61714 31.38061 27.99887
#
# Velocity S-wave (km/s) = 3.44352 3.88790 3.67244
# Velocity P-wave (km/s) = 6.88156 7.32083 7.10459
#
# Compressibility (1/GPa) = 0.01526973
#
# Stress axis : x y z
#
# Youngs Moduli (GPa) = 92.85940 113.39574 85.98931
#
# Poissons Ratio (x) = 0.24455 0.14230
# Poissons Ratio (y) = 0.20026 0.35790
# Poissons Ratio (z) = 0.15367 0.47198
#
# Static dielectric constant tensor:
#      x y z
#    x 1.768820 0.000000 0.006680 
#    y 0.000000 1.773730 0.000000 
#    z 0.006680 0.000000 1.747930 
# 
# From -- ./inp_files/51616.got.cif
#   From: 2010.05.17/outbox.cif.g08.bks.cpg/sg12_26_cif.got.tgz:51616.got - 2010.06.03 13:09:07.
