data_PCOD9212466
_publ_section_title
;
Structure prediction by ZEFSAII (Michael W. Deem and Ramdas Pophale) SiO2 
 PCOD9212466
Probable space group: C 2/M
;
_chemical_formula_sum "Si O2"
_cell_formula_units_Z 44
_cell_length_a 7.294377
_cell_length_b 13.916527
_cell_length_c 20.174761
_cell_angle_alpha 90.000000
_cell_angle_beta 61.909085
_cell_angle_gamma 90.000000
_cell_volume 1806.738430
_symmetry_space_group_name_H-M "C 2/M"
_symmetry_group_IT_number 12
_symmetry_cell_setting 'monoclinic'
loop_
_space_group_symop_operation_xyz
x,y,z
-x,y,-z
-x,-y,-z
x,-y,z
1/2+x,1/2+y,z
1/2-x,1/2+y,-z
1/2-x,1/2-y,-z
1/2+x,1/2-y,z
loop_
_atom_site_type_symbol
_atom_site_label
_atom_site_fract_x
_atom_site_fract_y
_atom_site_fract_z
Si Si1 0.405992 0.887430 0.589099
Si Si2 0.814743 0.000000 0.198837
Si Si3 0.002413 0.350283 0.249790
Si Si4 0.350752 0.367548 0.928010
Si Si5 0.441900 0.857687 0.911517
Si Si6 0.042579 0.194500 0.333062
O O1 0.500000 0.871282 0.500000
O O2 0.478884 0.792710 0.619570
O O3 0.156125 0.872291 0.627591
O O4 0.457952 0.000000 0.595464
O O5 0.668234 0.916453 0.257582
O O6 0.958635 0.919481 0.137345
O O7 0.032024 0.384428 0.169099
O O8 0.056744 0.239687 0.256191
O O9 0.760086 0.357836 0.309243
O O10 0.413871 0.256544 0.919986
O O11 0.149462 0.382847 0.915752
O O12 0.261374 0.395313 0.015592
#
# Coordination Sequence:
#
# PCOD9212466 Si02
#       6
#     8   4   8   8   8   8
#     4  10  22  43  75 105 137 183 226 274 331 401
#     4  12  26  38  58  91 125 163 229 273 331 391
#     4  11  24  39  60  90 128 176 208 270 338 396
#     4  10  22  38  62  85 115 161 220 287 313 404
#     4  10  21  42  61  82 118 167 218 262 352 387
#     4  10  23  44  66  97 144 174 221 274 333 411
#
# _framework density 24.353275
#
# number of rings (size 3 to 8) (size 9 to 14) (size 15 to 20)
#    0.000    1.636    0.000    3.818    2.545    7.273 
#    0.000    0.000    0.000    5.455    0.000    0.000 
#    0.000    0.000    0.000    0.000    0.000    0.000 
#
# Total GULP energy -122501.659941 kJ/mol
# GULP energy per Si atom -5568.257270 kJ/mol
# Density = 2.429785 g / cm^3
# Si number density = 24.353275 Si / 1000 Ang^3
#
#
#
# Elastic Constant Matrix: (Units=GPa)
#
#
# Indices 1 2 3 4 5 6 
#
# 1 82.5288 -0.7475 31.2401 0.0000 -21.3012 0.0001
# 2 -0.7475 115.8618 22.8803 0.0000 -4.7884 0.0000
# 3 31.2401 22.8803 101.1042 0.0000 2.2429 0.0001
# 4 0.0000 0.0000 0.0000 19.3675 0.0000 93.3713
# 5 -21.3012 -4.7884 2.2429 0.0000 43.5648 -0.0001
# 6 0.0001 0.0000 0.0001 93.3713 -0.0001 -530.5631
#
#
#
# Elastic Compliance Matrix: (Units=1/GPa)
#
#
# Indices 1 2 3 4 5 6 
#
# 1 0.016459 0.001570 -0.005630 0.000000 0.008510 0.000000
# 2 0.001570 0.009237 -0.002618 0.000000 0.001918 0.000000
# 3 -0.005630 -0.002618 0.012304 0.000000 -0.003674 0.000000
# 4 0.000000 0.000000 0.000000 0.027933 0.000000 0.004916
# 5 0.008510 0.001918 -0.003674 0.000000 0.027515 0.000000
# 6 0.000000 0.000000 0.000000 0.004916 0.000000 -0.001020
#
#
# Mechanical properties :
#
#
# Convention : Reuss Voigt Hill
#
# Bulk Modulus (GPa) = 40.57720 45.13783 42.85751
# Shear Modulus (GPa) = 43.85981 -77.11803 -16.62911
#
# Velocity S-wave (km/s) = 4.24840 -5.63339 -2.61593
# Velocity P-wave (km/s) = 6.38461 4.87224 2.91759
#
# Compressibility (1/GPa) = 0.02464438
#
# Stress axis : x y z
#
# Youngs Moduli (GPa) = 60.75842 108.25618 81.27299
#
# Poissons Ratio (x) = -0.16992 0.45753
# Poissons Ratio (y) = -0.09537 0.21277
# Poissons Ratio (z) = 0.34204 0.28341
#
# Static dielectric constant tensor:
#      x y z
#    x 2.065560 0.000000 0.129600 
#    y 0.000000 1.892240 0.000000 
#    z 0.129600 0.000000 1.967340 
# 
# From -- ./inp_files/332514.got.cif
#   From: 2010.05.17/outbox.cif.g08.bks.cpg/sg12_167_cif.got.tgz:332514.got - 2010.06.03 13:09:07.
