data_PCOD9212739
_publ_section_title
;
Structure prediction by ZEFSAII (Michael W. Deem and Ramdas Pophale) SiO2 
 PCOD9212739
Probable space group: C 2/M
;
_chemical_formula_sum "Si O2"
_cell_formula_units_Z 56
_cell_length_a 13.855753
_cell_length_b 22.663907
_cell_length_c 13.561889
_cell_angle_alpha 90.000000
_cell_angle_beta 33.550022
_cell_angle_gamma 90.000000
_cell_volume 2353.677201
_symmetry_space_group_name_H-M "C 2/M"
_symmetry_group_IT_number 12
_symmetry_cell_setting 'monoclinic'
loop_
_space_group_symop_operation_xyz
x,y,z
-x,y,-z
-x,-y,-z
x,-y,z
1/2+x,1/2+y,z
1/2-x,1/2+y,-z
1/2-x,1/2-y,-z
1/2+x,1/2-y,z
loop_
_atom_site_type_symbol
_atom_site_label
_atom_site_fract_x
_atom_site_fract_y
_atom_site_fract_z
Si Si1 0.705526 0.571047 0.291701
Si Si2 0.482251 0.281354 0.397354
Si Si3 0.438973 0.111873 0.907123
Si Si4 0.128589 0.266928 0.981580
Si Si5 0.178968 0.854864 0.841780
Si Si6 0.265176 0.166520 0.552916
Si Si7 0.474702 0.067650 0.668611
O O1 0.500000 0.585759 0.500000
O O2 0.709995 0.500000 0.285344
O O3 0.863810 0.593377 0.227910
O O4 0.792038 0.594491 0.114353
O O5 0.500000 0.288977 0.500000
O O6 0.674677 0.288567 0.193964
O O7 0.414987 0.215609 0.433294
O O8 0.355950 0.320714 0.437456
O O9 0.397421 0.076756 0.843727
O O10 0.444762 0.183032 0.881818
O O11 0.162856 0.196619 0.938287
O O12 0.000000 0.279907 0.000000
O O13 0.180375 0.824688 0.732917
O O14 0.345960 0.895087 0.709766
O O15 0.000000 0.890964 0.000000
O O16 0.341977 0.101425 0.484097
O O17 0.488249 0.000000 0.630622
#
# Coordination Sequence:
#
# PCOD9212739 Si02
#       7
#     8   8   8   8   8   8   8
#     4  10  21  43  70  98 149 207 258 315 378 461
#     4  11  23  43  74 114 158 193 245 312 391 467
#     4  11  24  42  66 112 151 198 254 318 387 469
#     4  11  23  42  70 107 154 194 241 301 389 462
#     4  11  26  49  73 107 149 195 258 323 389 458
#     4  11  25  47  76 113 151 201 259 325 379 466
#     4  12  27  49  77 105 148 204 263 324 391 458
#
# _framework density 23.792556999999999
#
# number of rings (size 3 to 8) (size 9 to 14) (size 15 to 20)
#    0.000    1.000    4.286    2.143    4.000    4.857 
#    0.000    0.000    0.000    0.429    0.000    0.000 
#    0.000    0.000    0.000    0.000    0.000    0.000 
#
# Total GULP energy -156150.587462 kJ/mol
# GULP energy per Si atom -5576.806695 kJ/mol
# Density = 2.373840 g / cm^3
# Si number density = 23.792557 Si / 1000 Ang^3
#
#
#
# Elastic Constant Matrix: (Units=GPa)
#
#
# Indices 1 2 3 4 5 6 
#
# 1 143.8475 48.5248 48.1802 -0.0127 -6.8000 0.0038
# 2 48.5248 167.9042 46.6704 -0.0213 -11.9788 0.0087
# 3 48.1802 46.6704 131.2916 -0.0262 -20.6355 0.0131
# 4 -0.0127 -0.0213 -0.0262 22.4199 0.0241 5.2686
# 5 -6.8000 -11.9788 -20.6355 0.0241 42.5400 -0.0088
# 6 0.0038 0.0087 0.0131 5.2686 -0.0088 9.6119
#
#
#
# Elastic Compliance Matrix: (Units=1/GPa)
#
#
# Indices 1 2 3 4 5 6 
#
# 1 0.008363 -0.001747 -0.002506 0.000000 -0.000371 0.000001
# 2 -0.001747 0.006998 -0.001711 0.000004 0.000861 -0.000005
# 3 -0.002506 -0.001711 0.009749 0.000007 0.003847 -0.000011
# 4 0.000000 0.000004 0.000007 0.051198 -0.000030 -0.028063
# 5 -0.000371 0.000861 0.003847 -0.000030 0.025557 0.000034
# 6 0.000001 -0.000005 -0.000011 -0.028063 0.000034 0.119420
#
#
# Mechanical properties :
#
#
# Convention : Reuss Voigt Hill
#
# Bulk Modulus (GPa) = 75.86375 81.08822 78.47598
# Shear Modulus (GPa) = 21.04318 34.89222 27.96770
#
# Velocity S-wave (km/s) = 2.97719 3.83367 3.43225
# Velocity P-wave (km/s) = 6.61611 7.33153 6.98299
#
# Compressibility (1/GPa) = 0.01318153
#
# Stress axis : x y z
#
# Youngs Moduli (GPa) = 119.57463 142.90530 102.57203
#
# Poissons Ratio (x) = 0.24962 0.25708
# Poissons Ratio (y) = 0.20886 0.17551
# Poissons Ratio (z) = 0.29970 0.24453
#
# Static dielectric constant tensor:
#      x y z
#    x 1.932140 -0.000010 0.048830 
#    y -0.000010 1.899830 0.000020 
#    z 0.048830 0.000020 1.951880 
# 
# From -- ./inp_files/218654.got.cif
#   From: 2010.05.17/outbox.cif.g08.bks.cpg/sg12_110_cif.got.tgz:218654.got - 2010.06.03 13:09:07.
