data_PCOD9212949
_publ_section_title
;
Structure prediction by ZEFSAII (Michael W. Deem and Ramdas Pophale) SiO2 
 PCOD9212949
Probable space group: C 2/M
;
_chemical_formula_sum "Si O2"
_cell_formula_units_Z 40
_cell_length_a 11.112216
_cell_length_b 15.924474
_cell_length_c 16.369487
_cell_angle_alpha 90.000000
_cell_angle_beta 132.753148
_cell_angle_gamma 90.000000
_cell_volume 2126.990855
_symmetry_space_group_name_H-M "C 2/M"
_symmetry_group_IT_number 12
_symmetry_cell_setting 'monoclinic'
loop_
_space_group_symop_operation_xyz
x,y,z
-x,y,-z
-x,-y,-z
x,-y,z
1/2+x,1/2+y,z
1/2-x,1/2+y,-z
1/2-x,1/2-y,-z
1/2+x,1/2-y,z
loop_
_atom_site_type_symbol
_atom_site_label
_atom_site_fract_x
_atom_site_fract_y
_atom_site_fract_z
Si Si1 0.866636 0.597369 0.866638
Si Si2 0.480662 0.652241 0.226315
Si Si3 0.137424 0.185434 0.000000
Si Si4 0.275961 0.500000 0.632573
Si Si5 0.010815 0.500000 0.367427
Si Si6 0.471972 0.152240 0.226316
O O1 0.836347 0.500000 0.836353
O O2 0.697013 0.636037 0.816984
O O3 0.936953 0.636033 0.816984
O O4 0.000000 0.602283 0.000000
O O5 0.457091 0.640102 0.117354
O O6 0.611149 0.583390 0.314773
O O7 0.513262 0.750001 0.263259
O O8 0.250000 0.250000 0.000000
O O9 0.277619 0.140102 0.117355
O O10 0.000000 0.217035 0.000000
O O11 0.159350 0.500000 0.500001
O O12 0.156192 0.500000 0.656192
O O13 0.018399 0.583390 0.314774
#
# Coordination Sequence:
#
# PCOD9212949 Si02
#       6
#     8   8   8   4   4   8
#     4  11  22  40  62 101 138 175 201 254 329 400
#     4  11  24  39  68  96 133 166 214 260 328 387
#     4  10  22  35  60  99 136 164 208 257 319 395
#     4  11  26  48  65  86 124 172 226 277 322 373
#     4  11  26  48  65  86 124 172 226 277 322 373
#     4  11  24  39  68  96 133 166 214 260 328 387
#
# _framework density 18.805911999999999
#
# number of rings (size 3 to 8) (size 9 to 14) (size 15 to 20)
#    0.000    1.200    4.000    1.200   14.000    1.600 
#    0.000    4.000    0.000    0.000    0.000    0.000 
#    0.000    0.000    0.000    0.000    0.000    0.000 
#
# Total GULP energy -111622.338506 kJ/mol
# GULP energy per Si atom -5581.116925 kJ/mol
# Density = 1.876311 g / cm^3
# Si number density = 18.805912 Si / 1000 Ang^3
#
#
#
# Elastic Constant Matrix: (Units=GPa)
#
#
# Indices 1 2 3 4 5 6 
#
# 1 165.5439 60.2490 44.9639 0.0000 0.0494 0.0000
# 2 60.2490 164.2683 61.3513 0.0000 -0.0190 0.0000
# 3 44.9639 61.3513 101.5516 0.0000 1.8925 0.0000
# 4 0.0000 0.0000 0.0000 19.8040 0.0000 0.2955
# 5 0.0494 -0.0190 1.8925 0.0000 59.5565 0.0000
# 6 0.0000 0.0000 0.0000 0.2955 0.0000 29.5544
#
#
#
# Elastic Compliance Matrix: (Units=1/GPa)
#
#
# Indices 1 2 3 4 5 6 
#
# 1 0.007298 -0.001898 -0.002086 0.000000 0.000060 0.000000
# 2 -0.001898 0.008356 -0.004211 0.000000 0.000138 0.000000
# 3 -0.002086 -0.004211 0.013323 0.000000 -0.000423 0.000000
# 4 0.000000 0.000000 0.000000 0.050502 0.000000 -0.000505
# 5 0.000060 0.000138 -0.000423 0.000000 0.016804 0.000000
# 6 0.000000 0.000000 0.000000 -0.000505 0.000000 0.033841
#
#
# Mechanical properties :
#
#
# Convention : Reuss Voigt Hill
#
# Bulk Modulus (GPa) = 79.43997 84.94357 82.19177
# Shear Modulus (GPa) = 33.17657 39.43629 36.30643
#
# Velocity S-wave (km/s) = 4.20474 4.58429 4.39861
# Velocity P-wave (km/s) = 8.11830 8.56081 8.34249
#
# Compressibility (1/GPa) = 0.01258812
#
# Stress axis : x y z
#
# Youngs Moduli (GPa) = 137.02633 119.67143 75.06069
#
# Poissons Ratio (x) = 0.22708 0.15658
# Poissons Ratio (y) = 0.26002 0.31606
# Poissons Ratio (z) = 0.28584 0.50390
#
# Static dielectric constant tensor:
#      x y z
#    x 1.607790 0.000000 -0.001510 
#    y 0.000000 1.701270 0.000000 
#    z -0.001510 0.000000 1.657590 
# 
# From -- ./inp_files/120273.got.cif
#   From: 2010.05.17/outbox.cif.g08.bks.cpg/sg12_61_cif.got.tgz:120273.got - 2010.06.03 13:09:07.
