data_PCOD9212291
_publ_section_title
;
Structure prediction by ZEFSAII (Michael W. Deem and Ramdas Pophale) SiO2 
 PCOD9212291
Probable space group: C 2/M
;
_chemical_formula_sum "Si O2"
_cell_formula_units_Z 52
_cell_length_a 9.235569
_cell_length_b 29.597616
_cell_length_c 15.083055
_cell_angle_alpha 90.000000
_cell_angle_beta 138.385219
_cell_angle_gamma 90.000000
_cell_volume 2738.140176
_symmetry_space_group_name_H-M "C 2/M"
_symmetry_group_IT_number 12
_symmetry_cell_setting 'monoclinic'
loop_
_space_group_symop_operation_xyz
x,y,z
-x,y,-z
-x,-y,-z
x,-y,z
1/2+x,1/2+y,z
1/2-x,1/2+y,-z
1/2-x,1/2-y,-z
1/2+x,1/2-y,z
loop_
_atom_site_type_symbol
_atom_site_label
_atom_site_fract_x
_atom_site_fract_y
_atom_site_fract_z
Si Si1 0.594590 0.693377 0.364101
Si Si2 0.872063 0.114491 0.032556
Si Si3 0.500000 0.256853 0.500000
Si Si4 0.463438 0.405370 0.705369
Si Si5 0.225849 0.293822 0.049592
Si Si6 0.428624 0.067268 0.869372
Si Si7 0.779225 0.500000 0.455163
Si Si8 0.746099 0.000000 0.356666
O O1 0.501148 0.710857 0.414748
O O2 0.798364 0.723512 0.426573
O O3 0.644742 0.639538 0.385570
O O4 0.412199 0.703441 0.208172
O O5 0.773084 0.163458 0.009003
O O6 0.031541 0.099432 0.185825
O O7 0.656635 0.084139 0.935847
O O8 0.000000 0.113461 0.000000
O O9 0.722614 0.401265 0.800346
O O10 0.361262 0.453852 0.629655
O O11 0.250000 0.250000 0.000000
O O12 0.000000 0.295902 0.000000
O O13 0.322756 0.040022 0.739934
O O14 0.500000 0.048303 0.000000
O O15 0.855679 0.500000 0.592609
O O16 0.000000 0.500000 0.500000
O O17 0.000000 0.000000 0.500000
#
# Coordination Sequence:
#
# PCOD9212291 Si02
#       8
#     8   8   4   8   8   8   4   4
#     4  10  22  39  62  91 126 166 212 257 317 384
#     4  10  22  38  62  93 121 164 214 262 326 384
#     4  10  22  40  60  90 126 170 210 250 316 398
#     4  10  22  44  63  89 129 167 217 270 323 382
#     4  11  21  38  63  92 126 162 209 273 326 381
#     4  10  21  41  67  90 123 164 213 267 320 388
#     4  12  28  42  61  92 132 169 212 272 328 387
#     4  12  23  42  66  93 121 166 220 263 328 395
#
# _framework density 18.990993
#
# number of rings (size 3 to 8) (size 9 to 14) (size 15 to 20)
#    0.000    1.538    1.538    3.923    3.231    4.308 
#    0.000    5.385    0.000    0.000    0.000    0.000 
#    0.000    0.000    0.000    0.000    0.000    0.000 
#
# Total GULP energy -144819.958468 kJ/mol
# GULP energy per Si atom -5569.998403 kJ/mol
# Density = 1.894777 g / cm^3
# Si number density = 18.990993 Si / 1000 Ang^3
#
#
#
# Elastic Constant Matrix: (Units=GPa)
#
#
# Indices 1 2 3 4 5 6 
#
# 1 185.7115 52.6889 48.0837 0.0000 -21.0360 0.0000
# 2 52.6889 132.0893 55.2111 0.0000 -15.5171 0.0000
# 3 48.0837 55.2111 81.0978 0.0000 -17.4682 0.0000
# 4 0.0000 0.0000 0.0000 27.9912 0.0000 -13.1466
# 5 -21.0360 -15.5171 -17.4682 0.0000 33.3034 0.0000
# 6 0.0000 0.0000 0.0000 -13.1466 0.0000 12.4443
#
#
#
# Elastic Compliance Matrix: (Units=1/GPa)
#
#
# Indices 1 2 3 4 5 6 
#
# 1 0.006682 -0.001325 -0.002575 0.000000 0.002253 0.000000
# 2 -0.001325 0.010894 -0.006447 0.000000 0.000858 0.000000
# 3 -0.002575 -0.006447 0.019446 0.000000 0.005570 0.000000
# 4 0.000000 0.000000 0.000000 0.070908 0.000000 0.074910
# 5 0.002253 0.000858 0.005570 0.000000 0.034771 0.000000
# 6 0.000000 0.000000 0.000000 0.074910 0.000000 0.159495
#
#
# Mechanical properties :
#
#
# Convention : Reuss Voigt Hill
#
# Bulk Modulus (GPa) = 61.23555 78.98513 70.11034
# Shear Modulus (GPa) = 15.22841 30.94211 23.08526
#
# Velocity S-wave (km/s) = 2.83481 4.04084 3.49031
# Velocity P-wave (km/s) = 6.55968 7.96570 7.29663
#
# Compressibility (1/GPa) = 0.01633038
#
# Stress axis : x y z
#
# Youngs Moduli (GPa) = 149.64641 91.79036 51.42413
#
# Poissons Ratio (x) = 0.12158 0.13242
# Poissons Ratio (y) = 0.19821 0.33152
# Poissons Ratio (z) = 0.38534 0.59175
#
# Static dielectric constant tensor:
#      x y z
#    x 1.688220 0.000000 0.006030 
#    y 0.000000 1.808230 0.000000 
#    z 0.006030 0.000000 1.642330 
# 
# From -- ./inp_files/201391.got.cif
#   From: 2010.05.17/outbox.cif.g08.bks.cpg/sg12_101_cif.got.tgz:201391.got - 2010.06.03 13:09:07.
