data_PCOD9212238
_publ_section_title
;
Structure prediction by ZEFSAII (Michael W. Deem and Ramdas Pophale) SiO2 
 PCOD9212238
Probable space group: C 2/M
;
_chemical_formula_sum "Si O2"
_cell_formula_units_Z 48
_cell_length_a 9.581073
_cell_length_b 18.772840
_cell_length_c 13.991889
_cell_angle_alpha 90.000000
_cell_angle_beta 88.898459
_cell_angle_gamma 90.000000
_cell_volume 2516.171344
_symmetry_space_group_name_H-M "C 2/M"
_symmetry_group_IT_number 12
_symmetry_cell_setting 'monoclinic'
loop_
_space_group_symop_operation_xyz
x,y,z
-x,y,-z
-x,-y,-z
x,-y,z
1/2+x,1/2+y,z
1/2-x,1/2+y,-z
1/2-x,1/2-y,-z
1/2+x,1/2-y,z
loop_
_atom_site_type_symbol
_atom_site_label
_atom_site_fract_x
_atom_site_fract_y
_atom_site_fract_z
Si Si1 0.804845 0.178182 0.250359
Si Si2 0.867147 0.420347 0.068317
Si Si3 0.971736 0.674901 0.239954
Si Si4 0.634571 0.416037 0.930935
Si Si5 0.162466 0.822192 0.525716
Si Si6 0.120222 0.417879 0.578854
O O1 0.889496 0.251219 0.238053
O O2 0.638695 0.185461 0.233772
O O3 0.864407 0.123717 0.170247
O O4 0.824109 0.159356 0.362039
O O5 0.819044 0.500000 0.099435
O O6 0.912975 0.373261 0.155666
O O7 0.753805 0.386620 0.999559
O O8 0.000000 0.428700 0.000000
O O9 0.933702 0.632587 0.336439
O O10 0.662996 0.500000 0.912733
O O11 0.500000 0.410609 0.000000
O O12 0.250000 0.750000 0.500000
O O13 0.261867 0.615597 0.534903
O O14 0.000000 0.812515 0.500000
O O15 0.138576 0.500000 0.609035
O O16 0.000000 0.416290 0.500000
#
# Coordination Sequence:
#
# PCOD9212238 Si02
#       6
#     8   8   8   8   8   8
#     4  12  26  41  68  97 130 177 219 270 336 394
#     4  10  21  41  66  91 125 170 217 268 321 382
#     4  12  25  41  65  99 131 173 220 273 329 403
#     4  10  24  45  67  95 133 174 219 276 336 391
#     4  12  24  44  70  97 139 179 219 273 333 397
#     4  11  24  43  68  98 130 172 224 276 333 397
#
# _framework density 19.076602000000001
#
# number of rings (size 3 to 8) (size 9 to 14) (size 15 to 20)
#    0.000    0.833    5.000    2.000    2.333    3.000 
#    0.000    1.667    0.000    0.000    0.000    0.000 
#    0.000    0.000    0.000    0.000    0.000    0.000 
#
# Total GULP energy -134031.876292 kJ/mol
# GULP energy per Si atom -5584.661512 kJ/mol
# Density = 1.903318 g / cm^3
# Si number density = 19.076602 Si / 1000 Ang^3
#
#
#
# Elastic Constant Matrix: (Units=GPa)
#
#
# Indices 1 2 3 4 5 6 
#
# 1 98.1999 38.5262 35.6346 0.0000 4.5415 0.0000
# 2 38.5262 102.0084 52.2953 0.0000 -3.3750 0.0000
# 3 35.6346 52.2953 132.8769 0.0000 1.8268 0.0000
# 4 0.0000 0.0000 0.0000 46.9712 0.0000 -3.7566
# 5 4.5415 -3.3750 1.8268 0.0000 28.4451 0.0000
# 6 0.0000 0.0000 0.0000 -3.7566 0.0000 30.5778
#
#
#
# Elastic Compliance Matrix: (Units=1/GPa)
#
#
# Indices 1 2 3 4 5 6 
#
# 1 0.012456 -0.003865 -0.001787 0.000000 -0.002333 0.000000
# 2 -0.003865 0.013570 -0.004338 0.000000 0.002506 0.000000
# 3 -0.001787 -0.004338 0.009724 0.000000 -0.000854 0.000000
# 4 0.000000 0.000000 0.000000 0.021501 0.000000 0.002641
# 5 -0.002333 0.002506 -0.000854 0.000000 0.035880 0.000000
# 6 0.000000 0.000000 0.000000 0.002641 0.000000 0.033028
#
#
# Mechanical properties :
#
#
# Convention : Reuss Voigt Hill
#
# Bulk Modulus (GPa) = 63.41786 65.11083 64.26435
# Shear Modulus (GPa) = 33.02564 34.97410 33.99987
#
# Velocity S-wave (km/s) = 4.16530 4.28641 4.22629
# Velocity P-wave (km/s) = 7.51325 7.66179 7.58788
#
# Compressibility (1/GPa) = 0.01576843
#
# Stress axis : x y z
#
# Youngs Moduli (GPa) = 80.28140 73.69173 102.83590
#
# Poissons Ratio (x) = 0.28485 0.18378
# Poissons Ratio (y) = 0.31032 0.44615
# Poissons Ratio (z) = 0.14347 0.31971
#
# Static dielectric constant tensor:
#      x y z
#    x 1.632870 0.000000 -0.013720 
#    y 0.000000 1.677550 0.000000 
#    z -0.013720 0.000000 1.701230 
# 
# From -- ./inp_files/195954.got.cif
#   From: 2010.05.17/outbox.cif.g08.bks.cpg/sg12_98_cif.got.tgz:195954.got - 2010.06.03 13:09:07.
