data_PCOD9212656
_publ_section_title
;
Structure prediction by ZEFSAII (Michael W. Deem and Ramdas Pophale) SiO2 
 PCOD9212656
Probable space group: C 2/M
;
_chemical_formula_sum "Si O2"
_cell_formula_units_Z 60
_cell_length_a 22.934804
_cell_length_b 20.483817
_cell_length_c 9.152974
_cell_angle_alpha 90.000000
_cell_angle_beta 136.192879
_cell_angle_gamma 90.000000
_cell_volume 2976.599250
_symmetry_space_group_name_H-M "C 2/M"
_symmetry_group_IT_number 12
_symmetry_cell_setting 'monoclinic'
loop_
_space_group_symop_operation_xyz
x,y,z
-x,y,-z
-x,-y,-z
x,-y,z
1/2+x,1/2+y,z
1/2-x,1/2+y,-z
1/2-x,1/2-y,-z
1/2+x,1/2-y,z
loop_
_atom_site_type_symbol
_atom_site_label
_atom_site_fract_x
_atom_site_fract_y
_atom_site_fract_z
Si Si1 0.064080 0.693068 0.415393
Si Si2 0.763734 0.119137 0.219938
Si Si3 0.331225 0.927369 0.454948
Si Si4 0.834044 0.786572 0.597248
Si Si5 0.803670 0.500000 0.705742
Si Si6 0.661781 0.654067 0.092861
Si Si7 0.127653 0.717430 0.850840
Si Si8 0.413870 0.422470 0.278790
O O1 0.089187 0.617176 0.441339
O O2 0.101988 0.733699 0.350346
O O3 0.110174 0.719304 0.645948
O O4 0.964800 0.703518 0.250178
O O5 0.807795 0.164038 0.422449
O O6 0.723966 0.057239 0.228781
O O7 0.834766 0.098397 0.232962
O O8 0.691875 0.160531 0.008907
O O9 0.250579 0.883549 0.266984
O O10 0.329893 0.000000 0.381210
O O11 0.325622 0.944032 0.617091
O O12 0.750000 0.750000 0.500000
O O13 0.866242 0.823607 0.798226
O O14 0.663469 0.716559 0.988383
O O15 0.597782 0.604222 0.904004
O O16 0.500000 0.394769 0.500000
O O17 0.418013 0.500000 0.285110
#
# Coordination Sequence:
#
# PCOD9212656 Si02
#       8
#     8   8   8   8   4   8   8   8
#     4  11  24  47  65 101 145 179 227 286 341 414
#     4  12  22  45  69  97 130 183 231 273 339 419
#     4  10  21  42  71  95 134 180 225 281 341 404
#     4  12  22  41  69  98 136 178 228 282 338 400
#     4  10  22  42  68 101 131 178 229 278 346 405
#     4  12  23  42  67 102 129 178 227 279 341 406
#     4  11  27  42  68 103 138 182 230 279 348 410
#     4  11  27  46  67  98 136 176 227 282 343 411
#
# _framework density 20.157232
#
# number of rings (size 3 to 8) (size 9 to 14) (size 15 to 20)
#    0.400    0.400    4.667    2.000    3.733    2.133 
#    2.400    1.333    0.000    2.400    0.000    0.000 
#    0.000    0.000    0.000    0.000    0.000    0.000 
#
# Total GULP energy -167210.727491 kJ/mol
# GULP energy per Si atom -5573.690916 kJ/mol
# Density = 2.011135 g / cm^3
# Si number density = 20.157232 Si / 1000 Ang^3
#
#
#
# Elastic Constant Matrix: (Units=GPa)
#
#
# Indices 1 2 3 4 5 6 
#
# 1 101.9972 47.1258 50.9233 0.0000 -6.4322 0.0000
# 2 47.1258 124.3684 29.9735 0.0000 -1.0494 0.0000
# 3 50.9233 29.9735 73.7608 0.0000 -13.5420 0.0000
# 4 0.0000 0.0000 0.0000 24.9497 0.0000 6.8291
# 5 -6.4322 -1.0494 -13.5420 0.0000 22.6116 0.0000
# 6 0.0000 0.0000 0.0000 6.8291 0.0000 -10.1303
#
#
#
# Elastic Compliance Matrix: (Units=1/GPa)
#
#
# Indices 1 2 3 4 5 6 
#
# 1 0.016546 -0.003837 -0.010148 0.000000 -0.001549 0.000000
# 2 -0.003837 0.009882 -0.001666 0.000000 -0.001631 0.000000
# 3 -0.010148 -0.001666 0.023253 0.000000 0.010962 0.000000
# 4 0.000000 0.000000 0.000000 0.033837 0.000000 0.022811
# 5 -0.001549 -0.001631 0.010962 0.000000 0.050274 0.000000
# 6 0.000000 0.000000 0.000000 0.022811 0.000000 -0.083336
#
#
# Mechanical properties :
#
#
# Convention : Reuss Voigt Hill
#
# Bulk Modulus (GPa) = 54.41111 61.79685 58.10398
# Shear Modulus (GPa) = 56.89251 18.95978 37.92614
#
# Velocity S-wave (km/s) = 5.31842 3.07024 4.34235
# Velocity P-wave (km/s) = 8.04774 6.57970 7.35046
#
# Compressibility (1/GPa) = 0.01837860
#
# Stress axis : x y z
#
# Youngs Moduli (GPa) = 60.43795 101.19085 43.00483
#
# Poissons Ratio (x) = 0.38826 0.43642
# Poissons Ratio (y) = 0.23189 0.07166
# Poissons Ratio (z) = 0.61334 0.16861
#
# Static dielectric constant tensor:
#      x y z
#    x 1.691770 0.000000 -0.001680 
#    y 0.000000 1.730380 0.000000 
#    z -0.001680 0.000000 1.731860 
# 
# From -- ./inp_files/89853.got.cif
#   From: 2010.05.17/outbox.cif.g08.bks.cpg/sg12_45_cif.got.tgz:89853.got - 2010.06.03 13:09:07.
