data_PCOD9212265
_publ_section_title
;
Structure prediction by ZEFSAII (Michael W. Deem and Ramdas Pophale) SiO2 
 PCOD9212265
Probable space group: C 2/M
;
_chemical_formula_sum "Si O2"
_cell_formula_units_Z 40
_cell_length_a 9.280971
_cell_length_b 17.517263
_cell_length_c 12.087865
_cell_angle_alpha 90.000000
_cell_angle_beta 79.128693
_cell_angle_gamma 90.000000
_cell_volume 1929.942279
_symmetry_space_group_name_H-M "C 2/M"
_symmetry_group_IT_number 12
_symmetry_cell_setting 'monoclinic'
loop_
_space_group_symop_operation_xyz
x,y,z
-x,y,-z
-x,-y,-z
x,-y,z
1/2+x,1/2+y,z
1/2-x,1/2+y,-z
1/2-x,1/2-y,-z
1/2+x,1/2-y,z
loop_
_atom_site_type_symbol
_atom_site_label
_atom_site_fract_x
_atom_site_fract_y
_atom_site_fract_z
Si Si1 0.114959 0.911951 0.395633
Si Si2 0.831545 0.412101 0.993630
Si Si3 0.237614 0.839814 0.792461
Si Si4 0.342657 0.089119 0.552019
Si Si5 0.893537 0.182159 0.826712
O O1 0.260595 0.911551 0.446872
O O2 0.122412 0.866080 0.283186
O O3 0.000000 0.878894 0.500000
O O4 0.071421 0.000000 0.377773
O O5 0.809781 0.500000 0.032311
O O6 0.715146 0.357053 0.069847
O O7 0.796292 0.403558 0.868961
O O8 0.000000 0.391489 0.000000
O O9 0.263429 0.866414 0.662515
O O10 0.335155 0.766355 0.808882
O O11 0.065021 0.821733 0.834753
O O12 0.500000 0.122833 0.500000
O O13 0.356848 0.000000 0.584743
#
# Coordination Sequence:
#
# PCOD9212265 Si02
#       5
#     8   8   8   8   8
#     4  10  21  41  66  95 129 169 219 266 317 380
#     4  11  26  47  72  98 126 165 215 268 323 386
#     4  12  26  44  66  96 134 172 217 265 324 386
#     4  10  23  41  66  96 130 172 217 268 319 379
#     4  12  26  43  67  96 133 175 213 267 324 383
#
# _framework density 20.726006999999999
#
# number of rings (size 3 to 8) (size 9 to 14) (size 15 to 20)
#    0.000    1.000    2.000    3.600    5.600    4.800 
#    0.000    0.000    0.000    0.000    0.000    0.000 
#    0.000    0.000    0.000    0.000    0.000    0.000 
#
# Total GULP energy -111775.520654 kJ/mol
# GULP energy per Si atom -5588.776033 kJ/mol
# Density = 2.067883 g / cm^3
# Si number density = 20.726007 Si / 1000 Ang^3
#
#
#
# Elastic Constant Matrix: (Units=GPa)
#
#
# Indices 1 2 3 4 5 6 
#
# 1 134.2657 20.6837 20.2315 0.0000 -3.5123 0.0000
# 2 20.6837 65.2381 11.2256 0.0000 -2.6180 0.0000
# 3 20.2315 11.2256 66.7839 0.0000 10.1049 0.0000
# 4 0.0000 0.0000 0.0000 11.9438 0.0000 0.7085
# 5 -3.5123 -2.6180 10.1049 0.0000 29.2092 0.0000
# 6 0.0000 0.0000 0.0000 0.7085 0.0000 25.0698
#
#
#
# Elastic Compliance Matrix: (Units=1/GPa)
#
#
# Indices 1 2 3 4 5 6 
#
# 1 0.008173 -0.002120 -0.002363 0.000000 0.001610 0.000000
# 2 -0.002120 0.016504 -0.002445 0.000000 0.002070 0.000000
# 3 -0.002363 -0.002445 0.017070 0.000000 -0.006409 0.000000
# 4 0.000000 0.000000 0.000000 0.083866 0.000000 -0.002370
# 5 0.001610 0.002070 -0.006409 0.000000 0.036832 0.000000
# 6 0.000000 0.000000 0.000000 -0.002370 0.000000 0.039956
#
#
# Mechanical properties :
#
#
# Convention : Reuss Voigt Hill
#
# Bulk Modulus (GPa) = 35.85414 41.17437 38.51425
# Shear Modulus (GPa) = 22.16757 27.52102 24.84430
#
# Velocity S-wave (km/s) = 3.27395 3.64792 3.46598
# Velocity P-wave (km/s) = 5.62391 6.13614 5.88560
#
# Compressibility (1/GPa) = 0.02789078
#
# Stress axis : x y z
#
# Youngs Moduli (GPa) = 122.35861 60.58989 58.58138
#
# Poissons Ratio (x) = 0.12844 0.13844
# Poissons Ratio (y) = 0.25939 0.14325
# Poissons Ratio (z) = 0.28915 0.14816
#
# Static dielectric constant tensor:
#      x y z
#    x 1.252450 0.000000 -0.221450 
#    y 0.000000 1.727430 0.000000 
#    z -0.221450 0.000000 1.631300 
# 
# From -- ./inp_files/118917.got.cif
#   From: 2010.05.17/outbox.cif.g08.bks.cpg/sg12_60_cif.got.tgz:118917.got - 2010.06.03 13:09:07.
