data_PCOD9212355
_publ_section_title
;
Structure prediction by ZEFSAII (Michael W. Deem and Ramdas Pophale) SiO2 
 PCOD9212355
Probable space group: C 2/M
;
_chemical_formula_sum "Si O2"
_cell_formula_units_Z 40
_cell_length_a 9.853352
_cell_length_b 14.110142
_cell_length_c 12.669710
_cell_angle_alpha 90.000000
_cell_angle_beta 84.478612
_cell_angle_gamma 90.000000
_cell_volume 1753.324871
_symmetry_space_group_name_H-M "C 2/M"
_symmetry_group_IT_number 12
_symmetry_cell_setting 'monoclinic'
loop_
_space_group_symop_operation_xyz
x,y,z
-x,y,-z
-x,-y,-z
x,-y,z
1/2+x,1/2+y,z
1/2-x,1/2+y,-z
1/2-x,1/2-y,-z
1/2+x,1/2-y,z
loop_
_atom_site_type_symbol
_atom_site_label
_atom_site_fract_x
_atom_site_fract_y
_atom_site_fract_z
Si Si1 0.636751 0.104090 0.865345
Si Si2 0.398547 0.685494 0.096275
Si Si3 0.127195 0.737888 0.428759
Si Si4 0.847742 0.605909 0.772405
Si Si5 0.927108 0.890945 0.726994
O O1 0.629372 0.204070 0.925764
O O2 0.502034 0.106552 0.802985
O O3 0.774463 0.109103 0.786629
O O4 0.637586 0.000000 0.920046
O O5 0.255365 0.634808 0.126671
O O6 0.478707 0.668604 0.200044
O O7 0.500000 0.645624 0.000000
O O8 0.250000 0.750000 0.500000
O O9 0.168121 0.676636 0.323941
O O10 0.078682 0.837764 0.383405
O O11 0.000000 0.693070 0.500000
O O12 0.814241 0.500000 0.740216
O O13 0.972692 0.000000 0.718366
#
# Coordination Sequence:
#
# PCOD9212355 Si02
#       5
#     8   8   8   8   8
#     4  10  21  41  68  93 131 175 216 266 325 385
#     4  12  24  43  69  97 134 180 223 267 329 395
#     4  12  24  41  71  98 130 171 221 272 336 397
#     4  11  24  44  67  97 135 171 219 276 328 391
#     4  11  24  44  67  98 138 174 220 276 327 390
#
# _framework density 22.813797999999998
#
# number of rings (size 3 to 8) (size 9 to 14) (size 15 to 20)
#    0.000    0.800    4.000    3.000    0.000    6.800 
#    0.000    4.000    0.000    0.000    0.000    0.000 
#    0.000    0.000    0.000    0.000    0.000    0.000 
#
# Total GULP energy -111941.255415 kJ/mol
# GULP energy per Si atom -5597.062771 kJ/mol
# Density = 2.276187 g / cm^3
# Si number density = 22.813798 Si / 1000 Ang^3
#
#
#
# Elastic Constant Matrix: (Units=GPa)
#
#
# Indices 1 2 3 4 5 6 
#
# 1 125.7130 21.2414 31.5548 0.0000 6.6254 0.0000
# 2 21.2414 136.1034 22.6656 0.0000 0.7888 0.0000
# 3 31.5548 22.6656 76.8987 0.0000 -4.3411 0.0000
# 4 0.0000 0.0000 0.0000 11.4590 0.0000 -8.3350
# 5 6.6254 0.7888 -4.3411 0.0000 43.8292 0.0000
# 6 0.0000 0.0000 0.0000 -8.3350 0.0000 27.3177
#
#
#
# Elastic Compliance Matrix: (Units=1/GPa)
#
#
# Indices 1 2 3 4 5 6 
#
# 1 0.009082 -0.000811 -0.003584 0.000000 -0.001713 0.000000
# 2 -0.000811 0.007805 -0.001980 0.000000 -0.000214 0.000000
# 3 -0.003584 -0.001980 0.015176 0.000000 0.002081 0.000000
# 4 0.000000 0.000000 0.000000 0.112159 0.000000 0.034221
# 5 -0.001713 -0.000214 0.002081 0.000000 0.023285 0.000000
# 6 0.000000 0.000000 0.000000 0.034221 0.000000 0.047048
#
#
# Mechanical properties :
#
#
# Convention : Reuss Voigt Hill
#
# Bulk Modulus (GPa) = 51.77935 54.40432 53.09183
# Shear Modulus (GPa) = 21.39121 34.07140 27.73131
#
# Velocity S-wave (km/s) = 3.06542 3.86872 3.49026
# Velocity P-wave (km/s) = 5.93926 6.62230 6.29006
#
# Compressibility (1/GPa) = 0.01931272
#
# Stress axis : x y z
#
# Youngs Moduli (GPa) = 110.11309 128.12612 65.89359
#
# Poissons Ratio (x) = 0.10385 0.23619
# Poissons Ratio (y) = 0.08925 0.13047
# Poissons Ratio (z) = 0.39469 0.25368
#
# Static dielectric constant tensor:
#      x y z
#    x 1.848130 0.000000 -0.009170 
#    y 0.000000 1.861130 0.000000 
#    z -0.009170 0.000000 1.864080 
# 
# From -- ./inp_files/194449.got.cif
#   From: 2010.05.17/outbox.cif.g08.bks.cpg/sg12_98_cif.got.tgz:194449.got - 2010.06.03 13:09:07.
