data_PCOD9212450
_publ_section_title
;
Structure prediction by ZEFSAII (Michael W. Deem and Ramdas Pophale) SiO2 
 PCOD9212450
Probable space group: C 2/M
;
_chemical_formula_sum "Si O2"
_cell_formula_units_Z 56
_cell_length_a 8.905769
_cell_length_b 23.564733
_cell_length_c 18.878929
_cell_angle_alpha 90.000000
_cell_angle_beta 143.770844
_cell_angle_gamma 90.000000
_cell_volume 2341.589210
_symmetry_space_group_name_H-M "C 2/M"
_symmetry_group_IT_number 12
_symmetry_cell_setting 'monoclinic'
loop_
_space_group_symop_operation_xyz
x,y,z
-x,y,-z
-x,-y,-z
x,-y,z
1/2+x,1/2+y,z
1/2-x,1/2+y,-z
1/2-x,1/2-y,-z
1/2+x,1/2-y,z
loop_
_atom_site_type_symbol
_atom_site_label
_atom_site_fract_x
_atom_site_fract_y
_atom_site_fract_z
Si Si1 0.536120 0.331456 0.627251
Si Si2 0.203861 0.708561 0.884146
Si Si3 0.658374 0.172800 0.124057
Si Si4 0.969014 0.295736 0.405327
Si Si5 0.809565 0.937661 0.994917
Si Si6 0.758759 0.623351 0.225371
Si Si7 0.139082 0.564844 0.284227
O O1 0.500000 0.209873 0.500000
O O2 0.634575 0.265592 0.659246
O O3 0.747456 0.317183 0.507382
O O4 0.203255 0.346587 0.686444
O O5 0.214290 0.773890 0.867561
O O6 0.131863 0.670719 0.788756
O O7 0.053781 0.694827 0.898805
O O8 0.500000 0.691929 0.000000
O O9 0.882022 0.151550 0.261284
O O10 0.846658 0.114431 0.367976
O O11 0.540040 0.924991 0.854664
O O12 0.790629 0.000000 0.020810
O O13 0.500000 0.857941 0.000000
O O14 0.968791 0.895189 0.104012
O O15 0.942121 0.571412 0.274724
O O16 0.500000 0.558806 0.000000
O O17 0.233010 0.500000 0.316423
#
# Coordination Sequence:
#
# PCOD9212450 Si02
#       7
#     8   8   8   8   8   8   8
#     4  11  25  44  65  94 137 179 231 280 342 418
#     4  11  21  35  55  93 136 175 212 276 344 415
#     4  11  23  37  60  95 136 174 217 280 348 415
#     4  11  28  45  66  90 138 191 226 281 353 417
#     4   8  16  34  62  97 136 169 214 281 343 397
#     4  11  20  37  64 100 131 178 230 276 337 410
#     4  10  21  41  72 105 136 172 227 291 339 399
#
# _framework density 23.915382000000001
#
# number of rings (size 3 to 8) (size 9 to 14) (size 15 to 20)
#    0.000    1.571    2.857    4.286    6.000    1.143 
#    0.000    2.857    0.000    4.286    0.000    0.000 
#    0.000    0.000    0.000    0.000    0.000    0.000 
#
# Total GULP energy -156080.943634 kJ/mol
# GULP energy per Si atom -5574.319415 kJ/mol
# Density = 2.386095 g / cm^3
# Si number density = 23.915382 Si / 1000 Ang^3
#
#
#
# Elastic Constant Matrix: (Units=GPa)
#
#
# Indices 1 2 3 4 5 6 
#
# 1 85.2942 15.9381 42.9405 0.0000 9.5363 0.0000
# 2 15.9381 140.2775 65.5016 0.0001 14.5657 0.0000
# 3 42.9405 65.5016 111.3822 0.0004 -10.0674 -0.0001
# 4 0.0000 0.0001 0.0004 34.3444 0.0001 11.0027
# 5 9.5363 14.5657 -10.0674 0.0001 41.9678 0.0000
# 6 0.0000 0.0000 -0.0001 11.0027 0.0000 15.4897
#
#
#
# Elastic Compliance Matrix: (Units=1/GPa)
#
#
# Indices 1 2 3 4 5 6 
#
# 1 0.016246 0.002841 -0.008542 0.000000 -0.006727 0.000000
# 2 0.002841 0.011422 -0.008411 0.000000 -0.006627 0.000000
# 3 -0.008542 -0.008411 0.018048 0.000000 0.009190 0.000000
# 4 0.000000 0.000000 0.000000 0.037695 0.000000 -0.026776
# 5 -0.006727 -0.006627 0.009190 0.000000 0.029861 0.000000
# 6 0.000000 0.000000 0.000000 -0.026776 0.000000 0.083579
#
#
# Mechanical properties :
#
#
# Convention : Reuss Voigt Hill
#
# Bulk Modulus (GPa) = 57.16984 65.07936 61.12460
# Shear Modulus (GPa) = 21.65396 32.53195 27.09295
#
# Velocity S-wave (km/s) = 3.01232 3.69222 3.36946
# Velocity P-wave (km/s) = 6.00464 6.74152 6.38372
#
# Compressibility (1/GPa) = 0.01749174
#
# Stress axis : x y z
#
# Youngs Moduli (GPa) = 61.55486 87.55323 55.40674
#
# Poissons Ratio (x) = -0.24876 0.47328
# Poissons Ratio (y) = -0.17489 0.46604
# Poissons Ratio (z) = 0.52580 0.73643
#
# Static dielectric constant tensor:
#      x y z
#    x 1.777000 0.000000 -0.183020 
#    y 0.000000 1.948150 0.000000 
#    z -0.183020 0.000000 1.804050 
# 
# From -- ./inp_files/334021.got.cif
#   From: 2010.05.17/outbox.cif.g08.bks.cpg/sg12_168_cif.got.tgz:334021.got - 2010.06.03 13:09:07.
