data_PCOD9212408
_publ_section_title
;
Structure prediction by ZEFSAII (Michael W. Deem and Ramdas Pophale) SiO2 
 PCOD9212408
Probable space group: C 2/M
;
_chemical_formula_sum "Si O2"
_cell_formula_units_Z 48
_cell_length_a 9.308337
_cell_length_b 29.495553
_cell_length_c 7.882062
_cell_angle_alpha 90.000000
_cell_angle_beta 96.326382
_cell_angle_gamma 90.000000
_cell_volume 2150.877562
_symmetry_space_group_name_H-M "C 2/M"
_symmetry_group_IT_number 12
_symmetry_cell_setting 'monoclinic'
loop_
_space_group_symop_operation_xyz
x,y,z
-x,y,-z
-x,-y,-z
x,-y,z
1/2+x,1/2+y,z
1/2-x,1/2+y,-z
1/2-x,1/2-y,-z
1/2+x,1/2-y,z
loop_
_atom_site_type_symbol
_atom_site_label
_atom_site_fract_x
_atom_site_fract_y
_atom_site_fract_z
Si Si1 0.946487 0.353734 0.309285
Si Si2 0.059737 0.449324 0.204181
Si Si3 0.309869 0.300881 0.818642
Si Si4 0.912770 0.950420 0.305059
Si Si5 0.312891 0.800946 0.817647
Si Si6 0.051667 0.147316 0.699377
O O1 0.779658 0.341084 0.279787
O O2 0.000000 0.340600 0.500000
O O3 0.985136 0.405815 0.279088
O O4 0.027289 0.319963 0.189231
O O5 0.016273 0.500000 0.258734
O O6 0.234784 0.446989 0.266588
O O7 0.000000 0.446889 0.000000
O O8 0.294155 0.249950 0.746865
O O9 0.472259 0.315943 0.804676
O O10 0.249165 0.300207 0.000639
O O11 0.965013 0.903392 0.231425
O O12 0.000000 0.950419 0.500000
O O13 0.947486 0.000000 0.234723
O O14 0.217598 0.838508 0.713036
O O15 0.000000 0.149419 0.500000
#
# Coordination Sequence:
#
# PCOD9212408 Si02
#       6
#     8   8   8   8   8   8
#     4  12  25  40  64  96 129 170 219 275 335 392
#     4  10  21  41  69  98 132 175 219 269 331 398
#     4  11  25  40  64  91 125 172 221 269 331 393
#     4   9  19  37  66  97 132 174 212 262 328 396
#     4  11  23  44  62  87 127 173 219 271 327 399
#     4  11  22  38  64  95 127 167 214 271 327 388
#
# _framework density 22.316472999999998
#
# number of rings (size 3 to 8) (size 9 to 14) (size 15 to 20)
#    0.000    1.333    1.667    4.000    2.333    7.000 
#    0.000    0.833    0.000    3.000    0.000    0.000 
#    0.000    0.000    0.000    0.000    0.000    0.000 
#
# Total GULP energy -133712.968048 kJ/mol
# GULP energy per Si atom -5571.373669 kJ/mol
# Density = 2.226568 g / cm^3
# Si number density = 22.316473 Si / 1000 Ang^3
#
#
#
# Elastic Constant Matrix: (Units=GPa)
#
#
# Indices 1 2 3 4 5 6 
#
# 1 80.2907 10.1303 22.3025 0.0000 21.6803 0.0000
# 2 10.1303 156.2888 20.3730 0.0000 -3.8018 0.0000
# 3 22.3025 20.3730 65.2971 0.0000 7.5358 0.0000
# 4 0.0000 0.0000 0.0000 49.1232 0.0000 -114.8221
# 5 21.6803 -3.8018 7.5358 0.0000 38.5178 0.0000
# 6 0.0000 0.0000 0.0000 -114.8221 0.0000 333.0170
#
#
#
# Elastic Compliance Matrix: (Units=1/GPa)
#
#
# Indices 1 2 3 4 5 6 
#
# 1 0.015946 -0.000674 -0.004290 0.000000 -0.008203 0.000000
# 2 -0.000674 0.006743 -0.002040 0.000000 0.001444 0.000000
# 3 -0.004290 -0.002040 0.017557 0.000000 -0.001222 0.000000
# 4 0.000000 0.000000 0.000000 0.104895 0.000000 0.036167
# 5 -0.008203 0.001444 -0.001222 0.000000 0.030961 0.000000
# 6 0.000000 0.000000 0.000000 0.036167 0.000000 0.015473
#
#
# Mechanical properties :
#
#
# Convention : Reuss Voigt Hill
#
# Bulk Modulus (GPa) = 38.11119 45.27649 41.69384
# Shear Modulus (GPa) = 23.32855 100.73632 62.03243
#
# Velocity S-wave (km/s) = 3.23670 6.72591 5.27798
# Velocity P-wave (km/s) = 5.57521 8.98051 7.47437
#
# Compressibility (1/GPa) = 0.02623901
#
# Stress axis : x y z
#
# Youngs Moduli (GPa) = 62.71061 148.29752 56.95616
#
# Poissons Ratio (x) = 0.09995 0.24432
# Poissons Ratio (y) = 0.04227 0.11621
# Poissons Ratio (z) = 0.26900 0.30258
#
# Static dielectric constant tensor:
#      x y z
#    x 1.794160 0.000000 0.039330 
#    y 0.000000 1.786560 0.000000 
#    z 0.039330 0.000000 1.849680 
# 
# From -- ./inp_files/42161.got.cif
#   From: 2010.05.17/outbox.cif.g08.bks.cpg/sg12_22_cif.got.tgz:42161.got - 2010.06.03 13:09:07.
