data_PCOD9212960
_publ_section_title
;
Structure prediction by ZEFSAII (Michael W. Deem and Ramdas Pophale) SiO2 
 PCOD9212960
Probable space group: C 2/M
;
_chemical_formula_sum "Si O2"
_cell_formula_units_Z 44
_cell_length_a 9.412382
_cell_length_b 20.173738
_cell_length_c 12.391850
_cell_angle_alpha 90.000000
_cell_angle_beta 105.774424
_cell_angle_gamma 90.000000
_cell_volume 2264.385439
_symmetry_space_group_name_H-M "C 2/M"
_symmetry_group_IT_number 12
_symmetry_cell_setting 'monoclinic'
loop_
_space_group_symop_operation_xyz
x,y,z
-x,y,-z
-x,-y,-z
x,-y,z
1/2+x,1/2+y,z
1/2-x,1/2+y,-z
1/2-x,1/2-y,-z
1/2+x,1/2-y,z
loop_
_atom_site_type_symbol
_atom_site_label
_atom_site_fract_x
_atom_site_fract_y
_atom_site_fract_z
Si Si1 0.363432 0.766416 0.245224
Si Si2 0.940884 0.000000 0.149654
Si Si3 0.535273 0.879139 0.879359
Si Si4 0.257018 0.500000 0.891175
Si Si5 0.000000 0.109779 0.500000
Si Si6 0.848356 0.783024 0.611395
Si Si7 0.203953 0.110380 0.735426
O O1 0.393662 0.808989 0.144656
O O2 0.238350 0.796441 0.296453
O O3 0.519623 0.767577 0.338280
O O4 0.327198 0.687654 0.238126
O O5 0.881559 0.935720 0.198759
O O6 0.117938 0.000000 0.175320
O O7 0.856360 0.000000 0.018949
O O8 0.380513 0.895025 0.786723
O O9 0.652469 0.935888 0.873762
O O10 0.500000 0.878931 0.000000
O O11 0.084487 0.152333 0.427663
O O12 0.136410 0.086403 0.605330
O O13 0.750000 0.750000 0.500000
#
# Coordination Sequence:
#
# PCOD9212960 Si02
#       7
#     8   4   8   4   4   8   8
#     4  11  23  36  63 101 130 166 216 268 323 376
#     4  11  25  47  68  93 126 169 228 267 325 393
#     4  12  24  44  67  96 130 174 217 273 327 385
#     4  11  26  45  71  91 120 180 219 270 324 398
#     4  10  22  35  68  96 132 173 216 260 328 383
#     4  11  17  36  59  93 133 172 210 256 316 391
#     4  11  23  43  66  96 133 174 215 262 327 386
#
# _framework density 19.431319999999999
#
# number of rings (size 3 to 8) (size 9 to 14) (size 15 to 20)
#    0.000    0.909    7.273    0.818    5.091    1.091 
#    3.273    0.000    0.000    1.091    0.000    0.000 
#    0.000    0.000    0.000    0.000    0.000    0.000 
#
# Total GULP energy -122517.168819 kJ/mol
# GULP energy per Si atom -5568.962219 kJ/mol
# Density = 1.938709 g / cm^3
# Si number density = 19.431320 Si / 1000 Ang^3
#
#
#
# Elastic Constant Matrix: (Units=GPa)
#
#
# Indices 1 2 3 4 5 6 
#
# 1 145.3398 52.0845 40.4762 0.0000 -6.9150 0.0000
# 2 52.0845 83.6740 29.2607 0.0000 -6.9276 0.0000
# 3 40.4762 29.2607 61.3034 0.0000 5.4529 0.0000
# 4 0.0000 0.0000 0.0000 39.1161 0.0000 -19.8216
# 5 -6.9150 -6.9276 5.4529 0.0000 43.5032 0.0000
# 6 0.0000 0.0000 0.0000 -19.8216 0.0000 46.4864
#
#
#
# Elastic Compliance Matrix: (Units=1/GPa)
#
#
# Indices 1 2 3 4 5 6 
#
# 1 0.009771 -0.004400 -0.004477 0.000000 0.001414 0.000000
# 2 -0.004400 0.016775 -0.005337 0.000000 0.002641 0.000000
# 3 -0.004477 -0.005337 0.022202 0.000000 -0.004344 0.000000
# 4 0.000000 0.000000 0.000000 0.032611 0.000000 0.013905
# 5 0.001414 0.002641 -0.004344 0.000000 0.024177 0.000000
# 6 0.000000 0.000000 0.000000 0.013905 0.000000 0.027441
#
#
# Mechanical properties :
#
#
# Convention : Reuss Voigt Hill
#
# Bulk Modulus (GPa) = 49.21064 59.32888 54.26976
# Shear Modulus (GPa) = 29.73043 37.05420 33.39232
#
# Velocity S-wave (km/s) = 3.91580 4.37158 4.14995
# Velocity P-wave (km/s) = 6.76942 7.48865 7.13810
#
# Compressibility (1/GPa) = 0.02032081
#
# Stress axis : x y z
#
# Youngs Moduli (GPa) = 102.34114 59.61382 45.04039
#
# Poissons Ratio (x) = 0.26227 0.20166
# Poissons Ratio (y) = 0.45025 0.24037
# Poissons Ratio (z) = 0.45822 0.31815
#
# Static dielectric constant tensor:
#      x y z
#    x 1.700670 0.000000 0.002680 
#    y 0.000000 1.696900 0.000000 
#    z 0.002680 0.000000 1.700460 
# 
# From -- ./inp_files/120867.got.cif
#   From: 2010.05.17/outbox.cif.g08.bks.cpg/sg12_61_cif.got.tgz:120867.got - 2010.06.03 13:09:07.
