data_PCOD9212278
_publ_section_title
;
Structure prediction by ZEFSAII (Michael W. Deem and Ramdas Pophale) SiO2 
 PCOD9212278
Probable space group: C 2/M
;
_chemical_formula_sum "Si O2"
_cell_formula_units_Z 48
_cell_length_a 13.623715
_cell_length_b 17.885381
_cell_length_c 13.515850
_cell_angle_alpha 90.000000
_cell_angle_beta 136.473377
_cell_angle_gamma 90.000000
_cell_volume 2268.098261
_symmetry_space_group_name_H-M "C 2/M"
_symmetry_group_IT_number 12
_symmetry_cell_setting 'monoclinic'
loop_
_space_group_symop_operation_xyz
x,y,z
-x,y,-z
-x,-y,-z
x,-y,z
1/2+x,1/2+y,z
1/2-x,1/2+y,-z
1/2-x,1/2-y,-z
1/2+x,1/2-y,z
loop_
_atom_site_type_symbol
_atom_site_label
_atom_site_fract_x
_atom_site_fract_y
_atom_site_fract_z
Si Si1 0.537387 0.589866 0.416914
Si Si2 0.156482 0.296274 0.636054
Si Si3 0.172903 0.587967 0.473057
Si Si4 0.889584 0.650353 0.177363
Si Si5 0.897073 0.912448 0.114657
Si Si6 0.467113 0.265870 0.862596
O O1 0.500000 0.612358 0.500000
O O2 0.549730 0.500000 0.429041
O O3 0.688011 0.617003 0.483676
O O4 0.420296 0.606671 0.247564
O O5 0.160920 0.368136 0.567195
O O6 0.163324 0.317978 0.756050
O O7 0.300637 0.251774 0.718818
O O8 0.000000 0.263717 0.500000
O O9 0.187904 0.500000 0.502295
O O10 0.031263 0.603798 0.306534
O O11 0.935256 0.717561 0.138861
O O12 0.763341 0.603027 0.036770
O O13 0.996598 0.853437 0.129458
O O14 0.934645 0.000000 0.127115
O O15 0.500000 0.247288 0.000000
#
# Coordination Sequence:
#
# PCOD9212278 Si02
#       6
#     8   8   8   8   8   8
#     4   9  19  38  62  91 129 170 216 271 329 393
#     4  10  23  42  65  97 132 172 222 277 334 398
#     4  10  21  41  66  99 139 175 222 282 337 396
#     4  11  25  43  64  99 136 178 224 273 340 406
#     4  11  23  42  68  97 131 175 229 280 336 399
#     4  12  25  45  67  98 138 179 227 278 339 401
#
# _framework density 21.163104000000001
#
# number of rings (size 3 to 8) (size 9 to 14) (size 15 to 20)
#    0.000    1.500    3.333    1.000    0.000    8.000 
#    0.000    0.000    0.000    5.000    0.000    0.000 
#    0.000    0.000    0.000    0.000    0.000    0.000 
#
# Total GULP energy -134150.491455 kJ/mol
# GULP energy per Si atom -5589.603811 kJ/mol
# Density = 2.111494 g / cm^3
# Si number density = 21.163104 Si / 1000 Ang^3
#
#
#
# Elastic Constant Matrix: (Units=GPa)
#
#
# Indices 1 2 3 4 5 6 
#
# 1 127.8980 37.3722 62.4502 0.0000 -13.8093 0.0000
# 2 37.3722 85.1937 27.5870 0.0000 -10.5212 0.0000
# 3 62.4502 27.5870 141.7232 0.0000 -1.4513 0.0000
# 4 0.0000 0.0000 0.0000 174.5614 0.0000 -29.5084
# 5 -13.8093 -10.5212 -1.4513 0.0000 46.6508 0.0000
# 6 0.0000 0.0000 0.0000 -29.5084 0.0000 27.4164
#
#
#
# Elastic Compliance Matrix: (Units=1/GPa)
#
#
# Indices 1 2 3 4 5 6 
#
# 1 0.011082 -0.003189 -0.004238 0.000000 0.002429 0.000000
# 2 -0.003189 0.013808 -0.001261 0.000000 0.002131 0.000000
# 3 -0.004238 -0.001261 0.009156 0.000000 -0.001254 0.000000
# 4 0.000000 0.000000 0.000000 0.007003 0.000000 0.007537
# 5 0.002429 0.002131 -0.001254 0.000000 0.022597 0.000000
# 6 0.000000 0.000000 0.000000 0.007537 0.000000 0.044587
#
#
# Mechanical properties :
#
#
# Convention : Reuss Voigt Hill
#
# Bulk Modulus (GPa) = 59.98356 67.73709 63.86032
# Shear Modulus (GPa) = 38.12006 64.88608 51.50307
#
# Velocity S-wave (km/s) = 4.24872 5.54315 4.93853
# Velocity P-wave (km/s) = 7.24388 8.54666 7.92210
#
# Compressibility (1/GPa) = 0.01667124
#
# Stress axis : x y z
#
# Youngs Moduli (GPa) = 90.23570 72.41980 109.21927
#
# Poissons Ratio (x) = 0.23096 0.46283
# Poissons Ratio (y) = 0.28778 0.13770
# Poissons Ratio (z) = 0.38239 0.09130
#
# Static dielectric constant tensor:
#      x y z
#    x 1.748160 0.000000 0.021630 
#    y 0.000000 1.758960 0.000000 
#    z 0.021630 0.000000 1.756520 
# 
# From -- ./inp_files/134083.got.cif
#   From: 2010.05.17/outbox.cif.g08.bks.cpg/sg12_68_cif.got.tgz:134083.got - 2010.06.03 13:09:07.
