data_PCOD9212689
_publ_section_title
;
Structure prediction by ZEFSAII (Michael W. Deem and Ramdas Pophale) SiO2 
 PCOD9212689
Probable space group: C 2/M
;
_chemical_formula_sum "Si O2"
_cell_formula_units_Z 56
_cell_length_a 14.465469
_cell_length_b 17.686489
_cell_length_c 15.632427
_cell_angle_alpha 90.000000
_cell_angle_beta 44.824047
_cell_angle_gamma 90.000000
_cell_volume 2819.341953
_symmetry_space_group_name_H-M "C 2/M"
_symmetry_group_IT_number 12
_symmetry_cell_setting 'monoclinic'
loop_
_space_group_symop_operation_xyz
x,y,z
-x,y,-z
-x,-y,-z
x,-y,z
1/2+x,1/2+y,z
1/2-x,1/2+y,-z
1/2-x,1/2-y,-z
1/2+x,1/2-y,z
loop_
_atom_site_type_symbol
_atom_site_label
_atom_site_fract_x
_atom_site_fract_y
_atom_site_fract_z
Si Si1 0.698351 0.588510 0.895559
Si Si2 0.853324 0.666229 0.341182
Si Si3 0.603806 0.755551 0.502282
Si Si4 0.281458 0.500000 0.584036
Si Si5 0.464951 0.348969 0.711608
Si Si6 0.863576 0.711985 0.868085
Si Si7 0.063584 0.089622 0.817476
Si Si8 0.923058 0.000000 0.673639
O O1 0.724801 0.500000 0.874879
O O2 0.810778 0.635661 0.863334
O O3 0.670209 0.613836 0.817018
O O4 0.571374 0.598349 0.040106
O O5 0.743482 0.724909 0.378797
O O6 0.876455 0.690737 0.426872
O O7 0.803169 0.578452 0.370376
O O8 0.988176 0.688311 0.203043
O O9 0.500000 0.784299 0.500000
O O10 0.545757 0.676049 0.576677
O O11 0.349204 0.500000 0.632738
O O12 0.415901 0.500000 0.437935
O O13 0.379707 0.276392 0.786634
O O14 0.553697 0.365412 0.736383
O O15 0.386056 0.424659 0.747747
O O16 0.750000 0.750000 0.000000
O O17 0.079276 0.000000 0.789311
#
# Coordination Sequence:
#
# PCOD9212689 Si02
#       8
#     8   8   8   4   8   8   8   4
#     4   9  19  37  61  84 120 169 212 260 323 381
#     4  10  23  40  66  94 125 170 215 268 324 390
#     4  10  21  43  65  92 128 168 214 272 330 380
#     4  11  22  44  66  93 131 168 221 263 333 388
#     4  11  20  36  63  94 123 163 218 265 319 388
#     4  11  23  41  60  92 131 176 212 265 326 387
#     4   9  17  34  59  89 115 155 218 271 311 378
#     4  11  22  38  69  96 123 175 214 274 326 396
#
# _framework density 19.862791000000001
#
# number of rings (size 3 to 8) (size 9 to 14) (size 15 to 20)
#    0.000    1.857    3.571    1.714    1.000    0.000 
#   20.571    0.357    0.000    0.857    0.000    0.000 
#    0.000    0.000    0.000    0.000    0.000    0.000 
#
# Total GULP energy -155932.396599 kJ/mol
# GULP energy per Si atom -5569.014164 kJ/mol
# Density = 1.981758 g / cm^3
# Si number density = 19.862791 Si / 1000 Ang^3
#
#
#
# Elastic Constant Matrix: (Units=GPa)
#
#
# Indices 1 2 3 4 5 6 
#
# 1 96.7232 21.2377 29.1699 0.0000 -10.7782 0.0000
# 2 21.2377 72.9976 14.3031 0.0000 -13.2806 0.0000
# 3 29.1699 14.3031 67.4847 -0.0001 -19.5627 0.0001
# 4 0.0000 0.0000 -0.0001 23.2449 0.0000 3.9061
# 5 -10.7782 -13.2806 -19.5627 0.0000 25.9083 0.0000
# 6 0.0000 0.0000 0.0001 3.9061 0.0000 20.1304
#
#
#
# Elastic Compliance Matrix: (Units=1/GPa)
#
#
# Indices 1 2 3 4 5 6 
#
# 1 0.012366 -0.002631 -0.004720 0.000000 0.000232 0.000000
# 2 -0.002631 0.015747 -0.000228 0.000000 0.006806 0.000000
# 3 -0.004720 -0.000228 0.020872 0.000000 0.013680 0.000000
# 4 0.000000 0.000000 0.000000 0.044470 0.000000 -0.008629
# 5 0.000232 0.006806 0.013680 0.000000 0.052512 0.000000
# 6 0.000000 0.000000 0.000000 -0.008629 0.000000 0.051351
#
#
# Mechanical properties :
#
#
# Convention : Reuss Voigt Hill
#
# Bulk Modulus (GPa) = 29.56119 40.73631 35.14875
# Shear Modulus (GPa) = 22.34627 25.35638 23.85132
#
# Velocity S-wave (km/s) = 3.35779 3.57680 3.46902
# Velocity P-wave (km/s) = 5.47248 6.13281 5.81203
#
# Compressibility (1/GPa) = 0.03382813
#
# Stress axis : x y z
#
# Youngs Moduli (GPa) = 80.86837 63.50333 47.91050
#
# Poissons Ratio (x) = 0.16705 0.22615
# Poissons Ratio (y) = 0.21273 0.01090
# Poissons Ratio (z) = 0.38173 0.01445
#
# Static dielectric constant tensor:
#      x y z
#    x 1.839800 0.000000 -0.056870 
#    y 0.000000 1.614490 0.000000 
#    z -0.056870 0.000000 1.799320 
# 
# From -- ./inp_files/271420.got.cif
#   From: 2010.05.17/outbox.cif.g08.bks.cpg/sg12_136_cif.got.tgz:271420.got - 2010.06.03 13:09:07.
