data_PCOD9212103
_publ_section_title
;
Structure prediction by ZEFSAII (Michael W. Deem and Ramdas Pophale) SiO2 
 PCOD9212103
Probable space group: C 2/M
;
_chemical_formula_sum "Si O2"
_cell_formula_units_Z 36
_cell_length_a 7.901175
_cell_length_b 27.096317
_cell_length_c 14.513039
_cell_angle_alpha 90.000000
_cell_angle_beta 147.580539
_cell_angle_gamma 90.000000
_cell_volume 1665.777875
_symmetry_space_group_name_H-M "C 2/M"
_symmetry_group_IT_number 12
_symmetry_cell_setting 'monoclinic'
loop_
_space_group_symop_operation_xyz
x,y,z
-x,y,-z
-x,-y,-z
x,-y,z
1/2+x,1/2+y,z
1/2-x,1/2+y,-z
1/2-x,1/2-y,-z
1/2+x,1/2-y,z
loop_
_atom_site_type_symbol
_atom_site_label
_atom_site_fract_x
_atom_site_fract_y
_atom_site_fract_z
Si Si1 0.453328 0.326752 0.692889
Si Si2 0.000000 0.401022 0.000000
Si Si3 0.369407 0.944450 0.142528
Si Si4 0.143544 0.648654 0.372024
Si Si5 0.955453 0.265880 0.802872
O O1 0.683466 0.367470 0.843812
O O2 0.197833 0.349515 0.506073
O O3 0.325633 0.284684 0.701417
O O4 0.701919 0.293981 0.747999
O O5 0.055081 0.430505 0.929637
O O6 0.516392 0.902385 0.274349
O O7 0.489044 0.000000 0.214557
O O8 0.000000 0.944094 0.000000
O O9 0.500000 0.653418 0.500000
O O10 0.964028 0.694243 0.240380
O O11 0.250000 0.250000 0.000000
#
# Coordination Sequence:
#
# PCOD9212103 Si02
#       5
#     8   4   8   8   8
#     4  11  22  38  61  95 134 182 228 257 338 401
#     4  12  21  46  68 100 138 174 221 276 340 408
#     4  11  25  46  73 101 128 171 228 284 344 403
#     4  10  21  41  63  92 135 174 222 275 333 396
#     4  11  19  35  57  88 129 172 221 263 309 396
#
# _framework density 21.611525
#
# number of rings (size 3 to 8) (size 9 to 14) (size 15 to 20)
#    0.000    1.111    6.667    1.000    0.000    4.000 
#    0.000    3.333    0.000    2.667    0.000    0.000 
#    0.000    0.000    0.000    0.000    0.000    0.000 
#
# Total GULP energy -100570.903416 kJ/mol
# GULP energy per Si atom -5587.272412 kJ/mol
# Density = 2.156234 g / cm^3
# Si number density = 21.611525 Si / 1000 Ang^3
#
#
#
# Elastic Constant Matrix: (Units=GPa)
#
#
# Indices 1 2 3 4 5 6 
#
# 1 74.8958 21.4167 16.1899 0.0000 -18.4928 0.0000
# 2 21.4167 166.4559 93.6090 0.0000 -22.1614 0.0000
# 3 16.1899 93.6090 149.1095 0.0000 -31.4440 0.0000
# 4 0.0000 0.0000 0.0000 16.9198 0.0000 0.0332
# 5 -18.4928 -22.1614 -31.4440 0.0000 21.9083 0.0000
# 6 0.0000 0.0000 0.0000 0.0332 0.0000 29.9673
#
#
#
# Elastic Compliance Matrix: (Units=1/GPa)
#
#
# Indices 1 2 3 4 5 6 
#
# 1 0.017384 -0.001436 0.002584 0.000000 0.016931 0.000000
# 2 -0.001436 0.009438 -0.005752 0.000000 0.000079 0.000000
# 3 0.002584 -0.005752 0.013294 0.000000 0.015442 0.000000
# 4 0.000000 0.000000 0.000000 0.059103 0.000000 -0.000065
# 5 0.016931 0.000079 0.015442 0.000000 0.082179 0.000000
# 6 0.000000 0.000000 0.000000 -0.000065 0.000000 0.033370
#
#
# Mechanical properties :
#
#
# Convention : Reuss Voigt Hill
#
# Bulk Modulus (GPa) = 32.35473 72.54359 52.44916
# Shear Modulus (GPa) = 21.34220 31.04210 26.19215
#
# Velocity S-wave (km/s) = 3.14592 3.79406 3.48509
# Velocity P-wave (km/s) = 5.31030 7.26864 6.36523
#
# Compressibility (1/GPa) = 0.03090738
#
# Stress axis : x y z
#
# Youngs Moduli (GPa) = 57.52335 105.95714 75.22396
#
# Poissons Ratio (x) = 0.15214 -0.19439
# Poissons Ratio (y) = 0.08260 0.43272
# Poissons Ratio (z) = -0.14865 0.60951
#
# Static dielectric constant tensor:
#      x y z
#    x 1.853590 0.000000 -0.012830 
#    y 0.000000 1.755610 0.000000 
#    z -0.012830 0.000000 1.797890 
# 
# From -- ./inp_files/200083.got.cif
#   From: 2010.05.17/outbox.cif.g08.bks.cpg/sg12_101_cif.got.tgz:200083.got - 2010.06.03 13:09:07.
