data_PCOD9212813
_publ_section_title
;
Structure prediction by ZEFSAII (Michael W. Deem and Ramdas Pophale) SiO2 
 PCOD9212813
Probable space group: C 2/M
;
_chemical_formula_sum "Si O2"
_cell_formula_units_Z 28
_cell_length_a 11.825783
_cell_length_b 14.458671
_cell_length_c 7.369218
_cell_angle_alpha 90.000000
_cell_angle_beta 126.681687
_cell_angle_gamma 90.000000
_cell_volume 1010.499205
_symmetry_space_group_name_H-M "C 2/M"
_symmetry_group_IT_number 12
_symmetry_cell_setting 'monoclinic'
loop_
_space_group_symop_operation_xyz
x,y,z
-x,y,-z
-x,-y,-z
x,-y,z
1/2+x,1/2+y,z
1/2-x,1/2+y,-z
1/2-x,1/2-y,-z
1/2+x,1/2-y,z
loop_
_atom_site_type_symbol
_atom_site_label
_atom_site_fract_x
_atom_site_fract_y
_atom_site_fract_z
Si Si1 0.842808 0.889981 0.015258
Si Si2 0.769308 0.858928 0.546419
Si Si3 0.000000 0.134743 0.500000
Si Si4 0.963526 0.607184 0.158225
O O1 0.935420 0.830848 0.246602
O O2 0.146378 0.881115 0.190262
O O3 0.869098 0.000000 0.084666
O O4 0.681236 0.860290 0.895182
O O5 0.750000 0.750000 0.500000
O O6 0.852645 0.899501 0.451987
O O7 0.608235 0.892304 0.408537
O O8 0.930588 0.500000 0.090857
O O9 0.000000 0.653310 0.000000
#
# Coordination Sequence:
#
# PCOD9212813 Si02
#       4
#     8   8   4   8
#     4  11  25  47  76 106 141 188 242 296 354 418
#     4  12  28  45  70 104 148 189 236 290 359 432
#     4  12  27  46  68 108 145 188 232 302 357 418
#     4  10  21  44  75 103 136 185 241 295 346 416
#
# _framework density 27.709074999999999
#
# number of rings (size 3 to 8) (size 9 to 14) (size 15 to 20)
#    0.000    0.857    2.857    3.000    4.000   10.286 
#    0.000    0.000    0.000    0.000    0.000    0.000 
#    0.000    0.000    0.000    0.000    0.000    0.000 
#
# Total GULP energy -78172.461790 kJ/mol
# GULP energy per Si atom -5583.747271 kJ/mol
# Density = 2.764601 g / cm^3
# Si number density = 27.709075 Si / 1000 Ang^3
#
#
#
# Elastic Constant Matrix: (Units=GPa)
#
#
# Indices 1 2 3 4 5 6 
#
# 1 182.2250 -5.7078 55.2513 0.0000 -10.4751 0.0000
# 2 -5.7078 125.8041 -5.2909 0.0000 0.3523 0.0000
# 3 55.2513 -5.2909 190.6134 0.0000 -20.7164 0.0000
# 4 0.0000 0.0000 0.0000 11.7445 0.0000 4.4815
# 5 -10.4751 0.3523 -20.7164 0.0000 67.9816 0.0000
# 6 0.0000 0.0000 0.0000 4.4815 0.0000 -8.0396
#
#
#
# Elastic Compliance Matrix: (Units=1/GPa)
#
#
# Indices 1 2 3 4 5 6 
#
# 1 0.006033 0.000201 -0.001698 0.000000 0.000411 0.000000
# 2 0.000201 0.007965 0.000167 0.000000 0.000041 0.000000
# 3 -0.001698 0.000167 0.005910 0.000000 0.001539 0.000000
# 4 0.000000 0.000000 0.000000 0.070212 0.000000 0.039138
# 5 0.000411 0.000041 0.001539 0.000000 0.015242 0.000000
# 6 0.000000 0.000000 0.000000 0.039138 0.000000 -0.102568
#
#
# Mechanical properties :
#
#
# Convention : Reuss Voigt Hill
#
# Bulk Modulus (GPa) = 57.97841 65.23862 61.60852
# Shear Modulus (GPa) = 446.29940 44.62996 245.46468
#
# Velocity S-wave (km/s) = 12.70495 4.01766 9.42224
# Velocity P-wave (km/s) = 15.36849 6.71695 11.85976
#
# Compressibility (1/GPa) = 0.01724780
#
# Stress axis : x y z
#
# Youngs Moduli (GPa) = 165.76609 125.55074 169.19431
#
# Poissons Ratio (x) = -0.02525 0.28735
# Poissons Ratio (y) = -0.03334 -0.02829
# Poissons Ratio (z) = 0.28153 -0.02099
#
# Static dielectric constant tensor:
#      x y z
#    x 2.166210 0.000000 0.038590 
#    y 0.000000 2.210410 0.000000 
#    z 0.038590 0.000000 2.130650 
# 
# From -- ./inp_files/46210.got.cif
#   From: 2010.05.17/outbox.cif.g08.bks.cpg/sg12_24_cif.got.tgz:46210.got - 2010.06.03 13:09:07.
