data_PCOD9212496
_publ_section_title
;
Structure prediction by ZEFSAII (Michael W. Deem and Ramdas Pophale) SiO2 
 PCOD9212496
Probable space group: C 2/M
;
_chemical_formula_sum "Si O2"
_cell_formula_units_Z 64
_cell_length_a 8.980853
_cell_length_b 29.037744
_cell_length_c 12.657863
_cell_angle_alpha 90.000000
_cell_angle_beta 86.158587
_cell_angle_gamma 90.000000
_cell_volume 3293.548219
_symmetry_space_group_name_H-M "C 2/M"
_symmetry_group_IT_number 12
_symmetry_cell_setting 'monoclinic'
loop_
_space_group_symop_operation_xyz
x,y,z
-x,y,-z
-x,-y,-z
x,-y,z
1/2+x,1/2+y,z
1/2-x,1/2+y,-z
1/2-x,1/2-y,-z
1/2+x,1/2-y,z
loop_
_atom_site_type_symbol
_atom_site_label
_atom_site_fract_x
_atom_site_fract_y
_atom_site_fract_z
Si Si1 0.820674 0.897610 0.498726
Si Si2 0.175526 0.203408 0.465458
Si Si3 0.688668 0.601680 0.117657
Si Si4 0.320231 0.946447 0.694618
Si Si5 0.589760 0.281800 0.884826
Si Si6 0.167300 0.886373 0.879330
Si Si7 0.823607 0.552353 0.302538
Si Si8 0.707704 0.700741 0.214101
O O1 0.776819 0.844373 0.481150
O O2 0.751274 0.929783 0.412048
O O3 0.757166 0.913573 0.613576
O O4 0.000000 0.900272 0.500000
O O5 0.250000 0.250000 0.500000
O O6 0.216565 0.198454 0.339803
O O7 0.000000 0.207157 0.500000
O O8 0.507666 0.601962 0.133049
O O9 0.768973 0.564903 0.187819
O O10 0.738772 0.651611 0.158593
O O11 0.717819 0.596739 0.992222
O O12 0.258957 0.911837 0.785606
O O13 0.499426 0.943548 0.688477
O O14 0.279654 0.000000 0.716471
O O15 0.675667 0.330686 0.882663
O O16 0.463134 0.286960 0.802864
O O17 0.692702 0.239440 0.847500
O O18 0.500000 0.276519 0.000000
O O19 0.780114 0.500000 0.329769
#
# Coordination Sequence:
#
# PCOD9212496 Si02
#       8
#     8   8   8   8   8   8   8   8
#     4  11  24  43  70  95 128 169 219 268 316 381
#     4  11  25  42  62  94 131 169 210 259 318 380
#     4  10  21  42  63  95 126 165 214 267 319 382
#     4  11  26  43  64  96 130 168 214 267 331 388
#     4  11  22  39  64  94 127 169 215 264 318 379
#     4  10  22  41  67  91 130 165 214 268 317 379
#     4  11  24  44  66  93 129 166 210 271 328 389
#     4  11  22  40  62  90 131 165 213 263 318 380
#
# _framework density 19.431930000000001
#
# number of rings (size 3 to 8) (size 9 to 14) (size 15 to 20)
#    0.000    1.250    3.750    2.625    7.000    6.500 
#    0.000    2.500    0.000    0.000    0.000    0.000 
#    0.000    0.000    0.000    0.000    0.000    0.000 
#
# Total GULP energy -178756.403173 kJ/mol
# GULP energy per Si atom -5586.137599 kJ/mol
# Density = 1.938770 g / cm^3
# Si number density = 19.431930 Si / 1000 Ang^3
#
#
#
# Elastic Constant Matrix: (Units=GPa)
#
#
# Indices 1 2 3 4 5 6 
#
# 1 28.8568 35.2545 23.0563 0.0000 1.5314 0.0000
# 2 35.2545 98.5782 26.7332 0.0000 -7.5124 0.0000
# 3 23.0563 26.7332 94.1989 0.0000 4.0893 0.0000
# 4 0.0000 0.0000 0.0000 36.1838 0.0000 -3.6466
# 5 1.5314 -7.5124 4.0893 0.0000 25.8486 0.0000
# 6 0.0000 0.0000 0.0000 -3.6466 0.0000 36.4684
#
#
#
# Elastic Compliance Matrix: (Units=1/GPa)
#
#
# Indices 1 2 3 4 5 6 
#
# 1 0.072863 -0.023904 -0.010634 0.000000 -0.009582 0.000000
# 2 -0.023904 0.019198 0.000100 0.000000 0.006980 0.000000
# 3 -0.010634 0.000100 0.013253 0.000000 -0.001438 0.000000
# 4 0.000000 0.000000 0.000000 0.027918 0.000000 0.002792
# 5 -0.009582 0.006980 -0.001438 0.000000 0.041511 0.000000
# 6 0.000000 0.000000 0.000000 0.002792 0.000000 0.027700
#
#
# Mechanical properties :
#
#
# Convention : Reuss Voigt Hill
#
# Bulk Modulus (GPa) = 27.44547 43.52465 35.48506
# Shear Modulus (GPa) = 17.63885 28.80616 23.22251
#
# Velocity S-wave (km/s) = 3.01612 3.85439 3.46073
# Velocity P-wave (km/s) = 5.12678 6.50043 5.85403
#
# Compressibility (1/GPa) = 0.03643589
#
# Stress axis : x y z
#
# Youngs Moduli (GPa) = 13.72445 52.08869 75.45556
#
# Poissons Ratio (x) = 1.24514 0.80240
# Poissons Ratio (y) = 0.32807 -0.00751
# Poissons Ratio (z) = 0.14595 -0.00518
#
# Static dielectric constant tensor:
#      x y z
#    x 1.665920 0.000000 0.011060 
#    y 0.000000 1.675490 0.000000 
#    z 0.011060 0.000000 1.673250 
# 
# From -- ./inp_files/125750.got.cif
#   From: 2010.05.17/outbox.cif.g08.bks.cpg/sg12_63_cif.got.tgz:125750.got - 2010.06.03 13:09:07.
