data_PCOD9212092
_publ_section_title
;
Structure prediction by ZEFSAII (Michael W. Deem and Ramdas Pophale) SiO2 
 PCOD9212092
Probable space group: C 2/M
;
_chemical_formula_sum "Si O2"
_cell_formula_units_Z 56
_cell_length_a 14.299195
_cell_length_b 27.879252
_cell_length_c 11.669576
_cell_angle_alpha 90.000000
_cell_angle_beta 30.609019
_cell_angle_gamma 90.000000
_cell_volume 2368.734991
_symmetry_space_group_name_H-M "C 2/M"
_symmetry_group_IT_number 12
_symmetry_cell_setting 'monoclinic'
loop_
_space_group_symop_operation_xyz
x,y,z
-x,y,-z
-x,-y,-z
x,-y,z
1/2+x,1/2+y,z
1/2-x,1/2+y,-z
1/2-x,1/2-y,-z
1/2+x,1/2-y,z
loop_
_atom_site_type_symbol
_atom_site_label
_atom_site_fract_x
_atom_site_fract_y
_atom_site_fract_z
Si Si1 0.053955 0.794567 0.289644
Si Si2 0.691797 0.557574 0.903774
Si Si3 0.308784 0.387611 0.724100
Si Si4 0.292363 0.595768 0.366275
Si Si5 0.678182 0.175814 0.649761
Si Si6 0.387076 0.254744 0.008095
Si Si7 0.042667 0.445937 0.163969
O O1 0.105812 0.845694 0.286366
O O2 0.109454 0.791661 0.099015
O O3 0.838017 0.786071 0.508598
O O4 0.173781 0.758478 0.238192
O O5 0.660280 0.500000 0.918380
O O6 0.742911 0.582624 0.729529
O O7 0.851063 0.561862 0.828364
O O8 0.507565 0.582526 0.147993
O O9 0.500000 0.416809 0.500000
O O10 0.215121 0.362581 0.712474
O O11 0.148863 0.413706 0.961039
O O12 0.228792 0.648332 0.478681
O O13 0.168024 0.563391 0.581185
O O14 0.489635 0.204982 0.858812
O O15 0.500000 0.270070 0.000000
O O16 0.065456 0.500000 0.101313
#
# Coordination Sequence:
#
# PCOD9212092 Si02
#       7
#     8   8   8   8   8   8   8
#     4  10  22  41  64  93 127 170 223 267 323 407
#     4  10  21  41  63  88 128 172 219 283 345 392
#     4  10  21  41  66  91 133 180 216 270 335 396
#     4  11  22  37  65  93 124 171 223 267 331 405
#     4  11  23  41  64  90 134 177 213 270 338 395
#     4  11  22  40  69  96 126 174 218 272 338 399
#     4  11  23  40  65  95 129 173 228 278 330 392
#
# _framework density 23.641311000000002
#
# number of rings (size 3 to 8) (size 9 to 14) (size 15 to 20)
#    0.000    1.429    1.429    5.143    0.000    1.429 
#    5.143    2.857    3.143    0.000    0.000    0.000 
#    0.000    0.000    0.000    0.000    0.000    0.000 
#
# Total GULP energy -156377.974588 kJ/mol
# GULP energy per Si atom -5584.927664 kJ/mol
# Density = 2.358750 g / cm^3
# Si number density = 23.641311 Si / 1000 Ang^3
#
#
#
# Elastic Constant Matrix: (Units=GPa)
#
#
# Indices 1 2 3 4 5 6 
#
# 1 95.1310 31.5249 28.7444 0.0008 7.7187 0.0009
# 2 31.5249 35.9729 28.0723 -0.0001 12.0078 0.0000
# 3 28.7444 28.0723 138.5546 -0.0228 2.8527 -0.0147
# 4 0.0008 -0.0001 -0.0228 849.2936 0.0019 533.1831
# 5 7.7187 12.0078 2.8527 0.0019 40.4410 0.0012
# 6 0.0009 0.0000 -0.0147 533.1831 0.0012 359.3786
#
#
#
# Elastic Compliance Matrix: (Units=1/GPa)
#
#
# Indices 1 2 3 4 5 6 
#
# 1 0.014887 -0.013034 -0.000469 0.000000 0.001062 0.000000
# 2 -0.013034 0.048381 -0.006864 0.000000 -0.011393 0.000000
# 3 -0.000469 -0.006864 0.008674 0.000000 0.001516 0.000000
# 4 0.000000 0.000000 0.000000 0.017167 0.000000 -0.025470
# 5 0.001062 -0.011393 0.001516 0.000000 0.027801 0.000000
# 6 0.000000 0.000000 0.000000 -0.025470 0.000000 0.040571
#
#
# Mechanical properties :
#
#
# Convention : Reuss Voigt Hill
#
# Bulk Modulus (GPa) = 32.04415 49.59353 40.81884
# Shear Modulus (GPa) = 23.96732 261.91045 142.93889
#
# Velocity S-wave (km/s) = 3.18746 10.53687 7.78413
# Velocity P-wave (km/s) = 5.20867 13.00220 9.90423
#
# Compressibility (1/GPa) = 0.03120694
#
# Stress axis : x y z
#
# Youngs Moduli (GPa) = 67.17338 20.66944 115.28461
#
# Poissons Ratio (x) = 0.26941 0.05412
# Poissons Ratio (y) = 0.87556 0.79127
# Poissons Ratio (z) = 0.03153 0.14187
#
# Static dielectric constant tensor:
#      x y z
#    x 1.883320 0.000000 -0.004790 
#    y 0.000000 1.924650 0.000000 
#    z -0.004790 0.000000 1.990630 
# 
# From -- ./inp_files/150451.got.cif
#   From: 2010.05.17/outbox.cif.g08.bks.cpg/sg12_76_cif.got.tgz:150451.got - 2010.06.03 13:09:07.
