data_PCOD9212340
_publ_section_title
;
Structure prediction by ZEFSAII (Michael W. Deem and Ramdas Pophale) SiO2 
 PCOD9212340
Probable space group: C 2/M
;
_chemical_formula_sum "Si O2"
_cell_formula_units_Z 48
_cell_length_a 10.108307
_cell_length_b 28.684028
_cell_length_c 12.153974
_cell_angle_alpha 90.000000
_cell_angle_beta 37.985934
_cell_angle_gamma 90.000000
_cell_volume 2168.914054
_symmetry_space_group_name_H-M "C 2/M"
_symmetry_group_IT_number 12
_symmetry_cell_setting 'monoclinic'
loop_
_space_group_symop_operation_xyz
x,y,z
-x,y,-z
-x,-y,-z
x,-y,z
1/2+x,1/2+y,z
1/2-x,1/2+y,-z
1/2-x,1/2-y,-z
1/2+x,1/2-y,z
loop_
_atom_site_type_symbol
_atom_site_label
_atom_site_fract_x
_atom_site_fract_y
_atom_site_fract_z
Si Si1 0.855832 0.205267 0.804205
Si Si2 0.201322 0.552388 0.284704
Si Si3 0.082413 0.553535 0.105252
Si Si4 0.229694 0.117016 0.402615
Si Si5 0.582490 0.212011 0.766773
Si Si6 0.494754 0.399098 0.244986
O O1 0.765859 0.215876 0.740865
O O2 0.951276 0.154232 0.762960
O O3 0.031140 0.243338 0.726145
O O4 0.642452 0.205903 0.020428
O O5 0.297000 0.500000 0.235065
O O6 0.138205 0.557642 0.199150
O O7 0.369198 0.590981 0.214644
O O8 0.000000 0.554635 0.500000
O O9 0.034431 0.500000 0.112377
O O10 0.879381 0.587126 0.224234
O O11 0.287890 0.571710 0.904948
O O12 0.355156 0.165335 0.340318
O O13 0.000000 0.127161 0.500000
O O14 0.168497 0.087495 0.550354
#
# Coordination Sequence:
#
# PCOD9212340 Si02
#       6
#     8   8   8   8   8   8
#     4  10  22  42  72  96 138 177 231 278 347 409
#     4  10  21  41  67  98 136 174 221 282 344 406
#     4  11  25  45  69  99 137 178 230 289 344 409
#     4  12  25  43  69  95 139 182 228 282 342 404
#     4  10  22  45  66 100 136 182 223 288 338 410
#     4  12  23  41  70 101 130 184 221 280 347 413
#
# _framework density 22.130890000000001
#
# number of rings (size 3 to 8) (size 9 to 14) (size 15 to 20)
#    0.000    1.167    5.000    1.000    0.000    5.000 
#    6.000    0.833    0.000    0.000    0.000    0.000 
#    0.000    0.000    0.000    0.000    0.000    0.000 
#
# Total GULP energy -134133.009937 kJ/mol
# GULP energy per Si atom -5588.875414 kJ/mol
# Density = 2.208052 g / cm^3
# Si number density = 22.130890 Si / 1000 Ang^3
#
#
#
# Elastic Constant Matrix: (Units=GPa)
#
#
# Indices 1 2 3 4 5 6 
#
# 1 95.1679 33.2403 15.8986 0.0000 -5.3467 0.0000
# 2 33.2403 111.6427 34.3874 0.0000 -27.0290 0.0000
# 3 15.8986 34.3874 91.3000 0.0000 -2.9992 0.0000
# 4 0.0000 0.0000 0.0000 17.3171 0.0000 -7.7638
# 5 -5.3467 -27.0290 -2.9992 0.0000 33.1791 0.0000
# 6 0.0000 0.0000 0.0000 -7.7638 0.0000 27.0254
#
#
#
# Elastic Compliance Matrix: (Units=1/GPa)
#
#
# Indices 1 2 3 4 5 6 
#
# 1 0.011811 -0.003536 -0.000759 0.000000 -0.001046 0.000000
# 2 -0.003536 0.013811 -0.004248 0.000000 0.010298 0.000000
# 3 -0.000759 -0.004248 0.012605 0.000000 -0.002444 0.000000
# 4 0.000000 0.000000 0.000000 0.066283 0.000000 0.019042
# 5 -0.001046 0.010298 -0.002444 0.000000 0.038139 0.000000
# 6 0.000000 0.000000 0.000000 0.019042 0.000000 0.042473
#
#
# Mechanical properties :
#
#
# Convention : Reuss Voigt Hill
#
# Bulk Modulus (GPa) = 47.30185 51.68481 49.49333
# Shear Modulus (GPa) = 23.89427 29.80992 26.85210
#
# Velocity S-wave (km/s) = 3.28941 3.67411 3.48707
# Velocity P-wave (km/s) = 5.98724 6.43456 6.21493
#
# Compressibility (1/GPa) = 0.02114082
#
# Stress axis : x y z
#
# Youngs Moduli (GPa) = 84.66794 72.40395 79.33472
#
# Poissons Ratio (x) = 0.25601 0.06024
# Poissons Ratio (y) = 0.29937 0.33701
# Poissons Ratio (z) = 0.06429 0.30757
#
# Static dielectric constant tensor:
#      x y z
#    x 1.872990 0.000000 0.051040 
#    y 0.000000 1.775490 0.000000 
#    z 0.051040 0.000000 1.856100 
# 
# From -- ./inp_files/209788.got.cif
#   From: 2010.05.17/outbox.cif.g08.bks.cpg/sg12_105_cif.got.tgz:209788.got - 2010.06.03 13:09:07.
