data_PCOD9212072
_publ_section_title
;
Structure prediction by ZEFSAII (Michael W. Deem and Ramdas Pophale) SiO2 
 PCOD9212072
Probable space group: C 2/M
;
_chemical_formula_sum "Si O2"
_cell_formula_units_Z 48
_cell_length_a 28.760687
_cell_length_b 18.481190
_cell_length_c 12.549960
_cell_angle_alpha 90.000000
_cell_angle_beta 158.922526
_cell_angle_gamma 90.000000
_cell_volume 2398.984415
_symmetry_space_group_name_H-M "C 2/M"
_symmetry_group_IT_number 12
_symmetry_cell_setting 'monoclinic'
loop_
_space_group_symop_operation_xyz
x,y,z
-x,y,-z
-x,-y,-z
x,-y,z
1/2+x,1/2+y,z
1/2-x,1/2+y,-z
1/2-x,1/2-y,-z
1/2+x,1/2-y,z
loop_
_atom_site_type_symbol
_atom_site_label
_atom_site_fract_x
_atom_site_fract_y
_atom_site_fract_z
Si Si1 0.807864 0.683028 0.805116
Si Si2 0.980569 0.793505 0.831217
Si Si3 0.351909 0.085741 0.701303
Si Si4 0.858631 0.157935 0.154470
Si Si5 0.639668 0.585760 0.069859
Si Si6 0.863160 0.666939 0.155389
O O1 0.668183 0.721004 0.516322
O O2 0.795638 0.628152 0.680963
O O3 0.844450 0.644171 0.993419
O O4 0.920741 0.738509 0.014230
O O5 0.000000 0.790419 0.000000
O O6 0.021789 0.871700 0.873539
O O7 0.264026 0.099434 0.410595
O O8 0.351792 0.000000 0.721416
O O9 0.500000 0.108958 0.000000
O O10 0.856094 0.245055 0.134255
O O11 0.000000 0.138626 0.500000
O O12 0.837240 0.118655 0.997095
O O13 0.750701 0.140669 0.011346
O O14 0.617404 0.500000 0.017086
O O15 0.000000 0.647655 0.500000
#
# Coordination Sequence:
#
# PCOD9212072 Si02
#       6
#     8   8   8   8   8   8
#     4  12  25  41  67  96 132 166 212 274 323 384
#     4  12  25  40  63 102 130 167 215 266 324 387
#     4  10  24  43  65  94 129 173 214 261 327 389
#     4  10  21  41  62  91 124 165 215 258 316 378
#     4  11  24  43  67  93 132 173 215 264 321 389
#     4  10  23  37  63  92 126 164 208 268 315 373
#
# _framework density 20.008467
#
# number of rings (size 3 to 8) (size 9 to 14) (size 15 to 20)
#    0.000    1.167    3.333    2.000    9.333    1.333 
#    0.000    0.833    0.000    1.000    0.000    0.000 
#    0.000    0.000    0.000    0.000    0.000    0.000 
#
# Total GULP energy -134253.088806 kJ/mol
# GULP energy per Si atom -5593.878700 kJ/mol
# Density = 1.996293 g / cm^3
# Si number density = 20.008467 Si / 1000 Ang^3
#
#
#
# Elastic Constant Matrix: (Units=GPa)
#
#
# Indices 1 2 3 4 5 6 
#
# 1 165.6043 43.1359 83.0150 0.0000 -8.1906 0.0000
# 2 43.1359 51.7581 35.2886 0.0000 0.0804 0.0000
# 3 83.0150 35.2886 153.9923 0.0000 8.6474 0.0000
# 4 0.0000 0.0000 0.0000 16.1277 0.0000 0.5300
# 5 -8.1906 0.0804 8.6474 0.0000 42.7480 0.0000
# 6 0.0000 0.0000 0.0000 0.5300 0.0000 21.6828
#
#
#
# Elastic Compliance Matrix: (Units=1/GPa)
#
#
# Indices 1 2 3 4 5 6 
#
# 1 0.009594 -0.005180 -0.004135 0.000000 0.002684 0.000000
# 2 -0.005180 0.025740 -0.003083 0.000000 -0.000417 0.000000
# 3 -0.004135 -0.003083 0.009583 0.000000 -0.002725 0.000000
# 4 0.000000 0.000000 0.000000 0.062055 0.000000 -0.001517
# 5 0.002684 -0.000417 -0.002725 0.000000 0.024459 0.000000
# 6 0.000000 0.000000 0.000000 -0.001517 0.000000 0.046157
#
#
# Mechanical properties :
#
#
# Convention : Reuss Voigt Hill
#
# Bulk Modulus (GPa) = 49.70162 77.13709 63.41936
# Shear Modulus (GPa) = 23.91313 30.10605 27.00959
#
# Velocity S-wave (km/s) = 3.46085 3.88321 3.67810
# Velocity P-wave (km/s) = 6.39251 7.66431 7.05712
#
# Compressibility (1/GPa) = 0.02012007
#
# Stress axis : x y z
#
# Youngs Moduli (GPa) = 104.23649 38.84983 104.35556
#
# Poissons Ratio (x) = 0.20124 0.43156
# Poissons Ratio (y) = 0.53995 0.32169
# Poissons Ratio (z) = 0.43106 0.11976
#
# Static dielectric constant tensor:
#      x y z
#    x 1.690870 0.000000 0.101890 
#    y 0.000000 1.699820 0.000000 
#    z 0.101890 0.000000 2.934020 
# 
# From -- ./inp_files/184828.got.cif
#   From: 2010.05.17/outbox.cif.g08.bks.cpg/sg12_93_cif.got.tgz:184828.got - 2010.06.03 13:09:07.
