data_PCOD9212797
_publ_section_title
;
Structure prediction by ZEFSAII (Michael W. Deem and Ramdas Pophale) SiO2 
 PCOD9212797
Probable space group: C 2/M
;
_chemical_formula_sum "Si O2"
_cell_formula_units_Z 34
_cell_length_a 11.000330
_cell_length_b 17.412395
_cell_length_c 8.270792
_cell_angle_alpha 90.000000
_cell_angle_beta 57.175715
_cell_angle_gamma 90.000000
_cell_volume 1331.265783
_symmetry_space_group_name_H-M "C 2/M"
_symmetry_group_IT_number 12
_symmetry_cell_setting 'monoclinic'
loop_
_space_group_symop_operation_xyz
x,y,z
-x,y,-z
-x,-y,-z
x,-y,z
1/2+x,1/2+y,z
1/2-x,1/2+y,-z
1/2-x,1/2-y,-z
1/2+x,1/2-y,z
loop_
_atom_site_type_symbol
_atom_site_label
_atom_site_fract_x
_atom_site_fract_y
_atom_site_fract_z
Si Si1 0.459109 0.378400 0.262375
Si Si2 0.492366 0.209592 0.691693
Si Si3 0.793578 0.417738 0.363023
Si Si4 0.000000 0.500000 0.000000
Si Si5 0.257424 0.584675 0.099711
O O1 0.487900 0.287450 0.224304
O O2 0.373348 0.401427 0.485951
O O3 0.351321 0.406048 0.196974
O O4 0.616591 0.413730 0.124620
O O5 0.500000 0.233587 0.500000
O O6 0.627722 0.154327 0.618533
O O7 0.353524 0.155669 0.825743
O O8 0.826758 0.500000 0.423995
O O9 0.878100 0.433734 0.135852
O O10 0.182000 0.500000 0.149209
#
# Coordination Sequence:
#
# PCOD9212797 Si02
#       5
#     8   8   8   2   8
#     4  11  23  43  69 103 145 178 228 300 350 409
#     4  12  25  41  68 107 140 185 232 291 351 416
#     4  10  21  44  69  98 134 182 236 281 342 419
#     4   8  24  40  70 100 124 190 224 288 348 404
#     4  11  24  44  74 104 135 190 238 284 347 418
#
# _framework density 25.539604000000001
#
# number of rings (size 3 to 8) (size 9 to 14) (size 15 to 20)
#    0.706    0.471    2.353    4.941    0.000    2.824 
#    4.235    0.000    0.000    6.353    0.000    0.000 
#    0.000    0.000    0.000    0.000    0.000    0.000 
#
# Total GULP energy -94805.641110 kJ/mol
# GULP energy per Si atom -5576.802418 kJ/mol
# Density = 2.548147 g / cm^3
# Si number density = 25.539604 Si / 1000 Ang^3
#
#
#
# Elastic Constant Matrix: (Units=GPa)
#
#
# Indices 1 2 3 4 5 6 
#
# 1 54.9661 13.3130 56.1762 0.0000 -12.7457 0.0000
# 2 13.3130 189.5707 35.6245 0.0000 -9.3646 0.0000
# 3 56.1762 35.6245 211.2814 0.0000 -44.6798 0.0000
# 4 0.0000 0.0000 0.0000 -10.4823 0.0000 -4.2925
# 5 -12.7457 -9.3646 -44.6798 0.0000 39.1249 0.0000
# 6 0.0000 0.0000 0.0000 -4.2925 0.0000 43.5883
#
#
#
# Elastic Compliance Matrix: (Units=1/GPa)
#
#
# Indices 1 2 3 4 5 6 
#
# 1 0.025046 -0.000517 -0.006424 0.000000 0.000699 0.000000
# 2 -0.000517 0.005462 -0.000715 0.000000 0.000322 0.000000
# 3 -0.006424 -0.000715 0.008020 0.000000 0.006894 0.000000
# 4 0.000000 0.000000 0.000000 -0.091701 0.000000 -0.009031
# 5 0.000699 0.000322 0.006894 0.000000 0.033737 0.000000
# 6 0.000000 0.000000 0.000000 -0.009031 0.000000 0.022053
#
#
# Mechanical properties :
#
#
# Convention : Reuss Voigt Hill
#
# Bulk Modulus (GPa) = 43.07745 74.00507 58.54126
# Shear Modulus (GPa) = 194.79678 37.82648 116.31163
#
# Velocity S-wave (km/s) = 8.74288 3.85267 6.75578
# Velocity P-wave (km/s) = 10.90050 6.98786 9.15563
#
# Compressibility (1/GPa) = 0.02321400
#
# Stress axis : x y z
#
# Youngs Moduli (GPa) = 39.92625 183.09244 124.69314
#
# Poissons Ratio (x) = 0.09468 0.80107
# Poissons Ratio (y) = 0.02065 0.08920
# Poissons Ratio (z) = 0.25650 0.13097
#
# Static dielectric constant tensor:
#      x y z
#    x 2.089410 0.000000 0.120540 
#    y 0.000000 1.945920 0.000000 
#    z 0.120540 0.000000 2.113630 
# 
# From -- ./inp_files/144578.got.cif
#   From: 2010.05.17/outbox.cif.g08.bks.cpg/sg12_73_cif.got.tgz:144578.got - 2010.06.03 13:09:07.
