data_PCOD9212698
_publ_section_title
;
Structure prediction by ZEFSAII (Michael W. Deem and Ramdas Pophale) SiO2 
 PCOD9212698
Probable space group: C 2/M
;
_chemical_formula_sum "Si O2"
_cell_formula_units_Z 48
_cell_length_a 27.362588
_cell_length_b 13.608094
_cell_length_c 8.372807
_cell_angle_alpha 90.000000
_cell_angle_beta 43.219764
_cell_angle_gamma 90.000000
_cell_volume 2134.953232
_symmetry_space_group_name_H-M "C 2/M"
_symmetry_group_IT_number 12
_symmetry_cell_setting 'monoclinic'
loop_
_space_group_symop_operation_xyz
x,y,z
-x,y,-z
-x,-y,-z
x,-y,z
1/2+x,1/2+y,z
1/2-x,1/2+y,-z
1/2-x,1/2-y,-z
1/2+x,1/2-y,z
loop_
_atom_site_type_symbol
_atom_site_label
_atom_site_fract_x
_atom_site_fract_y
_atom_site_fract_z
Si Si1 0.221120 0.356894 0.532398
Si Si2 0.254859 0.110827 0.158110
Si Si3 0.925888 0.713788 0.086664
Si Si4 0.640397 0.258666 0.277072
Si Si5 0.135943 0.111530 0.975595
Si Si6 0.021759 0.392219 0.630673
O O1 0.250000 0.250000 0.500000
O O2 0.224984 0.398680 0.703367
O O3 0.139833 0.342417 0.671858
O O4 0.279040 0.394782 0.268027
O O5 0.184159 0.176970 0.301055
O O6 0.246027 0.000000 0.115624
O O7 0.312188 0.173555 0.920852
O O8 0.898028 0.815087 0.074947
O O9 0.000000 0.731365 0.000000
O O10 0.950583 0.637370 0.892609
O O11 0.574819 0.200401 0.508174
O O12 0.623181 0.334729 0.174701
O O13 0.108161 0.000000 0.037316
O O14 0.048797 0.500000 0.620190
O O15 0.000000 0.400396 0.500000
#
# Coordination Sequence:
#
# PCOD9212698 Si02
#       6
#     8   8   8   8   8   8
#     4  10  21  43  66  97 129 175 217 277 324 383
#     4  11  22  39  67  96 129 171 218 270 332 390
#     4  11  25  43  68  98 139 172 221 276 328 389
#     4  11  23  40  65  99 135 165 221 272 326 390
#     4  11  23  44  70  99 133 176 224 274 332 387
#     4  11  23  43  68  93 130 178 219 265 335 399
#
# _framework density 22.482928000000001
#
# number of rings (size 3 to 8) (size 9 to 14) (size 15 to 20)
#    0.000    1.167    5.000    1.500    4.667    3.333 
#    0.000    5.833    0.000    0.000    0.000    0.000 
#    0.000    0.000    0.000    0.000    0.000    0.000 
#
# Total GULP energy -133954.183936 kJ/mol
# GULP energy per Si atom -5581.424331 kJ/mol
# Density = 2.243176 g / cm^3
# Si number density = 22.482928 Si / 1000 Ang^3
#
#
#
# Elastic Constant Matrix: (Units=GPa)
#
#
# Indices 1 2 3 4 5 6 
#
# 1 102.2211 24.2345 20.3772 0.0000 -7.2909 0.0000
# 2 24.2345 157.5309 16.9111 0.0000 3.7643 0.0000
# 3 20.3772 16.9111 61.1037 0.0000 -1.3634 0.0000
# 4 0.0000 0.0000 0.0000 706.2224 0.0000 -60.5690
# 5 -7.2909 3.7643 -1.3634 0.0000 26.1732 0.0000
# 6 0.0000 0.0000 0.0000 -60.5690 0.0000 23.0057
#
#
#
# Elastic Compliance Matrix: (Units=1/GPa)
#
#
# Indices 1 2 3 4 5 6 
#
# 1 0.010978 -0.001419 -0.003199 0.000000 0.003095 0.000000
# 2 -0.001419 0.006754 -0.001428 0.000000 -0.001441 0.000000
# 3 -0.003199 -0.001428 0.017833 0.000000 0.000243 0.000000
# 4 0.000000 0.000000 0.000000 0.001829 0.000000 0.004815
# 5 0.003095 -0.001441 0.000243 0.000000 0.039289 0.000000
# 6 0.000000 0.000000 0.000000 0.004815 0.000000 0.056145
#
#
# Mechanical properties :
#
#
# Convention : Reuss Voigt Hill
#
# Bulk Modulus (GPa) = 42.60401 49.32238 45.96319
# Shear Modulus (GPa) = 32.73431 168.36912 100.55172
#
# Velocity S-wave (km/s) = 3.81985 8.66315 6.69482
# Velocity P-wave (km/s) = 6.20045 11.04772 8.95817
#
# Compressibility (1/GPa) = 0.02347197
#
# Stress axis : x y z
#
# Youngs Moduli (GPa) = 91.09376 148.05917 56.07542
#
# Poissons Ratio (x) = 0.21015 0.17939
# Poissons Ratio (y) = 0.12929 0.08008
# Poissons Ratio (z) = 0.29141 0.21144
#
# Static dielectric constant tensor:
#      x y z
#    x 1.884430 0.000000 0.012750 
#    y 0.000000 1.808300 0.000000 
#    z 0.012750 0.000000 1.875160 
# 
# From -- ./inp_files/104972.got.cif
#   From: 2010.05.17/outbox.cif.g08.bks.cpg/sg12_53_cif.got.tgz:104972.got - 2010.06.03 13:09:07.
