data_PCOD9212003
_publ_section_title
;
Structure prediction by ZEFSAII (Michael W. Deem and Ramdas Pophale) SiO2 
 PCOD9212003
Probable space group: C 2/M
;
_chemical_formula_sum "Si O2"
_cell_formula_units_Z 40
_cell_length_a 7.966996
_cell_length_b 25.232774
_cell_length_c 8.156955
_cell_angle_alpha 90.000000
_cell_angle_beta 101.175283
_cell_angle_gamma 90.000000
_cell_volume 1608.695593
_symmetry_space_group_name_H-M "C 2/M"
_symmetry_group_IT_number 12
_symmetry_cell_setting 'monoclinic'
loop_
_space_group_symop_operation_xyz
x,y,z
-x,y,-z
-x,-y,-z
x,-y,z
1/2+x,1/2+y,z
1/2-x,1/2+y,-z
1/2-x,1/2-y,-z
1/2+x,1/2-y,z
loop_
_atom_site_type_symbol
_atom_site_label
_atom_site_fract_x
_atom_site_fract_y
_atom_site_fract_z
Si Si1 0.069313 0.764378 0.333641
Si Si2 0.140206 0.941490 0.669897
Si Si3 0.353808 0.340093 0.098281
Si Si4 0.122536 0.328546 0.764962
Si Si5 0.473932 0.942349 0.196872
O O1 0.238407 0.797225 0.320101
O O2 0.000000 0.776902 0.500000
O O3 0.924685 0.786559 0.187221
O O4 0.057149 0.701034 0.303524
O O5 0.143298 0.888462 0.777356
O O6 0.343756 0.944850 0.676237
O O7 0.000000 0.935462 0.500000
O O8 0.101578 0.000000 0.740240
O O9 0.500000 0.357302 0.000000
O O10 0.186564 0.326197 0.964158
O O11 0.118131 0.391685 0.742885
O O12 0.388495 0.000000 0.198483
O O13 0.500000 0.935485 0.000000
#
# Coordination Sequence:
#
# PCOD9212003 Si02
#       5
#     8   8   8   8   8
#     4  11  25  45  68 103 145 191 240 301 370 421
#     4  10  21  40  70 104 143 191 238 296 360 423
#     4  10  22  40  65 100 142 182 239 296 356 429
#     4  11  24  43  72 107 141 190 244 302 351 438
#     4  10  21  41  74 110 146 192 240 296 364 428
#
# _framework density 24.864864000000001
#
# number of rings (size 3 to 8) (size 9 to 14) (size 15 to 20)
#    0.000    1.600    2.000    1.800    2.800    2.800 
#    7.200    3.000    0.000    2.400    0.000    0.000 
#    0.000    0.000    0.000    0.000    0.000    0.000 
#
# Total GULP energy -111646.765019 kJ/mol
# GULP energy per Si atom -5582.338251 kJ/mol
# Density = 2.480827 g / cm^3
# Si number density = 24.864864 Si / 1000 Ang^3
#
#
#
# Elastic Constant Matrix: (Units=GPa)
#
#
# Indices 1 2 3 4 5 6 
#
# 1 91.4539 51.9690 40.5911 0.0000 14.0995 0.0000
# 2 51.9690 214.2488 43.9239 0.0000 -14.0844 0.0000
# 3 40.5911 43.9239 84.5651 0.0000 27.5900 0.0000
# 4 0.0000 0.0000 0.0000 -373.1800 0.0000 -197.7314
# 5 14.0995 -14.0844 27.5900 0.0000 41.2361 0.0000
# 6 0.0000 0.0000 0.0000 -197.7314 0.0000 -92.8876
#
#
#
# Elastic Compliance Matrix: (Units=1/GPa)
#
#
# Indices 1 2 3 4 5 6 
#
# 1 0.015167 -0.002884 -0.004821 0.000000 -0.002945 0.000000
# 2 -0.002884 0.006559 -0.003933 0.000000 0.005858 0.000000
# 3 -0.004821 -0.003933 0.020574 0.000000 -0.013461 0.000000
# 4 0.000000 0.000000 0.000000 0.020949 0.000000 -0.044595
# 5 -0.002945 0.005858 -0.013461 0.000000 0.036265 0.000000
# 6 0.000000 0.000000 0.000000 -0.044595 0.000000 0.084164
#
#
# Mechanical properties :
#
#
# Convention : Reuss Voigt Hill
#
# Bulk Modulus (GPa) = 52.56998 73.69285 63.13141
# Shear Modulus (GPa) = 23.44150 -68.04738 -22.30294
#
# Velocity S-wave (km/s) = 3.07376 -5.23701 -2.99819
# Velocity P-wave (km/s) = 5.81253 2.62044 3.66871
#
# Compressibility (1/GPa) = 0.01902226
#
# Stress axis : x y z
#
# Youngs Moduli (GPa) = 65.93062 152.47178 48.60503
#
# Poissons Ratio (x) = 0.43977 0.23434
# Poissons Ratio (y) = 0.19016 0.19118
# Poissons Ratio (z) = 0.31787 0.59973
#
# Static dielectric constant tensor:
#      x y z
#    x 2.070600 0.000000 -0.019910 
#    y 0.000000 2.036810 0.000000 
#    z -0.019910 0.000000 2.020680 
# 
# From -- ./inp_files/39430.got.cif
#   From: 2010.05.17/outbox.cif.g08.bks.cpg/sg12_20_cif.got.tgz:39430.got - 2010.06.03 13:09:07.
