data_PCOD9212840
_publ_section_title
;
Structure prediction by ZEFSAII (Michael W. Deem and Ramdas Pophale) SiO2 
 PCOD9212840
Probable space group: C 2/M
;
_chemical_formula_sum "Si O2"
_cell_formula_units_Z 40
_cell_length_a 18.843197
_cell_length_b 28.889409
_cell_length_c 5.346382
_cell_angle_alpha 90.000000
_cell_angle_beta 58.006854
_cell_angle_gamma 90.000000
_cell_volume 2468.346783
_symmetry_space_group_name_H-M "C 2/M"
_symmetry_group_IT_number 12
_symmetry_cell_setting 'monoclinic'
loop_
_space_group_symop_operation_xyz
x,y,z
-x,y,-z
-x,-y,-z
x,-y,z
1/2+x,1/2+y,z
1/2-x,1/2+y,-z
1/2-x,1/2-y,-z
1/2+x,1/2-y,z
loop_
_atom_site_type_symbol
_atom_site_label
_atom_site_fract_x
_atom_site_fract_y
_atom_site_fract_z
Si Si1 0.200407 0.798179 0.570793
Si Si2 0.075936 0.743422 0.519841
Si Si3 0.784379 0.674488 0.908400
Si Si4 0.000000 0.664638 0.000000
Si Si5 0.410680 0.899387 0.811986
Si Si6 0.942684 0.500000 0.855896
O O1 0.250000 0.750000 0.500000
O O2 0.109365 0.780426 0.657063
O O3 0.220060 0.822460 0.796836
O O4 0.238506 0.824395 0.260422
O O5 0.153824 0.720029 0.222699
O O6 0.037730 0.698591 0.725342
O O7 0.000000 0.762932 0.500000
O O8 0.840961 0.628381 0.789841
O O9 0.929015 0.632363 0.018074
O O10 0.500000 0.899559 0.500000
O O11 0.392837 0.951788 0.928709
O O12 0.000000 0.500000 0.500000
O O13 0.000000 0.500000 0.000000
#
# Coordination Sequence:
#
# PCOD9212840 Si02
#       6
#     8   8   8   4   8   4
#     4  10  22  32  45  64  92 117 158 199 233 263
#     4  11  21  29  46  68  88 126 162 201 225 267
#     4  11  20  34  47  64  90 124 156 195 231 278
#     4  12  18  29  50  64  96 120 170 191 228 264
#     4  11  20  32  48  69  93 125 163 195 233 272
#     4  10  22  32  48  70  96 116 153 207 232 266
#
# _framework density 16.205178
#
# number of rings (size 3 to 8) (size 9 to 14) (size 15 to 20)
#    0.000    1.200    5.000    4.800    2.800    0.000 
#    0.000    0.000    0.000    0.000    0.000    0.000 
#    0.000    0.000    0.000    5.400    0.000    0.100 
#
# Total GULP energy -111538.567456 kJ/mol
# GULP energy per Si atom -5576.928373 kJ/mol
# Density = 1.616829 g / cm^3
# Si number density = 16.205178 Si / 1000 Ang^3
#
#
#
# Elastic Constant Matrix: (Units=GPa)
#
#
# Indices 1 2 3 4 5 6 
#
# 1 135.7244 51.3688 16.0048 0.0000 20.9449 0.0000
# 2 51.3688 88.5414 11.7958 0.0000 5.3494 0.0000
# 3 16.0048 11.7958 45.4148 0.0000 18.0828 0.0000
# 4 0.0000 0.0000 0.0000 -34.4739 0.0000 1.6765
# 5 20.9449 5.3494 18.0828 0.0000 21.7289 0.0000
# 6 0.0000 0.0000 0.0000 1.6765 0.0000 21.0042
#
#
#
# Elastic Compliance Matrix: (Units=1/GPa)
#
#
# Indices 1 2 3 4 5 6 
#
# 1 0.011099 -0.006047 0.001984 0.000000 -0.010860 0.000000
# 2 -0.006047 0.014998 -0.003911 0.000000 0.005392 0.000000
# 3 0.001984 -0.003911 0.033970 0.000000 -0.029219 0.000000
# 4 0.000000 0.000000 0.000000 -0.028895 0.000000 0.002306
# 5 -0.010860 0.005392 -0.029219 0.000000 0.079479 0.000000
# 6 0.000000 0.000000 0.000000 0.002306 0.000000 0.047425
#
#
# Mechanical properties :
#
#
# Convention : Reuss Voigt Hill
#
# Bulk Modulus (GPa) = 22.66692 47.55771 35.11232
# Shear Modulus (GPa) = 26.49278 14.35259 20.42268
#
# Velocity S-wave (km/s) = 4.04769 2.97926 3.55386
# Velocity P-wave (km/s) = 5.98857 6.42228 6.20921
#
# Compressibility (1/GPa) = 0.04411715
#
# Stress axis : x y z
#
# Youngs Moduli (GPa) = 90.10129 66.67630 29.43759
#
# Poissons Ratio (x) = 0.40320 -0.05839
# Poissons Ratio (y) = 0.54486 0.11513
# Poissons Ratio (z) = -0.17872 0.26078
#
# Static dielectric constant tensor:
#      x y z
#    x 1.540730 0.000000 -0.429510 
#    y 0.000000 1.545920 0.000000 
#    z -0.429510 0.000000 -0.949550 
# 
# From -- ./inp_files/17106.got.cif
#   From: 2010.05.17/outbox.cif.g08.bks.cpg/sg12_9_cif.got.tgz:17106.got - 2010.06.03 13:09:07.
