data_PCOD9212895
_publ_section_title
;
Structure prediction by ZEFSAII (Michael W. Deem and Ramdas Pophale) SiO2 
 PCOD9212895
Probable space group: C 2/M
;
_chemical_formula_sum "Si O2"
_cell_formula_units_Z 40
_cell_length_a 26.988631
_cell_length_b 7.677029
_cell_length_c 28.901164
_cell_angle_alpha 90.000000
_cell_angle_beta 20.957150
_cell_angle_gamma 90.000000
_cell_volume 2141.763238
_symmetry_space_group_name_H-M "C 2/M"
_symmetry_group_IT_number 12
_symmetry_cell_setting 'monoclinic'
loop_
_space_group_symop_operation_xyz
x,y,z
-x,y,-z
-x,-y,-z
x,-y,z
1/2+x,1/2+y,z
1/2-x,1/2+y,-z
1/2-x,1/2-y,-z
1/2+x,1/2-y,z
loop_
_atom_site_type_symbol
_atom_site_label
_atom_site_fract_x
_atom_site_fract_y
_atom_site_fract_z
Si Si1 0.114014 0.704599 0.756013
Si Si2 0.625791 0.295383 0.244232
Si Si3 0.097317 0.000000 0.843626
Si Si4 0.284566 0.500000 0.156370
Si Si5 0.193131 0.707167 0.999858
Si Si6 0.308775 0.792576 0.500148
O O1 0.110343 0.500000 0.772562
O O2 0.142714 0.831370 0.774070
O O3 0.213072 0.723982 0.625324
O O4 0.962652 0.767558 0.871365
O O5 0.655215 0.500000 0.227668
O O6 0.690846 0.168634 0.225927
O O7 0.463422 0.275930 0.375046
O O8 0.704914 0.232466 0.129027
O O9 0.169809 0.000000 0.830195
O O10 0.930329 0.000000 0.000000
O O11 0.188574 0.500000 0.999861
O O12 0.250000 0.750000 0.000000
O O13 0.250000 0.750000 0.500000
O O14 0.312667 0.000000 0.500210
#
# Coordination Sequence:
#
# PCOD9212895 Si02
#       6
#     8   8   4   4   8   8
#     4  11  23  42  62  93 132 167 215 272 320 386
#     4  11  23  42  62  93 132 167 215 272 320 386
#     4  11  24  43  71  99 127 171 221 279 336 377
#     4  11  24  43  71  99 127 171 221 279 336 377
#     4  10  22  34  58  89 121 166 210 256 319 384
#     4  12  24  40  64  96 135 179 216 258 324 395
#
# _framework density 18.676200999999999
#
# number of rings (size 3 to 8) (size 9 to 14) (size 15 to 20)
#    0.000    1.000    4.000    3.000    2.800    4.000 
#    0.000    4.000    0.000    2.400    0.000    0.000 
#    0.000    0.000    0.000    0.000    0.000    0.000 
#
# Total GULP energy -111662.903966 kJ/mol
# GULP energy per Si atom -5583.145198 kJ/mol
# Density = 1.863369 g / cm^3
# Si number density = 18.676201 Si / 1000 Ang^3
#
#
#
# Elastic Constant Matrix: (Units=GPa)
#
#
# Indices 1 2 3 4 5 6 
#
# 1 154.0592 59.5989 70.5070 0.0086 2.9286 -0.0022
# 2 59.5989 128.7689 27.2076 0.0221 2.7584 -0.0028
# 3 70.5070 27.2076 151.1141 0.0028 -2.1174 -0.0004
# 4 0.0086 0.0221 0.0028 0.9278 -0.0218 2.5238
# 5 2.9286 2.7584 -2.1174 -0.0218 26.0355 0.0050
# 6 -0.0022 -0.0028 -0.0004 2.5238 0.0050 33.5884
#
#
#
# Elastic Compliance Matrix: (Units=1/GPa)
#
#
# Indices 1 2 3 4 5 6 
#
# 1 0.009698 -0.003646 -0.003883 -0.000021 -0.001020 0.000002
# 2 -0.003646 0.009469 -0.000012 -0.000260 -0.000594 0.000020
# 3 -0.003883 -0.000012 0.008447 0.000048 0.001125 -0.000004
# 4 -0.000021 -0.000260 0.000048 1.354840 0.001189 -0.101803
# 5 -0.001020 -0.000594 0.001125 0.001189 0.038679 -0.000095
# 6 0.000002 0.000020 -0.000004 -0.101803 -0.000095 0.037422
#
#
# Mechanical properties :
#
#
# Convention : Reuss Voigt Hill
#
# Bulk Modulus (GPa) = 79.79540 83.17437 81.48488
# Shear Modulus (GPa) = 3.38338 30.55224 16.96781
#
# Velocity S-wave (km/s) = 1.34742 4.04900 3.01745
# Velocity P-wave (km/s) = 6.72601 8.15419 7.47429
#
# Compressibility (1/GPa) = 0.01253205
#
# Stress axis : x y z
#
# Youngs Moduli (GPa) = 103.11420 105.61017 118.38525
#
# Poissons Ratio (x) = 0.38509 0.45965
# Poissons Ratio (y) = 0.37599 0.00140
# Poissons Ratio (z) = 0.40036 0.00125
#
# Static dielectric constant tensor:
#      x y z
#    x 1.515950 0.000000 -0.012160 
#    y 0.000000 1.616200 0.000000 
#    z -0.012160 0.000000 1.660810 
# 
# From -- ./inp_files/368808.got.cif
#   From: 2010.05.17/outbox.cif.g08.bks.cpg/sg12_185_cif.got.tgz:368808.got - 2010.06.03 13:09:07.
