data_PCOD9212764
_publ_section_title
;
Structure prediction by ZEFSAII (Michael W. Deem and Ramdas Pophale) SiO2 
 PCOD9212764
Probable space group: C 2/M
;
_chemical_formula_sum "Si O2"
_cell_formula_units_Z 40
_cell_length_a 5.057502
_cell_length_b 23.214837
_cell_length_c 15.366730
_cell_angle_alpha 90.000000
_cell_angle_beta 86.869399
_cell_angle_gamma 90.000000
_cell_volume 1801.501205
_symmetry_space_group_name_H-M "C 2/M"
_symmetry_group_IT_number 12
_symmetry_cell_setting 'monoclinic'
loop_
_space_group_symop_operation_xyz
x,y,z
-x,y,-z
-x,-y,-z
x,-y,z
1/2+x,1/2+y,z
1/2-x,1/2+y,-z
1/2-x,1/2-y,-z
1/2+x,1/2-y,z
loop_
_atom_site_type_symbol
_atom_site_label
_atom_site_fract_x
_atom_site_fract_y
_atom_site_fract_z
Si Si1 0.680197 0.872980 0.075650
Si Si2 0.330689 0.124908 0.260693
Si Si3 0.009729 0.207719 0.826707
Si Si4 0.036693 0.709611 0.398971
Si Si5 0.806999 0.000000 0.772076
Si Si6 0.210481 0.500000 0.108718
O O1 0.506670 0.872431 0.168706
O O2 0.931705 0.833519 0.092385
O O3 0.753771 0.939715 0.059851
O O4 0.500000 0.851689 0.000000
O O5 0.481658 0.157497 0.334693
O O6 0.064758 0.160895 0.244930
O O7 0.252153 0.058893 0.277503
O O8 0.264316 0.248810 0.823900
O O9 0.816789 0.758803 0.384830
O O10 0.000000 0.691516 0.500000
O O11 0.593798 0.000000 0.854552
O O12 0.095944 0.000000 0.810750
#
# Coordination Sequence:
#
# PCOD9212764 Si02
#       6
#     8   8   8   8   4   4
#     4  11  25  43  64  92 126 170 219 264 313 371
#     4  11  23  43  65  93 129 167 209 267 314 375
#     4  12  24  40  60  86 119 167 206 253 316 372
#     4  10  23  41  68  98 126 163 209 257 311 376
#     4  10  22  38  66  92 121 165 214 256 323 370
#     4  10  21  44  62  90 118 167 219 271 303 360
#
# _framework density 22.203703999999998
#
# number of rings (size 3 to 8) (size 9 to 14) (size 15 to 20)
#    0.000    1.200    4.000    1.500    2.800    1.600 
#    0.000    2.500    0.000    0.000    0.000    7.000 
#    0.000    0.000    0.000    0.000    0.000    0.000 
#
# Total GULP energy -111860.721140 kJ/mol
# GULP energy per Si atom -5593.036057 kJ/mol
# Density = 2.215317 g / cm^3
# Si number density = 22.203704 Si / 1000 Ang^3
#
#
#
# Elastic Constant Matrix: (Units=GPa)
#
#
# Indices 1 2 3 4 5 6 
#
# 1 124.3953 46.0881 39.4603 0.0000 18.6742 0.0000
# 2 46.0881 170.5042 48.8989 0.0000 19.2710 0.0000
# 3 39.4603 48.8989 133.6882 0.0000 23.9721 0.0000
# 4 0.0000 0.0000 0.0000 137.4297 0.0000 -158.3765
# 5 18.6742 19.2710 23.9721 0.0000 34.9126 0.0000
# 6 0.0000 0.0000 0.0000 -158.3765 0.0000 281.5422
#
#
#
# Elastic Compliance Matrix: (Units=1/GPa)
#
#
# Indices 1 2 3 4 5 6 
#
# 1 0.009689 -0.001799 -0.001654 0.000000 -0.003053 0.000000
# 2 -0.001799 0.007045 -0.001735 0.000000 -0.001735 0.000000
# 3 -0.001654 -0.001735 0.009434 0.000000 -0.004635 0.000000
# 4 0.000000 0.000000 0.000000 0.020688 0.000000 0.011638
# 5 -0.003053 -0.001735 -0.004635 0.000000 0.034417 0.000000
# 6 0.000000 0.000000 0.000000 0.011638 0.000000 0.010098
#
#
# Mechanical properties :
#
#
# Convention : Reuss Voigt Hill
#
# Bulk Modulus (GPa) = 63.32549 77.49803 70.41176
# Shear Modulus (GPa) = 46.72448 110.38626 78.55537
#
# Velocity S-wave (km/s) = 4.59230 7.05855 5.95451
# Velocity P-wave (km/s) = 7.53002 10.07025 8.89132
#
# Compressibility (1/GPa) = 0.01579143
#
# Stress axis : x y z
#
# Youngs Moduli (GPa) = 103.21372 141.94639 105.99986
#
# Poissons Ratio (x) = 0.25542 0.17533
# Poissons Ratio (y) = 0.18572 0.18386
# Poissons Ratio (z) = 0.17073 0.24621
#
# Static dielectric constant tensor:
#      x y z
#    x 1.893910 0.000000 -0.068270 
#    y 0.000000 1.834640 0.000000 
#    z -0.068270 0.000000 1.832240 
# 
# From -- ./inp_files/191615.got.cif
#   From: 2010.05.17/outbox.cif.g08.bks.cpg/sg12_96_cif.got.tgz:191615.got - 2010.06.03 13:09:07.
