data_PCOD9212671
_publ_section_title
;
Structure prediction by ZEFSAII (Michael W. Deem and Ramdas Pophale) SiO2 
 PCOD9212671
Probable space group: C 2/M
;
_chemical_formula_sum "Si O2"
_cell_formula_units_Z 48
_cell_length_a 14.894125
_cell_length_b 21.691986
_cell_length_c 15.064430
_cell_angle_alpha 90.000000
_cell_angle_beta 148.504061
_cell_angle_gamma 90.000000
_cell_volume 2542.739560
_symmetry_space_group_name_H-M "C 2/M"
_symmetry_group_IT_number 12
_symmetry_cell_setting 'monoclinic'
loop_
_space_group_symop_operation_xyz
x,y,z
-x,y,-z
-x,-y,-z
x,-y,z
1/2+x,1/2+y,z
1/2-x,1/2+y,-z
1/2-x,1/2-y,-z
1/2+x,1/2-y,z
loop_
_atom_site_type_symbol
_atom_site_label
_atom_site_fract_x
_atom_site_fract_y
_atom_site_fract_z
Si Si1 0.444552 0.929367 0.212093
Si Si2 0.754659 0.822582 0.865113
Si Si3 0.170914 0.885882 0.441859
Si Si4 0.561297 0.263181 0.451378
Si Si5 0.124577 0.823604 0.232147
Si Si6 0.996882 0.000000 0.391226
Si Si7 0.391923 0.000000 0.997871
O O1 0.303188 0.883527 0.131417
O O2 0.626079 0.898052 0.385467
O O3 0.435899 0.000000 0.241424
O O4 0.429680 0.941858 0.093965
O O5 0.595324 0.775042 0.725251
O O6 0.802636 0.839384 0.803800
O O7 0.932260 0.797214 0.056781
O O8 0.110316 0.823337 0.438036
O O9 0.114412 0.880198 0.291853
O O10 0.089370 0.941029 0.428230
O O11 0.500000 0.278632 0.500000
O O12 0.733516 0.222229 0.606861
O O13 0.000000 0.000000 0.500000
O O14 0.803823 0.000000 0.194569
O O15 0.500000 0.000000 0.000000
#
# Coordination Sequence:
#
# PCOD9212671 Si02
#       7
#     8   8   8   8   8   4   4
#     4  10  22  40  62  89 126 162 202 257 311 363
#     4  10  21  43  61  93 126 164 203 257 317 367
#     4  12  22  40  63  93 117 170 208 255 316 370
#     4  10  22  40  64  89 126 161 206 259 313 372
#     4  10  22  39  65  90 126 160 206 260 308 375
#     4  12  24  42  63  86 127 162 212 260 311 374
#     4  10  22  42  61  88 123 164 204 260 305 360
#
# _framework density 18.877276999999999
#
# number of rings (size 3 to 8) (size 9 to 14) (size 15 to 20)
#    0.500    1.000    2.500    3.000    0.000    0.667 
#    4.500    1.667    3.667    0.000    0.000    0.000 
#    0.000    0.000    0.000    0.000    0.000    0.000 
#
# Total GULP energy -133892.079031 kJ/mol
# GULP energy per Si atom -5578.836626 kJ/mol
# Density = 1.883431 g / cm^3
# Si number density = 18.877277 Si / 1000 Ang^3
#
#
#
# Elastic Constant Matrix: (Units=GPa)
#
#
# Indices 1 2 3 4 5 6 
#
# 1 80.6971 58.8673 39.8024 0.0000 6.1019 0.0000
# 2 58.8673 82.6416 32.6101 0.0000 5.7811 0.0000
# 3 39.8024 32.6101 138.8197 -0.0001 12.7240 0.0000
# 4 0.0000 0.0000 -0.0001 12.5012 0.0000 2.1873
# 5 6.1019 5.7811 12.7240 0.0000 36.1750 0.0000
# 6 0.0000 0.0000 0.0000 2.1873 0.0000 34.8747
#
#
#
# Elastic Compliance Matrix: (Units=1/GPa)
#
#
# Indices 1 2 3 4 5 6 
#
# 1 0.027342 -0.018039 -0.003558 0.000000 -0.000478 0.000000
# 2 -0.018039 0.025278 -0.000697 0.000000 -0.000752 0.000000
# 3 -0.003558 -0.000697 0.008600 0.000000 -0.002313 0.000000
# 4 0.000000 0.000000 0.000000 0.080880 0.000000 -0.005073
# 5 -0.000478 -0.000752 -0.002313 0.000000 0.028658 0.000000
# 6 0.000000 0.000000 0.000000 -0.005073 0.000000 0.028992
#
#
# Mechanical properties :
#
#
# Convention : Reuss Voigt Hill
#
# Bulk Modulus (GPa) = 60.12831 62.74642 61.43737
# Shear Modulus (GPa) = 20.00948 28.10209 24.05578
#
# Velocity S-wave (km/s) = 3.25926 3.86252 3.57364
# Velocity P-wave (km/s) = 6.78860 7.29406 7.04586
#
# Compressibility (1/GPa) = 0.01663110
#
# Stress axis : x y z
#
# Youngs Moduli (GPa) = 36.57320 39.56069 116.28517
#
# Poissons Ratio (x) = 0.71364 0.41378
# Poissons Ratio (y) = 0.65975 0.08104
# Poissons Ratio (z) = 0.13014 0.02757
#
# Static dielectric constant tensor:
#      x y z
#    x 1.631800 0.000000 -0.008260 
#    y 0.000000 1.608960 0.000000 
#    z -0.008260 0.000000 1.672510 
# 
# From -- ./inp_files/218566.got.cif
#   From: 2010.05.17/outbox.cif.g08.bks.cpg/sg12_110_cif.got.tgz:218566.got - 2010.06.03 13:09:07.
