data_PCOD9212043
_publ_section_title
;
Structure prediction by ZEFSAII (Michael W. Deem and Ramdas Pophale) SiO2 
 PCOD9212043
Probable space group: C 2/M
;
_chemical_formula_sum "Si O2"
_cell_formula_units_Z 52
_cell_length_a 15.844787
_cell_length_b 28.951261
_cell_length_c 9.631835
_cell_angle_alpha 90.000000
_cell_angle_beta 141.404484
_cell_angle_gamma 90.000000
_cell_volume 2756.265996
_symmetry_space_group_name_H-M "C 2/M"
_symmetry_group_IT_number 12
_symmetry_cell_setting 'monoclinic'
loop_
_space_group_symop_operation_xyz
x,y,z
-x,y,-z
-x,-y,-z
x,-y,z
1/2+x,1/2+y,z
1/2-x,1/2+y,-z
1/2-x,1/2-y,-z
1/2+x,1/2-y,z
loop_
_atom_site_type_symbol
_atom_site_label
_atom_site_fract_x
_atom_site_fract_y
_atom_site_fract_z
Si Si1 0.054497 0.220131 0.719786
Si Si2 0.563183 0.000000 0.233841
Si Si3 0.807025 0.402359 0.539668
Si Si4 0.277361 0.897776 0.173762
Si Si5 0.500000 0.847225 0.000000
Si Si6 0.981419 0.140419 0.813628
Si Si7 0.869895 0.500000 0.233778
Si Si8 0.860849 0.683804 0.090476
O O1 0.044912 0.274858 0.732852
O O2 0.000000 0.208534 0.500000
O O3 0.975554 0.189285 0.729110
O O4 0.209883 0.203295 0.920030
O O5 0.652688 0.955374 0.385121
O O6 0.431224 0.000000 0.160321
O O7 0.500000 0.000000 0.000000
O O8 0.816859 0.390660 0.387144
O O9 0.907558 0.375323 0.771943
O O10 0.653281 0.389374 0.381968
O O11 0.361873 0.863936 0.179864
O O12 0.295917 0.951767 0.165505
O O13 0.119778 0.885216 0.949002
O O14 0.601031 0.821741 0.022505
O O15 0.000000 0.149252 0.000000
O O16 0.000000 0.500000 0.500000
#
# Coordination Sequence:
#
# PCOD9212043 Si02
#       8
#     8   4   8   8   4   8   4   8
#     4  10  21  41  61  83 119 160 198 249 298 355
#     4  12  24  39  57  91 127 156 196 247 298 355
#     4  11  22  39  63  90 122 160 195 248 301 353
#     4  10  22  41  63  89 120 158 203 245 295 359
#     4  12  24  35  58  90 122 154 198 245 304 358
#     4   9  21  41  64  88 120 158 200 246 298 355
#     4  12  22  37  63  89 121 157 199 246 295 351
#     4  10  24  39  59  90 118 155 203 246 302 356
#
# _framework density 18.866104
#
# number of rings (size 3 to 8) (size 9 to 14) (size 15 to 20)
#    0.000    1.538    2.308    1.846    3.231    0.615 
#    0.000    3.846    0.000    0.923    0.000    0.000 
#    0.000    0.000    0.000    0.000    0.000    0.000 
#
# Total GULP energy -145016.473857 kJ/mol
# GULP energy per Si atom -5577.556687 kJ/mol
# Density = 1.882316 g / cm^3
# Si number density = 18.866104 Si / 1000 Ang^3
#
#
#
# Elastic Constant Matrix: (Units=GPa)
#
#
# Indices 1 2 3 4 5 6 
#
# 1 103.2986 42.5104 16.3909 0.0000 -5.5575 0.0000
# 2 42.5104 116.7578 20.4485 0.0000 2.5113 0.0000
# 3 16.3909 20.4485 75.4171 0.0000 -4.7098 0.0000
# 4 0.0000 0.0000 0.0000 -9.7395 0.0000 -45.2282
# 5 -5.5575 2.5113 -4.7098 0.0000 23.4483 0.0000
# 6 0.0000 0.0000 0.0000 -45.2282 0.0000 -20.7546
#
#
#
# Elastic Compliance Matrix: (Units=1/GPa)
#
#
# Indices 1 2 3 4 5 6 
#
# 1 0.011733 -0.004117 -0.001248 0.000000 0.002971 0.000000
# 2 -0.004117 0.010487 -0.002106 0.000000 -0.002522 0.000000
# 3 -0.001248 -0.002106 0.014277 0.000000 0.002797 0.000000
# 4 0.000000 0.000000 0.000000 0.011259 0.000000 -0.024535
# 5 0.002971 -0.002522 0.002797 0.000000 0.044183 0.000000
# 6 0.000000 0.000000 0.000000 -0.024535 0.000000 0.005283
#
#
# Mechanical properties :
#
#
# Convention : Reuss Voigt Hill
#
# Bulk Modulus (GPa) = 46.39591 50.46368 48.42980
# Shear Modulus (GPa) = 41.89410 12.99908 27.44659
#
# Velocity S-wave (km/s) = 4.71744 2.62776 3.81833
# Velocity P-wave (km/s) = 7.37007 6.00110 6.72053
#
# Compressibility (1/GPa) = 0.02155362
#
# Stress axis : x y z
#
# Youngs Moduli (GPa) = 85.23054 95.35758 70.04472
#
# Poissons Ratio (x) = 0.39260 0.08742
# Poissons Ratio (y) = 0.35091 0.14752
# Poissons Ratio (z) = 0.10638 0.20083
#
# Static dielectric constant tensor:
#      x y z
#    x 1.654050 0.000000 0.019430 
#    y 0.000000 1.668860 0.000000 
#    z 0.019430 0.000000 1.640950 
# 
# From -- ./inp_files/68700.got.cif
#   From: 2010.05.17/outbox.cif.g08.bks.cpg/sg12_35_cif.got.tgz:68700.got - 2010.06.03 13:09:07.
