data_PCOD9212706
_publ_section_title
;
Structure prediction by ZEFSAII (Michael W. Deem and Ramdas Pophale) SiO2 
 PCOD9212706
Probable space group: C 2/M
;
_chemical_formula_sum "Si O2"
_cell_formula_units_Z 34
_cell_length_a 15.699500
_cell_length_b 8.832741
_cell_length_c 16.348401
_cell_angle_alpha 90.000000
_cell_angle_beta 58.001466
_cell_angle_gamma 90.000000
_cell_volume 1922.578254
_symmetry_space_group_name_H-M "C 2/M"
_symmetry_group_IT_number 12
_symmetry_cell_setting 'monoclinic'
loop_
_space_group_symop_operation_xyz
x,y,z
-x,y,-z
-x,-y,-z
x,-y,z
1/2+x,1/2+y,z
1/2-x,1/2+y,-z
1/2-x,1/2-y,-z
1/2+x,1/2-y,z
loop_
_atom_site_type_symbol
_atom_site_label
_atom_site_fract_x
_atom_site_fract_y
_atom_site_fract_z
Si Si1 0.150112 0.681382 0.509933
Si Si2 0.025200 0.180492 0.291550
Si Si3 0.201688 0.319650 0.297229
Si Si4 0.582136 0.832522 0.802845
Si Si5 0.000000 0.500000 0.000000
O O1 0.148214 0.500000 0.521160
O O2 0.250000 0.750000 0.500000
O O3 0.155373 0.712551 0.410491
O O4 0.054943 0.755000 0.602353
O O5 0.133909 0.238261 0.264186
O O6 0.991167 0.247150 0.221825
O O7 0.021163 0.000000 0.292504
O O8 0.199924 0.500000 0.285872
O O9 0.314883 0.258598 0.240093
O O10 0.606185 0.000000 0.754113
O O11 0.532564 0.870582 0.915039
#
# Coordination Sequence:
#
# PCOD9212706 Si02
#       5
#     8   8   8   8   2
#     4  11  22  36  58  93 132 177 215 253 302 372
#     4  12  24  38  62  95 132 173 212 255 311 376
#     4  11  23  39  63  95 131 170 212 257 311 375
#     4  10  21  43  68  89 122 156 209 266 322 377
#     4   8  24  44  74  92 116 158 214 264 344 374
#
# _framework density 17.684584999999998
#
# number of rings (size 3 to 8) (size 9 to 14) (size 15 to 20)
#    0.706    0.471    2.353    4.941    0.000    5.647 
#    0.000    3.529    0.000    0.000    0.000    0.000 
#    0.000    0.000    0.000    0.000    0.000    0.000 
#
# Total GULP energy -94673.578526 kJ/mol
# GULP energy per Si atom -5569.034031 kJ/mol
# Density = 1.764433 g / cm^3
# Si number density = 17.684585 Si / 1000 Ang^3
#
#
#
# Elastic Constant Matrix: (Units=GPa)
#
#
# Indices 1 2 3 4 5 6 
#
# 1 127.9716 47.4720 39.8015 0.0000 11.9583 0.0000
# 2 47.4720 107.0981 40.8319 0.0000 15.4071 0.0000
# 3 39.8015 40.8319 99.6990 0.0000 33.5379 0.0000
# 4 0.0000 0.0000 0.0000 30.5002 0.0000 0.4896
# 5 11.9583 15.4071 33.5379 0.0000 9.4474 0.0000
# 6 0.0000 0.0000 0.0000 0.4896 0.0000 32.5703
#
#
#
# Elastic Compliance Matrix: (Units=1/GPa)
#
#
# Indices 1 2 3 4 5 6 
#
# 1 0.009663 -0.003140 0.000926 0.000000 -0.010397 0.000000
# 2 -0.003140 0.011902 -0.008093 0.000000 0.013294 0.000000
# 3 0.000926 -0.008093 -0.045985 0.000000 0.175272 0.000000
# 4 0.000000 0.000000 0.000000 0.032795 0.000000 -0.000493
# 5 -0.010397 0.013294 0.175272 0.000000 -0.524883 0.000000
# 6 0.000000 0.000000 0.000000 -0.000493 0.000000 0.030710
#
#
# Mechanical properties :
#
#
# Convention : Reuss Voigt Hill
#
# Bulk Modulus (GPa) = -22.20499 65.66437 21.72969
# Shear Modulus (GPa) = -10.41245 28.28114 8.93435
#
# Velocity S-wave (km/s) = -2.42912 4.00333 2.25012
# Velocity P-wave (km/s) = 4.52227 7.65378 4.36632
#
# Compressibility (1/GPa) = -0.04503491
#
# Stress axis : x y z
#
# Youngs Moduli (GPa) = 103.49046 84.01778 -21.74624
#
# Poissons Ratio (x) = 0.26385 0.02014
# Poissons Ratio (y) = 0.32501 -0.17599
# Poissons Ratio (z) = -0.09583 0.67995
#
# Static dielectric constant tensor:
#      x y z
#    x 1.601020 0.000000 0.002490 
#    y 0.000000 1.598530 0.000000 
#    z 0.002490 0.000000 1.578460 
# 
# From -- ./inp_files/210663.got.cif
#   From: 2010.05.17/outbox.cif.g08.bks.cpg/sg12_106_cif.got.tgz:210663.got - 2010.06.03 13:09:07.
