data_PCOD9212245
_publ_section_title
;
Structure prediction by ZEFSAII (Michael W. Deem and Ramdas Pophale) SiO2 
 PCOD9212245
Probable space group: C 2/M
;
_chemical_formula_sum "Si O2"
_cell_formula_units_Z 60
_cell_length_a 26.315630
_cell_length_b 9.232102
_cell_length_c 11.311598
_cell_angle_alpha 90.000000
_cell_angle_beta 81.148646
_cell_angle_gamma 90.000000
_cell_volume 2715.408742
_symmetry_space_group_name_H-M "C 2/M"
_symmetry_group_IT_number 12
_symmetry_cell_setting 'monoclinic'
loop_
_space_group_symop_operation_xyz
x,y,z
-x,y,-z
-x,-y,-z
x,-y,z
1/2+x,1/2+y,z
1/2-x,1/2+y,-z
1/2-x,1/2-y,-z
1/2+x,1/2-y,z
loop_
_atom_site_type_symbol
_atom_site_label
_atom_site_fract_x
_atom_site_fract_y
_atom_site_fract_z
Si Si1 0.229246 0.671633 0.203307
Si Si2 0.500000 0.759443 0.500000
Si Si3 0.939301 0.838104 0.166507
Si Si4 0.950037 0.153627 0.747793
Si Si5 0.700545 0.324012 0.451776
Si Si6 0.305754 0.839569 0.051676
Si Si7 0.897263 0.334071 0.397387
Si Si8 0.577343 0.158315 0.046663
O O1 0.225936 0.500000 0.229319
O O2 0.204528 0.765346 0.315793
O O3 0.206820 0.700566 0.080102
O O4 0.286916 0.728098 0.157171
O O5 0.466627 0.672413 0.607410
O O6 0.453415 0.834734 0.443583
O O7 0.907991 0.733876 0.265125
O O8 0.945412 0.774342 0.034467
O O9 0.995565 0.846891 0.204252
O O10 0.917208 0.000000 0.171227
O O11 0.923025 0.000000 0.775703
O O12 0.920493 0.284297 0.820097
O O13 0.702692 0.500000 0.458266
O O14 0.750000 0.250000 0.500000
O O15 0.646900 0.262104 0.524177
O O16 0.282647 0.000000 0.082491
O O17 0.366160 0.852896 0.026338
O O18 0.879388 0.500000 0.396818
O O19 0.552383 0.000000 0.054272
#
# Coordination Sequence:
#
# PCOD9212245 Si02
#       8
#     8   4   8   8   8   8   8   8
#     4  10  21  41  66  92 125 165 213 268 325 389
#     4  10  24  44  70 102 136 178 222 272 332 398
#     4  10  22  41  62  88 125 169 215 268 326 389
#     4  10  22  40  62  89 126 168 216 268 324 386
#     4  12  27  46  69  99 135 179 226 276 333 397
#     4   9  21  40  61  90 126 166 208 261 325 387
#     4  11  24  44  70 100 135 176 223 276 333 397
#     4  11  23  37  60  92 126 164 212 266 324 389
#
# _framework density 22.096121
#
# number of rings (size 3 to 8) (size 9 to 14) (size 15 to 20)
#    0.000    1.600    0.000    3.600    3.733    8.000 
#    0.000    0.000    0.000    0.000    0.000    0.000 
#    0.000    0.000    0.000    0.000    0.000    0.000 
#
# Total GULP energy -167356.865311 kJ/mol
# GULP energy per Si atom -5578.562177 kJ/mol
# Density = 2.204583 g / cm^3
# Si number density = 22.096121 Si / 1000 Ang^3
#
#
#
# Elastic Constant Matrix: (Units=GPa)
#
#
# Indices 1 2 3 4 5 6 
#
# 1 58.3531 19.1302 13.6518 0.0000 -13.5429 0.0000
# 2 19.1302 159.9770 61.6694 0.0000 -9.0789 0.0000
# 3 13.6518 61.6694 123.2652 0.0000 -13.6489 0.0000
# 4 0.0000 0.0000 0.0000 10.3210 0.0000 -4.8023
# 5 -13.5429 -9.0789 -13.6489 0.0000 34.0360 0.0000
# 6 0.0000 0.0000 0.0000 -4.8023 0.0000 18.5916
#
#
#
# Elastic Compliance Matrix: (Units=1/GPa)
#
#
# Indices 1 2 3 4 5 6 
#
# 1 0.019466 -0.001731 -0.000506 0.000000 0.007081 0.000000
# 2 -0.001731 0.007908 -0.003775 0.000000 -0.000093 0.000000
# 3 -0.000506 -0.003775 0.010385 0.000000 0.002956 0.000000
# 4 0.000000 0.000000 0.000000 0.110126 0.000000 0.028446
# 5 0.007081 -0.000093 0.002956 0.000000 0.033359 0.000000
# 6 0.000000 0.000000 0.000000 0.028446 0.000000 0.061135
#
#
# Mechanical properties :
#
#
# Convention : Reuss Voigt Hill
#
# Bulk Modulus (GPa) = 38.85728 58.94426 48.90077
# Shear Modulus (GPa) = 19.01284 29.06598 24.03941
#
# Velocity S-wave (km/s) = 2.93654 3.63083 3.30198
# Velocity P-wave (km/s) = 5.39643 6.65668 6.05941
#
# Compressibility (1/GPa) = 0.02573520
#
# Stress axis : x y z
#
# Youngs Moduli (GPa) = 51.37095 126.45800 96.29736
#
# Poissons Ratio (x) = 0.21889 0.04871
# Poissons Ratio (y) = 0.08892 0.36351
# Poissons Ratio (z) = 0.02599 0.47736
#
# Static dielectric constant tensor:
#      x y z
#    x 1.903800 0.000000 0.017340 
#    y 0.000000 1.842880 0.000000 
#    z 0.017340 0.000000 1.797790 
# 
# From -- ./inp_files/187372.got.cif
#   From: 2010.05.17/outbox.cif.g08.bks.cpg/sg12_94_cif.got.tgz:187372.got - 2010.06.03 13:09:07.
