data_PCOD9212498
_publ_section_title
;
Structure prediction by ZEFSAII (Michael W. Deem and Ramdas Pophale) SiO2 
 PCOD9212498
Probable space group: C 2/M
;
_chemical_formula_sum "Si O2"
_cell_formula_units_Z 40
_cell_length_a 21.213902
_cell_length_b 19.173847
_cell_length_c 5.659325
_cell_angle_alpha 90.000000
_cell_angle_beta 137.082311
_cell_angle_gamma 90.000000
_cell_volume 1567.500755
_symmetry_space_group_name_H-M "C 2/M"
_symmetry_group_IT_number 12
_symmetry_cell_setting 'monoclinic'
loop_
_space_group_symop_operation_xyz
x,y,z
-x,y,-z
-x,-y,-z
x,-y,z
1/2+x,1/2+y,z
1/2-x,1/2+y,-z
1/2-x,1/2-y,-z
1/2+x,1/2-y,z
loop_
_atom_site_type_symbol
_atom_site_label
_atom_site_fract_x
_atom_site_fract_y
_atom_site_fract_z
Si Si1 0.032072 0.904787 0.833590
Si Si2 0.054592 0.581784 0.401221
Si Si3 0.729216 0.579901 0.555347
Si Si4 0.299582 0.182226 0.396521
Si Si5 0.865262 0.183196 0.383625
O O1 0.000000 0.934663 0.500000
O O2 0.973743 0.831934 0.665147
O O3 0.141332 0.915233 0.138048
O O4 0.000000 0.931756 0.000000
O O5 0.083351 0.500000 0.480850
O O6 0.140689 0.634474 0.619452
O O7 0.000000 0.593053 0.500000
O O8 0.000000 0.591803 0.000000
O O9 0.761957 0.500000 0.662117
O O10 0.797747 0.636113 0.628221
O O11 0.682615 0.611363 0.660491
O O12 0.348339 0.257140 0.530897
O O13 0.196744 0.200712 0.014229
#
# Coordination Sequence:
#
# PCOD9212498 Si02
#       5
#     8   8   8   8   8
#     4  10  21  42  63  98 138 179 220 273 332 405
#     4  10  24  45  68 100 135 176 230 284 342 406
#     4  11  24  41  68 100 137 179 223 281 342 409
#     4  11  23  44  67  98 131 181 224 285 340 404
#     4  10  24  42  65  97 139 173 231 275 335 411
#
# _framework density 25.518331
#
# number of rings (size 3 to 8) (size 9 to 14) (size 15 to 20)
#    0.000    1.600    2.000    1.200    2.800    8.800 
#    0.000    0.000    0.000    0.000    0.000    0.000 
#    0.000    0.000    0.000    0.000    0.000    0.000 
#
# Total GULP energy -111469.467647 kJ/mol
# GULP energy per Si atom -5573.473382 kJ/mol
# Density = 2.546025 g / cm^3
# Si number density = 25.518331 Si / 1000 Ang^3
#
#
#
# Elastic Constant Matrix: (Units=GPa)
#
#
# Indices 1 2 3 4 5 6 
#
# 1 91.9291 33.7867 6.4356 0.0000 -35.6799 0.0000
# 2 33.7867 121.2044 2.8977 0.0000 3.4781 0.0000
# 3 6.4356 2.8977 122.4495 0.0000 -9.3131 0.0000
# 4 0.0000 0.0000 0.0000 -14.6971 0.0000 2.7255
# 5 -35.6799 3.4781 -9.3131 0.0000 44.0952 0.0000
# 6 0.0000 0.0000 0.0000 2.7255 0.0000 25.9796
#
#
#
# Elastic Compliance Matrix: (Units=1/GPa)
#
#
# Indices 1 2 3 4 5 6 
#
# 1 0.019253 -0.005838 0.000352 0.000000 0.016113 0.000000
# 2 -0.005838 0.010047 -0.000356 0.000000 -0.005591 0.000000
# 3 0.000352 -0.000356 0.008314 0.000000 0.002069 0.000000
# 4 0.000000 0.000000 0.000000 -0.066742 0.000000 0.007002
# 5 0.016113 -0.005591 0.002069 0.000000 0.036594 0.000000
# 6 0.000000 0.000000 0.000000 0.007002 0.000000 0.037757
#
#
# Mechanical properties :
#
#
# Convention : Reuss Voigt Hill
#
# Bulk Modulus (GPa) = 38.56632 46.86922 42.71777
# Shear Modulus (GPa) = 76.27766 30.57309 53.42537
#
# Velocity S-wave (km/s) = 5.47323 3.46509 4.58056
# Velocity P-wave (km/s) = 7.42210 5.86650 6.68967
#
# Compressibility (1/GPa) = 0.02592936
#
# Stress axis : x y z
#
# Youngs Moduli (GPa) = 51.94050 99.53436 120.28041
#
# Poissons Ratio (x) = 0.58105 -0.04231
# Poissons Ratio (y) = 0.30321 0.04284
# Poissons Ratio (z) = -0.01827 0.03545
#
# Static dielectric constant tensor:
#      x y z
#    x 2.072040 0.000000 0.014540 
#    y 0.000000 2.005450 0.000000 
#    z 0.014540 0.000000 2.087480 
# 
# From -- ./inp_files/21285.got.cif
#   From: 2010.05.17/outbox.cif.g08.bks.cpg/sg12_11_cif.got.tgz:21285.got - 2010.06.03 13:09:07.
