data_PCOD9212956
_publ_section_title
;
Structure prediction by ZEFSAII (Michael W. Deem and Ramdas Pophale) SiO2 
 PCOD9212956
Probable space group: C 2/M
;
_chemical_formula_sum "Si O2"
_cell_formula_units_Z 40
_cell_length_a 12.539421
_cell_length_b 13.723070
_cell_length_c 16.469138
_cell_angle_alpha 90.000000
_cell_angle_beta 136.227436
_cell_angle_gamma 90.000000
_cell_volume 1960.553090
_symmetry_space_group_name_H-M "C 2/M"
_symmetry_group_IT_number 12
_symmetry_cell_setting 'monoclinic'
loop_
_space_group_symop_operation_xyz
x,y,z
-x,y,-z
-x,-y,-z
x,-y,z
1/2+x,1/2+y,z
1/2-x,1/2+y,-z
1/2-x,1/2-y,-z
1/2+x,1/2-y,z
loop_
_atom_site_type_symbol
_atom_site_label
_atom_site_fract_x
_atom_site_fract_y
_atom_site_fract_z
Si Si1 0.668165 0.709280 0.826439
Si Si2 0.854828 0.713764 0.361604
Si Si3 0.049450 0.668578 0.204097
Si Si4 0.500000 0.190214 0.000000
Si Si5 0.787984 0.000000 0.747289
Si Si6 0.353073 0.000000 0.155909
Si Si7 0.858956 0.000000 0.121367
O O1 0.602402 0.747651 0.705212
O O2 0.566357 0.742190 0.845798
O O3 0.842557 0.749857 0.924755
O O4 0.675137 0.593899 0.841872
O O5 0.717949 0.788508 0.312205
O O6 0.790323 0.602497 0.324262
O O7 0.000000 0.718965 0.500000
O O8 0.972208 0.589692 0.219234
O O9 0.032392 0.634550 0.101627
O O10 0.757436 0.000000 0.827361
O O11 0.964466 0.000000 0.813741
O O12 0.251511 0.000000 0.018238
#
# Coordination Sequence:
#
# PCOD9212956 Si02
#       7
#     8   8   8   4   4   4   4
#     4  11  23  42  65 100 137 175 223 272 339 394
#     4  11  26  47  71  95 132 178 235 284 325 385
#     4  11  23  42  65 100 137 175 223 272 339 394
#     4  10  22  35  64  93 136 176 212 265 324 413
#     4  12  24  46  68 106 130 173 227 278 338 408
#     4  12  25  41  68 105 140 175 216 270 345 412
#     4  12  25  41  68 105 140 175 216 270 345 412
#
# _framework density 20.402405999999999
#
# number of rings (size 3 to 8) (size 9 to 14) (size 15 to 20)
#    0.000    0.800    6.000    1.200    0.000    4.800 
#    0.000    2.000    0.000    0.000    0.000    0.000 
#    0.000    0.000    0.000    0.000    0.000    0.000 
#
# Total GULP energy -111542.769900 kJ/mol
# GULP energy per Si atom -5577.138495 kJ/mol
# Density = 2.035597 g / cm^3
# Si number density = 20.402406 Si / 1000 Ang^3
#
#
#
# Elastic Constant Matrix: (Units=GPa)
#
#
# Indices 1 2 3 4 5 6 
#
# 1 123.2029 24.5422 69.5203 0.0000 9.9208 0.0000
# 2 24.5422 108.9365 56.8873 0.0000 -1.7171 0.0000
# 3 69.5203 56.8873 158.7219 0.0000 1.6840 0.0000
# 4 0.0000 0.0000 0.0000 -77.4470 0.0000 -29.2874
# 5 9.9208 -1.7171 1.6840 0.0000 20.5287 0.0000
# 6 0.0000 0.0000 0.0000 -29.2874 0.0000 19.0000
#
#
#
# Elastic Compliance Matrix: (Units=1/GPa)
#
#
# Indices 1 2 3 4 5 6 
#
# 1 0.011282 -0.000085 -0.004857 0.000000 -0.005061 0.000000
# 2 -0.000085 0.011328 -0.004037 0.000000 0.001320 0.000000
# 3 -0.004857 -0.004037 0.009862 0.000000 0.001201 0.000000
# 4 0.000000 0.000000 0.000000 -0.008157 0.000000 -0.012574
# 5 -0.005061 0.001320 0.001201 0.000000 0.051170 0.000000
# 6 0.000000 0.000000 0.000000 -0.012574 0.000000 0.033250
#
#
# Mechanical properties :
#
#
# Convention : Reuss Voigt Hill
#
# Bulk Modulus (GPa) = 68.90149 76.97344 72.93746
# Shear Modulus (GPa) = 38.01409 8.41042 23.21226
#
# Velocity S-wave (km/s) = 4.32118 2.03254 3.37667
# Velocity P-wave (km/s) = 7.66429 6.58163 7.14350
#
# Compressibility (1/GPa) = 0.01451347
#
# Stress axis : x y z
#
# Youngs Moduli (GPa) = 88.63645 88.28001 101.40000
#
# Poissons Ratio (x) = 0.00750 0.49254
# Poissons Ratio (y) = 0.00753 0.40932
# Poissons Ratio (z) = 0.43054 0.35636
#
# Static dielectric constant tensor:
#      x y z
#    x 1.738320 0.000000 0.001240 
#    y 0.000000 1.858650 0.000000 
#    z 0.001240 0.000000 1.688430 
# 
# From -- ./inp_files/263134.got.cif
#   From: 2010.05.17/outbox.cif.g08.bks.cpg/sg12_132_cif.got.tgz:263134.got - 2010.06.03 13:09:07.
