data_PCOD9212068
_publ_section_title
;
Structure prediction by ZEFSAII (Michael W. Deem and Ramdas Pophale) SiO2 
 PCOD9212068
Probable space group: C 2/M
;
_chemical_formula_sum "Si O2"
_cell_formula_units_Z 58
_cell_length_a 25.455461
_cell_length_b 21.918155
_cell_length_c 5.010205
_cell_angle_alpha 90.000000
_cell_angle_beta 78.043595
_cell_angle_gamma 90.000000
_cell_volume 2734.733163
_symmetry_space_group_name_H-M "C 2/M"
_symmetry_group_IT_number 12
_symmetry_cell_setting 'monoclinic'
loop_
_space_group_symop_operation_xyz
x,y,z
-x,y,-z
-x,-y,-z
x,-y,z
1/2+x,1/2+y,z
1/2-x,1/2+y,-z
1/2-x,1/2-y,-z
1/2+x,1/2-y,z
loop_
_atom_site_type_symbol
_atom_site_label
_atom_site_fract_x
_atom_site_fract_y
_atom_site_fract_z
Si Si1 0.558424 0.219968 0.360317
Si Si2 0.776757 0.428660 0.734767
Si Si3 0.149622 0.811321 0.268197
Si Si4 0.633713 0.860265 0.658832
Si Si5 0.947616 0.406834 0.893607
Si Si6 0.303976 0.746783 0.269947
Si Si7 0.796111 0.070860 0.686007
Si Si8 0.000000 0.500000 0.500000
O O1 0.500000 0.243076 0.500000
O O2 0.596331 0.275576 0.232679
O O3 0.589227 0.181587 0.558896
O O4 0.548574 0.165128 0.163317
O O5 0.789367 0.500000 0.679233
O O6 0.827934 0.388920 0.604948
O O7 0.729041 0.413075 0.575002
O O8 0.752647 0.421602 0.053159
O O9 0.158459 0.789746 0.562280
O O10 0.157016 0.883609 0.272839
O O11 0.195161 0.786058 0.016069
O O12 0.670629 0.813785 0.787965
O O13 0.605613 0.910842 0.873607
O O14 0.954910 0.446508 0.622480
O O15 0.000000 0.429464 0.000000
O O16 0.250000 0.750000 0.500000
O O17 0.812080 0.000000 0.670365
#
# Coordination Sequence:
#
# PCOD9212068 Si02
#       8
#     8   8   8   8   8   8   8   2
#     4  11  23  42  59  86 120 155 206 260 309 360
#     4  10  23  40  60  88 122 162 201 249 298 367
#     4  11  22  37  61  89 115 161 200 243 315 372
#     4  11  23  37  59  82 118 157 200 255 306 362
#     4  12  23  43  59  79 112 158 210 259 309 348
#     4  11  22  35  57  88 123 152 196 249 305 370
#     4  10  21  41  62  88 125 158 198 246 303 373
#     4  12  26  40  64  82 108 160 216 276 304 354
#
# _framework density 21.208649999999999
#
# number of rings (size 3 to 8) (size 9 to 14) (size 15 to 20)
#    0.000    1.103    3.448    3.103    2.897    1.103 
#    1.241    0.000    0.000    0.414    0.000    0.000 
#    0.000    7.448    0.000    0.000    0.000    0.966 
#
# Total GULP energy -161811.692219 kJ/mol
# GULP energy per Si atom -5579.713525 kJ/mol
# Density = 2.116038 g / cm^3
# Si number density = 21.208650 Si / 1000 Ang^3
#
#
#
# Elastic Constant Matrix: (Units=GPa)
#
#
# Indices 1 2 3 4 5 6 
#
# 1 63.8278 49.0858 4.4019 0.0000 -17.3863 0.0000
# 2 49.0858 103.3649 20.7113 0.0000 -14.8677 0.0000
# 3 4.4019 20.7113 72.9065 0.0000 -0.0025 0.0000
# 4 0.0000 0.0000 0.0000 51.0933 0.0000 13.8884
# 5 -17.3863 -14.8677 -0.0025 0.0000 32.5984 0.0000
# 6 0.0000 0.0000 0.0000 13.8884 0.0000 33.6386
#
#
#
# Elastic Compliance Matrix: (Units=1/GPa)
#
#
# Indices 1 2 3 4 5 6 
#
# 1 0.027225 -0.011978 0.001759 0.000000 0.009057 0.000000
# 2 -0.011978 0.016295 -0.003906 0.000000 0.001043 0.000000
# 3 0.001759 -0.003906 0.014720 0.000000 -0.000842 0.000000
# 4 0.000000 0.000000 0.000000 0.022046 0.000000 -0.009102
# 5 0.009057 0.001043 -0.000842 0.000000 0.035983 0.000000
# 6 0.000000 0.000000 0.000000 -0.009102 0.000000 0.033486
#
#
# Mechanical properties :
#
#
# Convention : Reuss Voigt Hill
#
# Bulk Modulus (GPa) = 33.34453 43.16636 38.25545
# Shear Modulus (GPa) = 26.59572 34.52609 30.56090
#
# Velocity S-wave (km/s) = 3.54503 4.03913 3.80012
# Velocity P-wave (km/s) = 5.70198 6.49232 6.10994
#
# Compressibility (1/GPa) = 0.02998992
#
# Stress axis : x y z
#
# Youngs Moduli (GPa) = 36.73160 61.36742 67.93686
#
# Poissons Ratio (x) = 0.73506 -0.11952
# Poissons Ratio (y) = 0.43997 0.26536
# Poissons Ratio (z) = -0.06462 0.23970
#
# Static dielectric constant tensor:
#      x y z
#    x 1.825300 0.000000 0.037810 
#    y 0.000000 1.777360 0.000000 
#    z 0.037810 0.000000 1.874440 
# 
# From -- ./inp_files/29159.got.cif
#   From: 2010.05.17/outbox.cif.g08.bks.cpg/sg12_15_cif.got.tgz:29159.got - 2010.06.03 13:09:07.
