data_PCOD9212673
_publ_section_title
;
Structure prediction by ZEFSAII (Michael W. Deem and Ramdas Pophale) SiO2 
 PCOD9212673
Probable space group: C 2/M
;
_chemical_formula_sum "Si O2"
_cell_formula_units_Z 44
_cell_length_a 18.898053
_cell_length_b 13.056779
_cell_length_c 8.284987
_cell_angle_alpha 90.000000
_cell_angle_beta 73.742651
_cell_angle_gamma 90.000000
_cell_volume 1962.557967
_symmetry_space_group_name_H-M "C 2/M"
_symmetry_group_IT_number 12
_symmetry_cell_setting 'monoclinic'
loop_
_space_group_symop_operation_xyz
x,y,z
-x,y,-z
-x,-y,-z
x,-y,z
1/2+x,1/2+y,z
1/2-x,1/2+y,-z
1/2-x,1/2-y,-z
1/2+x,1/2-y,z
loop_
_atom_site_type_symbol
_atom_site_label
_atom_site_fract_x
_atom_site_fract_y
_atom_site_fract_z
Si Si1 0.613843 0.114795 0.176831
Si Si2 0.387124 0.321560 0.638569
Si Si3 0.500000 0.804862 0.000000
Si Si4 0.879767 0.000000 0.145119
Si Si5 0.775583 0.618019 0.177079
Si Si6 0.530939 0.500000 0.243823
Si Si7 0.866386 0.793733 0.273696
O O1 0.601994 0.205884 0.308894
O O2 0.547582 0.127056 0.090763
O O3 0.615778 0.000000 0.242467
O O4 0.686850 0.133517 0.021677
O O5 0.310807 0.362192 0.763260
O O6 0.447951 0.399420 0.667889
O O7 0.378293 0.317729 0.452589
O O8 0.557038 0.734698 0.864501
O O9 0.836379 0.895970 0.206513
O O10 0.947934 0.000000 0.230055
O O11 0.916768 0.000000 0.947146
O O12 0.790580 0.500000 0.212915
O O13 0.813609 0.697853 0.274353
#
# Coordination Sequence:
#
# PCOD9212673 Si02
#       7
#     8   8   4   4   8   4   8
#     4  10  22  39  64  93 125 167 209 260 318 381
#     4  12  23  40  64  97 128 161 218 270 315 369
#     4  10  21  43  62  86 130 171 213 250 320 392
#     4  11  23  41  61  95 128 170 215 248 331 378
#     4  10  22  44  65  88 129 172 213 252 324 386
#     4  11  23  41  67  90 130 171 209 268 309 385
#     4  11  24  41  65  93 127 171 209 264 317 383
#
# _framework density 22.419719000000001
#
# number of rings (size 3 to 8) (size 9 to 14) (size 15 to 20)
#    0.000    1.273    0.909    6.273    0.000    5.091 
#    1.636    0.909    0.000    0.000    0.000    0.000 
#    0.000    0.000    0.000    0.000    0.000    0.000 
#
# Total GULP energy -123223.153753 kJ/mol
# GULP energy per Si atom -5601.052443 kJ/mol
# Density = 2.236869 g / cm^3
# Si number density = 22.419719 Si / 1000 Ang^3
#
#
#
# Elastic Constant Matrix: (Units=GPa)
#
#
# Indices 1 2 3 4 5 6 
#
# 1 65.7686 8.4151 6.6809 0.0000 -6.3860 0.0000
# 2 8.4151 173.3942 46.5040 0.0000 6.1757 0.0000
# 3 6.6809 46.5040 58.2269 0.0000 9.7508 0.0000
# 4 0.0000 0.0000 0.0000-1471.0315 0.0000 -468.7306
# 5 -6.3860 6.1757 9.7508 0.0000 21.0045 0.0000
# 6 0.0000 0.0000 0.0000 -468.7306 0.0000 -138.3218
#
#
#
# Elastic Compliance Matrix: (Units=1/GPa)
#
#
# Indices 1 2 3 4 5 6 
#
# 1 0.016116 -0.000291 -0.002659 0.000000 0.006219 0.000000
# 2 -0.000291 0.007352 -0.005922 0.000000 0.000499 0.000000
# 3 -0.002659 -0.005922 0.023911 0.000000 -0.010167 0.000000
# 4 0.000000 0.000000 0.000000 0.008521 0.000000 -0.028876
# 5 0.006219 0.000499 -0.010167 0.000000 0.054073 0.000000
# 6 0.000000 0.000000 0.000000 -0.028876 0.000000 0.090621
#
#
# Mechanical properties :
#
#
# Convention : Reuss Voigt Hill
#
# Bulk Modulus (GPa) = 33.74140 46.73218 40.23679
# Shear Modulus (GPa) = 21.90911 -301.95043 -140.02066
#
# Velocity S-wave (km/s) = 3.12945 -11.61779 -7.91137
# Velocity P-wave (km/s) = 5.30476 12.61248 8.09117
#
# Compressibility (1/GPa) = 0.02963718
#
# Stress axis : x y z
#
# Youngs Moduli (GPa) = 62.05038 136.02182 41.82091
#
# Poissons Ratio (x) = 0.03953 0.11118
# Poissons Ratio (y) = 0.01803 0.24766
# Poissons Ratio (z) = 0.16496 0.80550
#
# Static dielectric constant tensor:
#      x y z
#    x 1.829300 0.000000 -0.011170 
#    y 0.000000 1.846740 0.000000 
#    z -0.011170 0.000000 1.786580 
# 
# From -- ./inp_files/84102.got.cif
#   From: 2010.05.17/outbox.cif.g08.bks.cpg/sg12_43_cif.got.tgz:84102.got - 2010.06.03 13:09:07.
