data_PCOD9212737
_publ_section_title
;
Structure prediction by ZEFSAII (Michael W. Deem and Ramdas Pophale) SiO2 
 PCOD9212737
Probable space group: C 2/M
;
_chemical_formula_sum "Si O2"
_cell_formula_units_Z 58
_cell_length_a 15.875708
_cell_length_b 22.225194
_cell_length_c 8.337818
_cell_angle_alpha 90.000000
_cell_angle_beta 116.681027
_cell_angle_gamma 90.000000
_cell_volume 2628.666036
_symmetry_space_group_name_H-M "C 2/M"
_symmetry_group_IT_number 12
_symmetry_cell_setting 'monoclinic'
loop_
_space_group_symop_operation_xyz
x,y,z
-x,y,-z
-x,-y,-z
x,-y,z
1/2+x,1/2+y,z
1/2-x,1/2+y,-z
1/2-x,1/2-y,-z
1/2+x,1/2-y,z
loop_
_atom_site_type_symbol
_atom_site_label
_atom_site_fract_x
_atom_site_fract_y
_atom_site_fract_z
Si Si1 0.437627 0.220599 0.604426
Si Si2 0.386118 0.888995 0.753619
Si Si3 0.095902 0.067669 0.662355
Si Si4 0.000000 0.500000 0.000000
Si Si5 0.254722 0.348624 0.083479
Si Si6 0.228550 0.279431 0.763986
Si Si7 0.790965 0.067132 0.570383
Si Si8 0.583427 0.325854 0.189947
O O1 0.500000 0.211244 0.500000
O O2 0.446665 0.167385 0.741396
O O3 0.330355 0.218080 0.448252
O O4 0.454401 0.285995 0.695084
O O5 0.445453 0.946824 0.851499
O O6 0.322931 0.869860 0.854163
O O7 0.313400 0.908113 0.550213
O O8 0.155905 0.106448 0.839297
O O9 0.165362 0.062705 0.570470
O O10 0.000000 0.092449 0.500000
O O11 0.074299 0.000000 0.704634
O O12 0.294282 0.284376 0.176270
O O13 0.210241 0.333739 0.872630
O O14 0.339553 0.282219 0.825746
O O15 0.856996 0.115463 0.713039
O O16 0.791436 0.000000 0.642080
O O17 0.500000 0.340965 0.000000
#
# Coordination Sequence:
#
# PCOD9212737 Si02
#       8
#     8   8   8   2   8   8   8   8
#     4  12  27  44  72 105 141 184 230 299 358 418
#     4  11  23  47  71 105 137 188 233 289 348 414
#     4   9  19  36  63  97 132 178 229 278 335 411
#     4  12  28  40  86 100 136 188 246 280 336 424
#     4  10  23  39  70  95 141 175 234 284 344 419
#     4  11  24  44  65 102 137 187 225 292 358 405
#     4  10  21  43  70  95 139 187 226 281 353 415
#     4  12  27  44  69 105 140 184 239 286 358 423
#
# _framework density 22.064422
#
# number of rings (size 3 to 8) (size 9 to 14) (size 15 to 20)
#    0.000    1.241    3.448    2.069    9.655    1.379 
#    0.000    1.034    4.552    0.000    0.000    0.000 
#    0.000    0.000    0.000    0.000    0.000    0.000 
#
# Total GULP energy -161802.937451 kJ/mol
# GULP energy per Si atom -5579.411636 kJ/mol
# Density = 2.201420 g / cm^3
# Si number density = 22.064422 Si / 1000 Ang^3
#
#
#
# Elastic Constant Matrix: (Units=GPa)
#
#
# Indices 1 2 3 4 5 6 
#
# 1 57.6683 17.7794 7.6718 0.0000 -3.6716 0.0000
# 2 17.7794 151.9882 66.2430 0.0000 11.6222 0.0000
# 3 7.6718 66.2430 113.7057 0.0000 22.7517 0.0000
# 4 0.0000 0.0000 0.0000 27.7398 0.0000 -1.2628
# 5 -3.6716 11.6222 22.7517 0.0000 34.4566 0.0000
# 6 0.0000 0.0000 0.0000 -1.2628 0.0000 9.9428
#
#
#
# Elastic Compliance Matrix: (Units=1/GPa)
#
#
# Indices 1 2 3 4 5 6 
#
# 1 0.018266 -0.002100 -0.000623 0.000000 0.003066 0.000000
# 2 -0.002100 0.009067 -0.005166 0.000000 0.000129 0.000000
# 3 -0.000623 -0.005166 0.013264 0.000000 -0.007082 0.000000
# 4 0.000000 0.000000 0.000000 0.036259 0.000000 0.004605
# 5 0.003066 0.000129 -0.007082 0.000000 0.033981 0.000000
# 6 0.000000 0.000000 0.000000 0.004605 0.000000 0.101160
#
#
# Mechanical properties :
#
#
# Convention : Reuss Voigt Hill
#
# Bulk Modulus (GPa) = 40.29205 56.30562 48.29884
# Shear Modulus (GPa) = 21.18224 29.87237 25.52730
#
# Velocity S-wave (km/s) = 3.10178 3.68349 3.40508
# Velocity P-wave (km/s) = 5.57932 6.60794 6.11530
#
# Compressibility (1/GPa) = 0.02481879
#
# Stress axis : x y z
#
# Youngs Moduli (GPa) = 54.74665 110.29036 75.39484
#
# Poissons Ratio (x) = 0.23159 0.04693
# Poissons Ratio (y) = 0.11496 0.38953
# Poissons Ratio (z) = 0.03408 0.56981
#
# Static dielectric constant tensor:
#      x y z
#    x 1.855350 0.000000 -0.020780 
#    y 0.000000 1.829780 0.000000 
#    z -0.020780 0.000000 1.824430 
# 
# From -- ./inp_files/78059.got.cif
#   From: 2010.05.17/outbox.cif.g08.bks.cpg/sg12_40_cif.got.tgz:78059.got - 2010.06.03 13:09:07.
