data_PCOD9212077
_publ_section_title
;
Structure prediction by ZEFSAII (Michael W. Deem and Ramdas Pophale) SiO2 
 PCOD9212077
Probable space group: C 2/M
;
_chemical_formula_sum "Si O2"
_cell_formula_units_Z 58
_cell_length_a 9.493100
_cell_length_b 22.597229
_cell_length_c 23.893984
_cell_angle_alpha 90.000000
_cell_angle_beta 33.978612
_cell_angle_gamma 90.000000
_cell_volume 2864.659548
_symmetry_space_group_name_H-M "C 2/M"
_symmetry_group_IT_number 12
_symmetry_cell_setting 'monoclinic'
loop_
_space_group_symop_operation_xyz
x,y,z
-x,y,-z
-x,-y,-z
x,-y,z
1/2+x,1/2+y,z
1/2-x,1/2+y,-z
1/2-x,1/2-y,-z
1/2+x,1/2-y,z
loop_
_atom_site_type_symbol
_atom_site_label
_atom_site_fract_x
_atom_site_fract_y
_atom_site_fract_z
Si Si1 0.000000 0.000000 0.500000
Si Si2 0.648217 0.567900 0.815532
Si Si3 0.414261 0.803698 0.390952
Si Si4 0.429290 0.663782 0.962146
Si Si5 0.087758 0.708891 0.906356
Si Si6 0.389960 0.663060 0.400462
Si Si7 0.707432 0.105370 0.661855
Si Si8 0.890521 0.140831 0.277134
O O1 0.130295 0.947657 0.417963
O O2 0.585947 0.500000 0.844988
O O3 0.458859 0.613316 0.906818
O O4 0.642771 0.583366 0.751101
O O5 0.919388 0.582279 0.754510
O O6 0.385464 0.733941 0.392891
O O7 0.280324 0.837184 0.487485
O O8 0.305758 0.837324 0.373717
O O9 0.707193 0.813794 0.305861
O O10 0.608988 0.720389 0.890016
O O11 0.500000 0.641230 0.000000
O O12 0.145437 0.687835 0.054457
O O13 0.333409 0.670113 0.814405
O O14 0.000000 0.702798 0.000000
O O15 0.652527 0.630874 0.329766
O O16 0.306792 0.634697 0.369161
#
# Coordination Sequence:
#
# PCOD9212077 Si02
#       8
#     2   8   8   8   8   8   8   8
#     4  12  20  44  64  86 122 182 222 264 300 372
#     4  11  25  45  61  90 129 172 214 258 316 386
#     4  10  22  39  59  94 135 162 203 266 326 380
#     4  10  23  40  67  91 124 158 210 261 314 380
#     4  10  21  41  62  97 127 158 198 256 327 391
#     4  11  22  38  62  96 127 163 215 265 319 374
#     4  11  23  40  65  90 123 174 217 256 314 370
#     4  11  24  37  63  91 128 169 204 254 326 379
#
# _framework density 20.246734
#
# number of rings (size 3 to 8) (size 9 to 14) (size 15 to 20)
#    0.000    1.379    3.448    1.241    7.724    2.483 
#    1.241    1.379    0.000    3.310    0.000    0.000 
#    0.000    0.000    0.000    0.000    0.000    0.000 
#
# Total GULP energy -161536.452017 kJ/mol
# GULP energy per Si atom -5570.222483 kJ/mol
# Density = 2.020065 g / cm^3
# Si number density = 20.246734 Si / 1000 Ang^3
#
#
#
# Elastic Constant Matrix: (Units=GPa)
#
#
# Indices 1 2 3 4 5 6 
#
# 1 106.1208 15.5380 0.8269 -0.0025 6.5449 0.0089
# 2 15.5380 80.1529 11.9204 0.0015 0.1021 0.0002
# 3 0.8269 11.9204 27.0799 0.0130 2.6904 0.0081
# 4 -0.0025 0.0015 0.0130 9.2974 0.0099 -7.9976
# 5 6.5449 0.1021 2.6904 0.0099 28.3894 -0.0028
# 6 0.0089 0.0002 0.0081 -7.9976 -0.0028 -6.6796
#
#
#
# Elastic Compliance Matrix: (Units=1/GPa)
#
#
# Indices 1 2 3 4 5 6 
#
# 1 0.009859 -0.002031 0.000826 0.000009 -0.002344 0.000005
# 2 -0.002031 0.013776 -0.006101 -0.000002 0.000997 -0.000008
# 3 0.000826 -0.006101 0.039981 -0.000003 -0.003957 0.000055
# 4 0.000009 -0.000002 -0.000003 0.052985 -0.000027 -0.063441
# 5 -0.002344 0.000997 -0.003957 -0.000027 0.036136 0.000008
# 6 0.000005 -0.000008 0.000055 -0.063441 0.000008 -0.073752
#
#
# Mechanical properties :
#
#
# Convention : Reuss Voigt Hill
#
# Bulk Modulus (GPa) = 20.40669 29.99159 25.19914
# Shear Modulus (GPa) = 45.48214 18.53933 32.01074
#
# Velocity S-wave (km/s) = 4.74476 3.02929 3.98053
# Velocity P-wave (km/s) = 6.33386 5.20391 5.79648
#
# Compressibility (1/GPa) = 0.04900354
#
# Stress axis : x y z
#
# Youngs Moduli (GPa) = 101.43310 72.59013 25.01161
#
# Poissons Ratio (x) = 0.14743 -0.02066
# Poissons Ratio (y) = 0.20601 0.15260
# Poissons Ratio (z) = -0.08377 0.44288
#
# Static dielectric constant tensor:
#      x y z
#    x 1.752670 -0.000020 0.002370 
#    y -0.000020 1.695030 0.000020 
#    z 0.002370 0.000020 1.808670 
# 
# From -- ./inp_files/333833.got.cif
#   From: 2010.05.17/outbox.cif.g08.bks.cpg/sg12_167_cif.got.tgz:333833.got - 2010.06.03 13:09:07.
