data_PCOD9212640
_publ_section_title
;
Structure prediction by ZEFSAII (Michael W. Deem and Ramdas Pophale) SiO2 
 PCOD9212640
Probable space group: C 2/M
;
_chemical_formula_sum "Si O2"
_cell_formula_units_Z 48
_cell_length_a 9.205834
_cell_length_b 29.683995
_cell_length_c 17.779669
_cell_angle_alpha 90.000000
_cell_angle_beta 30.556612
_cell_angle_gamma 90.000000
_cell_volume 2470.049747
_symmetry_space_group_name_H-M "C 2/M"
_symmetry_group_IT_number 12
_symmetry_cell_setting 'monoclinic'
loop_
_space_group_symop_operation_xyz
x,y,z
-x,y,-z
-x,-y,-z
x,-y,z
1/2+x,1/2+y,z
1/2-x,1/2+y,-z
1/2-x,1/2-y,-z
1/2+x,1/2-y,z
loop_
_atom_site_type_symbol
_atom_site_label
_atom_site_fract_x
_atom_site_fract_y
_atom_site_fract_z
Si Si1 0.134695 0.553177 0.356799
Si Si2 0.176923 0.308575 0.246656
Si Si3 0.799119 0.882615 0.517741
Si Si4 0.880857 0.122402 0.899919
Si Si5 0.997572 0.733515 0.832614
Si Si6 0.225522 0.357016 0.805750
O O1 0.171306 0.500000 0.331458
O O2 0.427842 0.580163 0.210288
O O3 0.000000 0.561511 0.500000
O O4 0.908604 0.575104 0.400224
O O5 0.433938 0.345275 0.128955
O O6 0.126762 0.280800 0.192525
O O7 0.269068 0.273294 0.269820
O O8 0.898627 0.338141 0.388878
O O9 0.000000 0.885525 0.500000
O O10 0.008388 0.878845 0.354011
O O11 0.811895 0.149386 0.853760
O O12 0.563719 0.113117 0.071772
O O13 0.143837 0.689502 0.802704
O O14 0.750000 0.750000 0.000000
#
# Coordination Sequence:
#
# PCOD9212640 Si02
#       6
#     8   8   8   8   8   8
#     4  10  21  42  70  96 126 162 204 255 319 390
#     4  11  24  39  60  87 123 171 213 262 308 366
#     4  11  23  43  63  94 128 167 210 259 322 378
#     4  10  22  40  64  93 123 164 209 259 318 377
#     4  12  23  37  60  90 124 168 221 258 305 363
#     4  11  22  40  63  92 126 168 210 263 313 367
#
# _framework density 19.432807
#
# number of rings (size 3 to 8) (size 9 to 14) (size 15 to 20)
#    0.000    1.167    5.000    1.500    2.333    1.000 
#    0.000    2.500    0.000    1.000    0.000    0.000 
#    0.000    0.000    0.000    0.000    0.000    0.000 
#
# Total GULP energy -134030.764231 kJ/mol
# GULP energy per Si atom -5584.615176 kJ/mol
# Density = 1.938858 g / cm^3
# Si number density = 19.432807 Si / 1000 Ang^3
#
#
#
# Elastic Constant Matrix: (Units=GPa)
#
#
# Indices 1 2 3 4 5 6 
#
# 1 114.0023 46.6062 39.2091 0.0000 -19.8698 0.0000
# 2 46.6062 112.6081 41.4614 0.0000 -16.2053 0.0000
# 3 39.2091 41.4614 96.7565 0.0000 -17.9092 0.0000
# 4 0.0000 0.0000 0.0000 20.3004 0.0000 5.3389
# 5 -19.8698 -16.2053 -17.9092 0.0000 28.3872 0.0000
# 6 0.0000 0.0000 0.0000 5.3389 0.0000 20.4584
#
#
#
# Elastic Compliance Matrix: (Units=1/GPa)
#
#
# Indices 1 2 3 4 5 6 
#
# 1 0.011808 -0.003277 -0.002488 0.000000 0.004825 0.000000
# 2 -0.003277 0.011786 -0.003285 0.000000 0.002362 0.000000
# 3 -0.002488 -0.003285 0.013679 0.000000 0.005013 0.000000
# 4 0.000000 0.000000 0.000000 0.052890 0.000000 -0.013803
# 5 0.004825 0.002362 0.005013 0.000000 0.043115 0.000000
# 6 0.000000 0.000000 0.000000 -0.013803 0.000000 0.052482
#
#
# Mechanical properties :
#
#
# Convention : Reuss Voigt Hill
#
# Bulk Modulus (GPa) = 52.15611 64.21337 58.18474
# Shear Modulus (GPa) = 23.78105 26.90189 25.34147
#
# Velocity S-wave (km/s) = 3.50202 3.72473 3.61509
# Velocity P-wave (km/s) = 6.57645 7.18426 6.88706
#
# Compressibility (1/GPa) = 0.01917321
#
# Stress axis : x y z
#
# Youngs Moduli (GPa) = 84.68892 84.84556 73.10406
#
# Poissons Ratio (x) = 0.27802 0.18187
# Poissons Ratio (y) = 0.27750 0.24018
# Poissons Ratio (z) = 0.21069 0.27876
#
# Static dielectric constant tensor:
#      x y z
#    x 1.715490 0.000000 0.027350 
#    y 0.000000 1.656370 0.000000 
#    z 0.027350 0.000000 1.742270 
# 
# From -- ./inp_files/200153.got.cif
#   From: 2010.05.17/outbox.cif.g08.bks.cpg/sg12_101_cif.got.tgz:200153.got - 2010.06.03 13:09:07.
