data_PCOD9212679
_publ_section_title
;
Structure prediction by ZEFSAII (Michael W. Deem and Ramdas Pophale) SiO2 
 PCOD9212679
Probable space group: C 2/M
;
_chemical_formula_sum "Si O2"
_cell_formula_units_Z 38
_cell_length_a 12.072963
_cell_length_b 25.299851
_cell_length_c 5.102336
_cell_angle_alpha 90.000000
_cell_angle_beta 81.557452
_cell_angle_gamma 90.000000
_cell_volume 1541.590427
_symmetry_space_group_name_H-M "C 2/M"
_symmetry_group_IT_number 12
_symmetry_cell_setting 'monoclinic'
loop_
_space_group_symop_operation_xyz
x,y,z
-x,y,-z
-x,-y,-z
x,-y,z
1/2+x,1/2+y,z
1/2-x,1/2+y,-z
1/2-x,1/2-y,-z
1/2+x,1/2-y,z
loop_
_atom_site_type_symbol
_atom_site_label
_atom_site_fract_x
_atom_site_fract_y
_atom_site_fract_z
Si Si1 0.817522 0.788441 0.178516
Si Si2 0.423111 0.000000 0.279364
Si Si3 0.393378 0.189488 0.373115
Si Si4 0.000000 0.000000 0.000000
Si Si5 0.141600 0.904202 0.743584
Si Si6 0.223671 0.596472 0.813332
O O1 0.716509 0.804277 0.408871
O O2 0.909681 0.748550 0.262066
O O3 0.875119 0.845575 0.118830
O O4 0.750000 0.750000 0.000000
O O5 0.500000 0.000000 0.500000
O O6 0.346469 0.050942 0.296329
O O7 0.500000 0.000000 0.000000
O O8 0.500000 0.171137 0.500000
O O9 0.354045 0.148504 0.164644
O O10 0.944413 0.952098 0.200007
O O11 0.173922 0.896335 0.427826
O O12 0.241418 0.921318 0.909632
#
# Coordination Sequence:
#
# PCOD9212679 Si02
#       6
#     8   4   8   2   8   8
#     4  10  21  43  63  97 139 179 224 293 349 402
#     4  12  24  39  64  95 130 165 218 267 330 416
#     4  10  22  39  67  97 134 179 230 281 349 423
#     4  12  28  48  72 106 132 190 248 278 360 438
#     4  11  25  44  70  94 136 178 228 287 342 415
#     4  11  23  45  66  96 136 176 218 289 349 395
#
# _framework density 24.649864999999998
#
# number of rings (size 3 to 8) (size 9 to 14) (size 15 to 20)
#    0.000    1.263    2.105    3.158    0.000    5.895 
#    0.000    0.000    0.000    0.000    0.000    0.000 
#    0.000    0.000    0.000    0.000    0.000    0.000 
#
# Total GULP energy -105784.941845 kJ/mol
# GULP energy per Si atom -5567.628518 kJ/mol
# Density = 2.459376 g / cm^3
# Si number density = 24.649865 Si / 1000 Ang^3
#
#
#
# Elastic Constant Matrix: (Units=GPa)
#
#
# Indices 1 2 3 4 5 6 
#
# 1 33.4930 3.8345 15.4759 0.0000 0.4779 0.0000
# 2 3.8345 180.7205 7.8091 0.0000 -9.5724 0.0000
# 3 15.4759 7.8091 91.5382 0.0000 8.0300 0.0000
# 4 0.0000 0.0000 0.0000 34.7445 0.0000 13.1063
# 5 0.4779 -9.5724 8.0300 0.0000 34.2274 0.0000
# 6 0.0000 0.0000 0.0000 13.1063 0.0000 54.9710
#
#
#
# Elastic Compliance Matrix: (Units=1/GPa)
#
#
# Indices 1 2 3 4 5 6 
#
# 1 0.032441 -0.000412 -0.005513 0.000000 0.000725 0.000000
# 2 -0.000412 0.005658 -0.000564 0.000000 0.001720 0.000000
# 3 -0.005513 -0.000564 0.012162 0.000000 -0.002934 0.000000
# 4 0.000000 0.000000 0.000000 0.031626 0.000000 -0.007540
# 5 0.000725 0.001720 -0.002934 0.000000 0.030376 0.000000
# 6 0.000000 0.000000 0.000000 -0.007540 0.000000 0.019989
#
#
# Mechanical properties :
#
#
# Convention : Reuss Voigt Hill
#
# Bulk Modulus (GPa) = 26.82177 39.99898 33.41038
# Shear Modulus (GPa) = 31.71441 43.36405 37.53923
#
# Velocity S-wave (km/s) = 3.59081 4.19883 3.90667
# Velocity P-wave (km/s) = 5.30062 6.30627 5.82519
#
# Compressibility (1/GPa) = 0.03728314
#
# Stress axis : x y z
#
# Youngs Moduli (GPa) = 30.82498 176.75228 82.22339
#
# Poissons Ratio (x) = 0.07277 0.45331
# Poissons Ratio (y) = 0.01269 0.04637
# Poissons Ratio (z) = 0.16994 0.09968
#
# Static dielectric constant tensor:
#      x y z
#    x 1.998900 0.000000 -0.002050 
#    y 0.000000 1.617130 0.000000 
#    z -0.002050 0.000000 2.049290 
# 
# From -- ./inp_files/7611.got.cif
#   From: 2010.05.17/outbox.cif.g08.bks.cpg/sg12_4_cif.got.tgz:7611.got - 2010.06.03 13:09:07.
