data_PCOD9212260
_publ_section_title
;
Structure prediction by ZEFSAII (Michael W. Deem and Ramdas Pophale) SiO2 
 PCOD9212260
Probable space group: C 2/M
;
_chemical_formula_sum "Si O2"
_cell_formula_units_Z 48
_cell_length_a 24.660202
_cell_length_b 8.547586
_cell_length_c 9.900998
_cell_angle_alpha 90.000000
_cell_angle_beta 100.243517
_cell_angle_gamma 90.000000
_cell_volume 2053.719019
_symmetry_space_group_name_H-M "C 2/M"
_symmetry_group_IT_number 12
_symmetry_cell_setting 'monoclinic'
loop_
_space_group_symop_operation_xyz
x,y,z
-x,y,-z
-x,-y,-z
x,-y,z
1/2+x,1/2+y,z
1/2-x,1/2+y,-z
1/2-x,1/2-y,-z
1/2+x,1/2-y,z
loop_
_atom_site_type_symbol
_atom_site_label
_atom_site_fract_x
_atom_site_fract_y
_atom_site_fract_z
Si Si1 0.148503 0.251018 0.719428
Si Si2 0.360793 0.326182 0.982942
Si Si3 0.842334 0.314773 0.564607
Si Si4 0.476263 0.175692 0.349975
Si Si5 0.764428 0.683344 0.780515
Si Si6 0.560478 0.684884 0.211148
O O1 0.158354 0.204125 0.567020
O O2 0.089514 0.333590 0.674850
O O3 0.212184 0.296354 0.777621
O O4 0.135342 0.167690 0.855085
O O5 0.345636 0.500000 0.926732
O O6 0.312309 0.213882 0.910338
O O7 0.417015 0.282289 0.929414
O O8 0.841236 0.500000 0.524272
O O9 0.792928 0.289410 0.648191
O O10 0.897300 0.276014 0.672448
O O11 0.500000 0.247665 0.500000
O O12 0.500278 0.264771 0.231845
O O13 0.498581 0.000000 0.352713
O O14 0.746591 0.500000 0.781584
O O15 0.565256 0.500000 0.235735
#
# Coordination Sequence:
#
# PCOD9212260 Si02
#       6
#     8   8   8   8   8   8
#     4  12  23  38  65  97 129 168 215 267 320 379
#     4  10  24  44  66  95 135 174 213 265 322 390
#     4  10  21  41  66  94 130 171 218 269 319 382
#     4  11  24  44  68  94 128 169 219 272 322 383
#     4  10  23  42  67  97 132 173 217 267 321 385
#     4  10  22  42  66  94 130 172 213 265 329 381
#
# _framework density 23.372233000000001
#
# number of rings (size 3 to 8) (size 9 to 14) (size 15 to 20)
#    0.000    1.500    1.667    2.500    0.000    7.000 
#    0.000    5.833    0.000    0.000    0.000    0.000 
#    0.000    0.000    0.000    0.000    0.000    0.000 
#
# Total GULP energy -133646.175038 kJ/mol
# GULP energy per Si atom -5568.590627 kJ/mol
# Density = 2.331904 g / cm^3
# Si number density = 23.372233 Si / 1000 Ang^3
#
#
#
# Elastic Constant Matrix: (Units=GPa)
#
#
# Indices 1 2 3 4 5 6 
#
# 1 178.7228 37.3719 46.1150 0.0000 -20.1805 0.0000
# 2 37.3719 50.0920 35.9007 0.0000 -3.2146 0.0000
# 3 46.1150 35.9007 137.7159 0.0000 -30.3812 0.0000
# 4 0.0000 0.0000 0.0000 102.9417 0.0000 81.0855
# 5 -20.1805 -3.2146 -30.3812 0.0000 38.9884 0.0000
# 6 0.0000 0.0000 0.0000 81.0855 0.0000 83.6607
#
#
#
# Elastic Compliance Matrix: (Units=1/GPa)
#
#
# Indices 1 2 3 4 5 6 
#
# 1 0.007031 -0.004707 -0.000495 0.000000 0.002865 0.000000
# 2 -0.004707 0.028121 -0.006981 0.000000 -0.005557 0.000000
# 3 -0.000495 -0.006981 0.010945 0.000000 0.007697 0.000000
# 4 0.000000 0.000000 0.000000 0.041064 0.000000 -0.039800
# 5 0.002865 -0.005557 0.007697 0.000000 0.032671 0.000000
# 6 0.000000 0.000000 0.000000 -0.039800 0.000000 0.050528
#
#
# Mechanical properties :
#
#
# Convention : Reuss Voigt Hill
#
# Bulk Modulus (GPa) = 46.01592 67.25621 56.63607
# Shear Modulus (GPa) = 24.75622 61.59435 43.17529
#
# Velocity S-wave (km/s) = 3.25809 5.13915 4.30267
# Velocity P-wave (km/s) = 5.82104 8.00332 6.99777
#
# Compressibility (1/GPa) = 0.02173161
#
# Stress axis : x y z
#
# Youngs Moduli (GPa) = 142.23265 35.56053 91.36661
#
# Poissons Ratio (x) = 0.16737 0.04525
# Poissons Ratio (y) = 0.66943 0.63780
# Poissons Ratio (z) = 0.07044 0.24824
#
# Static dielectric constant tensor:
#      x y z
#    x 1.879170 0.000000 -0.012710 
#    y 0.000000 1.872600 0.000000 
#    z -0.012710 0.000000 1.883960 
# 
# From -- ./inp_files/94983.got.cif
#   From: 2010.05.17/outbox.cif.g08.bks.cpg/sg12_48_cif.got.tgz:94983.got - 2010.06.03 13:09:07.
