data_PCOD9212144
_publ_section_title
;
Structure prediction by ZEFSAII (Michael W. Deem and Ramdas Pophale) SiO2 
 PCOD9212144
Probable space group: C 2/M
;
_chemical_formula_sum "Si O2"
_cell_formula_units_Z 56
_cell_length_a 13.882866
_cell_length_b 22.906448
_cell_length_c 8.779427
_cell_angle_alpha 90.000000
_cell_angle_beta 60.768547
_cell_angle_gamma 90.000000
_cell_volume 2436.380995
_symmetry_space_group_name_H-M "C 2/M"
_symmetry_group_IT_number 12
_symmetry_cell_setting 'monoclinic'
loop_
_space_group_symop_operation_xyz
x,y,z
-x,y,-z
-x,-y,-z
x,-y,z
1/2+x,1/2+y,z
1/2-x,1/2+y,-z
1/2-x,1/2-y,-z
1/2+x,1/2-y,z
loop_
_atom_site_type_symbol
_atom_site_label
_atom_site_fract_x
_atom_site_fract_y
_atom_site_fract_z
Si Si1 0.720523 0.609356 0.716451
Si Si2 0.092106 0.561916 0.227588
Si Si3 0.800767 0.402139 0.148675
Si Si4 0.109623 0.091337 0.512063
Si Si5 0.321225 0.690927 0.971078
Si Si6 0.093285 0.654686 0.656171
Si Si7 0.542599 0.279539 0.627230
O O1 0.795786 0.567597 0.761729
O O2 0.630087 0.578293 0.675861
O O3 0.809854 0.635546 0.530995
O O4 0.678667 0.661311 0.860943
O O5 0.034324 0.500000 0.306024
O O6 0.017623 0.619844 0.307885
O O7 0.130496 0.561275 0.023482
O O8 0.711570 0.430164 0.331625
O O9 0.733382 0.356886 0.096742
O O10 0.882827 0.368573 0.195138
O O11 0.107105 0.162629 0.525612
O O12 0.000000 0.075496 0.500000
O O13 0.443238 0.701510 0.813152
O O14 0.250000 0.750000 0.000000
O O15 0.097714 0.724297 0.660671
O O16 0.500000 0.253692 0.500000
#
# Coordination Sequence:
#
# PCOD9212144 Si02
#       7
#     8   8   8   8   8   8   8
#     4  10  24  39  62  93 127 168 217 268 320 390
#     4  11  24  45  68  94 128 166 215 281 334 378
#     4  10  22  40  59  92 128 170 215 265 317 382
#     4  10  21  41  64  91 128 176 212 262 317 386
#     4  11  21  35  54  89 131 171 216 260 309 377
#     4  11  23  39  61  94 136 168 219 263 311 398
#     4  11  20  36  60  91 134 182 212 253 315 382
#
# _framework density 22.984909999999999
#
# number of rings (size 3 to 8) (size 9 to 14) (size 15 to 20)
#    0.000    1.429    2.857    4.286    2.000    4.000 
#    0.000    2.143    0.000    2.571    0.000    0.000 
#    0.000    0.000    0.000    0.000    0.000    0.000 
#
# Total GULP energy -156286.679651 kJ/mol
# GULP energy per Si atom -5581.667130 kJ/mol
# Density = 2.293260 g / cm^3
# Si number density = 22.984910 Si / 1000 Ang^3
#
#
#
# Elastic Constant Matrix: (Units=GPa)
#
#
# Indices 1 2 3 4 5 6 
#
# 1 94.6048 -7.4777 26.6556 0.0000 29.2675 0.0000
# 2 -7.4777 75.5005 24.0678 0.0000 -5.5469 0.0000
# 3 26.6556 24.0678 154.6244 0.0000 13.2118 0.0000
# 4 0.0000 0.0000 0.0000 13.6302 0.0000 -19.7206
# 5 29.2675 -5.5469 13.2118 0.0000 42.7653 0.0000
# 6 0.0000 0.0000 0.0000 -19.7206 0.0000 -2.5516
#
#
#
# Elastic Compliance Matrix: (Units=1/GPa)
#
#
# Indices 1 2 3 4 5 6 
#
# 1 0.013913 0.001324 -0.001855 0.000000 -0.008777 0.000000
# 2 0.001324 0.014338 -0.002610 0.000000 0.001760 0.000000
# 3 -0.001855 -0.002610 0.007307 0.000000 -0.001327 0.000000
# 4 0.000000 0.000000 0.000000 0.006022 0.000000 -0.046546
# 5 -0.008777 0.001760 -0.001327 0.000000 0.030028 0.000000
# 6 0.000000 0.000000 0.000000 -0.046546 0.000000 -0.032171
#
#
# Mechanical properties :
#
#
# Convention : Reuss Voigt Hill
#
# Bulk Modulus (GPa) = 34.15803 45.69122 39.92463
# Shear Modulus (GPa) = 90.12844 29.53438 59.83141
#
# Velocity S-wave (km/s) = 6.26874 3.58850 5.10757
# Velocity P-wave (km/s) = 8.20302 6.09030 7.22431
#
# Compressibility (1/GPa) = 0.02927569
#
# Stress axis : x y z
#
# Youngs Moduli (GPa) = 71.87643 69.74712 136.86139
#
# Poissons Ratio (x) = -0.09237 0.25383
# Poissons Ratio (y) = -0.09519 0.35726
# Poissons Ratio (z) = 0.13330 0.18206
#
# Static dielectric constant tensor:
#      x y z
#    x 1.965060 0.000000 0.006290 
#    y 0.000000 2.005060 0.000000 
#    z 0.006290 0.000000 1.883750 
# 
# From -- ./inp_files/65753.got.cif
#   From: 2010.05.17/outbox.cif.g08.bks.cpg/sg12_33_cif.got.tgz:65753.got - 2010.06.03 13:09:07.
