data_PCOD9212651
_publ_section_title
;
Structure prediction by ZEFSAII (Michael W. Deem and Ramdas Pophale) SiO2 
 PCOD9212651
Probable space group: C 2/M
;
_chemical_formula_sum "Si O2"
_cell_formula_units_Z 32
_cell_length_a 8.295124
_cell_length_b 17.941363
_cell_length_c 10.025260
_cell_angle_alpha 90.000000
_cell_angle_beta 119.535599
_cell_angle_gamma 90.000000
_cell_volume 1298.129322
_symmetry_space_group_name_H-M "C 2/M"
_symmetry_group_IT_number 12
_symmetry_cell_setting 'monoclinic'
loop_
_space_group_symop_operation_xyz
x,y,z
-x,y,-z
-x,-y,-z
x,-y,z
1/2+x,1/2+y,z
1/2-x,1/2+y,-z
1/2-x,1/2-y,-z
1/2+x,1/2-y,z
loop_
_atom_site_type_symbol
_atom_site_label
_atom_site_fract_x
_atom_site_fract_y
_atom_site_fract_z
Si Si1 0.784899 0.587018 0.953946
Si Si2 0.291789 0.809583 0.633307
Si Si3 0.275394 0.176123 0.207104
Si Si4 0.574435 0.586649 0.358505
O O1 0.770985 0.500000 0.996540
O O2 0.641098 0.593947 0.773766
O O3 0.721340 0.646955 0.038709
O O4 0.000000 0.598298 0.000000
O O5 0.250000 0.750000 0.500000
O O6 0.503705 0.832406 0.705805
O O7 0.264809 0.760307 0.757321
O O8 0.164707 0.875155 0.524336
O O9 0.182605 0.122477 0.277208
O O10 0.612235 0.500000 0.384858
#
# Coordination Sequence:
#
# PCOD9212651 Si02
#       4
#     8   8   8   8
#     4  10  23  44  70 101 135 175 227 284 341 404
#     4  10  23  42  64  98 138 178 226 276 334 407
#     4  11  23  42  68  97 139 182 226 277 335 410
#     4  10  21  42  71 101 136 177 223 280 344 405
#
# _framework density 24.650856000000001
#
# number of rings (size 3 to 8) (size 9 to 14) (size 15 to 20)
#    0.000    1.750    0.000    4.500    0.000   11.000 
#    0.000   20.000    0.000   18.000    0.000    0.000 
#    0.000    5.000    0.000    0.000    0.000    0.000 
#
# Total GULP energy -89470.489800 kJ/mol
# GULP energy per Si atom -5591.905612 kJ/mol
# Density = 2.459475 g / cm^3
# Si number density = 24.650856 Si / 1000 Ang^3
#
#
#
# Elastic Constant Matrix: (Units=GPa)
#
#
# Indices 1 2 3 4 5 6 
#
# 1 152.6316 57.0431 80.0789 0.0000 23.8416 0.0000
# 2 57.0431 205.0888 73.1201 0.0000 -2.4278 0.0000
# 3 80.0789 73.1201 161.8396 0.0000 -9.9810 0.0000
# 4 0.0000 0.0000 0.0000 48.9060 0.0000 -2.0153
# 5 23.8416 -2.4278 -9.9810 0.0000 56.0838 0.0000
# 6 0.0000 0.0000 0.0000 -2.0153 0.0000 36.4142
#
#
#
# Elastic Compliance Matrix: (Units=1/GPa)
#
#
# Indices 1 2 3 4 5 6 
#
# 1 0.010438 -0.001201 -0.004954 0.000000 -0.005371 0.000000
# 2 -0.001201 0.005953 -0.002071 0.000000 0.000400 0.000000
# 3 -0.004954 -0.002071 0.009798 0.000000 0.003760 0.000000
# 4 0.000000 0.000000 0.000000 0.020494 0.000000 0.001134
# 5 -0.005371 0.000400 0.003760 0.000000 0.020800 0.000000
# 6 0.000000 0.000000 0.000000 0.001134 0.000000 0.027525
#
#
# Mechanical properties :
#
#
# Convention : Reuss Voigt Hill
#
# Bulk Modulus (GPa) = 102.68627 104.44935 103.56781
# Shear Modulus (GPa) = 43.59026 48.90198 46.24612
#
# Velocity S-wave (km/s) = 4.20969 4.45880 4.33603
# Velocity P-wave (km/s) = 8.08550 8.30490 8.19593
#
# Compressibility (1/GPa) = 0.00973840
#
# Stress axis : x y z
#
# Youngs Moduli (GPa) = 95.79956 167.98413 102.06634
#
# Poissons Ratio (x) = 0.20171 0.50561
# Poissons Ratio (y) = 0.11503 0.21136
# Poissons Ratio (z) = 0.47456 0.34786
#
# Static dielectric constant tensor:
#      x y z
#    x 2.037780 0.000000 -0.056790 
#    y 0.000000 1.960430 0.000000 
#    z -0.056790 0.000000 1.842330 
# 
# From -- ./inp_files/118681.got.cif
#   From: 2010.05.17/outbox.cif.g08.bks.cpg/sg12_60_cif.got.tgz:118681.got - 2010.06.03 13:09:07.
