data_PCOD9212352
_publ_section_title
;
Structure prediction by ZEFSAII (Michael W. Deem and Ramdas Pophale) SiO2 
 PCOD9212352
Probable space group: C 2/M
;
_chemical_formula_sum "Si O2"
_cell_formula_units_Z 64
_cell_length_a 17.758945
_cell_length_b 13.995343
_cell_length_c 14.257412
_cell_angle_alpha 90.000000
_cell_angle_beta 53.394992
_cell_angle_gamma 90.000000
_cell_volume 2844.657811
_symmetry_space_group_name_H-M "C 2/M"
_symmetry_group_IT_number 12
_symmetry_cell_setting 'monoclinic'
loop_
_space_group_symop_operation_xyz
x,y,z
-x,y,-z
-x,-y,-z
x,-y,z
1/2+x,1/2+y,z
1/2-x,1/2+y,-z
1/2-x,1/2-y,-z
1/2+x,1/2-y,z
loop_
_atom_site_type_symbol
_atom_site_label
_atom_site_fract_x
_atom_site_fract_y
_atom_site_fract_z
Si Si1 0.806608 0.307702 0.747540
Si Si2 0.026192 0.794359 0.175013
Si Si3 0.221162 0.609454 0.833681
Si Si4 0.723046 0.610433 0.992295
Si Si5 0.558560 0.891136 0.820894
Si Si6 0.668530 0.610997 0.698411
Si Si7 0.668993 0.112635 0.548252
Si Si8 0.504336 0.757965 0.596410
O O1 0.784109 0.195577 0.746562
O O2 0.740825 0.367212 0.727849
O O3 0.915671 0.329197 0.654508
O O4 0.779884 0.329991 0.874106
O O5 0.117760 0.848326 0.073567
O O6 0.018120 0.801699 0.293835
O O7 0.020431 0.684312 0.147595
O O8 0.927746 0.835249 0.211893
O O9 0.245731 0.500000 0.786642
O O10 0.233875 0.614565 0.935821
O O11 0.115460 0.625790 0.874453
O O12 0.721262 0.500000 0.964218
O O13 0.638144 0.880550 0.679639
O O14 0.523913 0.000000 0.844738
O O15 0.646587 0.500000 0.708831
O O16 0.725396 0.638667 0.561263
O O17 0.597933 0.182470 0.546919
O O18 0.656815 0.000000 0.531426
O O19 0.500000 0.705257 0.500000
#
# Coordination Sequence:
#
# PCOD9212352 Si02
#       8
#     8   8   8   8   8   8   8   8
#     4  12  23  43  67  96 129 173 225 265 329 383
#     4  11  23  41  65  93 137 173 215 270 318 395
#     4  10  21  41  68  92 126 168 218 272 321 379
#     4  11  25  44  67  96 133 176 220 271 319 384
#     4   9  19  39  66  96 125 169 219 269 329 386
#     4  11  23  40  64  96 130 174 217 267 328 391
#     4   9  20  37  61  95 132 166 214 272 327 388
#     4  11  23  39  65 100 129 170 216 269 331 390
#
# _framework density 22.498311999999999
#
# number of rings (size 3 to 8) (size 9 to 14) (size 15 to 20)
#    0.000    1.500    3.750    1.125    0.000    4.750 
#    0.000    1.875    0.000    3.375    0.000    0.000 
#    0.000    0.000    0.000    0.000    0.000    0.000 
#
# Total GULP energy -178935.324244 kJ/mol
# GULP energy per Si atom -5591.728883 kJ/mol
# Density = 2.244711 g / cm^3
# Si number density = 22.498312 Si / 1000 Ang^3
#
#
#
# Elastic Constant Matrix: (Units=GPa)
#
#
# Indices 1 2 3 4 5 6 
#
# 1 78.5094 12.3981 3.8578 0.0000 -6.6964 0.0000
# 2 12.3981 96.7668 8.9345 0.0000 -6.8580 0.0000
# 3 3.8578 8.9345 49.6459 0.0000 -6.4860 0.0000
# 4 0.0000 0.0000 0.0000 20.6367 0.0000 3.2444
# 5 -6.6964 -6.8580 -6.4860 0.0000 30.8171 0.0000
# 6 0.0000 0.0000 0.0000 3.2444 0.0000 23.7526
#
#
#
# Elastic Compliance Matrix: (Units=1/GPa)
#
#
# Indices 1 2 3 4 5 6 
#
# 1 0.013201 -0.001477 -0.000440 0.000000 0.002447 0.000000
# 2 -0.001477 0.010795 -0.001600 0.000000 0.001744 0.000000
# 3 -0.000440 -0.001600 0.020983 0.000000 0.003964 0.000000
# 4 0.000000 0.000000 0.000000 0.049521 0.000000 -0.006764
# 5 0.002447 0.001744 0.003964 0.000000 0.034204 0.000000
# 6 0.000000 0.000000 0.000000 -0.006764 0.000000 0.043025
#
#
# Mechanical properties :
#
#
# Convention : Reuss Voigt Hill
#
# Bulk Modulus (GPa) = 26.35497 30.58920 28.47209
# Shear Modulus (GPa) = 26.12188 28.35674 27.23931
#
# Velocity S-wave (km/s) = 3.41113 3.55405 3.48332
# Velocity P-wave (km/s) = 5.22054 5.51973 5.37222
#
# Compressibility (1/GPa) = 0.03794350
#
# Stress axis : x y z
#
# Youngs Moduli (GPa) = 75.75197 92.63760 47.65825
#
# Poissons Ratio (x) = 0.13685 0.02098
# Poissons Ratio (y) = 0.11191 0.07625
# Poissons Ratio (z) = 0.03335 0.14822
#
# Static dielectric constant tensor:
#      x y z
#    x 1.827980 0.000000 0.017510 
#    y 0.000000 1.816540 0.000000 
#    z 0.017510 0.000000 1.873870 
# 
# From -- ./inp_files/225661.got.cif
#   From: 2010.05.17/outbox.cif.g08.bks.cpg/sg12_113_cif.got.tgz:225661.got - 2010.06.03 13:09:07.
