data_PCOD9212240
_publ_section_title
;
Structure prediction by ZEFSAII (Michael W. Deem and Ramdas Pophale) SiO2 
 PCOD9212240
Probable space group: C 2/M
;
_chemical_formula_sum "Si O2"
_cell_formula_units_Z 52
_cell_length_a 26.768137
_cell_length_b 8.564045
_cell_length_c 15.958123
_cell_angle_alpha 90.000000
_cell_angle_beta 138.753005
_cell_angle_gamma 90.000000
_cell_volume 2411.938195
_symmetry_space_group_name_H-M "C 2/M"
_symmetry_group_IT_number 12
_symmetry_cell_setting 'monoclinic'
loop_
_space_group_symop_operation_xyz
x,y,z
-x,y,-z
-x,-y,-z
x,-y,z
1/2+x,1/2+y,z
1/2-x,1/2+y,-z
1/2-x,1/2-y,-z
1/2+x,1/2-y,z
loop_
_atom_site_type_symbol
_atom_site_label
_atom_site_fract_x
_atom_site_fract_y
_atom_site_fract_z
Si Si1 0.470520 0.677127 0.581250
Si Si2 0.184119 0.814366 0.300556
Si Si3 0.674364 0.500000 0.897475
Si Si4 0.356698 0.185452 0.569656
Si Si5 0.903264 0.000000 0.029065
Si Si6 0.233397 0.500000 0.828053
Si Si7 0.928667 0.321336 0.972600
Si Si8 0.880999 0.240637 0.302981
O O1 0.499098 0.500000 0.626875
O O2 0.421949 0.734078 0.597945
O O3 0.417319 0.670366 0.432315
O O4 0.542413 0.787163 0.650893
O O5 0.274550 0.790561 0.422266
O O6 0.149851 0.755479 0.345681
O O7 0.144837 0.717179 0.177061
O O8 0.168447 0.000000 0.273862
O O9 0.665107 0.642457 0.823186
O O10 0.610243 0.500000 0.888714
O O11 0.748810 0.500000 0.049405
O O12 0.369756 0.000000 0.591323
O O13 0.937099 0.166312 0.041960
O O14 0.814705 0.000000 0.888004
O O15 0.180430 0.358015 0.740029
O O16 0.923383 0.500000 0.001700
O O17 0.000000 0.320600 0.000000
#
# Coordination Sequence:
#
# PCOD9212240 Si02
#       8
#     8   8   4   8   4   4   8   8
#     4  11  23  39  65  92 128 173 220 267 339 399
#     4  10  21  41  66  91 139 172 210 272 333 400
#     4  10  22  46  65  87 133 167 225 275 333 403
#     4  10  23  38  62  99 128 169 218 267 333 400
#     4  10  25  44  66 103 124 177 226 278 337 394
#     4  10  26  40  69  96 125 170 223 275 344 383
#     4  11  24  44  69  99 135 177 223 272 334 401
#     4  11  22  44  64  91 129 168 216 277 330 404
#
# _framework density 21.559425999999998
#
# number of rings (size 3 to 8) (size 9 to 14) (size 15 to 20)
#    0.462    1.077    2.308    2.077    4.308    3.692 
#    2.769    0.000    0.000    0.000    0.000    0.000 
#    0.000    0.000    0.000    0.000    0.000    0.000 
#
# Total GULP energy -144998.959020 kJ/mol
# GULP energy per Si atom -5576.883039 kJ/mol
# Density = 2.151036 g / cm^3
# Si number density = 21.559426 Si / 1000 Ang^3
#
#
#
# Elastic Constant Matrix: (Units=GPa)
#
#
# Indices 1 2 3 4 5 6 
#
# 1 76.9811 22.3447 -15.9667 0.0000 5.2157 0.0000
# 2 22.3447 98.8567 10.3038 0.0000 -0.3425 0.0000
# 3 -15.9667 10.3038 58.1015 0.0000 0.3619 0.0000
# 4 0.0000 0.0000 0.0000 -14.4848 0.0000 78.8686
# 5 5.2157 -0.3425 0.3619 0.0000 27.6693 0.0000
# 6 0.0000 0.0000 0.0000 78.8686 0.0000 -45.4155
#
#
#
# Elastic Compliance Matrix: (Units=1/GPa)
#
#
# Indices 1 2 3 4 5 6 
#
# 1 0.015385 -0.004005 0.004957 0.000000 -0.003014 0.000000
# 2 -0.004005 0.011349 -0.003119 0.000000 0.000936 0.000000
# 3 0.004957 -0.003119 0.019134 0.000000 -0.001223 0.000000
# 4 0.000000 0.000000 0.000000 0.008165 0.000000 0.014179
# 5 -0.003014 0.000936 -0.001223 0.000000 0.036737 0.000000
# 6 0.000000 0.000000 0.000000 0.014179 0.000000 0.002604
#
#
# Mechanical properties :
#
#
# Convention : Reuss Voigt Hill
#
# Bulk Modulus (GPa) = 24.07619 29.70031 26.88825
# Shear Modulus (GPa) = 44.82204 8.03763 26.42983
#
# Velocity S-wave (km/s) = 4.56455 1.93293 3.50509
# Velocity P-wave (km/s) = 6.24274 4.33446 5.37398
#
# Compressibility (1/GPa) = 0.04153481
#
# Stress axis : x y z
#
# Youngs Moduli (GPa) = 64.99874 88.11235 52.26249
#
# Poissons Ratio (x) = 0.35285 -0.25906
# Poissons Ratio (y) = 0.26029 0.16301
# Poissons Ratio (z) = -0.32219 0.27482
#
# Static dielectric constant tensor:
#      x y z
#    x 1.748520 0.000000 -0.002820 
#    y 0.000000 1.789310 0.000000 
#    z -0.002820 0.000000 1.778790 
# 
# From -- ./inp_files/292317.got.cif
#   From: 2010.05.17/outbox.cif.g08.bks.cpg/sg12_147_cif.got.tgz:292317.got - 2010.06.03 13:09:07.
