data_PCOD9212542
_publ_section_title
;
Structure prediction by ZEFSAII (Michael W. Deem and Ramdas Pophale) SiO2 
 PCOD9212542
Probable space group: C 2/M
;
_chemical_formula_sum "Si O2"
_cell_formula_units_Z 56
_cell_length_a 12.122539
_cell_length_b 26.888243
_cell_length_c 8.601167
_cell_angle_alpha 90.000000
_cell_angle_beta 114.981004
_cell_angle_gamma 90.000000
_cell_volume 2541.301654
_symmetry_space_group_name_H-M "C 2/M"
_symmetry_group_IT_number 12
_symmetry_cell_setting 'monoclinic'
loop_
_space_group_symop_operation_xyz
x,y,z
-x,y,-z
-x,-y,-z
x,-y,z
1/2+x,1/2+y,z
1/2-x,1/2+y,-z
1/2-x,1/2-y,-z
1/2+x,1/2-y,z
loop_
_atom_site_type_symbol
_atom_site_label
_atom_site_fract_x
_atom_site_fract_y
_atom_site_fract_z
Si Si1 0.406060 0.421324 0.824076
Si Si2 0.018340 0.386690 0.833152
Si Si3 0.290208 0.000000 0.394666
Si Si4 0.963523 0.847356 0.301792
Si Si5 0.497529 0.000000 0.257369
Si Si6 0.148281 0.776744 0.248505
Si Si7 0.775955 0.837884 0.960131
Si Si8 0.892591 0.313322 0.561872
O O1 0.296656 0.453554 0.692694
O O2 0.481358 0.399356 0.724251
O O3 0.352062 0.377066 0.899264
O O4 0.500000 0.446642 0.000000
O O5 0.139475 0.356435 0.858289
O O6 0.026749 0.446533 0.835379
O O7 0.919015 0.367652 0.648532
O O8 0.000000 0.372049 0.000000
O O9 0.399331 0.000000 0.336824
O O10 0.362646 0.000000 0.599714
O O11 0.000000 0.837874 0.500000
O O12 0.032019 0.807685 0.234547
O O13 0.823949 0.843367 0.164940
O O14 0.187441 0.785193 0.094363
O O15 0.116896 0.722654 0.293818
O O16 0.263845 0.802114 0.404553
O O17 0.000000 0.301317 0.500000
#
# Coordination Sequence:
#
# PCOD9212542 Si02
#       8
#     8   8   4   8   4   8   8   8
#     4   9  19  37  62  92 125 167 217 275 330 393
#     4  12  27  45  66  99 138 182 225 282 339 401
#     4  11  21  36  67  94 117 170 231 272 332 397
#     4  10  22  38  66  94 130 174 220 270 333 392
#     4  11  27  40  66  98 134 177 229 281 342 392
#     4  10  22  42  68  98 138 173 219 276 334 398
#     4  10  21  42  66  93 133 175 219 272 332 402
#     4  11  24  43  70 101 136 180 224 274 332 406
#
# _framework density 22.035952000000002
#
# number of rings (size 3 to 8) (size 9 to 14) (size 15 to 20)
#    0.000    1.571    2.857    2.143    8.000    1.143 
#    0.000    1.786    0.000    0.000    0.000    0.000 
#    0.000    0.000    0.000    0.000    0.000    0.000 
#
# Total GULP energy -156192.892633 kJ/mol
# GULP energy per Si atom -5578.317594 kJ/mol
# Density = 2.198580 g / cm^3
# Si number density = 22.035952 Si / 1000 Ang^3
#
#
#
# Elastic Constant Matrix: (Units=GPa)
#
#
# Indices 1 2 3 4 5 6 
#
# 1 60.8834 25.0053 21.9161 0.0000 1.4637 0.0000
# 2 25.0053 68.1866 16.5758 0.0000 -8.7365 0.0000
# 3 21.9161 16.5758 92.8972 0.0000 0.2465 0.0000
# 4 0.0000 0.0000 0.0000 78.7483 0.0000 -12.2136
# 5 1.4637 -8.7365 0.2465 0.0000 37.0045 0.0000
# 6 0.0000 0.0000 0.0000 -12.2136 0.0000 24.3853
#
#
#
# Elastic Compliance Matrix: (Units=1/GPa)
#
#
# Indices 1 2 3 4 5 6 
#
# 1 0.020666 -0.007013 -0.003618 0.000000 -0.002449 0.000000
# 2 -0.007013 0.018216 -0.001608 0.000000 0.004589 0.000000
# 3 -0.003618 -0.001608 0.011906 0.000000 -0.000316 0.000000
# 4 0.000000 0.000000 0.000000 0.013768 0.000000 0.006896
# 5 -0.002449 0.004589 -0.000316 0.000000 0.028206 0.000000
# 6 0.000000 0.000000 0.000000 0.006896 0.000000 0.044462
#
#
# Mechanical properties :
#
#
# Convention : Reuss Voigt Hill
#
# Bulk Modulus (GPa) = 38.00714 38.77352 38.39033
# Shear Modulus (GPa) = 29.33018 38.59227 33.96123
#
# Velocity S-wave (km/s) = 3.65227 4.18943 3.93004
# Velocity P-wave (km/s) = 5.92205 6.40590 6.16872
#
# Compressibility (1/GPa) = 0.02631084
#
# Stress axis : x y z
#
# Youngs Moduli (GPa) = 48.38791 54.89580 83.99250
#
# Poissons Ratio (x) = 0.38499 0.30386
# Poissons Ratio (y) = 0.33935 0.13506
# Poissons Ratio (z) = 0.17505 0.08827
#
# Static dielectric constant tensor:
#      x y z
#    x 1.782360 0.000000 0.017210 
#    y 0.000000 1.844140 0.000000 
#    z 0.017210 0.000000 1.879460 
# 
# From -- ./inp_files/54865.got.cif
#   From: 2010.05.17/outbox.cif.g08.bks.cpg/sg12_28_cif.got.tgz:54865.got - 2010.06.03 13:09:07.
