data_PCOD9212374
_publ_section_title
;
Structure prediction by ZEFSAII (Michael W. Deem and Ramdas Pophale) SiO2 
 PCOD9212374
Probable space group: C 2/M
;
_chemical_formula_sum "Si O2"
_cell_formula_units_Z 48
_cell_length_a 13.922993
_cell_length_b 26.249182
_cell_length_c 11.440391
_cell_angle_alpha 90.000000
_cell_angle_beta 32.911184
_cell_angle_gamma 90.000000
_cell_volume 2271.745054
_symmetry_space_group_name_H-M "C 2/M"
_symmetry_group_IT_number 12
_symmetry_cell_setting 'monoclinic'
loop_
_space_group_symop_operation_xyz
x,y,z
-x,y,-z
-x,-y,-z
x,-y,z
1/2+x,1/2+y,z
1/2-x,1/2+y,-z
1/2-x,1/2-y,-z
1/2+x,1/2-y,z
loop_
_atom_site_type_symbol
_atom_site_label
_atom_site_fract_x
_atom_site_fract_y
_atom_site_fract_z
Si Si1 0.342243 0.111825 0.753997
Si Si2 0.130637 0.500000 0.748850
Si Si3 0.000000 0.844177 0.000000
Si Si4 0.911241 0.190830 0.337449
Si Si5 0.500000 0.167583 0.000000
Si Si6 0.486996 0.203972 0.762757
Si Si7 0.157757 0.102164 0.428102
Si Si8 0.077776 0.500000 0.284427
O O1 0.500000 0.111980 0.500000
O O2 0.388119 0.158598 0.795297
O O3 0.328553 0.055191 0.821080
O O4 0.168540 0.122513 0.857882
O O5 0.253599 0.549658 0.625539
O O6 0.040095 0.500000 0.713238
O O7 0.000000 0.500000 0.000000
O O8 0.031183 0.811517 0.854178
O O9 0.699499 0.196613 0.546944
O O10 0.932514 0.137346 0.380417
O O11 0.020883 0.238353 0.279055
O O12 0.556477 0.199183 0.056161
O O13 0.326803 0.133998 0.207097
O O14 0.000000 0.092467 0.500000
O O15 0.000000 0.500000 0.500000
#
# Coordination Sequence:
#
# PCOD9212374 Si02
#       8
#     8   4   4   8   4   8   8   4
#     4  11  24  44  69  96 140 181 230 285 348 409
#     4  12  25  45  79 103 136 189 244 292 361 430
#     4  12  25  41  68 104 136 181 236 281 346 434
#     4  10  23  42  66 101 139 179 236 283 350 418
#     4  10  21  41  68  96 140 177 236 279 350 430
#     4  10  21  43  69  96 139 186 225 294 345 414
#     4  11  25  44  68 103 142 178 230 295 358 421
#     4  10  24  44  73  99 134 188 228 285 357 410
#
# _framework density 21.129131000000001
#
# number of rings (size 3 to 8) (size 9 to 14) (size 15 to 20)
#    0.000    1.333    2.500    2.750    4.667    1.667 
#    3.000    0.833    0.000    0.000    0.000    0.000 
#    0.000    0.000    0.000    0.000    0.000    0.000 
#
# Total GULP energy -133803.323332 kJ/mol
# GULP energy per Si atom -5575.138472 kJ/mol
# Density = 2.108104 g / cm^3
# Si number density = 21.129131 Si / 1000 Ang^3
#
#
#
# Elastic Constant Matrix: (Units=GPa)
#
#
# Indices 1 2 3 4 5 6 
#
# 1 91.4859 53.9375 19.1008 0.0001 -26.4528 0.0000
# 2 53.9375 184.2459 28.7178 0.0000 -12.3840 0.0000
# 3 19.1008 28.7178 51.1365 0.0000 2.5152 -0.0001
# 4 0.0001 0.0000 0.0000 16.8969 0.0000 4.5987
# 5 -26.4528 -12.3840 2.5152 0.0000 31.6541 0.0000
# 6 0.0000 0.0000 -0.0001 4.5987 0.0000 32.3638
#
#
#
# Elastic Compliance Matrix: (Units=1/GPa)
#
#
# Indices 1 2 3 4 5 6 
#
# 1 0.018336 -0.003532 -0.005573 0.000000 0.014384 0.000000
# 2 -0.003532 0.006850 -0.002524 0.000000 -0.000071 0.000000
# 3 -0.005573 -0.002524 0.023424 0.000000 -0.007506 0.000000
# 4 0.000000 0.000000 0.000000 0.061563 0.000000 -0.008748
# 5 0.014384 -0.000071 -0.007506 0.000000 0.044180 0.000000
# 6 0.000000 0.000000 0.000000 -0.008748 0.000000 0.032142
#
#
# Mechanical properties :
#
#
# Convention : Reuss Voigt Hill
#
# Bulk Modulus (GPa) = 39.44536 58.93117 49.18826
# Shear Modulus (GPa) = 22.91440 31.19044 27.05242
#
# Velocity S-wave (km/s) = 3.29674 3.84628 3.58206
# Velocity P-wave (km/s) = 5.76199 6.90483 6.35914
#
# Compressibility (1/GPa) = 0.02535153
#
# Stress axis : x y z
#
# Youngs Moduli (GPa) = 54.53847 145.98031 42.69175
#
# Poissons Ratio (x) = 0.51565 0.23791
# Poissons Ratio (y) = 0.19265 0.10776
# Poissons Ratio (z) = 0.30392 0.36847
#
# Static dielectric constant tensor:
#      x y z
#    x 1.740770 0.000000 0.014760 
#    y 0.000000 1.854090 0.000000 
#    z 0.014760 0.000000 1.787840 
# 
# From -- ./inp_files/149706.got.cif
#   From: 2010.05.17/outbox.cif.g08.bks.cpg/sg12_75_cif.got.tgz:149706.got - 2010.06.03 13:09:07.
