data_PCOD9212132
_publ_section_title
;
Structure prediction by ZEFSAII (Michael W. Deem and Ramdas Pophale) SiO2 
 PCOD9212132
Probable space group: C 2/M
;
_chemical_formula_sum "Si O2"
_cell_formula_units_Z 36
_cell_length_a 19.033974
_cell_length_b 13.719969
_cell_length_c 9.660498
_cell_angle_alpha 90.000000
_cell_angle_beta 146.325131
_cell_angle_gamma 90.000000
_cell_volume 1398.838518
_symmetry_space_group_name_H-M "C 2/M"
_symmetry_group_IT_number 12
_symmetry_cell_setting 'monoclinic'
loop_
_space_group_symop_operation_xyz
x,y,z
-x,y,-z
-x,-y,-z
x,-y,z
1/2+x,1/2+y,z
1/2-x,1/2+y,-z
1/2-x,1/2-y,-z
1/2+x,1/2-y,z
loop_
_atom_site_type_symbol
_atom_site_label
_atom_site_fract_x
_atom_site_fract_y
_atom_site_fract_z
Si Si1 0.149886 0.888013 0.744753
Si Si2 0.823985 0.117324 0.906770
Si Si3 0.500000 0.734790 0.000000
Si Si4 0.539941 0.883445 0.414160
Si Si5 0.837979 0.385313 0.836490
O O1 0.205915 0.855956 0.690403
O O2 0.000000 0.889671 0.500000
O O3 0.199395 0.000000 0.831889
O O4 0.186806 0.845452 0.952897
O O5 0.942200 0.165196 0.022797
O O6 0.685591 0.139060 0.618599
O O7 0.842927 0.000000 0.939099
O O8 0.384162 0.812096 0.794679
O O9 0.500000 0.841648 0.500000
O O10 0.539894 0.000000 0.430169
O O11 0.436728 0.866553 0.125688
O O12 0.841730 0.500000 0.801643
#
# Coordination Sequence:
#
# PCOD9212132 Si02
#       5
#     8   8   4   8   8
#     4   9  18  38  67  91 116 155 201 251 301 350
#     4  10  21  41  64  89 121 157 201 248 299 354
#     4  12  26  40  56  90 130 166 196 236 300 366
#     4   9  16  35  68  92 113 151 201 257 299 341
#     4  10  21  41  64  89 121 157 201 248 299 354
#
# _framework density 25.735637000000001
#
# number of rings (size 3 to 8) (size 9 to 14) (size 15 to 20)
#    0.000    2.222    2.222    0.667    0.000    1.778 
#    8.000    0.000    0.000    0.000    0.000    0.000 
#    0.000    0.000    0.000    0.000    0.000    0.000 
#
# Total GULP energy -100561.456709 kJ/mol
# GULP energy per Si atom -5586.747595 kJ/mol
# Density = 2.567706 g / cm^3
# Si number density = 25.735637 Si / 1000 Ang^3
#
#
#
# Elastic Constant Matrix: (Units=GPa)
#
#
# Indices 1 2 3 4 5 6 
#
# 1 153.6282 48.7951 32.7463 0.0000 51.4363 0.0000
# 2 48.7951 156.2751 -1.0958 0.0000 12.3196 0.0000
# 3 32.7463 -1.0958 77.2841 0.0000 9.9414 0.0000
# 4 0.0000 0.0000 0.0000 -24.0587 0.0000 0.2800
# 5 51.4363 12.3196 9.9414 0.0000 49.0226 0.0000
# 6 0.0000 0.0000 0.0000 0.2800 0.0000 44.9206
#
#
#
# Elastic Compliance Matrix: (Units=1/GPa)
#
#
# Indices 1 2 3 4 5 6 
#
# 1 0.011887 -0.002869 -0.003661 0.000000 -0.011008 0.000000
# 2 -0.002869 0.007228 0.001196 0.000000 0.000952 0.000000
# 3 -0.003661 0.001196 0.014428 0.000000 0.000615 0.000000
# 4 0.000000 0.000000 0.000000 -0.041562 0.000000 0.000259
# 5 -0.011008 0.000952 0.000615 0.000000 0.031585 0.000000
# 6 0.000000 0.000000 0.000000 0.000259 0.000000 0.022260
#
#
# Mechanical properties :
#
#
# Convention : Reuss Voigt Hill
#
# Bulk Modulus (GPa) = 43.71764 60.89764 52.30764
# Shear Modulus (GPa) = 77.97790 34.42633 56.20211
#
# Velocity S-wave (km/s) = 5.51048 3.66141 4.67821
# Velocity P-wave (km/s) = 7.58362 6.44893 7.03917
#
# Compressibility (1/GPa) = 0.02287406
#
# Stress axis : x y z
#
# Youngs Moduli (GPa) = 84.12756 138.34594 69.30767
#
# Poissons Ratio (x) = 0.39696 0.25375
# Poissons Ratio (y) = 0.24139 -0.08288
# Poissons Ratio (z) = 0.30801 -0.16544
#
# Static dielectric constant tensor:
#      x y z
#    x 2.071440 0.000000 -0.019520 
#    y 0.000000 2.094670 0.000000 
#    z -0.019520 0.000000 2.033890 
# 
# From -- ./inp_files/167481.got.cif
#   From: 2010.05.17/outbox.cif.g08.bks.cpg/sg12_84_cif.got.tgz:167481.got - 2010.06.03 13:09:07.
