data_PCOD9212731
_publ_section_title
;
Structure prediction by ZEFSAII (Michael W. Deem and Ramdas Pophale) SiO2 
 PCOD9212731
Probable space group: C 2/M
;
_chemical_formula_sum "Si O2"
_cell_formula_units_Z 40
_cell_length_a 9.902451
_cell_length_b 15.939252
_cell_length_c 9.678315
_cell_angle_alpha 90.000000
_cell_angle_beta 88.577827
_cell_angle_gamma 90.000000
_cell_volume 1527.132048
_symmetry_space_group_name_H-M "C 2/M"
_symmetry_group_IT_number 12
_symmetry_cell_setting 'monoclinic'
loop_
_space_group_symop_operation_xyz
x,y,z
-x,y,-z
-x,-y,-z
x,-y,z
1/2+x,1/2+y,z
1/2-x,1/2+y,-z
1/2-x,1/2-y,-z
1/2+x,1/2-y,z
loop_
_atom_site_type_symbol
_atom_site_label
_atom_site_fract_x
_atom_site_fract_y
_atom_site_fract_z
Si Si1 0.549267 0.406200 0.832911
Si Si2 0.303184 0.906760 0.009355
Si Si3 0.852596 0.904284 0.466999
Si Si4 0.159313 0.334668 0.693402
Si Si5 0.105709 0.730845 0.206963
O O1 0.484311 0.500000 0.825575
O O2 0.648005 0.403503 0.961580
O O3 0.648974 0.407061 0.697079
O O4 0.463467 0.321227 0.821699
O O5 0.371561 0.829426 0.925582
O O6 0.351778 0.000000 0.967763
O O7 0.321134 0.894146 0.172465
O O8 0.729872 0.864742 0.552593
O O9 0.000000 0.865545 0.500000
O O10 0.857508 0.000000 0.518682
O O11 0.001860 0.314369 0.691649
O O12 0.249967 0.254814 0.734944
#
# Coordination Sequence:
#
# PCOD9212731 Si02
#       5
#     8   8   8   8   8
#     4  10  23  45  72 103 143 185 232 289 352 420
#     4  11  26  47  73 105 144 187 236 294 360 422
#     4  10  21  43  70 102 139 181 240 296 345 419
#     4  12  26  43  72 103 145 185 238 290 363 410
#     4  12  25  45  72 106 145 185 235 294 353 422
#
# _framework density 26.192889000000001
#
# number of rings (size 3 to 8) (size 9 to 14) (size 15 to 20)
#    0.000    1.000    4.000    1.800    2.800    4.000 
#    3.600    2.000    0.000    3.600    0.000    0.000 
#    0.000    0.000    0.000    0.000    0.000    0.000 
#
# Total GULP energy -111997.449432 kJ/mol
# GULP energy per Si atom -5599.872472 kJ/mol
# Density = 2.613327 g / cm^3
# Si number density = 26.192889 Si / 1000 Ang^3
#
#
#
# Elastic Constant Matrix: (Units=GPa)
#
#
# Indices 1 2 3 4 5 6 
#
# 1 64.7480 23.8736 -15.8169 0.0000 -15.8091 0.0000
# 2 23.8736 182.2173 47.4543 0.0000 -27.1662 0.0000
# 3 -15.8169 47.4543 136.8711 0.0000 -33.9420 0.0000
# 4 0.0000 0.0000 0.0000 20.8385 0.0000 -14.1284
# 5 -15.8091 -27.1662 -33.9420 0.0000 46.3348 0.0000
# 6 0.0000 0.0000 0.0000 -14.1284 0.0000 37.9679
#
#
#
# Elastic Compliance Matrix: (Units=1/GPa)
#
#
# Indices 1 2 3 4 5 6 
#
# 1 0.020082 -0.002687 0.005573 0.000000 0.009359 0.000000
# 2 -0.002687 0.006629 -0.002288 0.000000 0.001294 0.000000
# 3 0.005573 -0.002288 0.010854 0.000000 0.008511 0.000000
# 4 0.000000 0.000000 0.000000 0.064180 0.000000 0.023882
# 5 0.009359 0.001294 0.008511 0.000000 0.031768 0.000000
# 6 0.000000 0.000000 0.000000 0.023882 0.000000 0.035225
#
#
# Mechanical properties :
#
#
# Convention : Reuss Voigt Hill
#
# Bulk Modulus (GPa) = 25.79934 54.98425 40.39179
# Shear Modulus (GPa) = 27.70660 42.91661 35.31161
#
# Velocity S-wave (km/s) = 3.25590 4.05221 3.67568
# Velocity P-wave (km/s) = 4.89955 6.55221 5.78520
#
# Compressibility (1/GPa) = 0.03876068
#
# Stress axis : x y z
#
# Youngs Moduli (GPa) = 49.79621 150.85856 92.13132
#
# Poissons Ratio (x) = 0.40539 -0.51347
# Poissons Ratio (y) = 0.13381 0.21079
# Poissons Ratio (z) = -0.27752 0.34516
#
# Static dielectric constant tensor:
#      x y z
#    x 2.102510 0.000000 -0.026540 
#    y 0.000000 2.067950 0.000000 
#    z -0.026540 0.000000 2.136980 
# 
# From -- ./inp_files/129126.got.cif
#   From: 2010.05.17/outbox.cif.g08.bks.cpg/sg12_65_cif.got.tgz:129126.got - 2010.06.03 13:09:07.
