data_PCOD9212359
_publ_section_title
;
Structure prediction by ZEFSAII (Michael W. Deem and Ramdas Pophale) SiO2 
 PCOD9212359
Probable space group: C 2/M
;
_chemical_formula_sum "Si O2"
_cell_formula_units_Z 64
_cell_length_a 9.866664
_cell_length_b 14.205271
_cell_length_c 27.963007
_cell_angle_alpha 90.000000
_cell_angle_beta 131.024405
_cell_angle_gamma 90.000000
_cell_volume 2956.805252
_symmetry_space_group_name_H-M "C 2/M"
_symmetry_group_IT_number 12
_symmetry_cell_setting 'monoclinic'
loop_
_space_group_symop_operation_xyz
x,y,z
-x,y,-z
-x,-y,-z
x,-y,z
1/2+x,1/2+y,z
1/2-x,1/2+y,-z
1/2-x,1/2-y,-z
1/2+x,1/2-y,z
loop_
_atom_site_type_symbol
_atom_site_label
_atom_site_fract_x
_atom_site_fract_y
_atom_site_fract_z
Si Si1 0.987459 0.387264 0.942091
Si Si2 0.206313 0.887984 0.061934
Si Si3 0.197045 0.184625 0.556856
Si Si4 0.762472 0.242419 0.749635
Si Si5 0.190423 0.107887 0.659944
Si Si6 0.427769 0.104615 0.368573
Si Si7 0.739063 0.396605 0.427297
Si Si8 0.164371 0.236569 0.833623
O O1 0.973836 0.500000 0.938633
O O2 0.811798 0.342555 0.878226
O O3 0.162077 0.361724 0.951461
O O4 0.000000 0.355995 0.000000
O O5 0.268582 0.827686 0.121728
O O6 0.224883 0.000000 0.075078
O O7 0.000000 0.870138 0.000000
O O8 0.223933 0.168929 0.619978
O O9 0.366796 0.132899 0.573312
O O10 0.199402 0.293551 0.541201
O O11 0.000000 0.144329 0.500000
O O12 0.775302 0.342997 0.725813
O O13 0.655383 0.176955 0.688146
O O14 0.661367 0.247602 0.776227
O O15 0.965840 0.208928 0.804716
O O16 0.975992 0.107030 0.619237
O O17 0.248617 0.000000 0.666155
O O18 0.311798 0.103838 0.389944
O O19 0.425034 0.000000 0.347347
O O20 0.793747 0.500000 0.460608
#
# Coordination Sequence:
#
# PCOD9212359 Si02
#       8
#     8   8   8   8   8   8   8   8
#     4  10  23  44  68  97 135 176 220 274 330 383
#     4  10  23  44  68  98 138 178 220 274 335 390
#     4  12  24  43  69  98 132 167 216 278 335 401
#     4  12  24  42  66  94 132 174 221 268 329 393
#     4  11  24  44  69  93 127 174 219 268 334 399
#     4  11  24  44  67  93 129 169 217 275 331 389
#     4  10  21  41  68  94 126 167 210 260 325 388
#     4  12  25  39  68 100 133 172 223 273 321 395
#
# _framework density 21.644984000000001
#
# number of rings (size 3 to 8) (size 9 to 14) (size 15 to 20)
#    0.000    1.000    3.750    2.250    1.750    6.250 
#    0.000    2.500    0.000    0.000    0.000    0.000 
#    0.000    0.000    0.000    0.000    0.000    0.000 
#
# Total GULP energy -179032.761923 kJ/mol
# GULP energy per Si atom -5594.773810 kJ/mol
# Density = 2.159572 g / cm^3
# Si number density = 21.644984 Si / 1000 Ang^3
#
#
#
# Elastic Constant Matrix: (Units=GPa)
#
#
# Indices 1 2 3 4 5 6 
#
# 1 92.6793 18.6972 13.6243 0.0000 -3.6806 0.0000
# 2 18.6972 93.8609 19.8789 0.0000 -9.4649 0.0000
# 3 13.6243 19.8789 58.4916 0.0000 -1.7485 0.0000
# 4 0.0000 0.0000 0.0000 -36.0673 0.0000 28.6863
# 5 -3.6806 -9.4649 -1.7485 0.0000 50.7422 0.0000
# 6 0.0000 0.0000 0.0000 28.6863 0.0000 13.0283
#
#
#
# Elastic Compliance Matrix: (Units=1/GPa)
#
#
# Indices 1 2 3 4 5 6 
#
# 1 0.011472 -0.001810 -0.002045 0.000000 0.000424 0.000000
# 2 -0.001810 0.011974 -0.003589 0.000000 0.001979 0.000000
# 3 -0.002045 -0.003589 0.018787 0.000000 -0.000170 0.000000
# 4 0.000000 0.000000 0.000000 -0.010078 0.000000 0.022189
# 5 0.000424 0.001979 -0.000170 0.000000 0.020101 0.000000
# 6 0.000000 0.000000 0.000000 0.022189 0.000000 0.027899
#
#
# Mechanical properties :
#
#
# Convention : Reuss Voigt Hill
#
# Bulk Modulus (GPa) = 36.56591 38.82586 37.69588
# Shear Modulus (GPa) = 48.00388 18.39605 33.19997
#
# Velocity S-wave (km/s) = 4.71444 2.91847 3.92068
# Velocity P-wave (km/s) = 6.82384 5.41600 6.16027
#
# Compressibility (1/GPa) = 0.02734788
#
# Stress axis : x y z
#
# Youngs Moduli (GPa) = 87.16609 83.51326 53.22730
#
# Poissons Ratio (x) = 0.15112 0.10883
# Poissons Ratio (y) = 0.15773 0.19103
# Poissons Ratio (z) = 0.17822 0.29972
#
# Static dielectric constant tensor:
#      x y z
#    x 1.775210 0.000000 0.006550 
#    y 0.000000 1.794590 0.000000 
#    z 0.006550 0.000000 1.774230 
# 
# From -- ./inp_files/372584.got.cif
#   From: 2010.05.17/outbox.cif.g08.bks.cpg/sg12_187_cif.got.tgz:372584.got - 2010.06.03 13:09:07.
