data_PCOD9212943
_publ_section_title
;
Structure prediction by ZEFSAII (Michael W. Deem and Ramdas Pophale) SiO2 
 PCOD9212943
Probable space group: C 2/M
;
_chemical_formula_sum "Si O2"
_cell_formula_units_Z 56
_cell_length_a 9.673489
_cell_length_b 18.091873
_cell_length_c 28.879092
_cell_angle_alpha 90.000000
_cell_angle_beta 143.966185
_cell_angle_gamma 90.000000
_cell_volume 2973.181750
_symmetry_space_group_name_H-M "C 2/M"
_symmetry_group_IT_number 12
_symmetry_cell_setting 'monoclinic'
loop_
_space_group_symop_operation_xyz
x,y,z
-x,y,-z
-x,-y,-z
x,-y,z
1/2+x,1/2+y,z
1/2-x,1/2+y,-z
1/2-x,1/2-y,-z
1/2+x,1/2-y,z
loop_
_atom_site_type_symbol
_atom_site_label
_atom_site_fract_x
_atom_site_fract_y
_atom_site_fract_z
Si Si1 0.460807 0.790486 0.586343
Si Si2 0.676609 0.637955 0.675688
Si Si3 0.797385 0.417769 0.406414
Si Si4 0.791755 0.081277 0.981948
Si Si5 0.746672 0.917479 0.406435
Si Si6 0.946746 0.311572 0.150169
Si Si7 0.480456 0.292808 0.082185
O O1 0.250000 0.750000 0.500000
O O2 0.602394 0.721737 0.644206
O O3 0.624405 0.845848 0.601191
O O4 0.368566 0.845915 0.600962
O O5 0.454778 0.597872 0.639174
O O6 0.731891 0.597618 0.642380
O O7 0.892429 0.647747 0.769032
O O8 0.794270 0.500000 0.383086
O O9 0.000000 0.421456 0.500000
O O10 0.600564 0.130360 0.903919
O O11 0.707801 0.000000 0.969873
O O12 0.897442 0.122654 0.055048
O O13 0.000000 0.077635 0.000000
O O14 0.000000 0.920149 0.500000
O O15 0.641243 0.000000 0.385276
O O16 0.702757 0.287152 0.108233
O O17 0.043353 0.239874 0.149170
O O18 0.250000 0.250000 0.000000
#
# Coordination Sequence:
#
# PCOD9212943 Si02
#       7
#     8   8   8   8   8   8   8
#     4  12  23  39  62  86 116 156 211 263 309 367
#     4  12  25  37  62  91 123 158 208 264 313 363
#     4  11  23  41  61  84 116 163 210 258 318 377
#     4   8  15  32  59  86 112 147 189 229 274 349
#     4  11  23  41  61  85 117 160 208 259 311 366
#     4  10  22  35  59  89 124 151 191 245 310 351
#     4   9  18  37  61  89 115 154 193 234 287 371
#
# _framework density 18.835041
#
# number of rings (size 3 to 8) (size 9 to 14) (size 15 to 20)
#    0.000    1.571    2.857    3.000    4.000    3.429 
#    0.000    0.000    0.000    6.857    0.000    0.000 
#    0.000    0.000    0.000    0.000    0.000    0.000 
#
# Total GULP energy -155987.747911 kJ/mol
# GULP energy per Si atom -5570.990997 kJ/mol
# Density = 1.879217 g / cm^3
# Si number density = 18.835041 Si / 1000 Ang^3
#
#
#
# Elastic Constant Matrix: (Units=GPa)
#
#
# Indices 1 2 3 4 5 6 
#
# 1 81.7564 34.7971 17.9155 -0.0001 -3.5341 -0.0001
# 2 34.7971 135.6483 20.6928 -0.0001 -8.4311 0.0000
# 3 17.9155 20.6928 59.2587 -0.0001 -13.4573 -0.0001
# 4 -0.0001 -0.0001 -0.0001 -30.3411 -0.0001 -14.7801
# 5 -3.5341 -8.4311 -13.4573 -0.0001 23.0277 -0.0001
# 6 -0.0001 0.0000 -0.0001 -14.7801 -0.0001 6.3484
#
#
#
# Elastic Compliance Matrix: (Units=1/GPa)
#
#
# Indices 1 2 3 4 5 6 
#
# 1 0.014305 -0.003208 -0.003428 0.000000 -0.000982 0.000000
# 2 -0.003208 0.008549 -0.001633 0.000000 0.001683 0.000000
# 3 -0.003428 -0.001633 0.021016 0.000000 0.011157 0.000000
# 4 0.000000 0.000000 0.000000 -0.015444 0.000000 -0.035955
# 5 -0.000982 0.001683 0.011157 0.000000 0.050412 0.000000
# 6 0.000000 0.000000 0.000000 -0.035955 0.000000 0.073810
#
#
# Mechanical properties :
#
#
# Convention : Reuss Voigt Hill
#
# Bulk Modulus (GPa) = 36.58691 47.05269 41.81980
# Shear Modulus (GPa) = 28.04322 13.35754 20.70038
#
# Velocity S-wave (km/s) = 3.86279 2.66594 3.31877
# Velocity P-wave (km/s) = 6.27391 5.87469 6.07758
#
# Compressibility (1/GPa) = 0.02733218
#
# Stress axis : x y z
#
# Youngs Moduli (GPa) = 69.90337 116.97777 47.58381
#
# Poissons Ratio (x) = 0.37525 0.16311
# Poissons Ratio (y) = 0.22424 0.07771
# Poissons Ratio (z) = 0.23962 0.19103
#
# Static dielectric constant tensor:
#      x y z
#    x 1.679830 0.000000 -0.008860 
#    y 0.000000 1.689820 0.000000 
#    z -0.008860 0.000000 1.702170 
# 
# From -- ./inp_files/356753.got.cif
#   From: 2010.05.17/outbox.cif.g08.bks.cpg/sg12_179_cif.got.tgz:356753.got - 2010.06.03 13:09:07.
