data_PCOD9212572
_publ_section_title
;
Structure prediction by ZEFSAII (Michael W. Deem and Ramdas Pophale) SiO2 
 PCOD9212572
Probable space group: C 2/M
;
_chemical_formula_sum "Si O2"
_cell_formula_units_Z 56
_cell_length_a 17.649164
_cell_length_b 21.345432
_cell_length_c 14.282788
_cell_angle_alpha 90.000000
_cell_angle_beta 29.402643
_cell_angle_gamma 90.000000
_cell_volume 2641.642130
_symmetry_space_group_name_H-M "C 2/M"
_symmetry_group_IT_number 12
_symmetry_cell_setting 'monoclinic'
loop_
_space_group_symop_operation_xyz
x,y,z
-x,y,-z
-x,-y,-z
x,-y,z
1/2+x,1/2+y,z
1/2-x,1/2+y,-z
1/2-x,1/2-y,-z
1/2+x,1/2-y,z
loop_
_atom_site_type_symbol
_atom_site_label
_atom_site_fract_x
_atom_site_fract_y
_atom_site_fract_z
Si Si1 0.176231 0.569850 0.484649
Si Si2 0.791419 0.811261 0.015748
Si Si3 0.197343 0.288743 0.648451
Si Si4 0.868389 0.071117 0.708219
Si Si5 0.929309 0.374769 0.883737
Si Si6 0.070196 0.111996 0.655086
Si Si7 0.672673 0.810443 0.348917
O O1 0.156687 0.500000 0.466143
O O2 0.342580 0.577194 0.355474
O O3 0.162225 0.626371 0.424098
O O4 0.056420 0.579457 0.700541
O O5 0.670524 0.858824 0.100111
O O6 0.766761 0.813834 0.151961
O O7 0.750000 0.750000 0.000000
O O8 0.962803 0.833006 0.809956
O O9 0.250000 0.250000 0.500000
O O10 0.300033 0.351656 0.543866
O O11 0.243565 0.243020 0.681516
O O12 0.024346 0.315188 0.821291
O O13 0.000000 0.101048 0.500000
O O14 0.957527 0.071824 0.711663
O O15 0.842063 0.000000 0.704082
O O16 0.700838 0.102335 0.902871
O O17 0.500000 0.793446 0.500000
#
# Coordination Sequence:
#
# PCOD9212572 Si02
#       7
#     8   8   8   8   8   8   8
#     4  11  23  42  67  96 138 183 233 286 340 411
#     4  11  23  40  63  95 134 174 220 283 348 411
#     4  11  20  41  67  96 139 173 219 290 346 412
#     4  10  22  42  67  98 140 182 234 289 338 411
#     4  10  21  42  68 100 133 178 228 279 347 414
#     4  10  22  40  63  92 135 180 228 275 351 410
#     4  12  23  41  68  99 138 182 230 285 351 420
#
# _framework density 21.198934999999999
#
# number of rings (size 3 to 8) (size 9 to 14) (size 15 to 20)
#    0.000    1.286    4.286    2.571    0.000    3.714 
#    0.000    9.286    0.000    7.714    0.000    0.000 
#    0.000    0.000    0.000    0.000    0.000    0.000 
#
# Total GULP energy -156161.277433 kJ/mol
# GULP energy per Si atom -5577.188480 kJ/mol
# Density = 2.115068 g / cm^3
# Si number density = 21.198935 Si / 1000 Ang^3
#
#
#
# Elastic Constant Matrix: (Units=GPa)
#
#
# Indices 1 2 3 4 5 6 
#
# 1 97.0922 30.5512 52.6782 0.0021 -8.0766 -0.0009
# 2 30.5512 93.2265 41.2931 -0.0016 0.7224 -0.0079
# 3 52.6782 41.2931 133.6867 -0.0106 -3.4464 -0.0068
# 4 0.0021 -0.0016 -0.0106 25.4849 0.0044 2.5032
# 5 -8.0766 0.7224 -3.4464 0.0044 38.0310 0.0012
# 6 -0.0009 -0.0079 -0.0068 2.5032 0.0012 2.8518
#
#
#
# Elastic Compliance Matrix: (Units=1/GPa)
#
#
# Indices 1 2 3 4 5 6 
#
# 1 0.013794 -0.002505 -0.004596 -0.000002 0.002561 -0.000013
# 2 -0.002505 0.012894 -0.003023 -0.000003 -0.001051 0.000031
# 3 -0.004596 -0.003023 0.010225 0.000003 0.000008 0.000012
# 4 -0.000002 -0.000003 0.000003 0.042941 -0.000004 -0.037693
# 5 0.002561 -0.001051 0.000008 -0.000004 0.026859 -0.000010
# 6 -0.000013 0.000031 0.000012 -0.037693 -0.000010 0.383747
#
#
# Mechanical properties :
#
#
# Convention : Reuss Voigt Hill
#
# Bulk Modulus (GPa) = 59.99975 63.67226 61.83601
# Shear Modulus (GPa) = 9.68499 26.57241 18.12870
#
# Velocity S-wave (km/s) = 2.13975 3.54429 2.92750
# Velocity P-wave (km/s) = 5.87106 6.84472 6.37650
#
# Compressibility (1/GPa) = 0.01666674
#
# Stress axis : x y z
#
# Youngs Moduli (GPa) = 72.49475 77.55255 97.79893
#
# Poissons Ratio (x) = 0.19424 0.44947
# Poissons Ratio (y) = 0.18157 0.29564
# Poissons Ratio (z) = 0.33317 0.23444
#
# Static dielectric constant tensor:
#      x y z
#    x 1.703270 0.000010 -0.140160 
#    y 0.000010 1.818130 0.000020 
#    z -0.140160 0.000020 1.515330 
# 
# From -- ./inp_files/227574.got.cif
#   From: 2010.05.17/outbox.cif.g08.bks.cpg/sg12_114_cif.got.tgz:227574.got - 2010.06.03 13:09:07.
