data_PCOD9212817
_publ_section_title
;
Structure prediction by ZEFSAII (Michael W. Deem and Ramdas Pophale) SiO2 
 PCOD9212817
Probable space group: C 2/M
;
_chemical_formula_sum "Si O2"
_cell_formula_units_Z 42
_cell_length_a 17.740488
_cell_length_b 16.744034
_cell_length_c 8.921144
_cell_angle_alpha 90.000000
_cell_angle_beta 119.794871
_cell_angle_gamma 90.000000
_cell_volume 2299.698109
_symmetry_space_group_name_H-M "C 2/M"
_symmetry_group_IT_number 12
_symmetry_cell_setting 'monoclinic'
loop_
_space_group_symop_operation_xyz
x,y,z
-x,y,-z
-x,-y,-z
x,-y,z
1/2+x,1/2+y,z
1/2-x,1/2+y,-z
1/2-x,1/2-y,-z
1/2+x,1/2-y,z
loop_
_atom_site_type_symbol
_atom_site_label
_atom_site_fract_x
_atom_site_fract_y
_atom_site_fract_z
Si Si1 0.924421 0.249663 0.323282
Si Si2 0.515978 0.910632 0.767381
Si Si3 0.585379 0.333821 0.005922
Si Si4 0.755618 0.252762 0.684617
Si Si5 0.144235 0.411406 0.179816
Si Si6 0.500000 0.500000 0.000000
O O1 0.958737 0.336618 0.308452
O O2 0.836714 0.260653 0.329759
O O3 0.000000 0.211718 0.500000
O O4 0.909123 0.198419 0.157720
O O5 0.420144 0.900216 0.742609
O O6 0.521689 0.000000 0.706844
O O7 0.582453 0.909021 0.973434
O O8 0.670999 0.307300 0.180082
O O9 0.564480 0.427727 0.999471
O O10 0.500000 0.293599 0.000000
O O11 0.750000 0.250000 0.500000
O O12 0.787770 0.341075 0.760270
O O13 0.183185 0.500000 0.227897
#
# Coordination Sequence:
#
# PCOD9212817 Si02
#       6
#     8   8   8   8   8   2
#     4  12  24  39  63  95 125 170 213 263 324 384
#     4   9  18  35  61  89 122 159 196 251 314 373
#     4  10  21  45  66  91 127 163 214 262 326 391
#     4  12  24  40  63  94 125 174 216 263 323 384
#     4   9  18  36  60  90 121 157 201 254 317 371
#     4   8  24  44  74  92 124 176 206 272 348 368
#
# _framework density 18.263266999999999
#
# number of rings (size 3 to 8) (size 9 to 14) (size 15 to 20)
#    0.571    1.143    1.905    5.143    0.000    0.381 
#    5.143    0.476    0.000    0.000    0.000    0.000 
#    0.000    0.000    0.000    0.000    0.000    0.000 
#
# Total GULP energy -116905.282953 kJ/mol
# GULP energy per Si atom -5566.918236 kJ/mol
# Density = 1.822170 g / cm^3
# Si number density = 18.263267 Si / 1000 Ang^3
#
#
#
# Elastic Constant Matrix: (Units=GPa)
#
#
# Indices 1 2 3 4 5 6 
#
# 1 85.2676 20.2993 46.2217 0.0000 -7.4695 0.0000
# 2 20.2993 120.1694 31.6957 0.0000 -8.0725 0.0000
# 3 46.2217 31.6957 114.7345 0.0000 -7.0400 0.0000
# 4 0.0000 0.0000 0.0000 6.8881 0.0000 -1.2787
# 5 -7.4695 -8.0725 -7.0400 0.0000 26.3874 0.0000
# 6 0.0000 0.0000 0.0000 -1.2787 0.0000 21.4970
#
#
#
# Elastic Compliance Matrix: (Units=1/GPa)
#
#
# Indices 1 2 3 4 5 6 
#
# 1 0.015280 -0.000894 -0.005754 0.000000 0.002517 0.000000
# 2 -0.000894 0.009146 -0.002044 0.000000 0.002000 0.000000
# 3 -0.005754 -0.002044 0.011651 0.000000 0.000854 0.000000
# 4 0.000000 0.000000 0.000000 0.146800 0.000000 0.008732
# 5 0.002517 0.002000 0.000854 0.000000 0.039449 0.000000
# 6 0.000000 0.000000 0.000000 0.008732 0.000000 0.047038
#
#
# Mechanical properties :
#
#
# Convention : Reuss Voigt Hill
#
# Bulk Modulus (GPa) = 53.49682 57.40054 55.44868
# Shear Modulus (GPa) = 17.06605 25.75148 21.40877
#
# Velocity S-wave (km/s) = 3.06019 3.75909 3.42750
# Velocity P-wave (km/s) = 6.46854 7.09498 6.78899
#
# Compressibility (1/GPa) = 0.01869270
#
# Stress axis : x y z
#
# Youngs Moduli (GPa) = 65.44299 109.33733 85.83001
#
# Poissons Ratio (x) = 0.09779 0.49390
# Poissons Ratio (y) = 0.05853 0.17540
# Poissons Ratio (z) = 0.37658 0.22344
#
# Static dielectric constant tensor:
#      x y z
#    x 1.605080 0.000000 -0.018520 
#    y 0.000000 1.625860 0.000000 
#    z -0.018520 0.000000 1.646360 
# 
# From -- ./inp_files/61311.got.cif
#   From: 2010.05.17/outbox.cif.g08.bks.cpg/sg12_31_cif.got.tgz:61311.got - 2010.06.03 13:09:07.
