data_PCOD9212451
_publ_section_title
;
Structure prediction by ZEFSAII (Michael W. Deem and Ramdas Pophale) SiO2 
 PCOD9212451
Probable space group: C 2/M
;
_chemical_formula_sum "Si O2"
_cell_formula_units_Z 60
_cell_length_a 11.803449
_cell_length_b 17.104521
_cell_length_c 14.912563
_cell_angle_alpha 90.000000
_cell_angle_beta 68.170841
_cell_angle_gamma 90.000000
_cell_volume 2794.852850
_symmetry_space_group_name_H-M "C 2/M"
_symmetry_group_IT_number 12
_symmetry_cell_setting 'monoclinic'
loop_
_space_group_symop_operation_xyz
x,y,z
-x,y,-z
-x,-y,-z
x,-y,z
1/2+x,1/2+y,z
1/2-x,1/2+y,-z
1/2-x,1/2-y,-z
1/2+x,1/2-y,z
loop_
_atom_site_type_symbol
_atom_site_label
_atom_site_fract_x
_atom_site_fract_y
_atom_site_fract_z
Si Si1 0.331071 0.589103 0.252216
Si Si2 0.507570 0.276073 0.251727
Si Si3 0.857418 0.159598 0.051861
Si Si4 0.893656 0.785411 0.588653
Si Si5 0.338627 0.864648 0.254137
Si Si6 0.144008 0.617788 0.458135
Si Si7 0.650841 0.000000 0.613086
Si Si8 0.740187 0.169918 0.909046
O O1 0.373708 0.500000 0.230844
O O2 0.428805 0.644459 0.273315
O O3 0.312589 0.626948 0.160099
O O4 0.210241 0.591178 0.348114
O O5 0.540132 0.250917 0.342630
O O6 0.428031 0.209189 0.230091
O O7 0.631399 0.293772 0.163041
O O8 0.844455 0.253915 0.053166
O O9 0.774621 0.130875 0.993191
O O10 0.000000 0.138322 0.000000
O O11 0.787900 0.837496 0.661204
O O12 0.843841 0.711861 0.546513
O O13 0.000000 0.826242 0.500000
O O14 0.386590 0.932759 0.302004
O O15 0.309331 0.881584 0.158567
O O16 0.191381 0.568897 0.528055
O O17 0.000000 0.599403 0.500000
#
# Coordination Sequence:
#
# PCOD9212451 Si02
#       8
#     8   8   8   8   8   8   4   8
#     4  12  24  40  66  98 139 171 221 279 341 392
#     4  11  21  42  65  95 130 176 219 277 329 397
#     4  11  21  42  69 106 126 173 227 280 332 394
#     4  10  22  36  64  89 120 174 231 272 317 394
#     4  11  22  42  61  95 131 176 222 272 339 397
#     4  11  23  44  64  96 128 176 236 275 325 388
#     4  12  27  38  65  94 137 178 214 285 337 386
#     4  10  21  41  72  95 132 172 227 272 330 407
#
# _framework density 21.468036000000001
#
# number of rings (size 3 to 8) (size 9 to 14) (size 15 to 20)
#    0.000    1.067    4.667    2.600    1.867    1.333 
#    6.000    0.333    0.000    0.000    0.000    3.267 
#    0.000    0.000    0.000    0.000    0.000    0.000 
#
# Total GULP energy -167074.762699 kJ/mol
# GULP energy per Si atom -5569.158757 kJ/mol
# Density = 2.141917 g / cm^3
# Si number density = 21.468036 Si / 1000 Ang^3
#
#
#
# Elastic Constant Matrix: (Units=GPa)
#
#
# Indices 1 2 3 4 5 6 
#
# 1 53.0682 8.4426 27.4041 0.0000 9.2700 0.0000
# 2 8.4426 73.0609 9.1555 0.0000 17.5121 0.0000
# 3 27.4041 9.1555 112.2374 0.0000 20.4171 0.0000
# 4 0.0000 0.0000 0.0000 6.3944 0.0000 -3.7941
# 5 9.2700 17.5121 20.4171 0.0000 35.8066 0.0000
# 6 0.0000 0.0000 0.0000 -3.7941 0.0000 -8.4922
#
#
#
# Elastic Compliance Matrix: (Units=1/GPa)
#
#
# Indices 1 2 3 4 5 6 
#
# 1 0.021956 -0.001393 -0.004839 0.000000 -0.002244 0.000000
# 2 -0.001393 0.015595 0.000435 0.000000 -0.007514 0.000000
# 3 -0.004839 0.000435 0.011008 0.000000 -0.005237 0.000000
# 4 0.000000 0.000000 0.000000 0.123618 0.000000 -0.055229
# 5 -0.002244 -0.007514 -0.005237 0.000000 0.035170 0.000000
# 6 0.000000 0.000000 0.000000 -0.055229 0.000000 -0.093080
#
#
# Mechanical properties :
#
#
# Convention : Reuss Voigt Hill
#
# Bulk Modulus (GPa) = 27.05253 36.48566 31.76910
# Shear Modulus (GPa) = 36.18393 19.63270 27.90831
#
# Velocity S-wave (km/s) = 4.10991 3.02736 3.60945
# Velocity P-wave (km/s) = 5.92879 5.40853 5.67462
#
# Compressibility (1/GPa) = 0.03696512
#
# Stress axis : x y z
#
# Youngs Moduli (GPa) = 45.54552 64.12386 90.83996
#
# Poissons Ratio (x) = 0.08932 0.43958
# Poissons Ratio (y) = 0.06344 -0.03951
# Poissons Ratio (z) = 0.22040 -0.02789
#
# Static dielectric constant tensor:
#      x y z
#    x 1.835820 0.000000 0.020530 
#    y 0.000000 1.751920 0.000000 
#    z 0.020530 0.000000 1.796450 
# 
# From -- ./inp_files/206642.got.cif
#   From: 2010.05.17/outbox.cif.g08.bks.cpg/sg12_104_cif.got.tgz:206642.got - 2010.06.03 13:09:07.
