data_PCOD9212186
_publ_section_title
;
Structure prediction by ZEFSAII (Michael W. Deem and Ramdas Pophale) SiO2 
 PCOD9212186
Probable space group: C 2/M
;
_chemical_formula_sum "Si O2"
_cell_formula_units_Z 58
_cell_length_a 11.830637
_cell_length_b 18.339992
_cell_length_c 27.339506
_cell_angle_alpha 90.000000
_cell_angle_beta 147.205465
_cell_angle_gamma 90.000000
_cell_volume 3212.913754
_symmetry_space_group_name_H-M "C 2/M"
_symmetry_group_IT_number 12
_symmetry_cell_setting 'monoclinic'
loop_
_space_group_symop_operation_xyz
x,y,z
-x,y,-z
-x,-y,-z
x,-y,z
1/2+x,1/2+y,z
1/2-x,1/2+y,-z
1/2-x,1/2-y,-z
1/2+x,1/2-y,z
loop_
_atom_site_type_symbol
_atom_site_label
_atom_site_fract_x
_atom_site_fract_y
_atom_site_fract_z
Si Si1 0.019891 0.653850 0.773056
Si Si2 0.587681 0.146384 0.085142
Si Si3 0.760888 0.087568 0.413583
Si Si4 0.966853 0.182369 0.786906
Si Si5 0.500000 0.000000 0.500000
Si Si6 0.016086 0.811480 0.091444
Si Si7 0.071070 0.580470 0.626169
Si Si8 0.331407 0.082304 0.075879
O O1 0.248672 0.662744 0.832726
O O2 0.053474 0.603485 0.832387
O O3 0.864555 0.621316 0.677017
O O4 0.946350 0.733480 0.763974
O O5 0.508580 0.227651 0.071273
O O6 0.496061 0.092715 0.092000
O O7 0.837306 0.149787 0.171663
O O8 0.500000 0.128358 0.000000
O O9 0.631760 0.103309 0.416324
O O10 0.000000 0.113308 0.500000
O O11 0.764573 0.000000 0.409659
O O12 0.023529 0.181745 0.865128
O O13 0.758347 0.136769 0.701415
O O14 0.519705 0.062598 0.551072
O O15 0.854401 0.860706 0.002559
O O16 0.137839 0.500000 0.670860
O O17 0.251135 0.000000 0.048192
#
# Coordination Sequence:
#
# PCOD9212186 Si02
#       8
#     8   8   8   8   2   8   8   8
#     4  11  23  40  63  92 123 159 208 261 302 368
#     4  11  22  39  59  84 124 172 209 251 306 362
#     4  10  21  41  65  90 121 160 203 250 315 369
#     4  11  21  39  67  89 123 164 208 250 307 370
#     4   8  20  44  66  96 118 154 202 256 310 364
#     4  11  21  40  65  84 122 168 212 255 303 362
#     4   9  20  42  67  90 119 156 203 249 303 373
#     4  12  25  39  57  92 128 166 209 258 309 360
#
# _framework density 18.052150999999999
#
# number of rings (size 3 to 8) (size 9 to 14) (size 15 to 20)
#    0.414    0.966    4.138    2.897    0.000    3.034 
#    3.724    0.690    0.000    0.000    0.000    0.000 
#    0.000    0.000    0.000    0.000    0.000    0.000 
#
# Total GULP energy -161639.200175 kJ/mol
# GULP energy per Si atom -5573.765523 kJ/mol
# Density = 1.801106 g / cm^3
# Si number density = 18.052151 Si / 1000 Ang^3
#
#
#
# Elastic Constant Matrix: (Units=GPa)
#
#
# Indices 1 2 3 4 5 6 
#
# 1 95.4147 38.4754 67.3473 0.0000 -1.3480 0.0000
# 2 38.4754 50.5322 34.4407 0.0000 10.7695 0.0000
# 3 67.3473 34.4407 115.1229 0.0001 -8.3721 0.0000
# 4 0.0000 0.0000 0.0001 31.2428 0.0000 3.9328
# 5 -1.3480 10.7695 -8.3721 0.0000 34.1451 0.0000
# 6 0.0000 0.0000 0.0000 3.9328 0.0000 10.4702
#
#
#
# Elastic Compliance Matrix: (Units=1/GPa)
#
#
# Indices 1 2 3 4 5 6 
#
# 1 0.021074 -0.010196 -0.009146 0.000000 0.001805 0.000000
# 2 -0.010196 0.033526 -0.004951 0.000000 -0.012191 0.000000
# 3 -0.009146 -0.004951 0.015889 0.000000 0.005096 0.000000
# 4 0.000000 0.000000 0.000000 0.033596 0.000000 -0.012619
# 5 0.001805 -0.012191 0.005096 0.000000 0.034453 0.000000
# 6 0.000000 0.000000 0.000000 -0.012619 0.000000 0.100249
#
#
# Mechanical properties :
#
#
# Convention : Reuss Voigt Hill
#
# Bulk Modulus (GPa) = 45.66233 60.17742 52.91987
# Shear Modulus (GPa) = 16.96791 23.22540 20.09665
#
# Velocity S-wave (km/s) = 3.06917 3.59077 3.34017
# Velocity P-wave (km/s) = 6.15705 7.11331 6.65239
#
# Compressibility (1/GPa) = 0.02189989
#
# Stress axis : x y z
#
# Youngs Moduli (GPa) = 47.45260 29.82788 62.93681
#
# Poissons Ratio (x) = 0.30414 0.57565
# Poissons Ratio (y) = 0.48385 0.31162
# Poissons Ratio (z) = 0.43402 0.14769
#
# Static dielectric constant tensor:
#      x y z
#    x 1.639340 0.000000 0.016760 
#    y 0.000000 1.613870 0.000000 
#    z 0.016760 0.000000 1.585810 
# 
# From -- ./inp_files/358821.got.cif
#   From: 2010.05.17/outbox.cif.g08.bks.cpg/sg12_180_cif.got.tgz:358821.got - 2010.06.03 13:09:07.
