data_PCOD9212102
_publ_section_title
;
Structure prediction by ZEFSAII (Michael W. Deem and Ramdas Pophale) SiO2 
 PCOD9212102
Probable space group: C 2/M
;
_chemical_formula_sum "Si O2"
_cell_formula_units_Z 48
_cell_length_a 14.991633
_cell_length_b 24.759332
_cell_length_c 6.864441
_cell_angle_alpha 90.000000
_cell_angle_beta 102.167773
_cell_angle_gamma 90.000000
_cell_volume 2490.721568
_symmetry_space_group_name_H-M "C 2/M"
_symmetry_group_IT_number 12
_symmetry_cell_setting 'monoclinic'
loop_
_space_group_symop_operation_xyz
x,y,z
-x,y,-z
-x,-y,-z
x,-y,z
1/2+x,1/2+y,z
1/2-x,1/2+y,-z
1/2-x,1/2-y,-z
1/2+x,1/2-y,z
loop_
_atom_site_type_symbol
_atom_site_label
_atom_site_fract_x
_atom_site_fract_y
_atom_site_fract_z
Si Si1 0.289546 0.937676 0.694968
Si Si2 0.664040 0.765861 0.325558
Si Si3 0.395949 0.136333 0.449951
Si Si4 0.101095 0.844366 0.130527
Si Si5 0.790535 0.654156 0.000391
Si Si6 0.593888 0.561672 0.433777
O O1 0.333773 0.908639 0.527338
O O2 0.311883 0.899893 0.887874
O O3 0.180352 0.936288 0.616396
O O4 0.317956 0.000000 0.726607
O O5 0.750000 0.750000 0.500000
O O6 0.607766 0.810057 0.419023
O O7 0.612014 0.711003 0.255133
O O8 0.692043 0.795600 0.136974
O O9 0.500000 0.117165 0.500000
O O10 0.353108 0.152333 0.221956
O O11 0.112157 0.895866 0.273765
O O12 0.184914 0.844810 0.017487
O O13 0.000000 0.846421 0.000000
O O14 0.500000 0.574838 0.500000
O O15 0.586785 0.500000 0.356459
#
# Coordination Sequence:
#
# PCOD9212102 Si02
#       6
#     8   8   8   8   8   8
#     4  10  22  42  67  94 127 167 215 268 324 388
#     4  11  24  42  63  90 133 170 212 271 319 381
#     4  11  25  42  66  91 128 173 215 267 330 379
#     4  12  24  37  64  98 126 166 217 260 317 392
#     4  11  23  43  63  92 131 167 211 270 326 379
#     4  10  21  41  63  91 133 170 207 264 325 383
#
# _framework density 19.271525
#
# number of rings (size 3 to 8) (size 9 to 14) (size 15 to 20)
#    0.000    1.167    3.333    2.500    2.333    4.667 
#    0.000    0.833    0.000    0.000    0.000    0.000 
#    0.000    0.000    0.000    0.000    0.000    0.000 
#
# Total GULP energy -134087.966317 kJ/mol
# GULP energy per Si atom -5586.998597 kJ/mol
# Density = 1.922766 g / cm^3
# Si number density = 19.271525 Si / 1000 Ang^3
#
#
#
# Elastic Constant Matrix: (Units=GPa)
#
#
# Indices 1 2 3 4 5 6 
#
# 1 91.6451 5.8461 31.2068 0.0000 -4.0146 0.0000
# 2 5.8461 89.3260 41.6648 0.0000 -9.2930 0.0000
# 3 31.2068 41.6648 111.7798 0.0000 -2.2875 0.0000
# 4 0.0000 0.0000 0.0000 28.2449 0.0000 67.0739
# 5 -4.0146 -9.2930 -2.2875 0.0000 17.6278 0.0000
# 6 0.0000 0.0000 0.0000 67.0739 0.0000 794.0612
#
#
#
# Elastic Compliance Matrix: (Units=1/GPa)
#
#
# Indices 1 2 3 4 5 6 
#
# 1 0.012270 0.001303 -0.003850 0.000000 0.002982 0.000000
# 2 0.001303 0.014477 -0.005612 0.000000 0.007200 0.000000
# 3 -0.003850 -0.005612 0.012067 0.000000 -0.002270 0.000000
# 4 0.000000 0.000000 0.000000 0.044289 0.000000 -0.003741
# 5 0.002982 0.007200 -0.002270 0.000000 0.060909 0.000000
# 6 0.000000 0.000000 0.000000 -0.003741 0.000000 0.001575
#
#
# Mechanical properties :
#
#
# Convention : Reuss Voigt Hill
#
# Bulk Modulus (GPa) = 44.45610 50.02070 47.23840
# Shear Modulus (GPa) = 29.51532 182.25567 105.88550
#
# Velocity S-wave (km/s) = 3.91775 9.73539 7.42046
# Velocity P-wave (km/s) = 6.60177 12.34433 9.89863
#
# Compressibility (1/GPa) = 0.02249410
#
# Stress axis : x y z
#
# Youngs Moduli (GPa) = 81.49787 69.07716 82.87324
#
# Poissons Ratio (x) = -0.09001 0.31909
# Poissons Ratio (y) = -0.10620 0.46512
# Poissons Ratio (z) = 0.31379 0.38769
#
# Static dielectric constant tensor:
#      x y z
#    x 1.692750 0.000000 -0.000560 
#    y 0.000000 1.645530 0.000000 
#    z -0.000560 0.000000 1.671910 
# 
# From -- ./inp_files/12383.got.cif
#   From: 2010.05.17/outbox.cif.g08.bks.cpg/sg12_7_cif.got.tgz:12383.got - 2010.06.03 13:09:07.
