data_PCOD9212696
_publ_section_title
;
Structure prediction by ZEFSAII (Michael W. Deem and Ramdas Pophale) SiO2 
 PCOD9212696
Probable space group: C 2/M
;
_chemical_formula_sum "Si O2"
_cell_formula_units_Z 50
_cell_length_a 15.557115
_cell_length_b 22.920164
_cell_length_c 12.362671
_cell_angle_alpha 90.000000
_cell_angle_beta 33.642670
_cell_angle_gamma 90.000000
_cell_volume 2442.182024
_symmetry_space_group_name_H-M "C 2/M"
_symmetry_group_IT_number 12
_symmetry_cell_setting 'monoclinic'
loop_
_space_group_symop_operation_xyz
x,y,z
-x,y,-z
-x,-y,-z
x,-y,z
1/2+x,1/2+y,z
1/2-x,1/2+y,-z
1/2-x,1/2-y,-z
1/2+x,1/2-y,z
loop_
_atom_site_type_symbol
_atom_site_label
_atom_site_fract_x
_atom_site_fract_y
_atom_site_fract_z
Si Si1 0.500000 0.500000 0.500000
Si Si2 0.650766 0.176399 0.769714
Si Si3 0.937767 0.107933 0.410186
Si Si4 0.840553 0.213944 0.762495
Si Si5 0.544912 0.185695 0.221780
Si Si6 0.579434 0.066569 0.299231
Si Si7 0.548724 0.431166 0.067353
O O1 0.493762 0.550722 0.412590
O O2 0.760395 0.121898 0.626635
O O3 0.755456 0.217253 0.736335
O O4 0.590286 0.202544 0.720465
O O5 0.500000 0.160272 0.000000
O O6 0.040444 0.161332 0.345890
O O7 0.966143 0.101233 0.252672
O O8 0.928445 0.272436 0.704601
O O9 0.702373 0.196311 0.989185
O O10 0.525854 0.118822 0.277877
O O11 0.500000 0.072459 0.500000
O O12 0.547322 0.000000 0.294443
O O13 0.765469 0.073062 0.115261
O O14 0.506803 0.500000 0.116827
O O15 0.500000 0.409261 0.000000
#
# Coordination Sequence:
#
# PCOD9212696 Si02
#       7
#     2   8   8   8   8   8   8
#     4  12  24  40  72 100 130 186 224 268 340 406
#     4  10  23  42  64  99 137 166 221 282 333 400
#     4  12  22  42  68  94 133 179 228 271 332 397
#     4  10  21  43  66  93 132 171 223 276 328 401
#     4  10  22  42  65  96 131 175 214 273 342 389
#     4  10  22  41  62  93 132 172 214 270 333 391
#     4  10  22  40  63  89 127 173 227 276 320 387
#
# _framework density 20.473496000000001
#
# number of rings (size 3 to 8) (size 9 to 14) (size 15 to 20)
#    0.000    1.600    4.000    0.000    2.240    1.920 
#    4.320    0.400    0.000    0.000    0.000    0.000 
#    0.000    0.000    0.000    0.000    0.000    0.000 
#
# Total GULP energy -139291.563515 kJ/mol
# GULP energy per Si atom -5571.662541 kJ/mol
# Density = 2.042690 g / cm^3
# Si number density = 20.473496 Si / 1000 Ang^3
#
#
#
# Elastic Constant Matrix: (Units=GPa)
#
#
# Indices 1 2 3 4 5 6 
#
# 1 158.6692 69.5313 42.6841 -0.0007 24.0896 0.0032
# 2 69.5313 100.7014 18.5690 0.0001 1.6460 0.0012
# 3 42.6841 18.5690 89.4333 0.0009 5.6078 0.0012
# 4 -0.0007 0.0001 0.0009 29.5271 0.0000 12.7378
# 5 24.0896 1.6460 5.6078 0.0000 29.2538 -0.0026
# 6 0.0032 0.0012 0.0012 12.7378 -0.0026 15.0680
#
#
#
# Elastic Compliance Matrix: (Units=1/GPa)
#
#
# Indices 1 2 3 4 5 6 
#
# 1 0.011783 -0.007338 -0.003560 0.000003 -0.008607 -0.000005
# 2 -0.007338 0.014897 0.000084 -0.000001 0.005189 0.000002
# 3 -0.003560 0.000084 0.012834 -0.000001 0.000467 0.000000
# 4 0.000003 -0.000001 -0.000001 0.053307 -0.000006 -0.045063
# 5 -0.008607 0.005189 0.000467 -0.000006 0.040890 0.000014
# 6 -0.000005 0.000002 0.000000 -0.045063 0.000014 0.104460
#
#
# Mechanical properties :
#
#
# Convention : Reuss Voigt Hill
#
# Bulk Modulus (GPa) = 55.91425 67.81919 61.86672
# Shear Modulus (GPa) = 18.81384 29.30444 24.05914
#
# Velocity S-wave (km/s) = 3.03468 3.78740 3.43174
# Velocity P-wave (km/s) = 6.29674 7.23348 6.78130
#
# Compressibility (1/GPa) = 0.01788453
#
# Stress axis : x y z
#
# Youngs Moduli (GPa) = 84.86953 67.12744 77.91808
#
# Poissons Ratio (x) = 0.49261 0.27740
# Poissons Ratio (y) = 0.62281 -0.00655
# Poissons Ratio (z) = 0.30215 -0.00564
#
# Static dielectric constant tensor:
#      x y z
#    x 1.758070 0.000000 0.031250 
#    y 0.000000 1.689300 0.000000 
#    z 0.031250 0.000000 1.768930 
# 
# From -- ./inp_files/148876.got.cif
#   From: 2010.05.17/outbox.cif.g08.bks.cpg/sg12_75_cif.got.tgz:148876.got - 2010.06.03 13:09:07.
