data_PCOD9212552
_publ_section_title
;
Structure prediction by ZEFSAII (Michael W. Deem and Ramdas Pophale) SiO2 
 PCOD9212552
Probable space group: C 2/M
;
_chemical_formula_sum "Si O2"
_cell_formula_units_Z 48
_cell_length_a 20.188901
_cell_length_b 23.834847
_cell_length_c 6.207676
_cell_angle_alpha 90.000000
_cell_angle_beta 43.071802
_cell_angle_gamma 90.000000
_cell_volume 2039.953757
_symmetry_space_group_name_H-M "C 2/M"
_symmetry_group_IT_number 12
_symmetry_cell_setting 'monoclinic'
loop_
_space_group_symop_operation_xyz
x,y,z
-x,y,-z
-x,-y,-z
x,-y,z
1/2+x,1/2+y,z
1/2-x,1/2+y,-z
1/2-x,1/2-y,-z
1/2+x,1/2-y,z
loop_
_atom_site_type_symbol
_atom_site_label
_atom_site_fract_x
_atom_site_fract_y
_atom_site_fract_z
Si Si1 0.596507 0.937689 0.123261
Si Si2 0.361432 0.739617 0.810779
Si Si3 0.278725 0.656882 0.326084
Si Si4 0.586534 0.819616 0.948998
Si Si5 0.206795 0.934623 0.058670
Si Si6 0.084385 0.854148 0.623533
O O1 0.500000 0.935209 0.500000
O O2 0.600133 0.000000 0.014906
O O3 0.587942 0.886551 0.979849
O O4 0.695117 0.931098 0.029308
O O5 0.420091 0.705473 0.489723
O O6 0.250000 0.750000 0.000000
O O7 0.354065 0.694310 0.018566
O O8 0.403421 0.793227 0.836280
O O9 0.181538 0.692159 0.582549
O O10 0.318025 0.647837 0.468399
O O11 0.269421 0.600054 0.213753
O O12 0.500000 0.802479 0.000000
O O13 0.113049 0.903840 0.389513
O O14 0.186982 0.000000 0.067944
O O15 0.000000 0.864107 0.000000
#
# Coordination Sequence:
#
# PCOD9212552 Si02
#       6
#     8   8   8   8   8   8
#     4  10  21  42  66  97 145 190 229 287 360 430
#     4  11  24  47  68  93 145 188 237 301 357 429
#     4  11  23  45  68 100 144 183 232 303 360 418
#     4  12  24  41  71 110 141 184 245 294 359 433
#     4  10  22  42  72 105 143 188 238 297 358 430
#     4  11  25  47  72  98 140 197 243 294 367 426
#
# _framework density 23.529944
#
# number of rings (size 3 to 8) (size 9 to 14) (size 15 to 20)
#    0.000    1.167    3.333    2.500    0.000    5.333 
#    6.000    0.833    0.000    0.000    0.000    0.000 
#    0.000    0.000    0.000    0.000    0.000    0.000 
#
# Total GULP energy -134188.483291 kJ/mol
# GULP energy per Si atom -5591.186804 kJ/mol
# Density = 2.347639 g / cm^3
# Si number density = 23.529944 Si / 1000 Ang^3
#
#
#
# Elastic Constant Matrix: (Units=GPa)
#
#
# Indices 1 2 3 4 5 6 
#
# 1 107.4347 40.5451 31.9387 0.0000 -5.9399 0.0000
# 2 40.5451 136.7812 46.4406 0.0000 6.1479 0.0000
# 3 31.9387 46.4406 133.7267 0.0000 -18.6742 0.0000
# 4 0.0000 0.0000 0.0000 34.8970 0.0000 5.7493
# 5 -5.9399 6.1479 -18.6742 0.0000 36.0549 0.0000
# 6 0.0000 0.0000 0.0000 5.7493 0.0000 26.4596
#
#
#
# Elastic Compliance Matrix: (Units=1/GPa)
#
#
# Indices 1 2 3 4 5 6 
#
# 1 0.010873 -0.002816 -0.001403 0.000000 0.001545 0.000000
# 2 -0.002816 0.009359 -0.003089 0.000000 -0.003659 0.000000
# 3 -0.001403 -0.003089 0.009623 0.000000 0.005280 0.000000
# 4 0.000000 0.000000 0.000000 0.029720 0.000000 -0.006458
# 5 0.001545 -0.003659 0.005280 0.000000 0.031348 0.000000
# 6 0.000000 0.000000 0.000000 -0.006458 0.000000 0.039197
#
#
# Mechanical properties :
#
#
# Convention : Reuss Voigt Hill
#
# Bulk Modulus (GPa) = 65.61998 68.42126 67.02062
# Shear Modulus (GPa) = 33.37441 36.75019 35.06230
#
# Velocity S-wave (km/s) = 3.77023 3.95631 3.86439
# Velocity P-wave (km/s) = 6.84844 7.07187 6.96105
#
# Compressibility (1/GPa) = 0.01523926
#
# Stress axis : x y z
#
# Youngs Moduli (GPa) = 91.96824 106.85097 103.91822
#
# Poissons Ratio (x) = 0.30090 0.14582
# Poissons Ratio (y) = 0.25899 0.32096
# Poissons Ratio (z) = 0.12905 0.33002
#
# Static dielectric constant tensor:
#      x y z
#    x 2.021170 0.000000 -0.072770 
#    y 0.000000 1.893770 0.000000 
#    z -0.072770 0.000000 1.960150 
# 
# From -- ./inp_files/21790.got.cif
#   From: 2010.05.17/outbox.cif.g08.bks.cpg/sg12_11_cif.got.tgz:21790.got - 2010.06.03 13:09:07.
