data_PCOD9212216
_publ_section_title
;
Structure prediction by ZEFSAII (Michael W. Deem and Ramdas Pophale) SiO2 
 PCOD9212216
Probable space group: C 2/M
;
_chemical_formula_sum "Si O2"
_cell_formula_units_Z 52
_cell_length_a 17.237455
_cell_length_b 8.898169
_cell_length_c 27.704586
_cell_angle_alpha 90.000000
_cell_angle_beta 39.530019
_cell_angle_gamma 90.000000
_cell_volume 2704.654944
_symmetry_space_group_name_H-M "C 2/M"
_symmetry_group_IT_number 12
_symmetry_cell_setting 'monoclinic'
loop_
_space_group_symop_operation_xyz
x,y,z
-x,y,-z
-x,-y,-z
x,-y,z
1/2+x,1/2+y,z
1/2-x,1/2+y,-z
1/2-x,1/2-y,-z
1/2+x,1/2-y,z
loop_
_atom_site_type_symbol
_atom_site_label
_atom_site_fract_x
_atom_site_fract_y
_atom_site_fract_z
Si Si1 0.785685 0.328115 0.840442
Si Si2 0.540192 0.500000 0.606547
Si Si3 0.051890 0.825597 0.889664
Si Si4 0.797690 0.000000 0.659847
Si Si5 0.947224 0.247395 0.317965
Si Si6 0.301217 0.823949 0.023776
Si Si7 0.343842 0.326009 0.264267
Si Si8 0.753172 0.000000 0.572646
O O1 0.762632 0.500000 0.866252
O O2 0.680877 0.285869 0.852367
O O3 0.772311 0.227845 0.894059
O O4 0.919844 0.318038 0.753917
O O5 0.418046 0.500000 0.633879
O O6 0.542880 0.638518 0.641688
O O7 0.654718 0.500000 0.515709
O O8 0.067942 0.813243 0.824307
O O9 0.025604 0.000000 0.913632
O O10 0.941211 0.727662 0.961944
O O11 0.730135 0.163958 0.701406
O O12 0.822626 0.000000 0.590548
O O13 0.909935 0.175881 0.284323
O O14 0.838696 0.360556 0.382401
O O15 0.293769 0.000000 0.021987
O O16 0.250000 0.750000 0.000000
O O17 0.288122 0.500000 0.286219
#
# Coordination Sequence:
#
# PCOD9212216 Si02
#       8
#     8   4   8   4   8   8   8   4
#     4  11  23  41  64  92 126 166 212 265 322 386
#     4  12  23  40  66 102 132 163 216 282 329 395
#     4  10  22  40  63  91 129 169 210 265 324 379
#     4  10  23  40  68  95 134 180 220 269 337 399
#     4  11  22  40  68  95 128 170 219 270 326 397
#     4  12  26  41  62  90 126 169 216 266 321 380
#     4  10  21  41  65  96 132 176 226 269 327 394
#     4  10  23  44  66  93 133 175 213 263 344 406
#
# _framework density 19.226113000000002
#
# number of rings (size 3 to 8) (size 9 to 14) (size 15 to 20)
#    0.000    1.231    1.538    4.385    2.154    3.692 
#    1.385    0.000    0.000    1.846    0.000    0.000 
#    0.000    0.000    0.000    0.000    0.000    0.000 
#
# Total GULP energy -145077.830623 kJ/mol
# GULP energy per Si atom -5579.916562 kJ/mol
# Density = 1.918235 g / cm^3
# Si number density = 19.226113 Si / 1000 Ang^3
#
#
#
# Elastic Constant Matrix: (Units=GPa)
#
#
# Indices 1 2 3 4 5 6 
#
# 1 92.1953 44.9532 29.9135 0.0000 5.4273 0.0001
# 2 44.9532 122.8337 46.2116 0.0001 4.1629 0.0003
# 3 29.9135 46.2116 94.7615 0.0000 9.7730 0.0000
# 4 0.0000 0.0001 0.0000 29.9048 0.0000 7.3493
# 5 5.4273 4.1629 9.7730 0.0000 26.9340 0.0000
# 6 0.0001 0.0003 0.0000 7.3493 0.0000 24.5677
#
#
#
# Elastic Compliance Matrix: (Units=1/GPa)
#
#
# Indices 1 2 3 4 5 6 
#
# 1 0.013640 -0.004138 -0.002151 0.000000 -0.001329 0.000000
# 2 -0.004138 0.011227 -0.004234 0.000000 0.000635 0.000000
# 3 -0.002151 -0.004234 0.013697 0.000000 -0.003882 0.000000
# 4 0.000000 0.000000 0.000000 0.036093 0.000000 -0.010797
# 5 -0.001329 0.000635 -0.003882 0.000000 0.038706 0.000000
# 6 0.000000 0.000000 0.000000 -0.010797 0.000000 0.043934
#
#
# Mechanical properties :
#
#
# Convention : Reuss Voigt Hill
#
# Bulk Modulus (GPa) = 57.08331 61.32744 59.20538
# Shear Modulus (GPa) = 27.14710 28.86211 28.00460
#
# Velocity S-wave (km/s) = 3.76172 3.87873 3.82067
# Velocity P-wave (km/s) = 6.97298 7.21295 7.09398
#
# Compressibility (1/GPa) = 0.01751825
#
# Stress axis : x y z
#
# Youngs Moduli (GPa) = 73.31335 89.07293 73.00827
#
# Poissons Ratio (x) = 0.36854 0.15704
# Poissons Ratio (y) = 0.30334 0.30913
# Poissons Ratio (z) = 0.15770 0.37716
#
# Static dielectric constant tensor:
#      x y z
#    x 1.667560 0.000000 -0.008220 
#    y 0.000000 1.587650 0.000000 
#    z -0.008220 0.000000 1.624180 
# 
# From -- ./inp_files/362711.got.cif
#   From: 2010.05.17/outbox.cif.g08.bks.cpg/sg12_182_cif.got.tgz:362711.got - 2010.06.03 13:09:07.
