data_PCOD9212606
_publ_section_title
;
Structure prediction by ZEFSAII (Michael W. Deem and Ramdas Pophale) SiO2 
 PCOD9212606
Probable space group: C 2/M
;
_chemical_formula_sum "Si O2"
_cell_formula_units_Z 40
_cell_length_a 7.271136
_cell_length_b 14.582645
_cell_length_c 17.301608
_cell_angle_alpha 90.000000
_cell_angle_beta 57.946104
_cell_angle_gamma 90.000000
_cell_volume 1554.855310
_symmetry_space_group_name_H-M "C 2/M"
_symmetry_group_IT_number 12
_symmetry_cell_setting 'monoclinic'
loop_
_space_group_symop_operation_xyz
x,y,z
-x,y,-z
-x,-y,-z
x,-y,z
1/2+x,1/2+y,z
1/2-x,1/2+y,-z
1/2-x,1/2-y,-z
1/2+x,1/2-y,z
loop_
_atom_site_type_symbol
_atom_site_label
_atom_site_fract_x
_atom_site_fract_y
_atom_site_fract_z
Si Si1 0.772419 0.858620 0.508954
Si Si2 0.414601 0.709782 0.796534
Si Si3 0.984753 0.605356 0.174364
Si Si4 0.326230 0.603382 0.969464
Si Si5 0.201453 0.400983 0.347974
O O1 0.750000 0.750000 0.500000
O O2 0.750764 0.901299 0.428872
O O3 0.556694 0.887841 0.603240
O O4 0.000000 0.878739 0.500000
O O5 0.251637 0.648684 0.782531
O O6 0.391174 0.819407 0.802195
O O7 0.368992 0.677355 0.894520
O O8 0.651520 0.680258 0.716369
O O9 0.989073 0.500000 0.198795
O O10 0.097593 0.608721 0.064694
O O11 0.348186 0.500000 0.931695
O O12 0.500000 0.611900 0.000000
O O13 0.266732 0.500000 0.300451
#
# Coordination Sequence:
#
# PCOD9212606 Si02
#       5
#     8   8   8   8   8
#     4  11  23  45  77 103 145 193 238 292 375 451
#     4  12  25  44  73 103 148 187 241 306 359 424
#     4  11  25  44  71 101 142 198 246 294 361 427
#     4  10  21  42  69 103 144 196 249 295 358 430
#     4  11  26  46  74 112 147 189 243 305 372 443
#
# _framework density 25.725867000000001
#
# number of rings (size 3 to 8) (size 9 to 14) (size 15 to 20)
#    0.000    1.000    2.000    5.400    2.800    3.200 
#    3.600    2.000    0.000    0.000    0.000    0.000 
#    0.000    0.000    0.000    0.000    0.000    0.000 
#
# Total GULP energy -112139.428151 kJ/mol
# GULP energy per Si atom -5606.971408 kJ/mol
# Density = 2.566731 g / cm^3
# Si number density = 25.725867 Si / 1000 Ang^3
#
#
#
# Elastic Constant Matrix: (Units=GPa)
#
#
# Indices 1 2 3 4 5 6 
#
# 1 139.7941 23.2002 38.2359 0.0000 -28.7589 0.0000
# 2 23.2002 224.2401 39.0498 0.0000 0.1471 0.0000
# 3 38.2359 39.0498 107.9463 0.0000 -20.1849 0.0000
# 4 0.0000 0.0000 0.0000 32.1328 0.0000 -4.6130
# 5 -28.7589 0.1471 -20.1849 0.0000 38.6210 0.0000
# 6 0.0000 0.0000 0.0000 -4.6130 0.0000 19.9822
#
#
#
# Elastic Compliance Matrix: (Units=1/GPa)
#
#
# Indices 1 2 3 4 5 6 
#
# 1 0.008936 -0.000599 -0.001888 0.000000 0.005669 0.000000
# 2 -0.000599 0.004836 -0.001800 0.000000 -0.001405 0.000000
# 3 -0.001888 -0.001800 0.011440 0.000000 0.004580 0.000000
# 4 0.000000 0.000000 0.000000 0.032188 0.000000 0.007431
# 5 0.005669 -0.001405 0.004580 0.000000 0.032513 0.000000
# 6 0.000000 0.000000 0.000000 0.007431 0.000000 0.051760
#
#
# Mechanical properties :
#
#
# Convention : Reuss Voigt Hill
#
# Bulk Modulus (GPa) = 60.10776 74.77248 67.44012
# Shear Modulus (GPa) = 32.09386 42.91352 37.50369
#
# Velocity S-wave (km/s) = 3.53587 4.08868 3.82228
# Velocity P-wave (km/s) = 6.33130 7.17063 6.76399
#
# Compressibility (1/GPa) = 0.01663679
#
# Stress axis : x y z
#
# Youngs Moduli (GPa) = 111.91199 206.78773 87.41114
#
# Poissons Ratio (x) = 0.12395 0.16505
# Poissons Ratio (y) = 0.06708 0.15733
# Poissons Ratio (z) = 0.21131 0.37219
#
# Static dielectric constant tensor:
#      x y z
#    x 2.074360 0.000000 -0.023090 
#    y 0.000000 1.997660 0.000000 
#    z -0.023090 0.000000 1.977620 
# 
# From -- ./inp_files/332481.got.cif
#   From: 2010.05.17/outbox.cif.g08.bks.cpg/sg12_167_cif.got.tgz:332481.got - 2010.06.03 13:09:07.
