data_PCOD9212164
_publ_section_title
;
Structure prediction by ZEFSAII (Michael W. Deem and Ramdas Pophale) SiO2 
 PCOD9212164
Probable space group: C 2/M
;
_chemical_formula_sum "Si O2"
_cell_formula_units_Z 52
_cell_length_a 17.186646
_cell_length_b 8.639857
_cell_length_c 22.162368
_cell_angle_alpha 90.000000
_cell_angle_beta 126.309598
_cell_angle_gamma 90.000000
_cell_volume 2651.897867
_symmetry_space_group_name_H-M "C 2/M"
_symmetry_group_IT_number 12
_symmetry_cell_setting 'monoclinic'
loop_
_space_group_symop_operation_xyz
x,y,z
-x,y,-z
-x,-y,-z
x,-y,z
1/2+x,1/2+y,z
1/2-x,1/2+y,-z
1/2-x,1/2-y,-z
1/2+x,1/2-y,z
loop_
_atom_site_type_symbol
_atom_site_label
_atom_site_fract_x
_atom_site_fract_y
_atom_site_fract_z
Si Si1 0.753834 0.000000 0.099336
Si Si2 0.951204 0.184386 0.324314
Si Si3 0.840594 0.321368 0.386075
Si Si4 0.650460 0.684009 0.479753
Si Si5 0.635570 0.673841 0.238569
Si Si6 0.413198 0.000000 0.075699
Si Si7 0.577362 0.258138 0.818735
Si Si8 0.628518 0.000000 0.161456
O O1 0.827711 0.140538 0.129787
O O2 0.699480 0.000000 0.137921
O O3 0.674927 0.000000 0.010485
O O4 0.885393 0.226466 0.351240
O O5 0.923567 0.282723 0.252637
O O6 0.060901 0.215600 0.394488
O O7 0.940755 0.000000 0.305319
O O8 0.870990 0.500000 0.394673
O O9 0.870166 0.255412 0.464167
O O10 0.724265 0.316093 0.325960
O O11 0.658664 0.500000 0.489963
O O12 0.750000 0.750000 0.500000
O O13 0.646719 0.500000 0.213823
O O14 0.529902 0.672373 0.220187
O O15 0.641978 0.835782 0.203592
O O16 0.413493 0.860506 0.122818
O O17 0.516474 0.000000 0.090015
#
# Coordination Sequence:
#
# PCOD9212164 Si02
#       8
#     4   8   8   8   8   4   8   4
#     4  12  21  42  70  92 130 167 206 274 333 393
#     4  11  23  41  62  90 125 166 213 261 320 381
#     4  11  24  39  61  92 127 164 211 268 320 376
#     4  11  24  41  62  88 126 168 215 264 317 380
#     4  10  21  41  64  95 133 174 223 267 322 389
#     4  10  25  42  64  99 127 165 217 261 334 404
#     4  11  22  41  67  92 128 168 215 267 324 391
#     4  10  23  40  68  97 132 176 216 269 329 393
#
# _framework density 19.608598000000001
#
# number of rings (size 3 to 8) (size 9 to 14) (size 15 to 20)
#    0.000    1.231    1.538    3.923    3.231    5.538 
#    4.154    0.000    0.000    1.846    0.000    0.000 
#    0.000    0.000    0.000    0.000    0.000    0.000 
#
# Total GULP energy -145058.559166 kJ/mol
# GULP energy per Si atom -5579.175353 kJ/mol
# Density = 1.956397 g / cm^3
# Si number density = 19.608598 Si / 1000 Ang^3
#
#
#
# Elastic Constant Matrix: (Units=GPa)
#
#
# Indices 1 2 3 4 5 6 
#
# 1 64.1120 17.7315 -3.0631 0.0000 6.9224 0.0000
# 2 17.7315 72.9442 23.5732 0.0000 2.5075 0.0000
# 3 -3.0631 23.5732 79.3281 0.0000 12.5718 0.0000
# 4 0.0000 0.0000 0.0000 22.2984 0.0000 4.9780
# 5 6.9224 2.5075 12.5718 0.0000 36.1358 0.0000
# 6 0.0000 0.0000 0.0000 4.9780 0.0000 31.7662
#
#
#
# Elastic Compliance Matrix: (Units=1/GPa)
#
#
# Indices 1 2 3 4 5 6 
#
# 1 0.017556 -0.005038 0.002807 0.000000 -0.003990 0.000000
# 2 -0.005038 0.016621 -0.005402 0.000000 0.001691 0.000000
# 3 0.002807 -0.005402 0.015182 0.000000 -0.005445 0.000000
# 4 0.000000 0.000000 0.000000 0.046472 0.000000 -0.007282
# 5 -0.003990 0.001691 -0.005445 0.000000 0.030215 0.000000
# 6 0.000000 0.000000 0.000000 -0.007282 0.000000 0.032621
#
#
# Mechanical properties :
#
#
# Convention : Reuss Voigt Hill
#
# Bulk Modulus (GPa) = 29.32946 32.54081 30.93514
# Shear Modulus (GPa) = 26.98377 29.91626 28.45001
#
# Velocity S-wave (km/s) = 3.71363 3.91022 3.81319
# Velocity P-wave (km/s) = 5.77737 6.08421 5.93278
#
# Compressibility (1/GPa) = 0.03409541
#
# Stress axis : x y z
#
# Youngs Moduli (GPa) = 56.96091 60.16422 65.86600
#
# Poissons Ratio (x) = 0.30308 -0.18490
# Poissons Ratio (y) = 0.28694 0.35578
# Poissons Ratio (z) = -0.15990 0.32499
#
# Static dielectric constant tensor:
#      x y z
#    x 1.678000 0.000000 0.009040 
#    y 0.000000 1.647400 0.000000 
#    z 0.009040 0.000000 1.653620 
# 
# From -- ./inp_files/314934.got.cif
#   From: 2010.05.17/outbox.cif.g08.bks.cpg/sg12_158_cif.got.tgz:314934.got - 2010.06.03 13:09:07.
