data_PCOD9212510
_publ_section_title
;
Structure prediction by ZEFSAII (Michael W. Deem and Ramdas Pophale) SiO2 
 PCOD9212510
Probable space group: C 2/M
;
_chemical_formula_sum "Si O2"
_cell_formula_units_Z 64
_cell_length_a 30.031213
_cell_length_b 8.075496
_cell_length_c 11.355183
_cell_angle_alpha 90.000000
_cell_angle_beta 100.639971
_cell_angle_gamma 90.000000
_cell_volume 2706.477136
_symmetry_space_group_name_H-M "C 2/M"
_symmetry_group_IT_number 12
_symmetry_cell_setting 'monoclinic'
loop_
_space_group_symop_operation_xyz
x,y,z
-x,y,-z
-x,-y,-z
x,-y,z
1/2+x,1/2+y,z
1/2-x,1/2+y,-z
1/2-x,1/2-y,-z
1/2+x,1/2-y,z
loop_
_atom_site_type_symbol
_atom_site_label
_atom_site_fract_x
_atom_site_fract_y
_atom_site_fract_z
Si Si1 0.899989 0.799925 0.885155
Si Si2 0.980173 0.303941 0.781306
Si Si3 0.313495 0.702606 0.708209
Si Si4 0.352841 0.698080 0.100842
Si Si5 0.229788 0.308960 0.804607
Si Si6 0.434162 0.305823 0.292925
Si Si7 0.318836 0.305353 0.451804
Si Si8 0.579317 0.806855 0.469427
O O1 0.949498 0.734016 0.879319
O O2 0.864436 0.749308 0.765918
O O3 0.902380 0.000000 0.888567
O O4 0.875392 0.740789 0.991729
O O5 0.986890 0.500000 0.775030
O O6 0.950495 0.244530 0.654014
O O7 0.028622 0.219561 0.790140
O O8 0.312007 0.500000 0.707581
O O9 0.278452 0.762519 0.790327
O O10 0.301033 0.755033 0.570358
O O11 0.356543 0.500000 0.099223
O O12 0.301273 0.736175 0.107941
O O13 0.386044 0.757084 0.221060
O O14 0.236629 0.500000 0.836876
O O15 0.201504 0.289964 0.668903
O O16 0.430764 0.500000 0.317769
O O17 0.446404 0.213806 0.418958
O O18 0.308513 0.500000 0.430088
O O19 0.373055 0.285624 0.489466
O O20 0.589089 0.000000 0.453710
#
# Coordination Sequence:
#
# PCOD9212510 Si02
#       8
#     8   8   8   8   8   8   8   8
#     4  10  21  42  65  83 114 157 202 247 292 343
#     4  11  24  40  60  90 123 151 192 244 299 353
#     4   9  20  37  60  89 118 154 197 241 291 353
#     4  10  23  41  61  86 115 154 203 250 289 342
#     4  11  22  37  59  88 122 157 193 240 299 350
#     4  11  23  39  61  88 119 157 200 238 289 354
#     4  11  20  35  60  88 119 154 196 237 287 356
#     4  11  22  37  59  89 122 153 188 240 300 351
#
# _framework density 23.646975999999999
#
# number of rings (size 3 to 8) (size 9 to 14) (size 15 to 20)
#    0.000    1.500    2.500    2.625    0.000    5.000 
#    0.000    5.625    0.000    0.000    0.000    0.000 
#    0.000    0.000    0.000    0.000    0.000    0.000 
#
# Total GULP energy -178967.907113 kJ/mol
# GULP energy per Si atom -5592.747097 kJ/mol
# Density = 2.359315 g / cm^3
# Si number density = 23.646976 Si / 1000 Ang^3
#
#
#
# Elastic Constant Matrix: (Units=GPa)
#
#
# Indices 1 2 3 4 5 6 
#
# 1 108.9899 -3.6741 3.1880 0.0000 -30.6431 0.0000
# 2 -3.6741 22.6508 -0.2187 0.0000 1.8644 0.0000
# 3 3.1880 -0.2187 64.5166 0.0000 -31.3692 0.0000
# 4 0.0000 0.0000 0.0000 18.9820 0.0000 -10.0414
# 5 -30.6431 1.8644 -31.3692 0.0000 41.2718 0.0000
# 6 0.0000 0.0000 0.0000 -10.0414 0.0000 24.2406
#
#
#
# Elastic Compliance Matrix: (Units=1/GPa)
#
#
# Indices 1 2 3 4 5 6 
#
# 1 0.013128 0.000989 0.006459 0.000000 0.014612 0.000000
# 2 0.000989 0.044457 -0.000821 0.000000 -0.001898 0.000000
# 3 0.006459 -0.000821 0.027802 0.000000 0.025964 0.000000
# 4 0.000000 0.000000 0.000000 0.067465 0.000000 0.027947
# 5 0.014612 -0.001898 0.025964 0.000000 0.054898 0.000000
# 6 0.000000 0.000000 0.000000 0.027947 0.000000 0.052830
#
#
# Mechanical properties :
#
#
# Convention : Reuss Voigt Hill
#
# Bulk Modulus (GPa) = 10.13772 21.63864 15.88818
# Shear Modulus (GPa) = 17.84399 30.02303 23.93351
#
# Velocity S-wave (km/s) = 2.74998 3.56706 3.18483
# Velocity P-wave (km/s) = 3.79204 5.11232 4.50085
#
# Compressibility (1/GPa) = 0.09864148
#
# Stress axis : x y z
#
# Youngs Moduli (GPa) = 76.17485 22.49348 35.96842
#
# Poissons Ratio (x) = -0.02225 -0.23232
# Poissons Ratio (y) = -0.07534 0.02953
# Poissons Ratio (z) = -0.49202 0.01847
#
# Static dielectric constant tensor:
#      x y z
#    x 1.902970 0.000000 -0.027580 
#    y 0.000000 1.824380 0.000000 
#    z -0.027580 0.000000 1.942580 
# 
# From -- ./inp_files/187388.got.cif
#   From: 2010.05.17/outbox.cif.g08.bks.cpg/sg12_94_cif.got.tgz:187388.got - 2010.06.03 13:09:07.
