data_PCOD9212231
_publ_section_title
;
Structure prediction by ZEFSAII (Michael W. Deem and Ramdas Pophale) SiO2 
 PCOD9212231
Probable space group: C 2/M
;
_chemical_formula_sum "Si O2"
_cell_formula_units_Z 60
_cell_length_a 19.603873
_cell_length_b 9.413387
_cell_length_c 22.849389
_cell_angle_alpha 90.000000
_cell_angle_beta 138.535095
_cell_angle_gamma 90.000000
_cell_volume 2792.068672
_symmetry_space_group_name_H-M "C 2/M"
_symmetry_group_IT_number 12
_symmetry_cell_setting 'monoclinic'
loop_
_space_group_symop_operation_xyz
x,y,z
-x,y,-z
-x,-y,-z
x,-y,z
1/2+x,1/2+y,z
1/2-x,1/2+y,-z
1/2-x,1/2-y,-z
1/2+x,1/2-y,z
loop_
_atom_site_type_symbol
_atom_site_label
_atom_site_fract_x
_atom_site_fract_y
_atom_site_fract_z
Si Si1 0.624836 0.165136 0.136207
Si Si2 0.500296 0.337408 0.377467
Si Si3 0.691939 0.665193 0.068171
Si Si4 0.937525 0.669376 0.222759
Si Si5 0.225616 0.760885 0.562335
Si Si6 0.520562 0.667581 0.867468
Si Si7 0.680468 0.664757 0.656796
Si Si8 0.207381 0.500000 0.462867
O O1 0.637298 0.234690 0.080671
O O2 0.553123 0.256993 0.132738
O O3 0.737532 0.169655 0.238454
O O4 0.592263 0.000000 0.112685
O O5 0.472692 0.500000 0.343742
O O6 0.479591 0.234193 0.310283
O O7 0.617826 0.334324 0.473334
O O8 0.428796 0.294260 0.386063
O O9 0.678560 0.500000 0.078060
O O10 0.813454 0.694083 0.142931
O O11 0.634325 0.680474 0.969307
O O12 0.953837 0.500000 0.230439
O O13 0.983080 0.751729 0.196392
O O14 0.217910 0.742639 0.626554
O O15 0.231443 0.621548 0.528025
O O16 0.309957 0.874505 0.597564
O O17 0.496827 0.500000 0.845907
O O18 0.673702 0.500000 0.632073
#
# Coordination Sequence:
#
# PCOD9212231 Si02
#       8
#     8   8   8   8   8   8   8   4
#     4  11  23  40  63  96 131 169 215 270 322 379
#     4  11  22  41  68  92 121 168 217 261 316 376
#     4  10  22  43  67  91 130 170 211 265 328 385
#     4  11  24  42  64  96 132 166 211 273 324 377
#     4  11  22  44  64  95 126 170 212 257 310 384
#     4  11  24  42  65  94 126 172 218 262 322 394
#     4  10  21  41  66  90 123 164 213 264 311 369
#     4  10  24  40  62  90 130 164 204 256 326 364
#
# _framework density 21.489443999999999
#
# number of rings (size 3 to 8) (size 9 to 14) (size 15 to 20)
#    0.000    1.333    2.667    2.400    0.933    6.400 
#    6.000    0.667    0.000    0.000    0.000    0.000 
#    0.000    0.000    0.000    0.000    0.000    0.000 
#
# Total GULP energy -167301.058720 kJ/mol
# GULP energy per Si atom -5576.701957 kJ/mol
# Density = 2.144053 g / cm^3
# Si number density = 21.489444 Si / 1000 Ang^3
#
#
#
# Elastic Constant Matrix: (Units=GPa)
#
#
# Indices 1 2 3 4 5 6 
#
# 1 75.9270 42.7079 1.2200 0.0000 -19.5862 0.0000
# 2 42.7079 126.0492 10.1191 0.0000 -17.5808 0.0000
# 3 1.2200 10.1191 49.3304 0.0000 -9.2370 0.0000
# 4 0.0000 0.0000 0.0000 25.4581 0.0000 -0.4557
# 5 -19.5862 -17.5808 -9.2370 0.0000 41.3791 0.0000
# 6 0.0000 0.0000 0.0000 -0.4557 0.0000 52.9288
#
#
#
# Elastic Compliance Matrix: (Units=1/GPa)
#
#
# Indices 1 2 3 4 5 6 
#
# 1 0.017805 -0.005261 0.001877 0.000000 0.006611 0.000000
# 2 -0.005261 0.010046 -0.001667 0.000000 0.001406 0.000000
# 3 0.001877 -0.001667 0.021499 0.000000 0.004979 0.000000
# 4 0.000000 0.000000 0.000000 0.039286 0.000000 0.000338
# 5 0.006611 0.001406 0.004979 0.000000 0.029005 0.000000
# 6 0.000000 0.000000 0.000000 0.000338 0.000000 0.018896
#
#
# Mechanical properties :
#
#
# Convention : Reuss Voigt Hill
#
# Bulk Modulus (GPa) = 25.47961 39.93339 32.70650
# Shear Modulus (GPa) = 31.30396 37.10384 34.20390
#
# Velocity S-wave (km/s) = 3.82083 4.15975 3.99389
# Velocity P-wave (km/s) = 5.59889 6.45713 6.04327
#
# Compressibility (1/GPa) = 0.03924707
#
# Stress axis : x y z
#
# Youngs Moduli (GPa) = 56.16303 99.54258 46.51284
#
# Poissons Ratio (x) = 0.52372 -0.08730
# Poissons Ratio (y) = 0.29549 0.07755
# Poissons Ratio (z) = -0.10541 0.16598
#
# Static dielectric constant tensor:
#      x y z
#    x 1.800760 0.000000 0.059400 
#    y 0.000000 1.733170 0.000000 
#    z 0.059400 0.000000 1.789580 
# 
# From -- ./inp_files/346587.got.cif
#   From: 2010.05.17/outbox.cif.g08.bks.cpg/sg12_174_cif.got.tgz:346587.got - 2010.06.03 13:09:07.
