data_PCOD9212556
_publ_section_title
;
Structure prediction by ZEFSAII (Michael W. Deem and Ramdas Pophale) SiO2 
 PCOD9212556
Probable space group: C 2/M
;
_chemical_formula_sum "Si O2"
_cell_formula_units_Z 40
_cell_length_a 12.218464
_cell_length_b 14.644172
_cell_length_c 15.569684
_cell_angle_alpha 90.000000
_cell_angle_beta 31.653154
_cell_angle_gamma 90.000000
_cell_volume 1461.958564
_symmetry_space_group_name_H-M "C 2/M"
_symmetry_group_IT_number 12
_symmetry_cell_setting 'monoclinic'
loop_
_space_group_symop_operation_xyz
x,y,z
-x,y,-z
-x,-y,-z
x,-y,z
1/2+x,1/2+y,z
1/2-x,1/2+y,-z
1/2-x,1/2-y,-z
1/2+x,1/2-y,z
loop_
_atom_site_type_symbol
_atom_site_label
_atom_site_fract_x
_atom_site_fract_y
_atom_site_fract_z
Si Si1 0.657929 0.104047 0.204759
Si Si2 0.247804 0.893393 0.682816
Si Si3 0.272391 0.608501 0.753626
Si Si4 0.692229 0.612659 0.534151
Si Si5 0.842424 0.343508 0.973780
O O1 0.787291 0.146035 0.197726
O O2 0.425304 0.144198 0.357908
O O3 0.730537 0.097793 0.059050
O O4 0.630755 0.000000 0.252056
O O5 0.500000 0.889050 0.500000
O O6 0.152311 0.855522 0.658855
O O7 0.185132 0.000000 0.722724
O O8 0.259412 0.500000 0.742716
O O9 0.511023 0.641071 0.590440
O O10 0.093269 0.654900 0.817780
O O11 0.224560 0.622812 0.887367
O O12 0.688581 0.500000 0.534201
O O13 0.750000 0.250000 0.000000
#
# Coordination Sequence:
#
# PCOD9212556 Si02
#       5
#     8   8   8   8   8
#     4   9  16  31  59  91 120 155 201 253 302 362
#     4   7  11  23  46  82 123 148 173 233 303 351
#     4  10  21  42  67  87 117 164 209 254 309 365
#     4   8  15  30  58  94 120 144 197 259 306 354
#     4  11  23  39  55  82 121 165 203 249 303 363
#
# _framework density 27.360557
#
# number of rings (size 3 to 8) (size 9 to 14) (size 15 to 20)
#    0.000    3.000    0.000    4.800    0.000    0.800 
#    7.200    4.000    0.000    4.800    0.000    0.000 
#    0.000    0.000    0.000    1.600    0.000    0.000 
#
# Total GULP energy -111704.409155 kJ/mol
# GULP energy per Si atom -5585.220458 kJ/mol
# Density = 2.729828 g / cm^3
# Si number density = 27.360557 Si / 1000 Ang^3
#
#
#
# Elastic Constant Matrix: (Units=GPa)
#
#
# Indices 1 2 3 4 5 6 
#
# 1 223.3635 37.0587 32.2935 -0.0030 5.9609 0.0007
# 2 37.0587 89.7951 14.5377 -0.0133 -19.9784 0.0017
# 3 32.2935 14.5377 42.1012 -0.0219 -1.1545 0.0040
# 4 -0.0030 -0.0133 -0.0219 -10.8928 0.0050 -25.9424
# 5 5.9609 -19.9784 -1.1545 0.0050 64.7694 -0.0005
# 6 0.0007 0.0017 0.0040 -25.9424 -0.0005 22.0093
#
#
#
# Elastic Compliance Matrix: (Units=1/GPa)
#
#
# Indices 1 2 3 4 5 6 
#
# 1 0.005321 -0.001888 -0.003460 0.000002 -0.001134 0.000002
# 2 -0.001888 0.013352 -0.003046 -0.000002 0.004238 -0.000002
# 3 -0.003460 -0.003046 0.027455 -0.000010 -0.000132 -0.000017
# 4 0.000002 -0.000002 -0.000010 -0.024113 0.000001 -0.028422
# 5 -0.001134 0.004238 -0.000132 0.000001 0.016849 0.000001
# 6 0.000002 -0.000002 -0.000017 -0.028422 0.000001 0.011934
#
#
# Mechanical properties :
#
#
# Convention : Reuss Voigt Hill
#
# Bulk Modulus (GPa) = 34.08505 58.11552 46.10028
# Shear Modulus (GPa) = 64.62872 33.26852 48.94862
#
# Velocity S-wave (km/s) = 4.86543 3.49080 4.23427
# Velocity P-wave (km/s) = 6.63687 6.12653 6.38680
#
# Compressibility (1/GPa) = 0.02933838
#
# Stress axis : x y z
#
# Youngs Moduli (GPa) = 187.94183 74.89730 36.42351
#
# Poissons Ratio (x) = 0.14140 0.12604
# Poissons Ratio (y) = 0.35482 0.11095
# Poissons Ratio (z) = 0.65037 0.22814
#
# Static dielectric constant tensor:
#      x y z
#    x 2.113770 0.000020 0.029630 
#    y 0.000020 1.240030 0.000010 
#    z 0.029630 0.000010 2.268370 
# 
# From -- ./inp_files/262677.got.cif
#   From: 2010.05.17/outbox.cif.g08.bks.cpg/sg12_132_cif.got.tgz:262677.got - 2010.06.03 13:09:07.
