data_PCOD9212289
_publ_section_title
;
Structure prediction by ZEFSAII (Michael W. Deem and Ramdas Pophale) SiO2 
 PCOD9212289
Probable space group: C 2/M
;
_chemical_formula_sum "Si O2"
_cell_formula_units_Z 48
_cell_length_a 24.275218
_cell_length_b 7.771110
_cell_length_c 11.707906
_cell_angle_alpha 90.000000
_cell_angle_beta 109.577943
_cell_angle_gamma 90.000000
_cell_volume 2080.953180
_symmetry_space_group_name_H-M "C 2/M"
_symmetry_group_IT_number 12
_symmetry_cell_setting 'monoclinic'
loop_
_space_group_symop_operation_xyz
x,y,z
-x,y,-z
-x,-y,-z
x,-y,z
1/2+x,1/2+y,z
1/2-x,1/2+y,-z
1/2-x,1/2-y,-z
1/2+x,1/2-y,z
loop_
_atom_site_type_symbol
_atom_site_label
_atom_site_fract_x
_atom_site_fract_y
_atom_site_fract_z
Si Si1 0.872947 0.197347 0.391149
Si Si2 0.371046 0.711993 0.639830
Si Si3 0.741403 0.699252 0.316962
Si Si4 0.195256 0.706237 0.042724
Si Si5 0.972530 0.197888 0.866400
Si Si6 0.916862 0.300470 0.178537
O O1 0.890713 0.267514 0.527629
O O2 0.802296 0.203962 0.344686
O O3 0.896336 0.288019 0.294833
O O4 0.892182 0.000000 0.396125
O O5 0.371145 0.500000 0.639857
O O6 0.304884 0.765321 0.622217
O O7 0.415081 0.774298 0.768252
O O8 0.755408 0.500000 0.349460
O O9 0.707005 0.710850 0.173032
O O10 0.192681 0.500000 0.054365
O O11 0.250000 0.750000 0.000000
O O12 0.136042 0.763873 0.938667
O O13 0.023895 0.202618 0.808798
O O14 0.957466 0.000000 0.884663
O O15 0.000000 0.277662 0.000000
O O16 0.927107 0.500000 0.158105
#
# Coordination Sequence:
#
# PCOD9212289 Si02
#       6
#     8   8   8   8   8   8
#     4  11  22  38  60  86 120 160 202 244 295 358
#     4   9  21  39  60  88 119 157 202 246 294 355
#     4  11  21  37  61  89 123 155 196 251 301 355
#     4  11  22  36  57  85 119 155 195 241 295 352
#     4  10  21  41  67  90 115 154 200 244 294 357
#     4  11  24  40  59  88 123 156 195 248 300 349
#
# _framework density 23.066355000000001
#
# number of rings (size 3 to 8) (size 9 to 14) (size 15 to 20)
#    0.000    1.500    1.667    3.500    0.000    4.333 
#    0.000    9.167    0.000    0.000    0.000    0.000 
#    0.000    0.000    0.000    0.000    0.000    0.000 
#
# Total GULP energy -134246.926816 kJ/mol
# GULP energy per Si atom -5593.621951 kJ/mol
# Density = 2.301385 g / cm^3
# Si number density = 23.066355 Si / 1000 Ang^3
#
#
#
# Elastic Constant Matrix: (Units=GPa)
#
#
# Indices 1 2 3 4 5 6 
#
# 1 78.3068 -8.5184 15.9469 0.0000 1.6376 0.0000
# 2 -8.5184 51.7509 -3.4412 0.0000 0.8883 0.0000
# 3 15.9469 -3.4412 119.3468 0.0000 -2.5325 0.0000
# 4 0.0000 0.0000 0.0000 11.6181 0.0000 1.6649
# 5 1.6376 0.8883 -2.5325 0.0000 34.0295 0.0000
# 6 0.0000 0.0000 0.0000 1.6649 0.0000 16.1758
#
#
#
# Elastic Compliance Matrix: (Units=1/GPa)
#
#
# Indices 1 2 3 4 5 6 
#
# 1 0.013371 0.002099 -0.001744 0.000000 -0.000828 0.000000
# 2 0.002099 0.019697 0.000275 0.000000 -0.000595 0.000000
# 3 -0.001744 0.000275 0.008635 0.000000 0.000719 0.000000
# 4 0.000000 0.000000 0.000000 0.087361 0.000000 -0.008991
# 5 -0.000828 -0.000595 0.000719 0.000000 0.029495 0.000000
# 6 0.000000 0.000000 0.000000 -0.008991 0.000000 0.062746
#
#
# Mechanical properties :
#
#
# Convention : Reuss Voigt Hill
#
# Bulk Modulus (GPa) = 23.27517 28.59768 25.93643
# Shear Modulus (GPa) = 21.33410 28.72582 25.02996
#
# Velocity S-wave (km/s) = 3.04452 3.53279 3.29770
# Velocity P-wave (km/s) = 4.74038 5.39126 5.07627
#
# Compressibility (1/GPa) = 0.04296424
#
# Stress axis : x y z
#
# Youngs Moduli (GPa) = 74.78847 50.76827 115.80615
#
# Poissons Ratio (x) = -0.10657 0.20193
# Poissons Ratio (y) = -0.15699 -0.03183
# Poissons Ratio (z) = 0.13041 -0.01395
#
# Static dielectric constant tensor:
#      x y z
#    x 1.821860 0.000000 0.005970 
#    y 0.000000 1.873430 0.000000 
#    z 0.005970 0.000000 1.884720 
# 
# From -- ./inp_files/173032.got.cif
#   From: 2010.05.17/outbox.cif.g08.bks.cpg/sg12_87_cif.got.tgz:173032.got - 2010.06.03 13:09:07.
