data_PCOD9212720
_publ_section_title
;
Structure prediction by ZEFSAII (Michael W. Deem and Ramdas Pophale) SiO2 
 PCOD9212720
Probable space group: C 2/M
;
_chemical_formula_sum "Si O2"
_cell_formula_units_Z 36
_cell_length_a 15.187559
_cell_length_b 17.855541
_cell_length_c 7.974131
_cell_angle_alpha 90.000000
_cell_angle_beta 53.683296
_cell_angle_gamma 90.000000
_cell_volume 1742.399422
_symmetry_space_group_name_H-M "C 2/M"
_symmetry_group_IT_number 12
_symmetry_cell_setting 'monoclinic'
loop_
_space_group_symop_operation_xyz
x,y,z
-x,y,-z
-x,-y,-z
x,-y,z
1/2+x,1/2+y,z
1/2-x,1/2+y,-z
1/2-x,1/2-y,-z
1/2+x,1/2-y,z
loop_
_atom_site_type_symbol
_atom_site_label
_atom_site_fract_x
_atom_site_fract_y
_atom_site_fract_z
Si Si1 0.992818 0.412864 0.308734
Si Si2 0.734812 0.915226 0.884784
Si Si3 0.530180 0.586986 0.272202
Si Si4 0.500000 0.308063 0.000000
Si Si5 0.327103 0.801772 0.303866
O O1 0.959311 0.500000 0.313645
O O2 0.000000 0.402004 0.500000
O O3 0.911261 0.353991 0.314222
O O4 0.115655 0.404603 0.099440
O O5 0.837824 0.907261 0.890354
O O6 0.745104 0.857117 0.724522
O O7 0.740029 0.000000 0.813161
O O8 0.500000 0.604923 0.500000
O O9 0.498661 0.500000 0.279932
O O10 0.484279 0.641182 0.182174
O O11 0.602980 0.252822 0.894144
O O12 0.250000 0.750000 0.500000
#
# Coordination Sequence:
#
# PCOD9212720 Si02
#       5
#     8   8   8   4   8
#     4  10  22  42  67  95 125 166 219 271 320 380
#     4  10  21  43  69  90 122 169 217 266 318 377
#     4  10  23  44  67  94 127 173 225 266 314 384
#     4  12  25  42  63  96 134 172 208 266 335 390
#     4  12  25  40  61  96 131 167 209 263 334 391
#
# _framework density 20.661162999999998
#
# number of rings (size 3 to 8) (size 9 to 14) (size 15 to 20)
#    0.000    1.333    2.222    2.333    3.111    5.333 
#    0.000    2.222    0.000    0.000    0.000    0.000 
#    0.000    0.000    0.000    0.000    0.000    0.000 
#
# Total GULP energy -100581.474264 kJ/mol
# GULP energy per Si atom -5587.859681 kJ/mol
# Density = 2.061414 g / cm^3
# Si number density = 20.661163 Si / 1000 Ang^3
#
#
#
# Elastic Constant Matrix: (Units=GPa)
#
#
# Indices 1 2 3 4 5 6 
#
# 1 44.7700 40.3532 -2.6284 0.0000 -0.1659 0.0000
# 2 40.3532 112.7831 42.1754 0.0000 14.5701 0.0000
# 3 -2.6284 42.1754 58.3506 0.0000 3.3384 0.0000
# 4 0.0000 0.0000 0.0000 41.6320 0.0000 29.9026
# 5 -0.1659 14.5701 3.3384 0.0000 33.1624 0.0000
# 6 0.0000 0.0000 0.0000 29.9026 0.0000 978.7094
#
#
#
# Elastic Compliance Matrix: (Units=1/GPa)
#
#
# Indices 1 2 3 4 5 6 
#
# 1 0.046077 -0.025022 0.019632 0.000000 0.009248 0.000000
# 2 -0.025022 0.026439 -0.019679 0.000000 -0.009760 0.000000
# 3 0.019632 -0.019679 0.031929 0.000000 0.005530 0.000000
# 4 0.000000 0.000000 0.000000 0.024559 0.000000 -0.000750
# 5 0.009248 -0.009760 0.005530 0.000000 0.033932 0.000000
# 6 0.000000 0.000000 0.000000 -0.000750 0.000000 0.001045
#
#
# Mechanical properties :
#
#
# Convention : Reuss Voigt Hill
#
# Bulk Modulus (GPa) = 18.41344 41.74491 30.07917
# Shear Modulus (GPa) = 21.53112 219.76766 120.64939
#
# Velocity S-wave (km/s) = 3.23167 10.32465 7.64991
# Velocity P-wave (km/s) = 4.78083 12.74283 9.62382
#
# Compressibility (1/GPa) = 0.05430817
#
# Stress axis : x y z
#
# Youngs Moduli (GPa) = 21.70280 37.82253 31.31907
#
# Poissons Ratio (x) = 0.94641 -0.61487
# Poissons Ratio (y) = 0.54306 0.61632
# Poissons Ratio (z) = -0.42608 0.74430
#
# Static dielectric constant tensor:
#      x y z
#    x 1.732610 0.000000 -0.030490 
#    y 0.000000 1.719740 0.000000 
#    z -0.030490 0.000000 1.763920 
# 
# From -- ./inp_files/72773.got.cif
#   From: 2010.05.17/outbox.cif.g08.bks.cpg/sg12_37_cif.got.tgz:72773.got - 2010.06.03 13:09:07.
