data_PCOD9212304
_publ_section_title
;
Structure prediction by ZEFSAII (Michael W. Deem and Ramdas Pophale) SiO2 
 PCOD9212304
Probable space group: C 2/M
;
_chemical_formula_sum "Si O2"
_cell_formula_units_Z 44
_cell_length_a 24.264258
_cell_length_b 15.215693
_cell_length_c 6.919859
_cell_angle_alpha 90.000000
_cell_angle_beta 52.354620
_cell_angle_gamma 90.000000
_cell_volume 2022.902092
_symmetry_space_group_name_H-M "C 2/M"
_symmetry_group_IT_number 12
_symmetry_cell_setting 'monoclinic'
loop_
_space_group_symop_operation_xyz
x,y,z
-x,y,-z
-x,-y,-z
x,-y,z
1/2+x,1/2+y,z
1/2-x,1/2+y,-z
1/2-x,1/2-y,-z
1/2+x,1/2-y,z
loop_
_atom_site_type_symbol
_atom_site_label
_atom_site_fract_x
_atom_site_fract_y
_atom_site_fract_z
Si Si1 0.606267 0.311158 0.591315
Si Si2 0.790700 0.500000 0.915724
Si Si3 0.772747 0.000000 0.356387
Si Si4 0.083913 0.000000 0.830044
Si Si5 0.560049 0.000000 0.204714
Si Si6 0.500000 0.719986 0.500000
Si Si7 0.755830 0.349196 0.270566
Si Si8 0.087725 0.685963 0.981716
O O1 0.602247 0.407597 0.692802
O O2 0.560531 0.323155 0.497778
O O3 0.687845 0.289852 0.389729
O O4 0.578195 0.236962 0.799720
O O5 0.775620 0.500000 0.724578
O O6 0.870201 0.500000 0.814386
O O7 0.758264 0.413673 0.082083
O O8 0.856210 0.000000 0.129273
O O9 0.754507 0.085178 0.524919
O O10 0.000000 0.000000 0.000000
O O11 0.500000 0.000000 0.500000
O O12 0.565888 0.084255 0.051134
O O13 0.457333 0.771615 0.752681
O O14 0.830396 0.304758 0.140017
#
# Coordination Sequence:
#
# PCOD9212304 Si02
#       8
#     8   4   4   4   4   4   8   8
#     4  11  25  44  66  98 135 178 222 285 336 403
#     4   9  19  36  66 102 133 167 225 281 320 407
#     4   9  19  38  64  99 132 169 225 282 327 408
#     4  10  21  41  67  92 130 174 223 263 346 400
#     4  10  21  44  70 101 133 177 223 267 340 404
#     4  12  26  42  62  96 140 170 232 280 332 404
#     4   9  21  40  64  96 132 175 228 272 338 402
#     4  11  23  44  69  97 136 174 227 282 333 404
#
# _framework density 21.750927999999998
#
# number of rings (size 3 to 8) (size 9 to 14) (size 15 to 20)
#    0.000    1.818    0.909    3.273    0.000    8.364 
#    3.273    3.636    0.000    0.000    0.000    0.000 
#    0.000    0.000    0.000    0.000    0.000    0.000 
#
# Total GULP energy -122657.443154 kJ/mol
# GULP energy per Si atom -5575.338325 kJ/mol
# Density = 2.170142 g / cm^3
# Si number density = 21.750928 Si / 1000 Ang^3
#
#
#
# Elastic Constant Matrix: (Units=GPa)
#
#
# Indices 1 2 3 4 5 6 
#
# 1 101.3393 27.4542 45.6106 0.0000 -0.8190 0.0000
# 2 27.4542 66.9639 18.1530 0.0000 9.4300 0.0000
# 3 45.6106 18.1530 83.8499 0.0000 -13.8988 0.0000
# 4 0.0000 0.0000 0.0000 17.2190 0.0000 6.8886
# 5 -0.8190 9.4300 -13.8988 0.0000 52.7064 0.0000
# 6 0.0000 0.0000 0.0000 6.8886 0.0000 39.9576
#
#
#
# Elastic Compliance Matrix: (Units=1/GPa)
#
#
# Indices 1 2 3 4 5 6 
#
# 1 0.014005 -0.003717 -0.006972 0.000000 -0.000956 0.000000
# 2 -0.003717 0.017663 -0.002442 0.000000 -0.003862 0.000000
# 3 -0.006972 -0.002442 0.017047 0.000000 0.004824 0.000000
# 4 0.000000 0.000000 0.000000 0.062377 0.000000 -0.010754
# 5 -0.000956 -0.003862 0.004824 0.000000 0.020921 0.000000
# 6 0.000000 0.000000 0.000000 -0.010754 0.000000 0.026880
#
#
# Mechanical properties :
#
#
# Convention : Reuss Voigt Hill
#
# Bulk Modulus (GPa) = 44.53806 48.28761 46.41284
# Shear Modulus (GPa) = 25.95506 32.70562 29.33034
#
# Velocity S-wave (km/s) = 3.45814 3.88189 3.67613
# Velocity P-wave (km/s) = 6.03870 6.50696 6.27720
#
# Compressibility (1/GPa) = 0.02245271
#
# Stress axis : x y z
#
# Youngs Moduli (GPa) = 71.40301 56.61441 58.66240
#
# Poissons Ratio (x) = 0.21045 0.40898
# Poissons Ratio (y) = 0.26543 0.14326
# Poissons Ratio (z) = 0.49780 0.13826
#
# Static dielectric constant tensor:
#      x y z
#    x 1.857820 0.000000 -0.069020 
#    y 0.000000 1.782660 0.000000 
#    z -0.069020 0.000000 1.804290 
# 
# From -- ./inp_files/28701.got.cif
#   From: 2010.05.17/outbox.cif.g08.bks.cpg/sg12_15_cif.got.tgz:28701.got - 2010.06.03 13:09:07.
