data_PCOD9212503
_publ_section_title
;
Structure prediction by ZEFSAII (Michael W. Deem and Ramdas Pophale) SiO2 
 PCOD9212503
Probable space group: C 2/M
;
_chemical_formula_sum "Si O2"
_cell_formula_units_Z 58
_cell_length_a 17.327483
_cell_length_b 30.948381
_cell_length_c 12.613950
_cell_angle_alpha 90.000000
_cell_angle_beta 27.573614
_cell_angle_gamma 90.000000
_cell_volume 3131.124388
_symmetry_space_group_name_H-M "C 2/M"
_symmetry_group_IT_number 12
_symmetry_cell_setting 'monoclinic'
loop_
_space_group_symop_operation_xyz
x,y,z
-x,y,-z
-x,-y,-z
x,-y,z
1/2+x,1/2+y,z
1/2-x,1/2+y,-z
1/2-x,1/2-y,-z
1/2+x,1/2-y,z
loop_
_atom_site_type_symbol
_atom_site_label
_atom_site_fract_x
_atom_site_fract_y
_atom_site_fract_z
Si Si1 0.700391 0.308036 0.778207
Si Si2 0.000000 0.500000 0.000000
Si Si3 0.005540 0.423333 0.160782
Si Si4 0.799132 0.290587 0.248592
Si Si5 0.179837 0.134717 0.240468
Si Si6 0.147214 0.131654 0.033676
Si Si7 0.762720 0.850046 0.482242
Si Si8 0.121743 0.549885 0.251088
O O1 0.755595 0.258361 0.707408
O O2 0.779568 0.333862 0.583999
O O3 0.500000 0.307503 0.000000
O O4 0.724037 0.333659 0.858548
O O5 0.031288 0.462386 0.871641
O O6 0.028135 0.438785 0.254997
O O7 0.867244 0.386025 0.322999
O O8 0.180662 0.401602 0.913954
O O9 0.727960 0.323227 0.248358
O O10 0.743236 0.309496 0.430225
O O11 0.000000 0.292048 0.000000
O O12 0.174172 0.144682 0.122680
O O13 0.000000 0.119431 0.500000
O O14 0.949126 0.131007 0.255481
O O15 0.231864 0.085036 0.915231
O O16 0.180084 0.500000 0.174340
O O17 0.000000 0.553833 0.500000
#
# Coordination Sequence:
#
# PCOD9212503 Si02
#       8
#     8   2   8   8   8   8   8   8
#     4   9  21  37  60  89 119 153 207 249 289 353
#     4  12  24  40  60  96 118 144 206 246 286 370
#     4  11  23  40  62  88 120 159 199 245 303 356
#     4  11  20  37  60  88 117 164 202 242 294 355
#     4  11  22  39  59  85 123 163 196 241 305 353
#     4  10  22  39  61  89 121 156 198 252 302 351
#     4  11  20  39  64  86 121 160 196 247 301 356
#     4  10  21  42  64  87 119 157 200 246 302 360
#
# _framework density 18.523696999999999
#
# number of rings (size 3 to 8) (size 9 to 14) (size 15 to 20)
#    0.000    1.517    3.448    2.069    0.000    0.552 
#    1.241    3.793    0.000    2.897    0.000    0.000 
#    0.000    0.000    0.000    0.000    0.000    0.000 
#
# Total GULP energy -161701.347183 kJ/mol
# GULP energy per Si atom -5575.908524 kJ/mol
# Density = 1.848154 g / cm^3
# Si number density = 18.523697 Si / 1000 Ang^3
#
#
#
# Elastic Constant Matrix: (Units=GPa)
#
#
# Indices 1 2 3 4 5 6 
#
# 1 45.5845 29.4185 39.0330 0.0000 24.9229 -0.0008
# 2 29.4185 109.6133 55.1016 -0.0010 15.5939 -0.0001
# 3 39.0330 55.1016 86.0576 -0.0002 14.7607 -0.0006
# 4 0.0000 -0.0010 -0.0002 17.2873 0.0001 17.8756
# 5 24.9229 15.5939 14.7607 0.0001 35.6500 0.0001
# 6 -0.0008 -0.0001 -0.0006 17.8756 0.0001 20.5576
#
#
#
# Elastic Compliance Matrix: (Units=1/GPa)
#
#
# Indices 1 2 3 4 5 6 
#
# 1 0.056076 -0.000801 -0.019653 -0.000018 -0.030715 0.000017
# 2 -0.000801 0.013674 -0.008033 0.000009 -0.002096 -0.000008
# 3 -0.019653 -0.008033 0.024455 -0.000002 0.007128 0.000001
# 4 -0.000018 0.000009 -0.000002 0.573454 0.000008 -0.498639
# 5 -0.030715 -0.002096 0.007128 0.000008 0.047489 -0.000009
# 6 0.000017 -0.000008 0.000001 -0.498639 -0.000009 0.482228
#
#
# Mechanical properties :
#
#
# Convention : Reuss Voigt Hill
#
# Bulk Modulus (GPa) = 26.85911 54.26241 40.56076
# Shear Modulus (GPa) = 3.94708 22.54580 13.24644
#
# Velocity S-wave (km/s) = 1.46132 3.49253 2.67705
# Velocity P-wave (km/s) = 4.16877 6.75431 5.61246
#
# Compressibility (1/GPa) = 0.03723131
#
# Stress axis : x y z
#
# Youngs Moduli (GPa) = 17.83304 73.13183 40.89174
#
# Poissons Ratio (x) = 0.05856 0.80365
# Poissons Ratio (y) = 0.01428 0.32847
# Poissons Ratio (z) = 0.35048 0.58744
#
# Static dielectric constant tensor:
#      x y z
#    x 1.650230 0.000000 0.000180 
#    y 0.000000 1.608480 0.000000 
#    z 0.000180 0.000000 1.636390 
# 
# From -- ./inp_files/161091.got.cif
#   From: 2010.05.17/outbox.cif.g08.bks.cpg/sg12_81_cif.got.tgz:161091.got - 2010.06.03 13:09:07.
