data_PCOD9212978
_publ_section_title
;
Structure prediction by ZEFSAII (Michael W. Deem and Ramdas Pophale) SiO2 
 PCOD9212978
Probable space group: C 2/M
;
_chemical_formula_sum "Si O2"
_cell_formula_units_Z 50
_cell_length_a 10.058003
_cell_length_b 29.668392
_cell_length_c 10.872514
_cell_angle_alpha 90.000000
_cell_angle_beta 43.602850
_cell_angle_gamma 90.000000
_cell_volume 2237.525480
_symmetry_space_group_name_H-M "C 2/M"
_symmetry_group_IT_number 12
_symmetry_cell_setting 'monoclinic'
loop_
_space_group_symop_operation_xyz
x,y,z
-x,y,-z
-x,-y,-z
x,-y,z
1/2+x,1/2+y,z
1/2-x,1/2+y,-z
1/2-x,1/2-y,-z
1/2+x,1/2-y,z
loop_
_atom_site_type_symbol
_atom_site_label
_atom_site_fract_x
_atom_site_fract_y
_atom_site_fract_z
Si Si1 0.704298 0.382175 0.298121
Si Si2 0.560042 0.207340 0.830740
Si Si3 0.539070 0.582631 0.163356
Si Si4 0.000000 0.000000 0.000000
Si Si5 0.839927 0.615411 0.458157
Si Si6 0.730891 0.846522 0.146460
Si Si7 0.276793 0.208604 0.615674
O O1 0.500000 0.374715 0.500000
O O2 0.801564 0.333495 0.215785
O O3 0.667571 0.411788 0.202066
O O4 0.826902 0.403134 0.327451
O O5 0.387077 0.184406 0.871075
O O6 0.657782 0.245791 0.681885
O O7 0.500000 0.228866 0.000000
O O8 0.548720 0.539248 0.071639
O O9 0.317400 0.588754 0.357383
O O10 0.621170 0.623421 0.026745
O O11 0.770934 0.668096 0.519792
O O12 0.068800 0.621172 0.322149
O O13 0.801265 0.815535 0.209127
O O14 0.500000 0.219042 0.500000
#
# Coordination Sequence:
#
# PCOD9212978 Si02
#       7
#     8   8   8   2   8   8   8
#     4   9  19  37  62  83 119 170 205 252 304 363
#     4  11  21  33  55  92 125 172 227 256 297 354
#     4  11  22  44  64  92 122 156 200 257 323 393
#     4  12  28  44  76 102 124 148 192 266 336 392
#     4   9  21  39  64  91 125 172 212 249 303 368
#     4  10  22  39  63  86 125 175 209 258 309 366
#     4  10  22  36  52  88 131 170 222 268 298 336
#
# _framework density 22.346112999999999
#
# number of rings (size 3 to 8) (size 9 to 14) (size 15 to 20)
#    0.000    1.920    1.600    1.440    2.240    8.960 
#    0.000    5.200    0.000    6.720    0.000    0.000 
#    0.000    0.000    0.000    0.000    0.000    0.000 
#
# Total GULP energy -139214.916271 kJ/mol
# GULP energy per Si atom -5568.596651 kJ/mol
# Density = 2.229525 g / cm^3
# Si number density = 22.346113 Si / 1000 Ang^3
#
#
#
# Elastic Constant Matrix: (Units=GPa)
#
#
# Indices 1 2 3 4 5 6 
#
# 1 108.7505 62.7553 12.1023 0.0000 31.6422 0.0000
# 2 62.7553 107.5840 31.9126 0.0000 14.3618 0.0000
# 3 12.1023 31.9126 95.2924 0.0000 21.4027 0.0000
# 4 0.0000 0.0000 0.0000 4.6116 0.0000 20.2538
# 5 31.6422 14.3618 21.4027 0.0000 34.8906 0.0000
# 6 0.0000 0.0000 0.0000 20.2538 0.0000 30.2779
#
#
#
# Elastic Compliance Matrix: (Units=1/GPa)
#
#
# Indices 1 2 3 4 5 6 
#
# 1 0.019521 -0.010621 0.004723 0.000000 -0.016228 0.000000
# 2 -0.010621 0.016286 -0.005524 0.000000 0.006317 0.000000
# 3 0.004723 -0.005524 0.014144 0.000000 -0.010685 0.000000
# 4 0.000000 0.000000 0.000000 -0.111898 0.000000 0.074852
# 5 -0.016228 0.006317 -0.010685 0.000000 0.047333 0.000000
# 6 0.000000 0.000000 0.000000 0.074852 0.000000 -0.017043
#
#
# Mechanical properties :
#
#
# Convention : Reuss Voigt Hill
#
# Bulk Modulus (GPa) = 36.89263 58.35191 47.62227
# Shear Modulus (GPa) = 22478.43815 27.61315 11253.02565
#
# Velocity S-wave (km/s) = 100.40445 3.51907 71.04026
# Velocity P-wave (km/s) = 116.00841 6.53309 82.16031
#
# Compressibility (1/GPa) = 0.02710569
#
# Stress axis : x y z
#
# Youngs Moduli (GPa) = 51.22790 61.40332 70.70087
#
# Poissons Ratio (x) = 0.65217 -0.33389
# Poissons Ratio (y) = 0.54410 0.39054
# Poissons Ratio (z) = -0.24193 0.33918
#
# Static dielectric constant tensor:
#      x y z
#    x 1.965560 0.000000 -0.007720 
#    y 0.000000 1.752930 0.000000 
#    z -0.007720 0.000000 1.918570 
# 
# From -- ./inp_files/54096.got.cif
#   From: 2010.05.17/outbox.cif.g08.bks.cpg/sg12_28_cif.got.tgz:54096.got - 2010.06.03 13:09:07.
