data_PCOD9212264
_publ_section_title
;
Structure prediction by ZEFSAII (Michael W. Deem and Ramdas Pophale) SiO2 
 PCOD9212264
Probable space group: C 2/M
;
_chemical_formula_sum "Si O2"
_cell_formula_units_Z 36
_cell_length_a 12.815902
_cell_length_b 8.150914
_cell_length_c 19.220802
_cell_angle_alpha 90.000000
_cell_angle_beta 55.672442
_cell_angle_gamma 90.000000
_cell_volume 1658.120746
_symmetry_space_group_name_H-M "C 2/M"
_symmetry_group_IT_number 12
_symmetry_cell_setting 'monoclinic'
loop_
_space_group_symop_operation_xyz
x,y,z
-x,y,-z
-x,-y,-z
x,-y,z
1/2+x,1/2+y,z
1/2-x,1/2+y,-z
1/2-x,1/2-y,-z
1/2+x,1/2-y,z
loop_
_atom_site_type_symbol
_atom_site_label
_atom_site_fract_x
_atom_site_fract_y
_atom_site_fract_z
Si Si1 0.632942 0.000000 0.722114
Si Si2 0.243501 0.309490 0.386002
Si Si3 0.043145 0.811955 0.573455
Si Si4 0.082768 0.500000 0.316844
Si Si5 0.000000 0.249180 0.000000
Si Si6 0.208775 0.000000 0.877699
Si Si7 0.923346 0.500000 0.915428
O O1 0.713198 0.833783 0.682659
O O2 0.530919 0.000000 0.697806
O O3 0.551554 0.000000 0.822312
O O4 0.233045 0.500000 0.366206
O O5 0.124996 0.246219 0.476317
O O6 0.356539 0.315557 0.400903
O O7 0.944693 0.669140 0.631065
O O8 0.997404 0.000000 0.582958
O O9 0.208828 0.500000 0.223140
O O10 0.111767 0.149482 0.921123
O O11 0.930190 0.349074 0.965701
O O12 0.306880 0.000000 0.905746
#
# Coordination Sequence:
#
# PCOD9212264 Si02
#       7
#     4   8   8   4   4   4   4
#     4   9  17  29  47  78 117 155 201 253 299 359
#     4   9  14  22  39  68 111 157 199 246 296 351
#     4   9  14  22  39  68 111 157 199 246 296 351
#     4   9  17  29  47  78 117 155 201 253 299 359
#     4  10  22  42  68  92 122 166 202 254 336 392
#     4  10  21  41  66  95 127 160 207 262 316 384
#     4  10  21  41  66  95 127 160 207 262 316 384
#
# _framework density 21.711324999999999
#
# number of rings (size 3 to 8) (size 9 to 14) (size 15 to 20)
#    0.000    2.667    2.222    0.667    0.000    0.000 
#    8.000    0.000    0.000    0.000    0.000    4.667 
#    0.000    0.000    0.000    0.000    0.000   15.111 
#
# Total GULP energy -100589.846448 kJ/mol
# GULP energy per Si atom -5588.324803 kJ/mol
# Density = 2.166191 g / cm^3
# Si number density = 21.711325 Si / 1000 Ang^3
#
#
#
# Elastic Constant Matrix: (Units=GPa)
#
#
# Indices 1 2 3 4 5 6 
#
# 1 72.3479 43.5882 20.0784 0.0000 -12.6015 0.0000
# 2 43.5882 197.6929 98.8372 0.0000 -14.6238 0.0000
# 3 20.0784 98.8372 141.2352 0.0000 -19.3802 0.0000
# 4 0.0000 0.0000 0.0000 114.5076 0.0000 47.3757
# 5 -12.6015 -14.6238 -19.3802 0.0000 39.6593 0.0000
# 6 0.0000 0.0000 0.0000 47.3757 0.0000 20.6972
#
#
#
# Elastic Compliance Matrix: (Units=1/GPa)
#
#
# Indices 1 2 3 4 5 6 
#
# 1 0.016608 -0.003781 0.000877 0.000000 0.004311 0.000000
# 2 -0.003781 0.008643 -0.005615 0.000000 -0.000758 0.000000
# 3 0.000877 -0.005615 0.011404 0.000000 0.003781 0.000000
# 4 0.000000 0.000000 0.000000 0.164876 0.000000 -0.377400
# 5 0.004311 -0.000758 0.003781 0.000000 0.028153 0.000000
# 6 0.000000 0.000000 0.000000 -0.377400 0.000000 0.912179
#
#
# Mechanical properties :
#
#
# Convention : Reuss Voigt Hill
#
# Bulk Modulus (GPa) = 50.97918 81.80928 66.39423
# Shear Modulus (GPa) = 4.29022 51.55762 27.92392
#
# Velocity S-wave (km/s) = 1.40724 4.87836 3.59018
# Velocity P-wave (km/s) = 5.11584 8.33628 6.91612
#
# Compressibility (1/GPa) = 0.01961585
#
# Stress axis : x y z
#
# Youngs Moduli (GPa) = 60.21271 115.69768 87.68825
#
# Poissons Ratio (x) = 0.43747 -0.07687
# Poissons Ratio (y) = 0.22767 0.49238
# Poissons Ratio (z) = -0.05278 0.64965
#
# Static dielectric constant tensor:
#      x y z
#    x 1.905110 0.000000 0.008320 
#    y 0.000000 1.791830 0.000000 
#    z 0.008320 0.000000 1.697250 
# 
# From -- ./inp_files/308877.got.cif
#   From: 2010.05.17/outbox.cif.g08.bks.cpg/sg12_155_cif.got.tgz:308877.got - 2010.06.03 13:09:07.
