data_PCOD9212649
_publ_section_title
;
Structure prediction by ZEFSAII (Michael W. Deem and Ramdas Pophale) SiO2 
 PCOD9212649
Probable space group: C 2/M
;
_chemical_formula_sum "Si O2"
_cell_formula_units_Z 44
_cell_length_a 11.464348
_cell_length_b 21.324228
_cell_length_c 8.943947
_cell_angle_alpha 90.000000
_cell_angle_beta 76.190595
_cell_angle_gamma 90.000000
_cell_volume 2123.311261
_symmetry_space_group_name_H-M "C 2/M"
_symmetry_group_IT_number 12
_symmetry_cell_setting 'monoclinic'
loop_
_space_group_symop_operation_xyz
x,y,z
-x,y,-z
-x,-y,-z
x,-y,z
1/2+x,1/2+y,z
1/2-x,1/2+y,-z
1/2-x,1/2-y,-z
1/2+x,1/2-y,z
loop_
_atom_site_type_symbol
_atom_site_label
_atom_site_fract_x
_atom_site_fract_y
_atom_site_fract_z
Si Si1 0.050761 0.571294 0.820671
Si Si2 0.543312 0.704476 0.155464
Si Si3 0.576633 0.824871 0.335326
Si Si4 0.174139 0.895116 0.275262
Si Si5 0.830556 0.868792 0.384664
Si Si6 0.540088 0.500000 0.671122
O O1 0.015585 0.500000 0.795866
O O2 0.194711 0.576012 0.780376
O O3 0.997298 0.618966 0.717878
O O4 0.000000 0.586856 0.000000
O O5 0.586137 0.769079 0.213602
O O6 0.646226 0.652297 0.148858
O O7 0.431987 0.675261 0.281952
O O8 0.500000 0.711475 0.000000
O O9 0.500000 0.801425 0.500000
O O10 0.704242 0.849604 0.352729
O O11 0.170559 0.860257 0.435923
O O12 0.068038 0.946346 0.313141
O O13 0.861656 0.942428 0.347092
#
# Coordination Sequence:
#
# PCOD9212649 Si02
#       6
#     8   8   8   8   8   4
#     4  11  26  45  68 102 143 184 217 276 346 405
#     4  11  27  45  68 100 134 182 229 282 345 398
#     4  12  26  44  71 100 136 178 232 283 334 405
#     4  11  21  45  72  98 137 177 229 279 334 406
#     4  11  24  42  71 103 135 178 228 283 332 404
#     4  10  21  42  71 101 131 174 223 278 333 392
#
# _framework density 20.722349999999999
#
# number of rings (size 3 to 8) (size 9 to 14) (size 15 to 20)
#    0.000    0.909    2.727    4.909    6.364    2.545 
#    0.000    7.273    0.000    0.000    0.000    0.000 
#    0.000    0.000    0.000    0.000    0.000    0.000 
#
# Total GULP energy -122536.620360 kJ/mol
# GULP energy per Si atom -5569.846380 kJ/mol
# Density = 2.067518 g / cm^3
# Si number density = 20.722350 Si / 1000 Ang^3
#
#
#
# Elastic Constant Matrix: (Units=GPa)
#
#
# Indices 1 2 3 4 5 6 
#
# 1 117.1436 45.0477 9.2328 0.0000 13.9870 0.0000
# 2 45.0477 84.6687 33.3913 0.0000 37.3006 0.0000
# 3 9.2328 33.3913 78.8555 0.0000 15.8695 0.0000
# 4 0.0000 0.0000 0.0000 15.0350 0.0000 -7.5064
# 5 13.9870 37.3006 15.8695 0.0000 36.5337 0.0000
# 6 0.0000 0.0000 0.0000 -7.5064 0.0000 8.2562
#
#
#
# Elastic Compliance Matrix: (Units=1/GPa)
#
#
# Indices 1 2 3 4 5 6 
#
# 1 0.011056 -0.007812 0.001381 0.000000 0.003143 0.000000
# 2 -0.007812 0.029060 -0.006599 0.000000 -0.023813 0.000000
# 3 0.001381 -0.006599 0.015412 0.000000 -0.000486 0.000000
# 4 0.000000 0.000000 0.000000 0.121800 0.000000 0.110739
# 5 0.003143 -0.023813 -0.000486 0.000000 0.050693 0.000000
# 6 0.000000 0.000000 0.000000 0.110739 0.000000 0.221804
#
#
# Mechanical properties :
#
#
# Convention : Reuss Voigt Hill
#
# Bulk Modulus (GPa) = 33.93353 50.66794 42.30073
# Shear Modulus (GPa) = 10.29428 24.83137 17.56282
#
# Velocity S-wave (km/s) = 2.23126 3.46539 2.91440
# Velocity P-wave (km/s) = 4.80092 6.36520 5.63758
#
# Compressibility (1/GPa) = 0.02946938
#
# Stress axis : x y z
#
# Youngs Moduli (GPa) = 90.44499 34.41154 64.88572
#
# Poissons Ratio (x) = 0.26881 -0.08960
# Poissons Ratio (y) = 0.70653 0.42815
# Poissons Ratio (z) = -0.12489 0.22706
#
# Static dielectric constant tensor:
#      x y z
#    x 1.715410 0.000000 -0.016940 
#    y 0.000000 1.719800 0.000000 
#    z -0.016940 0.000000 1.762720 
# 
# From -- ./inp_files/49272.got.cif
#   From: 2010.05.17/outbox.cif.g08.bks.cpg/sg12_25_cif.got.tgz:49272.got - 2010.06.03 13:09:07.
