data_PCOD9212682
_publ_section_title
;
Structure prediction by ZEFSAII (Michael W. Deem and Ramdas Pophale) SiO2 
 PCOD9212682
Probable space group: C 2/M
;
_chemical_formula_sum "Si O2"
_cell_formula_units_Z 48
_cell_length_a 16.456385
_cell_length_b 15.060807
_cell_length_c 8.767857
_cell_angle_alpha 90.000000
_cell_angle_beta 82.956689
_cell_angle_gamma 90.000000
_cell_volume 2156.683497
_symmetry_space_group_name_H-M "C 2/M"
_symmetry_group_IT_number 12
_symmetry_cell_setting 'monoclinic'
loop_
_space_group_symop_operation_xyz
x,y,z
-x,y,-z
-x,-y,-z
x,-y,z
1/2+x,1/2+y,z
1/2-x,1/2+y,-z
1/2-x,1/2-y,-z
1/2+x,1/2-y,z
loop_
_atom_site_type_symbol
_atom_site_label
_atom_site_fract_x
_atom_site_fract_y
_atom_site_fract_z
Si Si1 0.863203 0.663899 0.595566
Si Si2 0.750068 0.306314 0.234287
Si Si3 0.739950 0.500000 0.652256
Si Si4 0.216812 0.000000 0.314605
Si Si5 0.634577 0.692273 0.974612
Si Si6 0.035807 0.601950 0.687790
Si Si7 0.000000 0.672328 0.000000
Si Si8 0.137149 0.000000 0.990817
O O1 0.817764 0.754913 0.648966
O O2 0.796606 0.586855 0.629097
O O3 0.903035 0.664059 0.419371
O O4 0.943065 0.632271 0.671680
O O5 0.764816 0.406582 0.287766
O O6 0.706806 0.320037 0.079916
O O7 0.823592 0.238052 0.181657
O O8 0.688138 0.500000 0.501772
O O9 0.702857 0.500000 0.833026
O O10 0.161551 0.000000 0.168879
O O11 0.568229 0.761465 0.049999
O O12 0.596486 0.594982 0.967065
O O13 0.048515 0.500000 0.638145
O O14 0.043306 0.612851 0.865192
#
# Coordination Sequence:
#
# PCOD9212682 Si02
#       8
#     8   8   4   4   8   8   4   4
#     4  11  21  40  65  88 130 169 207 263 331 382
#     4  10  21  43  64  92 129 171 211 270 325 378
#     4  12  22  39  67 101 125 167 222 263 323 396
#     4  10  26  38  62  98 131 165 218 262 326 382
#     4  10  22  39  66  93 127 172 216 263 328 379
#     4  11  23  40  59  93 133 169 207 263 332 388
#     4  12  25  39  60  98 126 172 222 258 314 402
#     4  10  22  45  65  91 132 170 212 279 325 367
#
# _framework density 22.256395000000001
#
# number of rings (size 3 to 8) (size 9 to 14) (size 15 to 20)
#    0.000    1.333    5.000    0.750    2.333    2.333 
#    1.500    0.000    0.000    3.000    0.000    0.000 
#    0.000    0.000    0.000    0.000    0.000    0.000 
#
# Total GULP energy -133699.195428 kJ/mol
# GULP energy per Si atom -5570.799810 kJ/mol
# Density = 2.220574 g / cm^3
# Si number density = 22.256395 Si / 1000 Ang^3
#
#
#
# Elastic Constant Matrix: (Units=GPa)
#
#
# Indices 1 2 3 4 5 6 
#
# 1 39.6314 20.7979 10.9002 0.0000 -3.9766 0.0000
# 2 20.7979 162.3730 34.1640 0.0000 -13.5525 0.0000
# 3 10.9002 34.1640 110.7368 0.0000 -10.6805 0.0000
# 4 0.0000 0.0000 0.0000 7.6810 0.0000 -1.7458
# 5 -3.9766 -13.5525 -10.6805 0.0000 30.9743 0.0000
# 6 0.0000 0.0000 0.0000 -1.7458 0.0000 1.5183
#
#
#
# Elastic Compliance Matrix: (Units=1/GPa)
#
#
# Indices 1 2 3 4 5 6 
#
# 1 0.027433 -0.003039 -0.001605 0.000000 0.001639 0.000000
# 2 -0.003039 0.007079 -0.001680 0.000000 0.002128 0.000000
# 3 -0.001605 -0.001680 0.009947 0.000000 0.002489 0.000000
# 4 0.000000 0.000000 0.000000 0.176255 0.000000 0.202664
# 5 0.001639 0.002128 0.002489 0.000000 0.034284 0.000000
# 6 0.000000 0.000000 0.000000 0.202664 0.000000 0.891668
#
#
# Mechanical properties :
#
#
# Convention : Reuss Voigt Hill
#
# Bulk Modulus (GPa) = 31.43494 49.38504 40.40999
# Shear Modulus (GPa) = 4.27381 24.49333 14.38357
#
# Velocity S-wave (km/s) = 1.38724 3.32099 2.54494
# Velocity P-wave (km/s) = 4.08908 6.07804 5.17992
#
# Compressibility (1/GPa) = 0.03181174
#
# Stress axis : x y z
#
# Youngs Moduli (GPa) = 36.45201 141.26344 100.53704
#
# Poissons Ratio (x) = 0.42937 0.16132
# Poissons Ratio (y) = 0.11079 0.16886
# Poissons Ratio (z) = 0.05849 0.23726
#
# Static dielectric constant tensor:
#      x y z
#    x 1.857270 0.000000 0.082670 
#    y 0.000000 1.803960 0.000000 
#    z 0.082670 0.000000 1.889230 
# 
# From -- ./inp_files/85761.got.cif
#   From: 2010.05.17/outbox.cif.g08.bks.cpg/sg12_43_cif.got.tgz:85761.got - 2010.06.03 13:09:07.
