data_PCOD9212203
_publ_section_title
;
Structure prediction by ZEFSAII (Michael W. Deem and Ramdas Pophale) SiO2 
 PCOD9212203
Probable space group: C 2/M
;
_chemical_formula_sum "Si O2"
_cell_formula_units_Z 56
_cell_length_a 9.896628
_cell_length_b 27.584958
_cell_length_c 19.021771
_cell_angle_alpha 90.000000
_cell_angle_beta 32.555444
_cell_angle_gamma 90.000000
_cell_volume 2794.383548
_symmetry_space_group_name_H-M "C 2/M"
_symmetry_group_IT_number 12
_symmetry_cell_setting 'monoclinic'
loop_
_space_group_symop_operation_xyz
x,y,z
-x,y,-z
-x,-y,-z
x,-y,z
1/2+x,1/2+y,z
1/2-x,1/2+y,-z
1/2-x,1/2-y,-z
1/2+x,1/2-y,z
loop_
_atom_site_type_symbol
_atom_site_label
_atom_site_fract_x
_atom_site_fract_y
_atom_site_fract_z
Si Si1 0.363168 0.444900 0.134053
Si Si2 0.861864 0.344974 0.989521
Si Si3 0.394993 0.303237 0.433032
Si Si4 0.031995 0.353091 0.316268
Si Si5 0.100880 0.551648 0.035741
Si Si6 0.900540 0.177713 0.268482
Si Si7 0.015429 0.712029 0.793500
O O1 0.261978 0.500000 0.170590
O O2 0.152503 0.405527 0.247295
O O3 0.598698 0.448762 0.084390
O O4 0.500000 0.431353 0.000000
O O5 0.975149 0.394490 0.906312
O O6 0.589826 0.355346 0.140928
O O7 0.000000 0.330097 0.000000
O O8 0.875512 0.305244 0.924367
O O9 0.250000 0.250000 0.500000
O O10 0.387067 0.325240 0.357791
O O11 0.685335 0.296212 0.326580
O O12 0.261021 0.342269 0.542319
O O13 0.145129 0.331808 0.339257
O O14 0.094237 0.318166 0.223542
O O15 0.011899 0.500000 0.106642
O O16 0.000000 0.551490 0.000000
O O17 0.004911 0.231479 0.210724
#
# Coordination Sequence:
#
# PCOD9212203 Si02
#       7
#     8   8   8   8   8   8   8
#     4  10  21  41  65  93 128 164 206 266 329 378
#     4  11  22  38  58  90 125 157 198 259 324 369
#     4  12  24  44  62  83 122 175 215 247 301 377
#     4  12  25  37  66  93 122 161 218 259 301 376
#     4   9  18  35  60  86 116 153 196 246 308 381
#     4  12  23  41  61  88 126 164 205 257 314 372
#     4  12  24  40  61  87 126 166 208 257 310 375
#
# _framework density 20.040199000000001
#
# number of rings (size 3 to 8) (size 9 to 14) (size 15 to 20)
#    0.000    0.857    5.714    2.143    0.000    0.000 
#    0.000    0.000    0.000    5.143    0.000    0.000 
#    0.000    0.000    0.000    0.000    0.000    0.000 
#
# Total GULP energy -155967.298130 kJ/mol
# GULP energy per Si atom -5570.260647 kJ/mol
# Density = 1.999459 g / cm^3
# Si number density = 20.040199 Si / 1000 Ang^3
#
#
#
# Elastic Constant Matrix: (Units=GPa)
#
#
# Indices 1 2 3 4 5 6 
#
# 1 66.4706 20.4295 11.7289 -0.0001 -2.8258 0.0002
# 2 20.4295 110.7237 29.1110 0.0001 22.9351 -0.0001
# 3 11.7289 29.1110 74.5466 0.0003 11.0233 -0.0005
# 4 -0.0001 0.0001 0.0003 25.4703 -0.0001 1.2355
# 5 -2.8258 22.9351 11.0233 -0.0001 27.4505 0.0000
# 6 0.0002 -0.0001 -0.0005 1.2355 0.0000 13.0927
#
#
#
# Elastic Compliance Matrix: (Units=1/GPa)
#
#
# Indices 1 2 3 4 5 6 
#
# 1 0.016791 -0.003741 -0.002019 0.000000 0.005664 0.000000
# 2 -0.003741 0.012473 -0.002854 0.000000 -0.009660 0.000000
# 3 -0.002019 -0.002854 0.015442 0.000000 -0.004024 0.000001
# 4 0.000000 0.000000 0.000000 0.039442 0.000000 -0.003722
# 5 0.005664 -0.009660 -0.004024 0.000000 0.046700 0.000000
# 6 0.000000 0.000000 0.000001 -0.003722 0.000000 0.076730
#
#
# Mechanical properties :
#
#
# Convention : Reuss Voigt Hill
#
# Bulk Modulus (GPa) = 36.39111 41.58666 38.98888
# Shear Modulus (GPa) = 21.37091 25.90081 23.63586
#
# Velocity S-wave (km/s) = 3.26912 3.59896 3.43800
# Velocity P-wave (km/s) = 5.69632 6.16982 5.93779
#
# Compressibility (1/GPa) = 0.02747924
#
# Stress axis : x y z
#
# Youngs Moduli (GPa) = 59.55595 80.17309 64.76043
#
# Poissons Ratio (x) = 0.29990 0.13073
# Poissons Ratio (y) = 0.22278 0.18481
# Poissons Ratio (z) = 0.12022 0.22880
#
# Static dielectric constant tensor:
#      x y z
#    x 1.464810 0.000000 0.274260 
#    y 0.000000 1.772210 0.000000 
#    z 0.274260 0.000000 1.404700 
# 
# From -- ./inp_files/259794.got.cif
#   From: 2010.05.17/outbox.cif.g08.bks.cpg/sg12_130_cif.got.tgz:259794.got - 2010.06.03 13:09:07.
