data_PCOD9212202
_publ_section_title
;
Structure prediction by ZEFSAII (Michael W. Deem and Ramdas Pophale) SiO2 
 PCOD9212202
Probable space group: C 2/M
;
_chemical_formula_sum "Si O2"
_cell_formula_units_Z 44
_cell_length_a 15.445147
_cell_length_b 15.353271
_cell_length_c 18.766769
_cell_angle_alpha 90.000000
_cell_angle_beta 150.042547
_cell_angle_gamma 90.000000
_cell_volume 2222.252521
_symmetry_space_group_name_H-M "C 2/M"
_symmetry_group_IT_number 12
_symmetry_cell_setting 'monoclinic'
loop_
_space_group_symop_operation_xyz
x,y,z
-x,y,-z
-x,-y,-z
x,-y,z
1/2+x,1/2+y,z
1/2-x,1/2+y,-z
1/2-x,1/2-y,-z
1/2+x,1/2-y,z
loop_
_atom_site_type_symbol
_atom_site_label
_atom_site_fract_x
_atom_site_fract_y
_atom_site_fract_z
Si Si1 0.793463 0.098997 0.353879
Si Si2 0.360558 0.500000 0.002044
Si Si3 0.732305 0.000000 0.749788
Si Si4 0.351899 0.665733 0.098800
Si Si5 0.794386 0.401402 0.858085
Si Si6 0.725026 0.743946 0.397677
Si Si7 0.000000 0.640176 0.500000
O O1 0.754795 0.143658 0.250621
O O2 0.718667 0.158162 0.362406
O O3 0.000000 0.093108 0.500000
O O4 0.722036 0.000000 0.305695
O O5 0.250609 0.500000 0.849505
O O6 0.566678 0.500000 0.131293
O O7 0.328291 0.585792 0.027106
O O8 0.627734 0.918882 0.640313
O O9 0.272959 0.640833 0.118826
O O10 0.552188 0.691228 0.253671
O O11 0.250000 0.750000 0.000000
O O12 0.721107 0.500000 0.803879
O O13 0.000000 0.406459 0.000000
O O14 0.750000 0.750000 0.500000
O O15 0.884069 0.697886 0.470408
#
# Coordination Sequence:
#
# PCOD9212202 Si02
#       7
#     8   4   4   8   8   8   4
#     4  10  21  41  65  93 127 174 218 269 335 401
#     4  11  24  48  73 100 141 178 242 293 340 430
#     4  10  24  48  74  98 134 195 229 279 357 409
#     4  12  26  44  68 104 138 179 232 288 346 414
#     4  10  21  41  66  90 128 170 215 278 337 393
#     4  12  26  44  68 104 141 178 231 288 347 419
#     4  11  24  48  71 102 144 180 235 288 348 427
#
# _framework density 19.79973
#
# number of rings (size 3 to 8) (size 9 to 14) (size 15 to 20)
#    0.000    1.091    3.636    2.182    2.545    0.000 
#    9.818    0.000    0.000    0.000    0.000    0.000 
#    0.000    0.000    0.000    0.000    0.000    0.000 
#
# Total GULP energy -122875.410746 kJ/mol
# GULP energy per Si atom -5585.245943 kJ/mol
# Density = 1.975466 g / cm^3
# Si number density = 19.799730 Si / 1000 Ang^3
#
#
#
# Elastic Constant Matrix: (Units=GPa)
#
#
# Indices 1 2 3 4 5 6 
#
# 1 176.7135 82.0241 63.2162 0.0008 -29.5905 0.0002
# 2 82.0241 126.7565 40.1659 -0.0013 -20.7611 0.0000
# 3 63.2162 40.1659 114.7166 0.0002 -24.6384 0.0009
# 4 0.0008 -0.0013 0.0002 26.6851 0.0004 10.6549
# 5 -29.5905 -20.7611 -24.6384 0.0004 45.2698 0.0005
# 6 0.0002 0.0000 0.0009 10.6549 0.0005 68.7906
#
#
#
# Elastic Compliance Matrix: (Units=1/GPa)
#
#
# Indices 1 2 3 4 5 6 
#
# 1 0.009286 -0.004688 -0.002983 -0.000001 0.002297 0.000000
# 2 -0.004688 0.011540 -0.001108 0.000001 0.001625 0.000000
# 3 -0.002983 -0.001108 0.011574 0.000000 0.003841 0.000000
# 4 -0.000001 0.000001 0.000000 0.039944 0.000000 -0.006187
# 5 0.002297 0.001625 0.003841 0.000000 0.026427 0.000000
# 6 0.000000 0.000000 0.000000 -0.006187 0.000000 0.015495
#
#
# Mechanical properties :
#
#
# Convention : Reuss Voigt Hill
#
# Bulk Modulus (GPa) = 67.37360 87.66653 77.52006
# Shear Modulus (GPa) = 36.55718 43.66778 40.11248
#
# Velocity S-wave (km/s) = 4.30158 4.70134 4.50589
# Velocity P-wave (km/s) = 7.66634 8.59319 8.14296
#
# Compressibility (1/GPa) = 0.01484261
#
# Stress axis : x y z
#
# Youngs Moduli (GPa) = 107.68354 86.65516 86.40180
#
# Poissons Ratio (x) = 0.40623 0.25772
# Poissons Ratio (y) = 0.50481 0.09575
# Poissons Ratio (z) = 0.32119 0.09603
#
# Static dielectric constant tensor:
#      x y z
#    x 1.754230 -0.000020 -0.026730 
#    y -0.000020 1.727030 0.000000 
#    z -0.026730 0.000000 1.691290 
# 
# From -- ./inp_files/271520.got.cif
#   From: 2010.05.17/outbox.cif.g08.bks.cpg/sg12_136_cif.got.tgz:271520.got - 2010.06.03 13:09:07.
