data_PCOD9212870
_publ_section_title
;
Structure prediction by ZEFSAII (Michael W. Deem and Ramdas Pophale) SiO2 
 PCOD9212870
Probable space group: C 2/M
;
_chemical_formula_sum "Si O2"
_cell_formula_units_Z 60
_cell_length_a 19.480918
_cell_length_b 25.707726
_cell_length_c 8.541225
_cell_angle_alpha 90.000000
_cell_angle_beta 133.125754
_cell_angle_gamma 90.000000
_cell_volume 3121.978274
_symmetry_space_group_name_H-M "C 2/M"
_symmetry_group_IT_number 12
_symmetry_cell_setting 'monoclinic'
loop_
_space_group_symop_operation_xyz
x,y,z
-x,y,-z
-x,-y,-z
x,-y,z
1/2+x,1/2+y,z
1/2-x,1/2+y,-z
1/2-x,1/2-y,-z
1/2+x,1/2-y,z
loop_
_atom_site_type_symbol
_atom_site_label
_atom_site_fract_x
_atom_site_fract_y
_atom_site_fract_z
Si Si1 0.363147 0.839318 0.183529
Si Si2 0.000000 0.173976 0.000000
Si Si3 0.079729 0.769711 0.845334
Si Si4 0.947564 0.561584 0.165658
Si Si5 0.165485 0.820938 0.695371
Si Si6 0.311995 0.637738 0.588332
Si Si7 0.645299 0.939288 0.321170
Si Si8 0.277069 0.787292 0.332323
O O1 0.425756 0.789648 0.223804
O O2 0.409194 0.894888 0.223274
O O3 0.332864 0.829164 0.314557
O O4 0.265798 0.833463 0.933065
O O5 0.005603 0.210656 0.856244
O O6 0.905349 0.140392 0.838899
O O7 0.092878 0.809582 0.721674
O O8 0.178830 0.774691 0.091873
O O9 0.939206 0.500000 0.196713
O O10 0.055834 0.572961 0.290755
O O11 0.890111 0.569203 0.912974
O O12 0.154410 0.861674 0.538993
O O13 0.168221 0.765940 0.607880
O O14 0.239360 0.591803 0.501383
O O15 0.249549 0.688402 0.542826
O O16 0.663271 0.000000 0.366394
#
# Coordination Sequence:
#
# PCOD9212870 Si02
#       8
#     8   4   8   8   8   8   8   8
#     4   9  15  31  52  76 106 142 170 211 266 303
#     4  10  22  34  49  78 105 138 174 220 260 308
#     4   8  17  32  48  74 111 138 172 211 257 311
#     4   9  17  32  54  81 106 132 174 218 261 312
#     4   9  16  30  53  74 101 145 177 207 254 318
#     4  11  19  34  53  73 104 140 179 214 266 303
#     4   9  19  34  53  79 105 132 174 223 262 309
#     4   8  17  30  48  74 110 137 172 214 252 314
#
# _framework density 19.218582000000001
#
# number of rings (size 3 to 8) (size 9 to 14) (size 15 to 20)
#    0.000    2.933    1.333    2.800    0.000    1.600 
#    4.800    1.667    0.000    1.600    0.000    2.800 
#    0.000    0.000    0.000    0.000    0.000    0.000 
#
# Total GULP energy -167203.781784 kJ/mol
# GULP energy per Si atom -5573.459393 kJ/mol
# Density = 1.917484 g / cm^3
# Si number density = 19.218582 Si / 1000 Ang^3
#
#
#
# Elastic Constant Matrix: (Units=GPa)
#
#
# Indices 1 2 3 4 5 6 
#
# 1 99.6128 47.7778 21.9046 0.0000 -10.4441 0.0000
# 2 47.7778 68.6210 15.7269 0.0000 9.1393 0.0000
# 3 21.9046 15.7269 62.6793 0.0000 14.1259 0.0000
# 4 0.0000 0.0000 0.0000 16.1490 0.0000 4.7916
# 5 -10.4441 9.1393 14.1259 0.0000 30.2362 0.0000
# 6 0.0000 0.0000 0.0000 4.7916 0.0000 34.3664
#
#
#
# Elastic Compliance Matrix: (Units=1/GPa)
#
#
# Indices 1 2 3 4 5 6 
#
# 1 0.019734 -0.014125 -0.006539 0.000000 0.014141 0.000000
# 2 -0.014125 0.025853 0.001464 0.000000 -0.013377 0.000000
# 3 -0.006539 0.001464 0.020656 0.000000 -0.012351 0.000000
# 4 0.000000 0.000000 0.000000 0.064596 0.000000 -0.009006
# 5 0.014141 -0.013377 -0.012351 0.000000 0.047771 0.000000
# 6 0.000000 0.000000 0.000000 -0.009006 0.000000 0.030354
#
#
# Mechanical properties :
#
#
# Convention : Reuss Voigt Hill
#
# Bulk Modulus (GPa) = 35.91519 44.63687 40.27603
# Shear Modulus (GPa) = 19.48213 25.85056 22.66634
#
# Velocity S-wave (km/s) = 3.18734 3.67151 3.43796
# Velocity P-wave (km/s) = 5.68101 6.42259 6.06315
#
# Compressibility (1/GPa) = 0.02784337
#
# Stress axis : x y z
#
# Youngs Moduli (GPa) = 50.67335 38.67975 48.41246
#
# Poissons Ratio (x) = 0.54634 0.31659
# Poissons Ratio (y) = 0.71575 -0.07088
# Poissons Ratio (z) = 0.33138 -0.05663
#
# Static dielectric constant tensor:
#      x y z
#    x 1.710060 0.000000 -0.007420 
#    y 0.000000 1.662370 0.000000 
#    z -0.007420 0.000000 1.718470 
# 
# From -- ./inp_files/79873.got.cif
#   From: 2010.05.17/outbox.cif.g08.bks.cpg/sg12_40_cif.got.tgz:79873.got - 2010.06.03 13:09:07.
