data_PCOD9212971
_publ_section_title
;
Structure prediction by ZEFSAII (Michael W. Deem and Ramdas Pophale) SiO2 
 PCOD9212971
Probable space group: C 2/M
;
_chemical_formula_sum "Si O2"
_cell_formula_units_Z 56
_cell_length_a 25.444066
_cell_length_b 8.253385
_cell_length_c 17.235767
_cell_angle_alpha 90.000000
_cell_angle_beta 119.579708
_cell_angle_gamma 90.000000
_cell_volume 3147.774600
_symmetry_space_group_name_H-M "C 2/M"
_symmetry_group_IT_number 12
_symmetry_cell_setting 'monoclinic'
loop_
_space_group_symop_operation_xyz
x,y,z
-x,y,-z
-x,-y,-z
x,-y,z
1/2+x,1/2+y,z
1/2-x,1/2+y,-z
1/2-x,1/2-y,-z
1/2+x,1/2-y,z
loop_
_atom_site_type_symbol
_atom_site_label
_atom_site_fract_x
_atom_site_fract_y
_atom_site_fract_z
Si Si1 0.674317 0.808091 0.077434
Si Si2 0.094136 0.695057 0.599211
Si Si3 0.560846 0.308830 0.088216
Si Si4 0.307382 0.694861 0.217293
Si Si5 0.881858 0.191979 0.120679
Si Si6 0.026602 0.697656 0.399095
Si Si7 0.517997 0.191660 0.218718
O O1 0.619559 0.776085 0.096392
O O2 0.738436 0.749736 0.157749
O O3 0.678850 0.000000 0.065744
O O4 0.657610 0.723519 0.984416
O O5 0.093473 0.500000 0.598860
O O6 0.156915 0.751962 0.680298
O O7 0.038994 0.748765 0.615492
O O8 0.075604 0.748383 0.499097
O O9 0.566582 0.500000 0.076399
O O10 0.550870 0.278230 0.171687
O O11 0.500000 0.250494 0.000000
O O12 0.306937 0.500000 0.215417
O O13 0.346154 0.750105 0.170787
O O14 0.946140 0.278912 0.159045
O O15 0.893442 0.000000 0.136292
O O16 0.025879 0.500000 0.397334
O O17 0.035799 0.751287 0.317744
O O18 0.529958 0.000000 0.221903
#
# Coordination Sequence:
#
# PCOD9212971 Si02
#       7
#     8   8   8   8   8   8   8
#     4  11  23  38  55  75 103 143 185 219 256 313
#     4   9  16  31  54  78 107 141 175 212 257 314
#     4  11  23  38  55  77 106 137 174 226 270 306
#     4  10  22  36  51  78 113 142 174 217 263 311
#     4  11  21  34  51  77 112 143 172 214 262 310
#     4   8  16  30  51  81 109 135 174 218 257 305
#     4  11  20  33  56  81 107 140 177 216 259 311
#
# _framework density 17.790344999999999
#
# number of rings (size 3 to 8) (size 9 to 14) (size 15 to 20)
#    0.000    1.857    2.857    3.000    0.000    2.286 
#    0.000    2.857    0.000    0.857    0.000    0.000 
#    0.000    0.000    0.000    0.000    0.000    0.000 
#
# Total GULP energy -156313.352058 kJ/mol
# GULP energy per Si atom -5582.619716 kJ/mol
# Density = 1.774985 g / cm^3
# Si number density = 17.790345 Si / 1000 Ang^3
#
#
#
# Elastic Constant Matrix: (Units=GPa)
#
#
# Indices 1 2 3 4 5 6 
#
# 1 52.5679 -2.9817 36.1014 0.0000 11.7831 0.0000
# 2 -2.9817 9.0766 -8.0308 0.0000 -0.8304 0.0000
# 3 36.1014 -8.0308 136.3935 0.0000 4.9855 0.0000
# 4 0.0000 0.0000 0.0000 20.3818 0.0000 4.2282
# 5 11.7831 -0.8304 4.9855 0.0000 24.0041 0.0000
# 6 0.0000 0.0000 0.0000 4.2282 0.0000 19.1668
#
#
#
# Elastic Compliance Matrix: (Units=1/GPa)
#
#
# Indices 1 2 3 4 5 6 
#
# 1 0.026061 0.001881 -0.006370 0.000000 -0.011405 0.000000
# 2 0.001881 0.116528 0.006297 0.000000 0.001800 0.000000
# 3 -0.006370 0.006297 0.009337 0.000000 0.001406 0.000000
# 4 0.000000 0.000000 0.000000 0.051416 0.000000 -0.011343
# 5 -0.011405 0.001800 0.001406 0.000000 0.047028 0.000000
# 6 0.000000 0.000000 0.000000 -0.011343 0.000000 0.054676
#
#
# Mechanical properties :
#
#
# Convention : Reuss Voigt Hill
#
# Bulk Modulus (GPa) = 6.42912 27.57954 17.00433
# Shear Modulus (GPa) = 14.15321 24.24049 19.19685
#
# Velocity S-wave (km/s) = 2.82362 3.69530 3.28847
# Velocity P-wave (km/s) = 3.77520 5.80889 4.89874
#
# Compressibility (1/GPa) = 0.15554239
#
# Stress axis : x y z
#
# Youngs Moduli (GPa) = 38.37169 8.58166 107.09776
#
# Poissons Ratio (x) = -0.01614 0.68225
# Poissons Ratio (y) = -0.07219 -0.67443
# Poissons Ratio (z) = 0.24444 -0.05404
#
# Static dielectric constant tensor:
#      x y z
#    x 1.582690 0.000000 -0.001220 
#    y 0.000000 1.615550 0.000000 
#    z -0.001220 0.000000 1.619390 
# 
# From -- ./inp_files/244336.got.cif
#   From: 2010.05.17/outbox.cif.g08.bks.cpg/sg12_123_cif.got.tgz:244336.got - 2010.06.03 13:09:07.
