data_PCOD9212369
_publ_section_title
;
Structure prediction by ZEFSAII (Michael W. Deem and Ramdas Pophale) SiO2 
 PCOD9212369
Probable space group: C 2/M
;
_chemical_formula_sum "Si O2"
_cell_formula_units_Z 50
_cell_length_a 8.023579
_cell_length_b 23.265575
_cell_length_c 12.080735
_cell_angle_alpha 90.000000
_cell_angle_beta 111.830735
_cell_angle_gamma 90.000000
_cell_volume 2093.424523
_symmetry_space_group_name_H-M "C 2/M"
_symmetry_group_IT_number 12
_symmetry_cell_setting 'monoclinic'
loop_
_space_group_symop_operation_xyz
x,y,z
-x,y,-z
-x,-y,-z
x,-y,z
1/2+x,1/2+y,z
1/2-x,1/2+y,-z
1/2-x,1/2-y,-z
1/2+x,1/2-y,z
loop_
_atom_site_type_symbol
_atom_site_label
_atom_site_fract_x
_atom_site_fract_y
_atom_site_fract_z
Si Si1 0.562161 0.164743 0.356949
Si Si2 0.000000 0.500000 0.000000
Si Si3 0.148808 0.773056 0.726682
Si Si4 0.383243 0.630676 0.580051
Si Si5 0.166793 0.825796 0.959843
Si Si6 0.977680 0.064207 0.815585
Si Si7 0.377656 0.906974 0.144660
O O1 0.692581 0.198743 0.304260
O O2 0.398670 0.209528 0.326122
O O3 0.685546 0.146949 0.489906
O O4 0.492973 0.107958 0.280090
O O5 0.972346 0.450221 0.087668
O O6 0.188588 0.780097 0.867190
O O7 0.978165 0.812999 0.654805
O O8 0.500000 0.615280 0.500000
O O9 0.400755 0.581636 0.676767
O O10 0.114152 0.885729 0.883784
O O11 0.335116 0.846372 0.073206
O O12 0.000000 0.811957 0.000000
O O13 0.813982 0.068688 0.861615
O O14 0.057422 0.000000 0.837871
#
# Coordination Sequence:
#
# PCOD9212369 Si02
#       7
#     8   2   8   8   8   8   8
#     4  11  24  41  64  97 129 172 217 267 323 387
#     4  12  24  44  62  82 132 176 204 264 316 390
#     4  10  22  41  65  93 128 170 218 262 323 387
#     4   9  21  43  64  96 132 167 214 262 325 390
#     4   9  21  39  63  93 126 163 212 266 321 390
#     4  10  21  41  68  96 125 166 218 268 320 382
#     4  11  24  41  62  94 131 167 217 263 325 381
#
# _framework density 23.884308999999998
#
# number of rings (size 3 to 8) (size 9 to 14) (size 15 to 20)
#    0.000    1.920    0.800    1.440    7.840    2.560 
#    2.880    0.800    0.000    0.000    0.000    0.000 
#    0.000    0.000    0.000    0.000    0.000    0.000 
#
# Total GULP energy -139791.019456 kJ/mol
# GULP energy per Si atom -5591.640778 kJ/mol
# Density = 2.382995 g / cm^3
# Si number density = 23.884309 Si / 1000 Ang^3
#
#
#
# Elastic Constant Matrix: (Units=GPa)
#
#
# Indices 1 2 3 4 5 6 
#
# 1 50.2352 7.2824 -1.4783 0.0000 5.1931 0.0000
# 2 7.2824 106.3203 12.8247 0.0000 -2.8620 0.0000
# 3 -1.4783 12.8247 109.3150 0.0000 4.7738 0.0000
# 4 0.0000 0.0000 0.0000 16.1688 0.0000 -6.2966
# 5 5.1931 -2.8620 4.7738 0.0000 22.4032 0.0000
# 6 0.0000 0.0000 0.0000 -6.2966 0.0000 22.2785
#
#
#
# Elastic Compliance Matrix: (Units=1/GPa)
#
#
# Indices 1 2 3 4 5 6 
#
# 1 0.020698 -0.001641 0.000698 0.000000 -0.005156 0.000000
# 2 -0.001641 0.009719 -0.001245 0.000000 0.001887 0.000000
# 3 0.000698 -0.001245 0.009405 0.000000 -0.002325 0.000000
# 4 0.000000 0.000000 0.000000 0.069497 0.000000 0.019642
# 5 -0.005156 0.001887 -0.002325 0.000000 0.046568 0.000000
# 6 0.000000 0.000000 0.000000 0.019642 0.000000 0.050438
#
#
# Mechanical properties :
#
#
# Convention : Reuss Voigt Hill
#
# Bulk Modulus (GPa) = 28.21220 33.68092 30.94656
# Shear Modulus (GPa) = 22.47039 28.65287 25.56163
#
# Velocity S-wave (km/s) = 3.07058 3.46736 3.27498
# Velocity P-wave (km/s) = 4.94054 5.49203 5.22357
#
# Compressibility (1/GPa) = 0.03544566
#
# Stress axis : x y z
#
# Youngs Moduli (GPa) = 48.31452 102.89270 106.32790
#
# Poissons Ratio (x) = 0.16881 -0.07417
# Poissons Ratio (y) = 0.07927 0.13236
# Poissons Ratio (z) = -0.03370 0.12808
#
# Static dielectric constant tensor:
#      x y z
#    x 2.003670 0.000000 0.002920 
#    y 0.000000 1.859090 0.000000 
#    z 0.002920 0.000000 1.920090 
# 
# From -- ./inp_files/123574.got.cif
#   From: 2010.05.17/outbox.cif.g08.bks.cpg/sg12_62_cif.got.tgz:123574.got - 2010.06.03 13:09:07.
