data_PCOD9212912
_publ_section_title
;
Structure prediction by ZEFSAII (Michael W. Deem and Ramdas Pophale) SiO2 
 PCOD9212912
Probable space group: C 2/M
;
_chemical_formula_sum "Si O2"
_cell_formula_units_Z 44
_cell_length_a 9.542576
_cell_length_b 28.150457
_cell_length_c 10.416690
_cell_angle_alpha 90.000000
_cell_angle_beta 63.991949
_cell_angle_gamma 90.000000
_cell_volume 2514.845067
_symmetry_space_group_name_H-M "C 2/M"
_symmetry_group_IT_number 12
_symmetry_cell_setting 'monoclinic'
loop_
_space_group_symop_operation_xyz
x,y,z
-x,y,-z
-x,-y,-z
x,-y,z
1/2+x,1/2+y,z
1/2-x,1/2+y,-z
1/2-x,1/2-y,-z
1/2+x,1/2-y,z
loop_
_atom_site_type_symbol
_atom_site_label
_atom_site_fract_x
_atom_site_fract_y
_atom_site_fract_z
Si Si1 0.728298 0.444474 0.503983
Si Si2 0.634246 0.635900 0.051138
Si Si3 0.461334 0.272304 0.166280
Si Si4 0.000000 0.620869 0.500000
Si Si5 0.625185 0.555635 0.257746
Si Si6 0.363804 0.811691 0.768875
O O1 0.769170 0.500000 0.501555
O O2 0.855175 0.411582 0.517622
O O3 0.558667 0.437991 0.636826
O O4 0.710447 0.434822 0.358934
O O5 0.558927 0.680013 0.159958
O O6 0.670566 0.591943 0.127916
O O7 0.500000 0.622993 0.000000
O O8 0.779586 0.657610 0.914742
O O9 0.521294 0.227664 0.220215
O O10 0.279544 0.284855 0.244636
O O11 0.500000 0.263696 0.000000
O O12 0.050098 0.653721 0.362066
O O13 0.649717 0.500000 0.214746
#
# Coordination Sequence:
#
# PCOD9212912 Si02
#       6
#     8   8   8   4   8   8
#     4   9  19  36  56  77 108 146 175 208 262 321
#     4   9  17  33  56  81 107 137 175 217 263 313
#     4   9  18  36  55  74 102 137 175 214 264 319
#     4  12  23  36  52  78 110 140 179 222 266 310
#     4   9  18  35  59  84 106 135 178 219 257 309
#     4  10  22  35  53  77 104 140 178 218 262 312
#
# _framework density 17.496108
#
# number of rings (size 3 to 8) (size 9 to 14) (size 15 to 20)
#    0.000    2.909    0.000    5.727    0.000    4.000 
#    0.000    3.636    0.000    2.182    0.000    0.000 
#    0.000    0.000    0.000    0.000    0.000    0.000 
#
# Total GULP energy -122706.551444 kJ/mol
# GULP energy per Si atom -5577.570520 kJ/mol
# Density = 1.745629 g / cm^3
# Si number density = 17.496108 Si / 1000 Ang^3
#
#
#
# Elastic Constant Matrix: (Units=GPa)
#
#
# Indices 1 2 3 4 5 6 
#
# 1 37.5508 49.2689 8.7973 0.0000 5.9351 0.0000
# 2 49.2689 110.1691 42.8475 0.0000 19.6201 0.0000
# 3 8.7973 42.8475 33.6619 0.0000 7.8437 0.0000
# 4 0.0000 0.0000 0.0000 29.0995 0.0000 18.9748
# 5 5.9351 19.6201 7.8437 0.0000 12.1647 0.0000
# 6 0.0000 0.0000 0.0000 18.9748 0.0000 41.1964
#
#
#
# Elastic Compliance Matrix: (Units=1/GPa)
#
#
# Indices 1 2 3 4 5 6 
#
# 1 0.119757 -0.088442 0.072556 0.000000 0.037434 0.000000
# 2 -0.088442 0.086754 -0.076215 0.000000 -0.047630 0.000000
# 3 0.072556 -0.076215 0.102810 0.000000 0.021235 0.000000
# 4 0.000000 0.000000 0.000000 0.049116 0.000000 -0.022623
# 5 0.037434 -0.047630 0.021235 0.000000 0.127070 0.000000
# 6 0.000000 0.000000 0.000000 -0.022623 0.000000 0.034694
#
#
# Mechanical properties :
#
#
# Convention : Reuss Voigt Hill
#
# Bulk Modulus (GPa) = 7.99244 42.57880 25.28562
# Shear Modulus (GPa) = 6.70143 21.85666 14.27905
#
# Velocity S-wave (km/s) = 1.95922 3.53828 2.85989
# Velocity P-wave (km/s) = 3.11386 6.40949 5.03873
#
# Compressibility (1/GPa) = 0.12511825
#
# Stress axis : x y z
#
# Youngs Moduli (GPa) = 8.35022 11.52688 9.72673
#
# Poissons Ratio (x) = 1.01947 -0.70573
# Poissons Ratio (y) = 0.73851 0.74132
# Poissons Ratio (z) = -0.60586 0.87852
#
# Static dielectric constant tensor:
#      x y z
#    x 1.592340 0.000000 -0.001470 
#    y 0.000000 1.585210 0.000000 
#    z -0.001470 0.000000 1.579500 
# 
# From -- ./inp_files/122357.got.cif
#   From: 2010.05.17/outbox.cif.g08.bks.cpg/sg12_62_cif.got.tgz:122357.got - 2010.06.03 13:09:07.
