data_PCOD9212025
_publ_section_title
;
Structure prediction by ZEFSAII (Michael W. Deem and Ramdas Pophale) SiO2 
 PCOD9212025
Probable space group: C 2/M
;
_chemical_formula_sum "Si O2"
_cell_formula_units_Z 44
_cell_length_a 8.857001
_cell_length_b 26.226514
_cell_length_c 10.915801
_cell_angle_alpha 90.000000
_cell_angle_beta 117.314301
_cell_angle_gamma 90.000000
_cell_volume 2252.898556
_symmetry_space_group_name_H-M "C 2/M"
_symmetry_group_IT_number 12
_symmetry_cell_setting 'monoclinic'
loop_
_space_group_symop_operation_xyz
x,y,z
-x,y,-z
-x,-y,-z
x,-y,z
1/2+x,1/2+y,z
1/2-x,1/2+y,-z
1/2-x,1/2-y,-z
1/2+x,1/2-y,z
loop_
_atom_site_type_symbol
_atom_site_label
_atom_site_fract_x
_atom_site_fract_y
_atom_site_fract_z
Si Si1 0.948441 0.222215 0.339023
Si Si2 0.174017 0.353789 0.134510
Si Si3 0.536062 0.943844 0.250576
Si Si4 0.500000 0.098201 0.500000
Si Si5 0.318166 0.401135 0.948817
Si Si6 0.252225 0.177365 0.289385
O O1 0.782500 0.189925 0.239246
O O2 0.894545 0.281141 0.305991
O O3 0.000000 0.213706 0.500000
O O4 0.103401 0.205268 0.309400
O O5 0.124807 0.397552 0.212676
O O6 0.288905 0.379726 0.073176
O O7 0.000000 0.336815 0.000000
O O8 0.547443 0.934608 0.399470
O O9 0.338394 0.937312 0.141825
O O10 0.597830 0.000000 0.238626
O O11 0.343719 0.134882 0.406323
O O12 0.311021 0.352795 0.853521
O O13 0.500000 0.426231 0.000000
#
# Coordination Sequence:
#
# PCOD9212025 Si02
#       6
#     8   8   8   4   8   8
#     4  12  24  38  62  92 127 172 213 256 304 371
#     4  10  23  40  63  89 129 165 212 257 313 362
#     4  10  22  40  68  92 118 163 212 259 317 377
#     4  10  21  42  64  92 132 160 201 262 316 380
#     4  10  21  41  58  89 126 163 203 263 310 368
#     4  11  24  37  63  90 127 167 215 247 312 370
#
# _framework density 19.530396
#
# number of rings (size 3 to 8) (size 9 to 14) (size 15 to 20)
#    0.000    1.455    2.727    1.909    7.636    5.091 
#    0.000    0.000    0.000    1.636    0.000    0.000 
#    0.000    0.000    0.000    0.000    0.000    0.000 
#
# Total GULP energy -122929.275280 kJ/mol
# GULP energy per Si atom -5587.694331 kJ/mol
# Density = 1.948594 g / cm^3
# Si number density = 19.530396 Si / 1000 Ang^3
#
#
#
# Elastic Constant Matrix: (Units=GPa)
#
#
# Indices 1 2 3 4 5 6 
#
# 1 58.4235 -10.2774 0.0056 0.0000 -5.6976 0.0000
# 2 -10.2774 56.1153 15.1886 0.0000 1.5754 0.0000
# 3 0.0056 15.1886 86.0728 0.0000 -10.3542 0.0000
# 4 0.0000 0.0000 0.0000 2.2853 0.0000 -0.7288
# 5 -5.6976 1.5754 -10.3542 0.0000 26.0659 0.0000
# 6 0.0000 0.0000 0.0000 -0.7288 0.0000 7.9349
#
#
#
# Elastic Compliance Matrix: (Units=1/GPa)
#
#
# Indices 1 2 3 4 5 6 
#
# 1 0.018046 0.003236 -0.000127 0.000000 0.003699 0.000000
# 2 0.003236 0.019459 -0.003666 0.000000 -0.001925 0.000000
# 3 -0.000127 -0.003666 0.012905 0.000000 0.005320 0.000000
# 4 0.000000 0.000000 0.000000 0.450791 0.000000 0.041401
# 5 0.003699 -0.001925 0.005320 0.000000 0.041402 0.000000
# 6 0.000000 0.000000 0.000000 0.041401 0.000000 0.129827
#
#
# Mechanical properties :
#
#
# Convention : Reuss Voigt Hill
#
# Bulk Modulus (GPa) = 20.28548 23.38278 21.83413
# Shear Modulus (GPa) = 7.24661 20.30354 13.77507
#
# Velocity S-wave (km/s) = 1.92834 3.22776 2.65866
# Velocity P-wave (km/s) = 3.92010 5.08820 4.54185
#
# Compressibility (1/GPa) = 0.04929633
#
# Stress axis : x y z
#
# Youngs Moduli (GPa) = 55.41293 51.38938 77.49004
#
# Poissons Ratio (x) = -0.16628 0.00986
# Poissons Ratio (y) = -0.17930 0.28405
# Poissons Ratio (z) = 0.00705 0.18837
#
# Static dielectric constant tensor:
#      x y z
#    x 1.690320 0.000000 0.011180 
#    y 0.000000 1.661150 0.000000 
#    z 0.011180 0.000000 1.681540 
# 
# From -- ./inp_files/122119.got.cif
#   From: 2010.05.17/outbox.cif.g08.bks.cpg/sg12_62_cif.got.tgz:122119.got - 2010.06.03 13:09:07.
