data_PCOD9212022
_publ_section_title
;
Structure prediction by ZEFSAII (Michael W. Deem and Ramdas Pophale) SiO2 
 PCOD9212022
Probable space group: C 2/M
;
_chemical_formula_sum "Si O2"
_cell_formula_units_Z 64
_cell_length_a 13.826812
_cell_length_b 26.193832
_cell_length_c 19.593413
_cell_angle_alpha 90.000000
_cell_angle_beta 152.587771
_cell_angle_gamma 90.000000
_cell_volume 3267.054492
_symmetry_space_group_name_H-M "C 2/M"
_symmetry_group_IT_number 12
_symmetry_cell_setting 'monoclinic'
loop_
_space_group_symop_operation_xyz
x,y,z
-x,y,-z
-x,-y,-z
x,-y,z
1/2+x,1/2+y,z
1/2-x,1/2+y,-z
1/2-x,1/2-y,-z
1/2+x,1/2-y,z
loop_
_atom_site_type_symbol
_atom_site_label
_atom_site_fract_x
_atom_site_fract_y
_atom_site_fract_z
Si Si1 0.222517 0.205825 0.664471
Si Si2 0.172672 0.216179 0.386626
Si Si3 0.659419 0.939583 0.156740
Si Si4 0.254916 0.362682 0.851984
Si Si5 0.927466 0.388963 0.532403
Si Si6 0.243802 0.741015 0.162238
Si Si7 0.440296 0.104957 0.764540
Si Si8 0.640774 0.560571 0.459637
O O1 0.282127 0.250414 0.650769
O O2 0.206658 0.230094 0.728281
O O3 0.385608 0.160319 0.760517
O O4 0.000000 0.184607 0.500000
O O5 0.250000 0.250000 0.500000
O O6 0.300813 0.164272 0.460554
O O7 0.921732 0.209481 0.234303
O O8 0.568026 0.931168 0.175152
O O9 0.900078 0.919728 0.304703
O O10 0.677734 0.000000 0.155142
O O11 0.500000 0.917887 0.000000
O O12 0.226698 0.300980 0.837194
O O13 0.130328 0.382744 0.707916
O O14 0.151453 0.388952 0.853172
O O15 0.500000 0.372988 0.000000
O O16 0.771257 0.428770 0.472001
O O17 0.000000 0.398387 0.500000
O O18 0.000000 0.727808 0.000000
O O19 0.265075 0.088065 0.599157
O O20 0.637458 0.500000 0.471674
#
# Coordination Sequence:
#
# PCOD9212022 Si02
#       8
#     8   8   8   8   8   8   8   8
#     4  12  22  35  59  86 117 158 203 245 290 352
#     4  12  20  38  60  83 117 162 203 244 287 355
#     4  10  22  40  62  92 126 152 188 253 322 366
#     4  10  21  41  58  84 122 161 205 249 292 347
#     4  11  23  39  62  89 117 162 205 247 302 356
#     4  11  24  39  55  83 124 160 201 252 296 341
#     4  11  22  38  64  90 114 160 204 245 296 362
#     4  10  22  42  66  91 118 153 201 251 301 366
#
# _framework density 19.589511000000002
#
# number of rings (size 3 to 8) (size 9 to 14) (size 15 to 20)
#    0.000    1.125    3.750    3.375    1.750    3.250 
#    2.250    0.000    0.000    9.375    0.000    0.000 
#    0.000    0.000    0.000    0.000    0.000    0.000 
#
# Total GULP energy -178754.379273 kJ/mol
# GULP energy per Si atom -5586.074352 kJ/mol
# Density = 1.954492 g / cm^3
# Si number density = 19.589511 Si / 1000 Ang^3
#
#
#
# Elastic Constant Matrix: (Units=GPa)
#
#
# Indices 1 2 3 4 5 6 
#
# 1 127.7858 1.7150 52.2228 -0.0005 10.8154 -0.0037
# 2 1.7150 31.1339 3.7136 0.0039 6.7874 -0.0036
# 3 52.2228 3.7136 109.3366 0.0345 25.4475 0.0059
# 4 -0.0005 0.0039 0.0345 21.4582 0.0027 -1.4359
# 5 10.8154 6.7874 25.4475 0.0027 29.4176 -0.0064
# 6 -0.0037 -0.0036 0.0059 -1.4359 -0.0064 33.4983
#
#
#
# Elastic Compliance Matrix: (Units=1/GPa)
#
#
# Indices 1 2 3 4 5 6 
#
# 1 0.009731 -0.000092 -0.004779 0.000008 0.000578 0.000002
# 2 -0.000092 0.033882 0.000882 -0.000006 -0.008547 0.000002
# 3 -0.004779 0.000882 0.013820 -0.000022 -0.010401 -0.000006
# 4 0.000008 -0.000006 -0.000022 0.046736 0.000013 0.002003
# 5 0.000578 -0.008547 -0.010401 0.000013 0.044750 0.000010
# 6 0.000002 0.000002 -0.000006 0.002003 0.000010 0.029938
#
#
# Mechanical properties :
#
#
# Convention : Reuss Voigt Hill
#
# Bulk Modulus (GPa) = 20.22018 42.61769 31.41893
# Shear Modulus (GPa) = 24.59170 30.91516 27.75343
#
# Velocity S-wave (km/s) = 3.54694 3.97690 3.76806
# Velocity P-wave (km/s) = 5.20756 6.54906 5.91646
#
# Compressibility (1/GPa) = 0.04945554
#
# Stress axis : x y z
#
# Youngs Moduli (GPa) = 102.76347 29.51380 72.36083
#
# Poissons Ratio (x) = 0.00271 0.34583
# Poissons Ratio (y) = 0.00945 -0.06385
# Poissons Ratio (z) = 0.49113 -0.02604
#
# Static dielectric constant tensor:
#      x y z
#    x 1.590830 -0.000030 -0.012060 
#    y -0.000030 1.689010 -0.000010 
#    z -0.012060 -0.000010 1.701430 
# 
# From -- ./inp_files/266316.got.cif
#   From: 2010.05.17/outbox.cif.g08.bks.cpg/sg12_134_cif.got.tgz:266316.got - 2010.06.03 13:09:07.
