data_PCOD9212218
_publ_section_title
;
Structure prediction by ZEFSAII (Michael W. Deem and Ramdas Pophale) SiO2 
 PCOD9212218
Probable space group: C 2/M
;
_chemical_formula_sum "Si O2"
_cell_formula_units_Z 50
_cell_length_a 19.259584
_cell_length_b 16.208307
_cell_length_c 13.319701
_cell_angle_alpha 90.000000
_cell_angle_beta 33.752192
_cell_angle_gamma 90.000000
_cell_volume 2310.164288
_symmetry_space_group_name_H-M "C 2/M"
_symmetry_group_IT_number 12
_symmetry_cell_setting 'monoclinic'
loop_
_space_group_symop_operation_xyz
x,y,z
-x,y,-z
-x,-y,-z
x,-y,z
1/2+x,1/2+y,z
1/2-x,1/2+y,-z
1/2-x,1/2-y,-z
1/2+x,1/2-y,z
loop_
_atom_site_type_symbol
_atom_site_label
_atom_site_fract_x
_atom_site_fract_y
_atom_site_fract_z
Si Si1 0.627037 0.261087 0.716458
Si Si2 0.500000 0.000000 0.500000
Si Si3 0.517597 0.910823 0.811462
Si Si4 0.782814 0.093083 0.823506
Si Si5 0.598465 0.692617 0.139543
Si Si6 0.497117 0.850593 0.376319
Si Si7 0.264372 0.237538 0.751182
O O1 0.750000 0.250000 0.500000
O O2 0.562417 0.171539 0.811314
O O3 0.530214 0.316883 0.769408
O O4 0.670826 0.286063 0.773841
O O5 0.440205 0.073054 0.643055
O O6 0.569897 0.897625 0.636378
O O7 0.555064 0.000000 0.808769
O O8 0.367494 0.909985 0.980747
O O9 0.854566 0.125088 0.837207
O O10 0.796137 0.165102 0.724350
O O11 0.822864 0.000000 0.748732
O O12 0.572888 0.776398 0.233854
O O13 0.700442 0.710146 0.931351
O O14 0.607750 0.806346 0.431329
#
# Coordination Sequence:
#
# PCOD9212218 Si02
#       7
#     8   2   8   8   8   8   8
#     4  11  22  42  69  97 133 178 224 272 335 413
#     4  12  24  36  68 104 130 170 216 298 348 374
#     4  10  21  41  65  96 135 162 221 292 329 379
#     4  11  25  43  69 102 135 177 226 280 339 403
#     4  11  24  45  66  98 141 175 219 283 331 408
#     4  11  23  37  65  98 132 168 223 274 333 402
#     4  12  23  42  69 100 132 182 221 275 347 401
#
# _framework density 21.643483
#
# number of rings (size 3 to 8) (size 9 to 14) (size 15 to 20)
#    0.000    0.960    7.200    1.920    2.240    0.640 
#    0.000    4.000    1.760    0.960    0.000    0.000 
#    0.000    0.000    0.000    0.000    0.000    0.000 
#
# Total GULP energy -139216.630323 kJ/mol
# GULP energy per Si atom -5568.665213 kJ/mol
# Density = 2.159422 g / cm^3
# Si number density = 21.643483 Si / 1000 Ang^3
#
#
#
# Elastic Constant Matrix: (Units=GPa)
#
#
# Indices 1 2 3 4 5 6 
#
# 1 106.0191 16.7347 34.6553 0.0000 -17.3738 0.0000
# 2 16.7347 105.4219 27.8960 0.0000 -2.6806 0.0000
# 3 34.6553 27.8960 101.0098 0.0000 7.4948 0.0000
# 4 0.0000 0.0000 0.0000 23.8478 0.0000 -1.6694
# 5 -17.3738 -2.6806 7.4948 0.0000 39.1313 0.0000
# 6 0.0000 0.0000 0.0000 -1.6694 0.0000 13.6096
#
#
#
# Elastic Compliance Matrix: (Units=1/GPa)
#
#
# Indices 1 2 3 4 5 6 
#
# 1 0.011963 -0.000580 -0.004398 0.000000 0.006114 0.000000
# 2 -0.000580 0.010323 -0.002724 0.000000 0.000971 0.000000
# 3 -0.004398 -0.002724 0.012498 0.000000 -0.004533 0.000000
# 4 0.000000 0.000000 0.000000 0.042296 0.000000 0.005188
# 5 0.006114 0.000971 -0.004533 0.000000 0.029204 0.000000
# 6 0.000000 0.000000 0.000000 0.005188 0.000000 0.074114
#
#
# Mechanical properties :
#
#
# Convention : Reuss Voigt Hill
#
# Bulk Modulus (GPa) = 51.59889 52.33586 51.96738
# Shear Modulus (GPa) = 24.72037 30.86207 27.79122
#
# Velocity S-wave (km/s) = 3.38326 3.78024 3.58725
# Velocity P-wave (km/s) = 6.25732 6.57929 6.42032
#
# Compressibility (1/GPa) = 0.01938026
#
# Stress axis : x y z
#
# Youngs Moduli (GPa) = 83.58860 96.86838 80.01533
#
# Poissons Ratio (x) = 0.05617 0.35191
# Poissons Ratio (y) = 0.04847 0.21797
# Poissons Ratio (z) = 0.36762 0.26388
#
# Static dielectric constant tensor:
#      x y z
#    x 1.919900 0.000000 0.022440 
#    y 0.000000 1.770940 0.000000 
#    z 0.022440 0.000000 1.826540 
# 
# From -- ./inp_files/226291.got.cif
#   From: 2010.05.17/outbox.cif.g08.bks.cpg/sg12_114_cif.got.tgz:226291.got - 2010.06.03 13:09:07.
