data_PCOD9212761
_publ_section_title
;
Structure prediction by ZEFSAII (Michael W. Deem and Ramdas Pophale) SiO2 
 PCOD9212761
Probable space group: C 2/M
;
_chemical_formula_sum "Si O2"
_cell_formula_units_Z 28
_cell_length_a 18.449639
_cell_length_b 7.680152
_cell_length_c 16.580073
_cell_angle_alpha 90.000000
_cell_angle_beta 38.379897
_cell_angle_gamma 90.000000
_cell_volume 1458.635374
_symmetry_space_group_name_H-M "C 2/M"
_symmetry_group_IT_number 12
_symmetry_cell_setting 'monoclinic'
loop_
_space_group_symop_operation_xyz
x,y,z
-x,y,-z
-x,-y,-z
x,-y,z
1/2+x,1/2+y,z
1/2-x,1/2+y,-z
1/2-x,1/2-y,-z
1/2+x,1/2-y,z
loop_
_atom_site_type_symbol
_atom_site_label
_atom_site_fract_x
_atom_site_fract_y
_atom_site_fract_z
Si Si1 0.915284 0.500000 0.371734
Si Si2 0.258967 0.500000 0.335116
Si Si3 0.707657 0.206193 0.946248
Si Si4 0.564100 0.193698 0.805777
Si Si5 0.650676 0.000000 0.266945
O O1 0.799616 0.500000 0.525828
O O2 0.924886 0.660699 0.300593
O O3 0.025346 0.500000 0.334569
O O4 0.341911 0.333649 0.251062
O O5 0.158148 0.500000 0.356339
O O6 0.780299 0.330566 0.825033
O O7 0.724207 0.000000 0.918094
O O8 0.750000 0.250000 0.000000
O O9 0.569223 0.243557 0.060095
O O10 0.585694 0.000000 0.822473
#
# Coordination Sequence:
#
# PCOD9212761 Si02
#       5
#     4   4   8   8   4
#     4  10  21  44  60  83 122 161 201 237 280 364
#     4  12  24  38  61  90 123 155 197 242 300 343
#     4  11  19  37  63  89 117 150 202 244 289 359
#     4   9  21  38  63  86 113 157 202 238 287 347
#     4  12  24  38  61  94 120 154 189 255 304 335
#
# _framework density 19.196024999999999
#
# number of rings (size 3 to 8) (size 9 to 14) (size 15 to 20)
#    0.857    0.571    4.286    2.143    0.000    3.429 
#    0.000    2.857    0.000    3.429    0.000    0.000 
#    0.000    0.000    0.000    0.000    0.000    0.000 
#
# Total GULP energy -78137.662032 kJ/mol
# GULP energy per Si atom -5581.261574 kJ/mol
# Density = 1.915233 g / cm^3
# Si number density = 19.196025 Si / 1000 Ang^3
#
#
#
# Elastic Constant Matrix: (Units=GPa)
#
#
# Indices 1 2 3 4 5 6 
#
# 1 73.9787 24.2910 -10.6180 0.0000 -5.9062 0.0000
# 2 24.2910 76.1188 18.9115 0.0000 -16.7628 0.0000
# 3 -10.6180 18.9115 42.0610 0.0000 -8.8137 0.0000
# 4 0.0000 0.0000 0.0000 -9.1965 0.0000 -3.9427
# 5 -5.9062 -16.7628 -8.8137 0.0000 30.3835 0.0000
# 6 0.0000 0.0000 0.0000 -3.9427 0.0000 21.3440
#
#
#
# Elastic Compliance Matrix: (Units=1/GPa)
#
#
# Indices 1 2 3 4 5 6 
#
# 1 0.017082 -0.007017 0.007828 0.000000 0.001720 0.000000
# 2 -0.007017 0.019045 -0.008963 0.000000 0.006543 0.000000
# 3 0.007828 -0.008963 0.030945 0.000000 0.005553 0.000000
# 4 0.000000 0.000000 0.000000 -0.100757 0.000000 -0.018612
# 5 0.001720 0.006543 0.005553 0.000000 0.038467 0.000000
# 6 0.000000 0.000000 0.000000 -0.018612 0.000000 0.043413
#
#
# Mechanical properties :
#
#
# Convention : Reuss Voigt Hill
#
# Bulk Modulus (GPa) = 19.69823 28.59197 24.14510
# Shear Modulus (GPa) = 61.40757 19.14446 40.27601
#
# Velocity S-wave (km/s) = 5.66208 3.16145 4.58552
# Velocity P-wave (km/s) = 7.28213 5.31540 6.37507
#
# Compressibility (1/GPa) = 0.05076597
#
# Stress axis : x y z
#
# Youngs Moduli (GPa) = 58.53979 52.50852 32.31562
#
# Poissons Ratio (x) = 0.36847 -0.25296
# Poissons Ratio (y) = 0.41080 0.28965
# Poissons Ratio (z) = -0.45824 0.47065
#
# Static dielectric constant tensor:
#      x y z
#    x 1.660440 0.000000 0.026800 
#    y 0.000000 1.651950 0.000000 
#    z 0.026800 0.000000 1.633510 
# 
# From -- ./inp_files/220445.got.cif
#   From: 2010.05.17/outbox.cif.g08.bks.cpg/sg12_111_cif.got.tgz:220445.got - 2010.06.03 13:09:07.
