data_PCOD9212084
_publ_section_title
;
Structure prediction by ZEFSAII (Michael W. Deem and Ramdas Pophale) SiO2 
 PCOD9212084
Probable space group: C 2/M
;
_chemical_formula_sum "Si O2"
_cell_formula_units_Z 56
_cell_length_a 20.520925
_cell_length_b 8.680026
_cell_length_c 16.718032
_cell_angle_alpha 90.000000
_cell_angle_beta 88.103967
_cell_angle_gamma 90.000000
_cell_volume 2976.221666
_symmetry_space_group_name_H-M "C 2/M"
_symmetry_group_IT_number 12
_symmetry_cell_setting 'monoclinic'
loop_
_space_group_symop_operation_xyz
x,y,z
-x,y,-z
-x,-y,-z
x,-y,z
1/2+x,1/2+y,z
1/2-x,1/2+y,-z
1/2-x,1/2-y,-z
1/2+x,1/2-y,z
loop_
_atom_site_type_symbol
_atom_site_label
_atom_site_fract_x
_atom_site_fract_y
_atom_site_fract_z
Si Si1 0.740122 0.815973 0.740462
Si Si2 0.802564 0.685493 0.436801
Si Si3 0.367993 0.814379 0.805792
Si Si4 0.049322 0.687970 0.566940
Si Si5 0.871750 0.816985 0.144168
Si Si6 0.822824 0.684418 0.985908
Si Si7 0.985671 0.686226 0.250534
O O1 0.716097 0.771790 0.653096
O O2 0.813799 0.764163 0.752818
O O3 0.693552 0.735912 0.806935
O O4 0.733757 0.000000 0.749386
O O5 0.801617 0.500000 0.441196
O O6 0.750000 0.750000 0.500000
O O7 0.876356 0.737413 0.451420
O O8 0.351116 0.772539 0.898020
O O9 0.441247 0.771994 0.778538
O O10 0.361947 0.000000 0.798570
O O11 0.048699 0.500000 0.566143
O O12 0.028378 0.733941 0.657330
O O13 0.000000 0.740581 0.500000
O O14 0.932386 0.755885 0.193144
O O15 0.873359 0.000000 0.138999
O O16 0.867200 0.746273 0.056000
O O17 0.819455 0.500000 0.990336
O O18 0.750000 0.750000 0.000000
O O19 0.979672 0.500000 0.247400
#
# Coordination Sequence:
#
# PCOD9212084 Si02
#       7
#     8   8   8   8   8   8   8
#     4  11  22  39  62  87 122 163 202 250 303 356
#     4  10  22  38  59  90 121 154 197 244 299 358
#     4  10  23  39  62  93 120 155 204 252 300 362
#     4   9  18  35  60  87 116 154 198 240 295 360
#     4  12  24  39  62  89 119 161 208 250 302 361
#     4  11  22  38  60  91 125 158 202 252 304 357
#     4  10  21  41  63  86 121 160 200 248 303 361
#
# _framework density 18.815802000000001
#
# number of rings (size 3 to 8) (size 9 to 14) (size 15 to 20)
#    0.000    1.571    2.857    2.143    2.000    2.857 
#    0.000    2.857    0.000    0.857    0.000    0.000 
#    0.000    0.000    0.000    0.000    0.000    0.000 
#
# Total GULP energy -156483.811720 kJ/mol
# GULP energy per Si atom -5588.707561 kJ/mol
# Density = 1.877298 g / cm^3
# Si number density = 18.815802 Si / 1000 Ang^3
#
#
#
# Elastic Constant Matrix: (Units=GPa)
#
#
# Indices 1 2 3 4 5 6 
#
# 1 160.2182 31.2164 77.7047 0.0000 8.5818 0.0000
# 2 31.2164 27.1035 28.7194 0.0000 3.4414 0.0000
# 3 77.7047 28.7194 124.8640 0.0000 15.9937 0.0000
# 4 0.0000 0.0000 0.0000 23.8058 0.0000 3.0032
# 5 8.5818 3.4414 15.9937 0.0000 40.7833 0.0000
# 6 0.0000 0.0000 0.0000 3.0032 0.0000 32.5664
#
#
#
# Elastic Compliance Matrix: (Units=1/GPa)
#
#
# Indices 1 2 3 4 5 6 
#
# 1 0.009696 -0.006308 -0.004622 0.000000 0.000305 0.000000
# 2 -0.006308 0.052893 -0.008253 0.000000 0.000101 0.000000
# 3 -0.004622 -0.008253 0.013234 0.000000 -0.003521 0.000000
# 4 0.000000 0.000000 0.000000 0.042501 0.000000 -0.003919
# 5 0.000305 0.000101 -0.003521 0.000000 0.025828 0.000000
# 6 0.000000 0.000000 0.000000 -0.003919 0.000000 0.031068
#
#
# Mechanical properties :
#
#
# Convention : Reuss Voigt Hill
#
# Bulk Modulus (GPa) = 26.69722 65.27408 45.98565
# Shear Modulus (GPa) = 22.11680 31.06747 26.59214
#
# Velocity S-wave (km/s) = 3.43219 4.06783 3.76345
# Velocity P-wave (km/s) = 5.47047 7.53853 6.58618
#
# Compressibility (1/GPa) = 0.03745708
#
# Stress axis : x y z
#
# Youngs Moduli (GPa) = 103.13655 18.90597 75.56162
#
# Poissons Ratio (x) = 0.11927 0.34924
# Poissons Ratio (y) = 0.65062 0.62360
# Poissons Ratio (z) = 0.47669 0.15603
#
# Static dielectric constant tensor:
#      x y z
#    x 1.626980 0.000000 0.003230 
#    y 0.000000 1.641170 0.000000 
#    z 0.003230 0.000000 1.638170 
# 
# From -- ./inp_files/230945.got.cif
#   From: 2010.05.17/outbox.cif.g08.bks.cpg/sg12_116_cif.got.tgz:230945.got - 2010.06.03 13:09:07.
