data_PCOD9212683
_publ_section_title
;
Structure prediction by ZEFSAII (Michael W. Deem and Ramdas Pophale) SiO2 
 PCOD9212683
Probable space group: C 2/M
;
_chemical_formula_sum "Si O2"
_cell_formula_units_Z 40
_cell_length_a 9.170197
_cell_length_b 25.813440
_cell_length_c 8.971750
_cell_angle_alpha 90.000000
_cell_angle_beta 75.378932
_cell_angle_gamma 90.000000
_cell_volume 2054.967423
_symmetry_space_group_name_H-M "C 2/M"
_symmetry_group_IT_number 12
_symmetry_cell_setting 'monoclinic'
loop_
_space_group_symop_operation_xyz
x,y,z
-x,y,-z
-x,-y,-z
x,-y,z
1/2+x,1/2+y,z
1/2-x,1/2+y,-z
1/2-x,1/2-y,-z
1/2+x,1/2-y,z
loop_
_atom_site_type_symbol
_atom_site_label
_atom_site_fract_x
_atom_site_fract_y
_atom_site_fract_z
Si Si1 0.385100 0.686707 0.393308
Si Si2 0.592298 0.803374 0.624215
Si Si3 0.042797 0.396777 0.163261
Si Si4 0.893022 0.500000 0.181318
Si Si5 0.608854 0.405047 0.831126
Si Si6 0.471603 0.500000 0.685275
O O1 0.500000 0.686106 0.500000
O O2 0.366550 0.745300 0.333179
O O3 0.237023 0.668902 0.519296
O O4 0.416739 0.647985 0.252160
O O5 0.500000 0.793186 0.500000
O O6 0.505586 0.842309 0.752496
O O7 0.217983 0.407489 0.156123
O O8 0.946530 0.446525 0.243701
O O9 0.000000 0.392231 0.000000
O O10 0.709034 0.500000 0.222413
O O11 0.000000 0.500000 0.000000
O O12 0.555714 0.450799 0.735840
O O13 0.500000 0.407459 0.000000
O O14 0.500000 0.500000 0.500000
#
# Coordination Sequence:
#
# PCOD9212683 Si02
#       6
#     8   8   8   4   8   4
#     4  10  23  40  67  94 131 171 216 272 329 378
#     4  10  21  43  64  94 130 171 220 272 319 387
#     4  11  24  42  67  93 130 175 218 264 324 393
#     4  10  23  44  66  93 128 173 209 263 327 386
#     4  12  25  44  66  98 134 172 215 271 329 392
#     4  12  28  46  71 103 133 169 221 273 334 392
#
# _framework density 19.465028
#
# number of rings (size 3 to 8) (size 9 to 14) (size 15 to 20)
#    0.000    1.200    2.000    3.900    8.400    0.800 
#    0.000    3.500    0.000    0.000    0.000    0.000 
#    0.000    0.000    0.000    0.000    0.000    0.000 
#
# Total GULP energy -111439.775768 kJ/mol
# GULP energy per Si atom -5571.988788 kJ/mol
# Density = 1.942072 g / cm^3
# Si number density = 19.465028 Si / 1000 Ang^3
#
#
#
# Elastic Constant Matrix: (Units=GPa)
#
#
# Indices 1 2 3 4 5 6 
#
# 1 121.6588 18.3783 49.7495 0.0000 -7.2484 0.0000
# 2 18.3783 131.9088 69.1498 0.0000 1.7556 0.0000
# 3 49.7495 69.1498 115.1486 0.0000 6.8103 0.0000
# 4 0.0000 0.0000 0.0000 47.6084 0.0000 2.7696
# 5 -7.2484 1.7556 6.8103 0.0000 26.1988 0.0000
# 6 0.0000 0.0000 0.0000 2.7696 0.0000 26.2406
#
#
#
# Elastic Compliance Matrix: (Units=1/GPa)
#
#
# Indices 1 2 3 4 5 6 
#
# 1 0.010590 0.001459 -0.005707 0.000000 0.004316 0.000000
# 2 0.001459 0.011291 -0.007505 0.000000 0.001598 0.000000
# 3 -0.005707 -0.007505 0.015966 0.000000 -0.005226 0.000000
# 4 0.000000 0.000000 0.000000 0.021134 0.000000 -0.002231
# 5 0.004316 0.001598 -0.005226 0.000000 0.040615 0.000000
# 6 0.000000 0.000000 0.000000 -0.002231 0.000000 0.038344
#
#
# Mechanical properties :
#
#
# Convention : Reuss Voigt Hill
#
# Bulk Modulus (GPa) = 69.73122 71.47460 70.60291
# Shear Modulus (GPa) = 30.07927 35.43881 32.75904
#
# Velocity S-wave (km/s) = 3.93529 4.27152 4.10685
# Velocity P-wave (km/s) = 7.51999 7.81838 7.67064
#
# Compressibility (1/GPa) = 0.01434078
#
# Stress axis : x y z
#
# Youngs Moduli (GPa) = 94.42824 88.56687 62.63274
#
# Poissons Ratio (x) = -0.12919 0.35742
# Poissons Ratio (y) = -0.13773 0.47007
# Poissons Ratio (z) = 0.53886 0.66471
#
# Static dielectric constant tensor:
#      x y z
#    x 1.680310 0.000000 0.004100 
#    y 0.000000 1.715450 0.000000 
#    z 0.004100 0.000000 1.690730 
# 
# From -- ./inp_files/39252.got.cif
#   From: 2010.05.17/outbox.cif.g08.bks.cpg/sg12_20_cif.got.tgz:39252.got - 2010.06.03 13:09:07.
