data_PCOD9212145
_publ_section_title
;
Structure prediction by ZEFSAII (Michael W. Deem and Ramdas Pophale) SiO2 
 PCOD9212145
Probable space group: C 2/M
;
_chemical_formula_sum "Si O2"
_cell_formula_units_Z 48
_cell_length_a 30.231713
_cell_length_b 8.962958
_cell_length_c 19.008446
_cell_angle_alpha 90.000000
_cell_angle_beta 29.434265
_cell_angle_gamma 90.000000
_cell_volume 2531.148921
_symmetry_space_group_name_H-M "C 2/M"
_symmetry_group_IT_number 12
_symmetry_cell_setting 'monoclinic'
loop_
_space_group_symop_operation_xyz
x,y,z
-x,y,-z
-x,-y,-z
x,-y,z
1/2+x,1/2+y,z
1/2-x,1/2+y,-z
1/2-x,1/2-y,-z
1/2+x,1/2-y,z
loop_
_atom_site_type_symbol
_atom_site_label
_atom_site_fract_x
_atom_site_fract_y
_atom_site_fract_z
Si Si1 0.951971 0.831334 0.641227
Si Si2 0.558676 0.679279 0.635496
Si Si3 0.396212 0.824353 0.121342
Si Si4 0.731533 0.176017 0.099638
Si Si5 0.896791 0.179602 0.967762
Si Si6 0.255795 0.179355 0.570051
O O1 0.868751 0.723811 0.744064
O O2 0.000000 0.839224 0.500000
O O3 0.015178 0.785793 0.619296
O O4 0.919604 0.000000 0.704437
O O5 0.575008 0.500000 0.614647
O O6 0.484012 0.714325 0.798810
O O7 0.651037 0.764371 0.523738
O O8 0.327865 0.737788 0.267345
O O9 0.373004 0.000000 0.155047
O O10 0.500000 0.807712 0.000000
O O11 0.393215 0.760051 0.047023
O O12 0.739185 0.000000 0.083251
O O13 0.750000 0.250000 0.000000
O O14 0.807583 0.225075 0.048859
O O15 0.896311 0.000000 0.978476
O O16 0.250000 0.250000 0.500000
O O17 0.254202 0.000000 0.567837
#
# Coordination Sequence:
#
# PCOD9212145 Si02
#       6
#     8   8   8   8   8   8
#     4  10  22  40  62  91 127 169 212 258 314 371
#     4  10  21  41  64  91 129 168 209 256 313 372
#     4  11  25  44  67  96 125 158 207 257 309 373
#     4  11  22  39  62  91 126 166 215 260 310 369
#     4  10  22  40  63  92 127 165 207 257 313 370
#     4  12  26  44  67  95 128 164 206 252 311 371
#
# _framework density 18.963719999999999
#
# number of rings (size 3 to 8) (size 9 to 14) (size 15 to 20)
#    0.000    1.333    1.667    3.500    2.333    7.000 
#    0.000    0.000    0.000    0.000    0.000    0.000 
#    0.000    0.000    0.000    0.000    0.000    0.000 
#
# Total GULP energy -134102.820684 kJ/mol
# GULP energy per Si atom -5587.617529 kJ/mol
# Density = 1.892056 g / cm^3
# Si number density = 18.963720 Si / 1000 Ang^3
#
#
#
# Elastic Constant Matrix: (Units=GPa)
#
#
# Indices 1 2 3 4 5 6 
#
# 1 147.3261 74.2392 79.3364 -0.0002 8.0140 -0.0004
# 2 74.2392 92.3020 69.1700 0.0002 -1.0718 -0.0006
# 3 79.3364 69.1700 133.5949 0.0017 8.4142 -0.0011
# 4 -0.0002 0.0002 0.0017 31.2649 -0.0005 0.3051
# 5 8.0140 -1.0718 8.4142 -0.0005 32.8119 0.0003
# 6 -0.0004 -0.0006 -0.0011 0.3051 0.0003 30.6066
#
#
#
# Elastic Compliance Matrix: (Units=1/GPa)
#
#
# Indices 1 2 3 4 5 6 
#
# 1 0.012574 -0.007617 -0.003368 0.000000 -0.002456 0.000000
# 2 -0.007617 0.022608 -0.007466 0.000000 0.004514 0.000000
# 3 -0.003368 -0.007466 0.013533 -0.000001 -0.002892 0.000000
# 4 0.000000 0.000000 -0.000001 0.031988 0.000001 -0.000319
# 5 -0.002456 0.004514 -0.002892 0.000001 0.031966 0.000000
# 6 0.000000 0.000000 0.000000 -0.000319 0.000000 0.032676
#
#
# Mechanical properties :
#
#
# Convention : Reuss Voigt Hill
#
# Bulk Modulus (GPa) = 84.66364 90.96823 87.81594
# Shear Modulus (GPa) = 26.85492 28.96852 27.91172
#
# Velocity S-wave (km/s) = 3.76722 3.91266 3.84063
# Velocity P-wave (km/s) = 7.97901 8.27561 8.12866
#
# Compressibility (1/GPa) = 0.01181145
#
# Stress axis : x y z
#
# Youngs Moduli (GPa) = 79.53172 44.23153 73.89121
#
# Poissons Ratio (x) = 0.33693 0.24888
# Poissons Ratio (y) = 0.60583 0.55169
# Poissons Ratio (z) = 0.26788 0.33024
#
# Static dielectric constant tensor:
#      x y z
#    x 1.610800 0.000000 0.020360 
#    y 0.000000 1.691600 0.000000 
#    z 0.020360 0.000000 1.661280 
# 
# From -- ./inp_files/295348.got.cif
#   From: 2010.05.17/outbox.cif.g08.bks.cpg/sg12_148_cif.got.tgz:295348.got - 2010.06.03 13:09:07.
