data_PCOD9212038
_publ_section_title
;
Structure prediction by ZEFSAII (Michael W. Deem and Ramdas Pophale) SiO2 
 PCOD9212038
Probable space group: C 2/M
;
_chemical_formula_sum "Si O2"
_cell_formula_units_Z 32
_cell_length_a 10.576584
_cell_length_b 21.041617
_cell_length_c 6.904777
_cell_angle_alpha 90.000000
_cell_angle_beta 72.643293
_cell_angle_gamma 90.000000
_cell_volume 1466.677601
_symmetry_space_group_name_H-M "C 2/M"
_symmetry_group_IT_number 12
_symmetry_cell_setting 'monoclinic'
loop_
_space_group_symop_operation_xyz
x,y,z
-x,y,-z
-x,-y,-z
x,-y,z
1/2+x,1/2+y,z
1/2-x,1/2+y,-z
1/2-x,1/2-y,-z
1/2+x,1/2-y,z
loop_
_atom_site_type_symbol
_atom_site_label
_atom_site_fract_x
_atom_site_fract_y
_atom_site_fract_z
Si Si1 0.620402 0.500000 0.169119
Si Si2 0.764500 0.104982 0.162841
Si Si3 0.287657 0.743299 0.257485
Si Si4 0.964052 0.690290 0.746483
Si Si5 0.189365 0.000000 0.569907
O O1 0.534813 0.500000 0.708480
O O2 0.660505 0.561882 0.026904
O O3 0.695351 0.500000 0.338275
O O4 0.749572 0.062081 0.360191
O O5 0.833284 0.171207 0.192125
O O6 0.619881 0.128263 0.161224
O O7 0.250000 0.750000 0.500000
O O8 0.148793 0.746744 0.203586
O O9 0.407010 0.792477 0.190688
O O10 0.000000 0.683905 0.500000
#
# Coordination Sequence:
#
# PCOD9212038 Si02
#       5
#     4   8   8   8   4
#     4  10  21  41  60  92 117 165 225 266 321 368
#     4   9  18  34  66  90 127 160 211 271 306 373
#     4   8  15  30  57  96 127 166 206 245 314 385
#     4   8  15  30  56  98 128 168 204 246 315 382
#     4  10  21  41  64  84 119 168 219 270 321 378
#
# _framework density 21.818017000000001
#
# number of rings (size 3 to 8) (size 9 to 14) (size 15 to 20)
#    1.500    1.750    0.000    1.500    0.000    0.000 
#   13.500    2.500    0.000   19.500    0.000    8.750 
#    0.000    0.000    0.000    0.000    0.000    0.000 
#
# Total GULP energy -89137.784328 kJ/mol
# GULP energy per Si atom -5571.111521 kJ/mol
# Density = 2.176836 g / cm^3
# Si number density = 21.818017 Si / 1000 Ang^3
#
#
#
# Elastic Constant Matrix: (Units=GPa)
#
#
# Indices 1 2 3 4 5 6 
#
# 1 96.2190 28.9890 16.5676 0.0000 12.4330 0.0000
# 2 28.9890 116.5471 50.1896 0.0000 9.4973 0.0000
# 3 16.5676 50.1896 113.3687 0.0000 6.2959 0.0000
# 4 0.0000 0.0000 0.0000 14.2057 0.0000 7.3765
# 5 12.4330 9.4973 6.2959 0.0000 42.7870 0.0000
# 6 0.0000 0.0000 0.0000 7.3765 0.0000 44.3487
#
#
#
# Elastic Compliance Matrix: (Units=1/GPa)
#
#
# Indices 1 2 3 4 5 6 
#
# 1 0.011566 -0.002460 -0.000449 0.000000 -0.002749 0.000000
# 2 -0.002460 0.011245 -0.004557 0.000000 -0.001111 0.000000
# 3 -0.000449 -0.004557 0.010930 0.000000 -0.000466 0.000000
# 4 0.000000 0.000000 0.000000 0.077049 0.000000 -0.012815
# 5 -0.002749 -0.001111 -0.000466 0.000000 0.024486 0.000000
# 6 0.000000 0.000000 0.000000 -0.012815 0.000000 0.024680
#
#
# Mechanical properties :
#
#
# Convention : Reuss Voigt Hill
#
# Bulk Modulus (GPa) = 53.16289 57.51413 55.33851
# Shear Modulus (GPa) = 27.60038 35.62752 31.61395
#
# Velocity S-wave (km/s) = 3.56058 4.04535 3.81068
# Velocity P-wave (km/s) = 6.42830 6.94535 6.69182
#
# Compressibility (1/GPa) = 0.01881012
#
# Stress axis : x y z
#
# Youngs Moduli (GPa) = 86.45659 88.92823 91.49338
#
# Poissons Ratio (x) = 0.21874 0.04105
# Poissons Ratio (y) = 0.21266 0.41695
# Poissons Ratio (z) = 0.03879 0.40526
#
# Static dielectric constant tensor:
#      x y z
#    x 1.835240 0.000000 -0.030730 
#    y 0.000000 1.759510 0.000000 
#    z -0.030730 0.000000 1.901180 
# 
# From -- ./inp_files/16274.got.cif
#   From: 2010.05.17/outbox.cif.g08.bks.cpg/sg12_9_cif.got.tgz:16274.got - 2010.06.03 13:09:07.
