data_PCOD9212487
_publ_section_title
;
Structure prediction by ZEFSAII (Michael W. Deem and Ramdas Pophale) SiO2 
 PCOD9212487
Probable space group: C 2/M
;
_chemical_formula_sum "Si O2"
_cell_formula_units_Z 58
_cell_length_a 16.083264
_cell_length_b 25.650818
_cell_length_c 6.811240
_cell_angle_alpha 90.000000
_cell_angle_beta 86.088468
_cell_angle_gamma 90.000000
_cell_volume 2803.423788
_symmetry_space_group_name_H-M "C 2/M"
_symmetry_group_IT_number 12
_symmetry_cell_setting 'monoclinic'
loop_
_space_group_symop_operation_xyz
x,y,z
-x,y,-z
-x,-y,-z
x,-y,z
1/2+x,1/2+y,z
1/2-x,1/2+y,-z
1/2-x,1/2-y,-z
1/2+x,1/2-y,z
loop_
_atom_site_type_symbol
_atom_site_label
_atom_site_fract_x
_atom_site_fract_y
_atom_site_fract_z
Si Si1 0.425205 0.940315 0.857544
Si Si2 0.383346 0.594128 0.637293
Si Si3 0.816372 0.837207 0.312219
Si Si4 0.000000 0.000000 0.500000
Si Si5 0.869632 0.365421 0.542322
Si Si6 0.801382 0.439323 0.221331
Si Si7 0.912199 0.810668 0.911276
Si Si8 0.094792 0.248532 0.454253
O O1 0.340508 0.935376 0.998792
O O2 0.430298 0.000000 0.780908
O O3 0.500000 0.933426 0.000000
O O4 0.424037 0.897961 0.687529
O O5 0.365094 0.617328 0.422827
O O6 0.442876 0.545503 0.612283
O O7 0.294366 0.577667 0.743445
O O8 0.420099 0.640468 0.762934
O O9 0.720303 0.852154 0.346905
O O10 0.841004 0.785102 0.428606
O O11 0.847366 0.827113 0.088568
O O12 0.852163 0.401760 0.358440
O O13 0.904059 0.308647 0.487167
O O14 0.809666 0.500000 0.280776
O O15 0.885288 0.762616 0.777480
O O16 0.000000 0.799149 0.000000
O O17 0.000000 0.229031 0.500000
#
# Coordination Sequence:
#
# PCOD9212487 Si02
#       8
#     8   8   8   2   8   8   8   8
#     4  10  23  41  63  92 125 158 201 254 308 371
#     4  10  22  37  62  92 125 163 205 251 293 362
#     4  10  22  43  62  88 123 164 204 248 307 368
#     4  12  20  36  62  92 130 156 206 250 292 350
#     4  11  24  39  66  93 119 158 209 251 303 375
#     4  10  21  42  63  87 127 165 194 249 317 355
#     4  11  21  39  63  83 124 169 198 245 309 354
#     4  11  24  39  60  91 123 156 207 260 304 358
#
# _framework density 20.688988999999999
#
# number of rings (size 3 to 8) (size 9 to 14) (size 15 to 20)
#    0.000    1.517    2.069    2.483    3.862    2.207 
#    0.000    5.172    0.000    0.000    0.000    0.000 
#    0.000    0.000    0.000    0.000    0.000    0.000 
#
# Total GULP energy -161840.516250 kJ/mol
# GULP energy per Si atom -5580.707457 kJ/mol
# Density = 2.064190 g / cm^3
# Si number density = 20.688989 Si / 1000 Ang^3
#
#
#
# Elastic Constant Matrix: (Units=GPa)
#
#
# Indices 1 2 3 4 5 6 
#
# 1 42.3014 9.0498 4.3219 0.0000 2.1396 0.0000
# 2 9.0498 125.1525 13.8087 0.0000 19.8775 0.0000
# 3 4.3219 13.8087 47.5375 0.0000 0.6696 0.0000
# 4 0.0000 0.0000 0.0000 26.6544 0.0000 0.2383
# 5 2.1396 19.8775 0.6696 0.0000 27.7437 0.0000
# 6 0.0000 0.0000 0.0000 0.2383 0.0000 31.0904
#
#
#
# Elastic Compliance Matrix: (Units=1/GPa)
#
#
# Indices 1 2 3 4 5 6 
#
# 1 0.024166 -0.001425 -0.001772 0.000000 -0.000800 0.000000
# 2 -0.001425 0.009415 -0.002513 0.000000 -0.006575 0.000000
# 3 -0.001772 -0.002513 0.021907 0.000000 0.001408 0.000000
# 4 0.000000 0.000000 0.000000 0.037520 0.000000 -0.000288
# 5 -0.000800 -0.006575 0.001408 0.000000 0.040783 0.000000
# 6 0.000000 0.000000 0.000000 -0.000288 0.000000 0.032166
#
#
# Mechanical properties :
#
#
# Convention : Reuss Voigt Hill
#
# Bulk Modulus (GPa) = 22.69156 29.92803 26.30980
# Shear Modulus (GPa) = 26.03277 29.61845 27.82561
#
# Velocity S-wave (km/s) = 3.55109 3.78776 3.67133
# Velocity P-wave (km/s) = 5.27308 5.79884 5.54220
#
# Compressibility (1/GPa) = 0.04406925
#
# Stress axis : x y z
#
# Youngs Moduli (GPa) = 41.38012 106.21590 45.64717
#
# Poissons Ratio (x) = 0.15135 0.08088
# Poissons Ratio (y) = 0.05896 0.11470
# Poissons Ratio (z) = 0.07332 0.26688
#
# Static dielectric constant tensor:
#      x y z
#    x 1.763150 0.000000 -0.013370 
#    y 0.000000 1.708010 0.000000 
#    z -0.013370 0.000000 1.723150 
# 
# From -- ./inp_files/17680.got.cif
#   From: 2010.05.17/outbox.cif.g08.bks.cpg/sg12_9_cif.got.tgz:17680.got - 2010.06.03 13:09:07.
