data_PCOD9212061
_publ_section_title
;
Structure prediction by ZEFSAII (Michael W. Deem and Ramdas Pophale) SiO2 
 PCOD9212061
Probable space group: C 2/M
;
_chemical_formula_sum "Si O2"
_cell_formula_units_Z 56
_cell_length_a 15.413833
_cell_length_b 7.718467
_cell_length_c 30.512956
_cell_angle_alpha 90.000000
_cell_angle_beta 50.197689
_cell_angle_gamma 90.000000
_cell_volume 2788.899780
_symmetry_space_group_name_H-M "C 2/M"
_symmetry_group_IT_number 12
_symmetry_cell_setting 'monoclinic'
loop_
_space_group_symop_operation_xyz
x,y,z
-x,y,-z
-x,-y,-z
x,-y,z
1/2+x,1/2+y,z
1/2-x,1/2+y,-z
1/2-x,1/2-y,-z
1/2+x,1/2-y,z
loop_
_atom_site_type_symbol
_atom_site_label
_atom_site_fract_x
_atom_site_fract_y
_atom_site_fract_z
Si Si1 0.690219 0.500000 0.930855
Si Si2 0.562291 0.790129 0.753674
Si Si3 0.881491 0.199355 0.557481
Si Si4 0.517140 0.198802 0.313207
Si Si5 0.409371 0.197966 0.885916
Si Si6 0.179318 0.703461 0.328290
Si Si7 0.021084 0.000000 0.067707
Si Si8 0.315907 0.308862 0.435348
O O1 0.779227 0.661978 0.910570
O O2 0.608129 0.500000 0.913114
O O3 0.603587 0.500000 0.999178
O O4 0.519315 0.722146 0.720733
O O5 0.481300 0.747656 0.820078
O O6 0.688085 0.723051 0.717838
O O7 0.569574 0.000000 0.749253
O O8 0.872456 0.207970 0.612265
O O9 0.779486 0.307218 0.570935
O O10 0.000000 0.260844 0.500000
O O11 0.865979 0.000000 0.547882
O O12 0.622992 0.278861 0.303120
O O13 0.417018 0.201171 0.381566
O O14 0.545660 0.000000 0.293684
O O15 0.442616 0.333705 0.913529
O O16 0.443257 0.000000 0.888280
O O17 0.150852 0.500000 0.341478
O O18 0.361428 0.500000 0.428889
O O19 0.250000 0.250000 0.500000
#
# Coordination Sequence:
#
# PCOD9212061 Si02
#       8
#     4   8   8   8   8   8   4   8
#     4   9  22  42  67 109 145 181 246 278 342 405
#     4  10  21  41  62  85 127 169 207 262 311 372
#     4  11  23  39  58  80 111 147 189 246 312 378
#     4  10  22  40  61  84 119 157 193 250 315 368
#     4   9  22  41  64 100 142 182 235 284 336 403
#     4  11  23  37  60  90 114 154 204 247 309 379
#     4  11  20  42  73 101 145 195 224 295 340 398
#     4  12  24  38  58  82 110 144 190 246 308 380
#
# _framework density 20.079602999999999
#
# number of rings (size 3 to 8) (size 9 to 14) (size 15 to 20)
#    0.429    1.143    1.429    3.429    1.000    5.714 
#    1.286    0.714    0.000    0.000    0.000    0.000 
#    0.000    0.000    0.000    0.000    0.000    0.000 
#
# Total GULP energy -156010.656141 kJ/mol
# GULP energy per Si atom -5571.809148 kJ/mol
# Density = 2.003390 g / cm^3
# Si number density = 20.079603 Si / 1000 Ang^3
#
#
#
# Elastic Constant Matrix: (Units=GPa)
#
#
# Indices 1 2 3 4 5 6 
#
# 1 178.3593 28.0853 64.8795 0.0006 4.2214 0.0005
# 2 28.0853 66.5028 15.5575 0.0011 10.5437 0.0011
# 3 64.8795 15.5575 105.0361 0.0001 -1.8832 -0.0007
# 4 0.0006 0.0011 0.0001 8.7873 0.0001 0.7234
# 5 4.2214 10.5437 -1.8832 0.0001 20.6910 -0.0004
# 6 0.0005 0.0011 -0.0007 0.7234 -0.0004 21.4839
#
#
#
# Elastic Compliance Matrix: (Units=1/GPa)
#
#
# Indices 1 2 3 4 5 6 
#
# 1 0.007536 -0.002016 -0.004373 0.000000 -0.000908 0.000000
# 2 -0.002016 0.017625 -0.001522 -0.000002 -0.008709 -0.000001
# 3 -0.004373 -0.001522 0.012497 0.000000 0.002805 0.000001
# 4 0.000000 -0.000002 0.000000 0.114117 0.000000 -0.003843
# 5 -0.000908 -0.008709 0.002805 0.000000 0.053209 0.000002
# 6 0.000000 -0.000001 0.000001 -0.003843 0.000002 0.046676
#
#
# Mechanical properties :
#
#
# Convention : Reuss Voigt Hill
#
# Bulk Modulus (GPa) = 45.79134 62.99365 54.39250
# Shear Modulus (GPa) = 18.19773 26.28416 22.24094
#
# Velocity S-wave (km/s) = 3.01371 3.62193 3.33173
# Velocity P-wave (km/s) = 5.91307 6.99509 6.47671
#
# Compressibility (1/GPa) = 0.02183819
#
# Stress axis : x y z
#
# Youngs Moduli (GPa) = 132.69340 56.73799 80.01805
#
# Poissons Ratio (x) = 0.11437 0.34990
# Poissons Ratio (y) = 0.26747 0.12176
# Poissons Ratio (z) = 0.58023 0.08633
#
# Static dielectric constant tensor:
#      x y z
#    x 1.760690 0.000000 0.015570 
#    y 0.000000 1.756350 0.000000 
#    z 0.015570 0.000000 1.718600 
# 
# From -- ./inp_files/374966.got.cif
#   From: 2010.05.17/outbox.cif.g08.bks.cpg/sg12_188_cif.got.tgz:374966.got - 2010.06.03 13:09:07.
