data_PCOD9212999
_publ_section_title
;
Structure prediction by ZEFSAII (Michael W. Deem and Ramdas Pophale) SiO2 
 PCOD9212999
Probable space group: C 2/M
;
_chemical_formula_sum "Si O2"
_cell_formula_units_Z 48
_cell_length_a 8.776917
_cell_length_b 24.397225
_cell_length_c 13.142170
_cell_angle_alpha 90.000000
_cell_angle_beta 113.993453
_cell_angle_gamma 90.000000
_cell_volume 2570.998110
_symmetry_space_group_name_H-M "C 2/M"
_symmetry_group_IT_number 12
_symmetry_cell_setting 'monoclinic'
loop_
_space_group_symop_operation_xyz
x,y,z
-x,y,-z
-x,-y,-z
x,-y,z
1/2+x,1/2+y,z
1/2-x,1/2+y,-z
1/2-x,1/2-y,-z
1/2+x,1/2-y,z
loop_
_atom_site_type_symbol
_atom_site_label
_atom_site_fract_x
_atom_site_fract_y
_atom_site_fract_z
Si Si1 0.116710 0.852651 0.936257
Si Si2 0.641430 0.776834 0.123781
Si Si3 0.814328 0.838490 0.744767
Si Si4 0.899209 0.439238 0.077394
Si Si5 0.546527 0.865173 0.269198
Si Si6 0.185138 0.311309 0.501139
O O1 0.204864 0.802916 0.898820
O O2 0.975469 0.873414 0.820218
O O3 0.254617 0.894368 0.016301
O O4 0.000000 0.837890 0.000000
O O5 0.676973 0.721430 0.196892
O O6 0.581870 0.820284 0.191795
O O7 0.500000 0.772743 0.000000
O O8 0.639147 0.861065 0.735628
O O9 0.804360 0.833982 0.621257
O O10 0.831371 0.500000 0.080331
O O11 0.029753 0.420982 0.200489
O O12 0.000000 0.440406 0.000000
O O13 0.667470 0.848785 0.395507
O O14 0.250000 0.250000 0.500000
O O15 0.000000 0.307447 0.500000
#
# Coordination Sequence:
#
# PCOD9212999 Si02
#       6
#     8   8   8   8   8   8
#     4  12  22  37  56  89 120 149 195 244 296 344
#     4  12  21  33  55  84 123 163 186 222 291 362
#     4  11  23  34  54  86 125 156 190 233 284 349
#     4  11  23  43  65  85 110 149 197 252 308 350
#     4  11  20  40  55  81 120 154 201 232 283 352
#     4  10  22  36  55  82 120 164 196 230 276 343
#
# _framework density 18.669791
#
# number of rings (size 3 to 8) (size 9 to 14) (size 15 to 20)
#    0.000    0.833    6.667    1.500    2.333    2.333 
#    0.000    0.000    0.000    5.500    0.000    2.333 
#    0.000    0.000    0.000    0.000    0.000    0.000 
#
# Total GULP energy -133724.816143 kJ/mol
# GULP energy per Si atom -5571.867339 kJ/mol
# Density = 1.862730 g / cm^3
# Si number density = 18.669791 Si / 1000 Ang^3
#
#
#
# Elastic Constant Matrix: (Units=GPa)
#
#
# Indices 1 2 3 4 5 6 
#
# 1 42.5811 5.7226 19.5261 0.0000 -6.7206 0.0000
# 2 5.7226 59.6172 34.1550 0.0000 -7.1927 0.0000
# 3 19.5261 34.1550 177.9625 0.0000 -4.5746 0.0000
# 4 0.0000 0.0000 0.0000 12.3651 0.0000 2.9895
# 5 -6.7206 -7.1927 -4.5746 0.0000 26.1428 0.0000
# 6 0.0000 0.0000 0.0000 2.9895 0.0000 3.4415
#
#
#
# Elastic Compliance Matrix: (Units=1/GPa)
#
#
# Indices 1 2 3 4 5 6 
#
# 1 0.025675 -0.000232 -0.002616 0.000000 0.006079 0.000000
# 2 -0.000232 0.019408 -0.003580 0.000000 0.004654 0.000000
# 3 -0.002616 -0.003580 0.006580 0.000000 -0.000506 0.000000
# 4 0.000000 0.000000 0.000000 0.102372 0.000000 -0.088926
# 5 0.006079 0.004654 -0.000506 0.000000 0.041006 0.000000
# 6 0.000000 0.000000 0.000000 -0.088926 0.000000 0.367819
#
#
# Mechanical properties :
#
#
# Convention : Reuss Voigt Hill
#
# Bulk Modulus (GPa) = 25.76863 44.32979 35.04921
# Shear Modulus (GPa) = 8.49397 23.10701 15.80049
#
# Velocity S-wave (km/s) = 2.13529 3.52187 2.91230
# Velocity P-wave (km/s) = 4.46224 6.35089 5.48841
#
# Compressibility (1/GPa) = 0.03880688
#
# Stress axis : x y z
#
# Youngs Moduli (GPa) = 38.94852 51.52432 151.96999
#
# Poissons Ratio (x) = 0.01197 0.39759
# Poissons Ratio (y) = 0.00905 0.54402
# Poissons Ratio (z) = 0.10190 0.18445
#
# Static dielectric constant tensor:
#      x y z
#    x 1.695920 0.000000 -0.001710 
#    y 0.000000 1.679930 0.000000 
#    z -0.001710 0.000000 1.721090 
# 
# From -- ./inp_files/123495.got.cif
#   From: 2010.05.17/outbox.cif.g08.bks.cpg/sg12_62_cif.got.tgz:123495.got - 2010.06.03 13:09:07.
