data_PCOD9212423
_publ_section_title
;
Structure prediction by ZEFSAII (Michael W. Deem and Ramdas Pophale) SiO2 
 PCOD9212423
Probable space group: C 2/M
;
_chemical_formula_sum "Si O2"
_cell_formula_units_Z 44
_cell_length_a 23.144524
_cell_length_b 14.172655
_cell_length_c 7.436603
_cell_angle_alpha 90.000000
_cell_angle_beta 50.647774
_cell_angle_gamma 90.000000
_cell_volume 1886.257782
_symmetry_space_group_name_H-M "C 2/M"
_symmetry_group_IT_number 12
_symmetry_cell_setting 'monoclinic'
loop_
_space_group_symop_operation_xyz
x,y,z
-x,y,-z
-x,-y,-z
x,-y,z
1/2+x,1/2+y,z
1/2-x,1/2+y,-z
1/2-x,1/2-y,-z
1/2+x,1/2-y,z
loop_
_atom_site_type_symbol
_atom_site_label
_atom_site_fract_x
_atom_site_fract_y
_atom_site_fract_z
Si Si1 0.500000 0.761926 0.000000
Si Si2 0.344516 0.387503 0.675129
Si Si3 0.597401 0.287155 0.114356
Si Si4 0.827481 0.609791 0.885517
Si Si5 0.637195 0.110600 0.608026
Si Si6 0.198539 0.886343 0.630902
O O1 0.527162 0.705019 0.121264
O O2 0.431267 0.827248 0.194823
O O3 0.354297 0.500000 0.668551
O O4 0.401678 0.336483 0.693964
O O5 0.344772 0.360282 0.465449
O O6 0.259376 0.366147 0.907614
O O7 0.618813 0.178975 0.111381
O O8 0.662855 0.337216 0.871981
O O9 0.837514 0.500000 0.915871
O O10 0.845784 0.620484 0.638272
O O11 0.714155 0.137475 0.555784
O O12 0.622608 0.000000 0.670963
O O13 0.194687 0.000000 0.660990
#
# Coordination Sequence:
#
# PCOD9212423 Si02
#       6
#     4   8   8   8   8   8
#     4  12  29  40  59  98 138 186 218 268 330 412
#     4  10  21  41  70 103 130 165 222 287 340 379
#     4  12  25  43  66  98 139 177 223 274 328 401
#     4  10  22  40  68 101 133 173 221 278 335 392
#     4  10  22  44  68  96 135 175 222 277 337 398
#     4  10  22  43  76 104 128 169 226 283 334 388
#
# _framework density 23.326611
#
# number of rings (size 3 to 8) (size 9 to 14) (size 15 to 20)
#    0.000    1.455    1.818    2.455    2.545    5.091 
#    0.000    3.636    0.000    2.182    0.000    2.545 
#    0.000    0.000    0.000    0.000    0.000    0.000 
#
# Total GULP energy -123320.643243 kJ/mol
# GULP energy per Si atom -5605.483784 kJ/mol
# Density = 2.327352 g / cm^3
# Si number density = 23.326611 Si / 1000 Ang^3
#
#
#
# Elastic Constant Matrix: (Units=GPa)
#
#
# Indices 1 2 3 4 5 6 
#
# 1 152.7615 49.5078 15.4444 0.0000 20.5623 0.0000
# 2 49.5078 70.7677 27.1240 0.0000 7.2994 0.0000
# 3 15.4444 27.1240 70.0199 0.0000 8.9144 0.0000
# 4 0.0000 0.0000 0.0000 22.4814 0.0000 17.2922
# 5 20.5623 7.2994 8.9144 0.0000 37.5246 0.0000
# 6 0.0000 0.0000 0.0000 17.2922 0.0000 21.3908
#
#
#
# Elastic Compliance Matrix: (Units=1/GPa)
#
#
# Indices 1 2 3 4 5 6 
#
# 1 0.009009 -0.006256 0.000938 0.000000 -0.003943 0.000000
# 2 -0.006256 0.021051 -0.006899 0.000000 0.000972 0.000000
# 3 0.000938 -0.006899 0.017161 0.000000 -0.003249 0.000000
# 4 0.000000 0.000000 0.000000 0.117612 0.000000 -0.095077
# 5 -0.003943 0.000972 -0.003249 0.000000 0.029392 0.000000
# 6 0.000000 0.000000 0.000000 -0.095077 0.000000 0.123609
#
#
# Mechanical properties :
#
#
# Convention : Reuss Voigt Hill
#
# Bulk Modulus (GPa) = 43.88135 53.07795 48.47965
# Shear Modulus (GPa) = 14.29128 29.71088 22.00108
#
# Velocity S-wave (km/s) = 2.47788 3.57275 3.07445
# Velocity P-wave (km/s) = 5.19991 6.31055 5.78196
#
# Compressibility (1/GPa) = 0.02278873
#
# Stress axis : x y z
#
# Youngs Moduli (GPa) = 110.99502 47.50379 58.27268
#
# Poissons Ratio (x) = 0.29717 -0.05466
# Poissons Ratio (y) = 0.69435 0.40200
# Poissons Ratio (z) = -0.10412 0.32771
#
# Static dielectric constant tensor:
#      x y z
#    x 1.872690 0.000000 0.022850 
#    y 0.000000 1.870790 0.000000 
#    z 0.022850 0.000000 1.849360 
# 
# From -- ./inp_files/73525.got.cif
#   From: 2010.05.17/outbox.cif.g08.bks.cpg/sg12_37_cif.got.tgz:73525.got - 2010.06.03 13:09:07.
