data_PCOD9212376
_publ_section_title
;
Structure prediction by ZEFSAII (Michael W. Deem and Ramdas Pophale) SiO2 
 PCOD9212376
Probable space group: C 2/M
;
_chemical_formula_sum "Si O2"
_cell_formula_units_Z 64
_cell_length_a 20.736255
_cell_length_b 24.413646
_cell_length_c 16.410864
_cell_angle_alpha 90.000000
_cell_angle_beta 160.040206
_cell_angle_gamma 90.000000
_cell_volume 2836.010751
_symmetry_space_group_name_H-M "C 2/M"
_symmetry_group_IT_number 12
_symmetry_cell_setting 'monoclinic'
loop_
_space_group_symop_operation_xyz
x,y,z
-x,y,-z
-x,-y,-z
x,-y,z
1/2+x,1/2+y,z
1/2-x,1/2+y,-z
1/2-x,1/2-y,-z
1/2+x,1/2-y,z
loop_
_atom_site_type_symbol
_atom_site_label
_atom_site_fract_x
_atom_site_fract_y
_atom_site_fract_z
Si Si1 0.155870 0.639998 0.757173
Si Si2 0.702636 0.078822 0.436705
Si Si3 0.596064 0.561118 0.494081
Si Si4 0.212502 0.231284 0.834276
Si Si5 0.170752 0.561361 0.923819
Si Si6 0.536797 0.560590 0.949988
Si Si7 0.867395 0.700360 0.673977
Si Si8 0.826869 0.818243 0.390109
O O1 0.194028 0.703588 0.821896
O O2 0.110559 0.605732 0.784930
O O3 0.000000 0.637241 0.500000
O O4 0.338889 0.608038 0.941455
O O5 0.782885 0.061359 0.445133
O O6 0.487240 0.062702 0.194303
O O7 0.839576 0.057329 0.668772
O O8 0.712118 0.143984 0.453808
O O9 0.614175 0.500000 0.553121
O O10 0.663410 0.616708 0.618638
O O11 0.378769 0.569848 0.208087
O O12 0.202208 0.216338 0.725873
O O13 0.036624 0.200781 0.668255
O O14 0.418016 0.208686 0.099429
O O15 0.172206 0.500000 0.889051
O O16 0.628481 0.500000 0.053086
O O17 0.500000 0.572525 0.000000
O O18 0.750000 0.750000 0.500000
O O19 0.826681 0.694783 0.722875
#
# Coordination Sequence:
#
# PCOD9212376 Si02
#       8
#     8   8   8   8   8   8   8   8
#     4  12  24  39  60  89 125 173 218 263 318 381
#     4  11  22  40  62  95 129 166 210 269 325 383
#     4  10  21  41  68  97 126 164 214 269 333 393
#     4  11  24  46  64  91 133 171 216 271 325 385
#     4  11  23  38  62  92 128 168 212 267 320 385
#     4  11  23  39  61  88 128 174 217 266 319 383
#     4  11  25  39  67  97 124 171 220 264 326 392
#     4  10  23  44  67  93 130 172 209 275 328 380
#
# _framework density 22.566911000000001
#
# number of rings (size 3 to 8) (size 9 to 14) (size 15 to 20)
#    0.000    1.125    2.500    4.125    3.500    4.500 
#    0.000    1.250    0.000    7.500    0.000    0.000 
#    0.000    0.000    0.000    0.000    0.000    0.000 
#
# Total GULP energy -178995.129773 kJ/mol
# GULP energy per Si atom -5593.597805 kJ/mol
# Density = 2.251555 g / cm^3
# Si number density = 22.566911 Si / 1000 Ang^3
#
#
#
# Elastic Constant Matrix: (Units=GPa)
#
#
# Indices 1 2 3 4 5 6 
#
# 1 69.3760 5.6376 6.6139 0.0000 18.0896 0.0000
# 2 5.6376 168.1578 9.4268 0.0000 -0.6522 0.0001
# 3 6.6139 9.4268 66.8994 -0.0001 26.3404 0.0000
# 4 0.0000 0.0000 -0.0001 32.4378 -0.0001 -7.7110
# 5 18.0896 -0.6522 26.3404 -0.0001 33.6379 -0.0001
# 6 0.0000 0.0001 0.0000 -7.7110 -0.0001 0.6574
#
#
#
# Elastic Compliance Matrix: (Units=1/GPa)
#
#
# Indices 1 2 3 4 5 6 
#
# 1 0.017222 -0.000789 0.002980 0.000000 -0.011610 0.000001
# 2 -0.000789 0.006060 -0.001430 0.000000 0.001662 0.000000
# 3 0.002980 -0.001430 0.022404 0.000000 -0.019174 0.000001
# 4 0.000000 0.000000 0.000000 -0.017238 -0.000001 -0.202200
# 5 -0.011610 0.001662 -0.019174 -0.000001 0.051018 -0.000005
# 6 0.000001 0.000000 0.000001 -0.202200 -0.000005 -0.850601
#
#
# Mechanical properties :
#
#
# Convention : Reuss Voigt Hill
#
# Bulk Modulus (GPa) = 21.18371 38.64332 29.91351
# Shear Modulus (GPa) = -6.60572 32.19695 12.79562
#
# Velocity S-wave (km/s) = -1.71275 3.78131 2.38378
# Velocity P-wave (km/s) = 2.34437 6.01876 4.56736
#
# Compressibility (1/GPa) = 0.04720608
#
# Stress axis : x y z
#
# Youngs Moduli (GPa) = 58.06672 165.01959 44.63458
#
# Poissons Ratio (x) = 0.13027 -0.13301
# Poissons Ratio (y) = 0.04584 0.06384
# Poissons Ratio (z) = -0.17303 0.23602
#
# Static dielectric constant tensor:
#      x y z
#    x 1.886580 0.000000 -0.017080 
#    y 0.000000 1.842000 0.000000 
#    z -0.017080 0.000000 1.825490 
# 
# From -- ./inp_files/286473.got.cif
#   From: 2010.05.17/outbox.cif.g08.bks.cpg/sg12_144_cif.got.tgz:286473.got - 2010.06.03 13:09:07.
