data_PCOD9212435
_publ_section_title
;
Structure prediction by ZEFSAII (Michael W. Deem and Ramdas Pophale) SiO2 
 PCOD9212435
Probable space group: C 2/M
;
_chemical_formula_sum "Si O2"
_cell_formula_units_Z 48
_cell_length_a 7.012367
_cell_length_b 24.079726
_cell_length_c 11.696856
_cell_angle_alpha 90.000000
_cell_angle_beta 92.149818
_cell_angle_gamma 90.000000
_cell_volume 1973.692713
_symmetry_space_group_name_H-M "C 2/M"
_symmetry_group_IT_number 12
_symmetry_cell_setting 'monoclinic'
loop_
_space_group_symop_operation_xyz
x,y,z
-x,y,-z
-x,-y,-z
x,-y,z
1/2+x,1/2+y,z
1/2-x,1/2+y,-z
1/2-x,1/2-y,-z
1/2+x,1/2-y,z
loop_
_atom_site_type_symbol
_atom_site_label
_atom_site_fract_x
_atom_site_fract_y
_atom_site_fract_z
Si Si1 0.706737 0.065750 0.467877
Si Si2 0.666513 0.561595 0.096429
Si Si3 0.008672 0.241291 0.369089
Si Si4 0.239559 0.742963 0.197126
Si Si5 0.482853 0.609703 0.669272
Si Si6 0.711375 0.827571 0.996325
O O1 0.500000 0.087149 0.500000
O O2 0.847043 0.077784 0.576321
O O3 0.800948 0.094496 0.360349
O O4 0.694872 0.000000 0.446419
O O5 0.749256 0.500000 0.118433
O O6 0.580005 0.586903 0.210260
O O7 0.500000 0.556441 0.000000
O O8 0.793781 0.609264 0.043449
O O9 0.752796 0.240577 0.341819
O O10 0.000000 0.261025 0.500000
O O11 0.989928 0.263479 0.232091
O O12 0.044419 0.174685 0.356366
O O13 0.284615 0.687126 0.124877
O O14 0.200328 0.791650 0.103745
O O15 0.500000 0.806188 0.000000
#
# Coordination Sequence:
#
# PCOD9212435 Si02
#       6
#     8   8   8   8   8   8
#     4  10  21  41  70  99 131 181 233 276 333 407
#     4  11  24  43  69  98 131 174 223 278 347 410
#     4  12  23  43  64  97 135 178 222 276 346 409
#     4  11  24  42  67  97 130 176 228 276 342 411
#     4  11  21  43  68  99 140 181 218 281 344 404
#     4  11  23  43  69  96 130 174 227 285 334 407
#
# _framework density 24.319894000000001
#
# number of rings (size 3 to 8) (size 9 to 14) (size 15 to 20)
#    0.000    1.000    5.000    3.500    0.000    0.333 
#    9.000    0.000    0.000    0.000    0.000    0.000 
#    0.000    0.667    0.000    0.000    0.000    0.000 
#
# Total GULP energy -133844.063310 kJ/mol
# GULP energy per Si atom -5576.835971 kJ/mol
# Density = 2.426454 g / cm^3
# Si number density = 24.319894 Si / 1000 Ang^3
#
#
#
# Elastic Constant Matrix: (Units=GPa)
#
#
# Indices 1 2 3 4 5 6 
#
# 1 141.0738 14.4769 62.4175 0.0000 -26.4115 0.0000
# 2 14.4769 135.1115 41.6547 0.0000 -29.5615 0.0000
# 3 62.4175 41.6547 197.5581 0.0000 -32.4190 0.0000
# 4 0.0000 0.0000 0.0000 28.5728 0.0000 -5.6020
# 5 -26.4115 -29.5615 -32.4190 0.0000 52.6661 0.0000
# 6 0.0000 0.0000 0.0000 -5.6020 0.0000 37.7459
#
#
#
# Elastic Compliance Matrix: (Units=1/GPa)
#
#
# Indices 1 2 3 4 5 6 
#
# 1 0.008660 0.000484 -0.002315 0.000000 0.003190 0.000000
# 2 0.000484 0.008691 -0.001274 0.000000 0.004337 0.000000
# 3 -0.002315 -0.001274 0.006400 0.000000 0.002064 0.000000
# 4 0.000000 0.000000 0.000000 0.036047 0.000000 0.005350
# 5 0.003190 0.004337 0.002064 0.000000 0.024292 0.000000
# 6 0.000000 0.000000 0.000000 0.005350 0.000000 0.027287
#
#
# Mechanical properties :
#
#
# Convention : Reuss Voigt Hill
#
# Bulk Modulus (GPa) = 57.00584 78.98238 67.99411
# Shear Modulus (GPa) = 40.50737 47.47658 43.99198
#
# Velocity S-wave (km/s) = 4.08561 4.42313 4.25772
# Velocity P-wave (km/s) = 6.76367 7.65718 7.22425
#
# Compressibility (1/GPa) = 0.01754206
#
# Stress axis : x y z
#
# Youngs Moduli (GPa) = 115.47173 115.06168 156.24095
#
# Poissons Ratio (x) = -0.05564 0.36165
# Poissons Ratio (y) = -0.05584 0.19899
# Poissons Ratio (z) = 0.26728 0.14654
#
# Static dielectric constant tensor:
#      x y z
#    x 2.784180 0.000000 -0.008920 
#    y 0.000000 1.937450 0.000000 
#    z -0.008920 0.000000 1.886010 
# 
# From -- ./inp_files/121962.got.cif
#   From: 2010.05.17/outbox.cif.g08.bks.cpg/sg12_61_cif.got.tgz:121962.got - 2010.06.03 13:09:07.
