data_PCOD9212581
_publ_section_title
;
Structure prediction by ZEFSAII (Michael W. Deem and Ramdas Pophale) SiO2 
 PCOD9212581
Probable space group: C 2/M
;
_chemical_formula_sum "Si O2"
_cell_formula_units_Z 44
_cell_length_a 11.169496
_cell_length_b 21.820752
_cell_length_c 8.066469
_cell_angle_alpha 90.000000
_cell_angle_beta 113.296359
_cell_angle_gamma 90.000000
_cell_volume 1805.728496
_symmetry_space_group_name_H-M "C 2/M"
_symmetry_group_IT_number 12
_symmetry_cell_setting 'monoclinic'
loop_
_space_group_symop_operation_xyz
x,y,z
-x,y,-z
-x,-y,-z
x,-y,z
1/2+x,1/2+y,z
1/2-x,1/2+y,-z
1/2-x,1/2-y,-z
1/2+x,1/2-y,z
loop_
_atom_site_type_symbol
_atom_site_label
_atom_site_fract_x
_atom_site_fract_y
_atom_site_fract_z
Si Si1 0.464499 0.431704 0.672654
Si Si2 0.247004 0.911772 0.894490
Si Si3 0.269578 0.670152 0.656782
Si Si4 0.360654 0.000000 0.671621
Si Si5 0.541083 0.888990 0.731553
Si Si6 0.172204 0.698342 0.241714
O O1 0.500000 0.414874 0.500000
O O2 0.404819 0.500000 0.631046
O O3 0.599972 0.430942 0.845304
O O4 0.366052 0.386688 0.705860
O O5 0.291121 0.947456 0.754162
O O6 0.255378 0.839454 0.860992
O O7 0.354881 0.923173 0.091749
O O8 0.130993 0.648468 0.652661
O O9 0.252525 0.687784 0.455235
O O10 0.328246 0.729047 0.782336
O O11 0.442836 0.943647 0.629449
O O12 0.462834 0.836856 0.793165
#
# Coordination Sequence:
#
# PCOD9212581 Si02
#       6
#     8   8   8   4   8   8
#     4  11  24  42  67  92 131 172 216 258 323 400
#     4  11  21  43  67  93 125 174 215 255 322 395
#     4  11  25  42  66  97 129 168 213 273 325 375
#     4  10  21  42  68  92 133 172 206 257 328 390
#     4  11  24  40  67  99 126 165 220 270 316 379
#     4  10  23  44  66  89 131 172 215 259 328 385
#
# _framework density 24.366896000000001
#
# number of rings (size 3 to 8) (size 9 to 14) (size 15 to 20)
#    0.000    1.273    2.727    3.818    3.818    1.455 
#    3.273    4.545    0.000    0.000    0.000    0.000 
#    0.000    0.000    0.000    0.000    0.000    0.000 
#
# Total GULP energy -122564.754139 kJ/mol
# GULP energy per Si atom -5571.125188 kJ/mol
# Density = 2.431144 g / cm^3
# Si number density = 24.366896 Si / 1000 Ang^3
#
#
#
# Elastic Constant Matrix: (Units=GPa)
#
#
# Indices 1 2 3 4 5 6 
#
# 1 68.9687 49.1927 -26.7277 0.0000 -3.8782 0.0000
# 2 49.1927 175.5904 -10.1481 0.0000 -8.3246 0.0000
# 3 -26.7277 -10.1481 22.3917 0.0000 5.7925 0.0000
# 4 0.0000 0.0000 0.0000 17.5034 0.0000 0.1614
# 5 -3.8782 -8.3246 5.7925 0.0000 19.5719 0.0000
# 6 0.0000 0.0000 0.0000 0.1614 0.0000 28.3038
#
#
#
# Elastic Compliance Matrix: (Units=1/GPa)
#
#
# Indices 1 2 3 4 5 6 
#
# 1 0.035709 -0.008028 0.041192 0.000000 -0.008530 0.000000
# 2 -0.008028 0.007715 -0.007064 0.000000 0.003781 0.000000
# 3 0.041192 -0.007064 0.096696 0.000000 -0.023461 0.000000
# 4 0.000000 0.000000 0.000000 0.057135 0.000000 -0.000326
# 5 -0.008530 0.003781 -0.023461 0.000000 0.057955 0.000000
# 6 0.000000 0.000000 0.000000 -0.000326 0.000000 0.035333
#
#
# Mechanical properties :
#
#
# Convention : Reuss Voigt Hill
#
# Bulk Modulus (GPa) = 5.19965 32.39829 18.79897
# Shear Modulus (GPa) = 16.53172 30.05141 23.29156
#
# Velocity S-wave (km/s) = 2.60753 3.51563 3.09507
# Velocity P-wave (km/s) = 3.34726 5.45934 4.52817
#
# Compressibility (1/GPa) = 0.19232066
#
# Stress axis : x y z
#
# Youngs Moduli (GPa) = 28.00419 129.61557 10.34170
#
# Poissons Ratio (x) = 1.04053 -0.42600
# Poissons Ratio (y) = 0.22481 0.07305
# Poissons Ratio (z) = -1.15355 0.91561
#
# Static dielectric constant tensor:
#      x y z
#    x 1.911470 0.000000 0.019240 
#    y 0.000000 1.951220 0.000000 
#    z 0.019240 0.000000 2.096690 
# 
# From -- ./inp_files/51550.got.cif
#   From: 2010.05.17/outbox.cif.g08.bks.cpg/sg12_26_cif.got.tgz:51550.got - 2010.06.03 13:09:07.
