data_PCOD9212599
_publ_section_title
;
Structure prediction by ZEFSAII (Michael W. Deem and Ramdas Pophale) SiO2 
 PCOD9212599
Probable space group: C 2/M
;
_chemical_formula_sum "Si O2"
_cell_formula_units_Z 28
_cell_length_a 9.499038
_cell_length_b 18.616244
_cell_length_c 6.818550
_cell_angle_alpha 90.000000
_cell_angle_beta 69.243312
_cell_angle_gamma 90.000000
_cell_volume 1127.506143
_symmetry_space_group_name_H-M "C 2/M"
_symmetry_group_IT_number 12
_symmetry_cell_setting 'monoclinic'
loop_
_space_group_symop_operation_xyz
x,y,z
-x,y,-z
-x,-y,-z
x,-y,z
1/2+x,1/2+y,z
1/2-x,1/2+y,-z
1/2-x,1/2-y,-z
1/2+x,1/2-y,z
loop_
_atom_site_type_symbol
_atom_site_label
_atom_site_fract_x
_atom_site_fract_y
_atom_site_fract_z
Si Si1 0.659134 0.220801 0.357655
Si Si2 0.629988 0.500000 0.274182
Si Si3 0.814864 0.154112 0.922030
Si Si4 0.000000 0.377174 0.000000
Si Si5 0.537093 0.000000 0.704283
O O1 0.500000 0.184617 0.500000
O O2 0.750000 0.250000 0.500000
O O3 0.599204 0.284069 0.239090
O O4 0.773085 0.173297 0.166371
O O5 0.500000 0.500000 0.500000
O O6 0.627053 0.573945 0.150061
O O7 0.788821 0.500000 0.314494
O O8 0.652404 0.163353 0.893826
O O9 0.965758 0.430858 0.840259
O O10 0.500000 0.000000 0.500000
#
# Coordination Sequence:
#
# PCOD9212599 Si02
#       5
#     8   4   8   4   4
#     4  11  24  43  67  93 127 173 220 268 327 389
#     4  10  21  42  68  97 136 176 215 270 338 397
#     4  10  22  40  65  95 130 167 218 273 321 389
#     4   9  18  36  58  88 124 159 206 260 310 375
#     4   9  19  34  58  90 124 162 203 251 313 382
#
# _framework density 24.833566999999999
#
# number of rings (size 3 to 8) (size 9 to 14) (size 15 to 20)
#    0.000    2.000    0.000    3.429    0.000    9.143 
#    0.000    5.000    0.000   15.429    0.000    0.000 
#    0.000    0.000    0.000    0.000    0.000    0.000 
#
# Total GULP energy -78227.796941 kJ/mol
# GULP energy per Si atom -5587.699781 kJ/mol
# Density = 2.477704 g / cm^3
# Si number density = 24.833567 Si / 1000 Ang^3
#
#
#
# Elastic Constant Matrix: (Units=GPa)
#
#
# Indices 1 2 3 4 5 6 
#
# 1 63.1645 13.1523 40.1006 0.0000 -6.3569 0.0000
# 2 13.1523 148.0406 92.6887 0.0000 -7.5174 0.0000
# 3 40.1006 92.6887 222.3511 0.0000 4.9284 0.0000
# 4 0.0000 0.0000 0.0000 55.0196 0.0000 -6.3614
# 5 -6.3569 -7.5174 4.9284 0.0000 46.2224 0.0000
# 6 0.0000 0.0000 0.0000 -6.3614 0.0000 16.2154
#
#
#
# Elastic Compliance Matrix: (Units=1/GPa)
#
#
# Indices 1 2 3 4 5 6 
#
# 1 0.018330 0.000865 -0.003734 0.000000 0.003060 0.000000
# 2 0.000865 0.009350 -0.004100 0.000000 0.002077 0.000000
# 3 -0.003734 -0.004100 0.006922 0.000000 -0.001918 0.000000
# 4 0.000000 0.000000 0.000000 0.019039 0.000000 0.007469
# 5 0.003060 0.002077 -0.001918 0.000000 0.022598 0.000000
# 6 0.000000 0.000000 0.000000 0.007469 0.000000 0.064600
#
#
# Mechanical properties :
#
#
# Convention : Reuss Voigt Hill
#
# Bulk Modulus (GPa) = 48.39152 80.60439 64.49795
# Shear Modulus (GPa) = 30.92795 42.66578 36.79687
#
# Velocity S-wave (km/s) = 3.53286 4.14946 3.85351
# Velocity P-wave (km/s) = 6.01416 7.44887 6.76963
#
# Compressibility (1/GPa) = 0.02066478
#
# Stress axis : x y z
#
# Youngs Moduli (GPa) = 54.55482 106.94706 144.45880
#
# Poissons Ratio (x) = -0.09249 0.53943
# Poissons Ratio (y) = -0.04718 0.59225
# Poissons Ratio (z) = 0.20372 0.43846
#
# Static dielectric constant tensor:
#      x y z
#    x 2.038030 0.000000 -0.046330 
#    y 0.000000 1.965720 0.000000 
#    z -0.046330 0.000000 2.054500 
# 
# From -- ./inp_files/5977.got.cif
#   From: 2010.05.17/outbox.cif.g08.bks.cpg/sg12_3_cif.got.tgz:5977.got - 2010.06.03 13:09:07.
