data_PCOD9212901
_publ_section_title
;
Structure prediction by ZEFSAII (Michael W. Deem and Ramdas Pophale) SiO2 
 PCOD9212901
Probable space group: C 2/M
;
_chemical_formula_sum "Si O2"
_cell_formula_units_Z 36
_cell_length_a 20.933225
_cell_length_b 23.030585
_cell_length_c 14.449002
_cell_angle_alpha 90.000000
_cell_angle_beta 164.766879
_cell_angle_gamma 90.000000
_cell_volume 1830.276481
_symmetry_space_group_name_H-M "C 2/M"
_symmetry_group_IT_number 12
_symmetry_cell_setting 'monoclinic'
loop_
_space_group_symop_operation_xyz
x,y,z
-x,y,-z
-x,-y,-z
x,-y,z
1/2+x,1/2+y,z
1/2-x,1/2+y,-z
1/2-x,1/2-y,-z
1/2+x,1/2-y,z
loop_
_atom_site_type_symbol
_atom_site_label
_atom_site_fract_x
_atom_site_fract_y
_atom_site_fract_z
Si Si1 0.463313 0.788022 0.343749
Si Si2 0.617821 0.500000 0.412681
Si Si3 0.743992 0.223275 0.389492
Si Si4 0.000000 0.092722 0.500000
Si Si5 0.595111 0.621809 0.836481
Si Si6 0.121637 0.500000 0.022252
O O1 0.500000 0.767905 0.500000
O O2 0.681041 0.773328 0.579542
O O3 0.250000 0.750000 0.000000
O O4 0.368937 0.854006 0.217317
O O5 0.459064 0.558847 0.196289
O O6 0.760258 0.500000 0.710078
O O7 0.831837 0.500000 0.633951
O O8 0.750000 0.250000 0.500000
O O9 0.934136 0.170384 0.661434
O O10 0.500000 0.199008 0.000000
O O11 0.005311 0.124789 0.604403
O O12 0.247159 0.054158 0.844210
#
# Coordination Sequence:
#
# PCOD9212901 Si02
#       6
#     8   4   8   4   8   4
#     4  10  22  41  61  83 117 161 203 251 303 363
#     4   9  18  34  53  91 118 157 195 250 301 356
#     4  11  24  37  58  89 118 156 205 255 306 355
#     4   9  18  30  52  88 114 164 194 235 302 358
#     4  10  22  34  61  84 126 155 205 241 309 362
#     4   8  16  30  50  79 130 149 196 244 283 353
#
# _framework density 19.669160000000002
#
# number of rings (size 3 to 8) (size 9 to 14) (size 15 to 20)
#    0.000    2.222    0.000    3.333   15.556    0.000 
#    0.000    0.556    0.000    0.000    0.000    4.667 
#    0.000    0.000    0.000    0.000    0.000    0.000 
#
# Total GULP energy -100212.769958 kJ/mol
# GULP energy per Si atom -5567.376109 kJ/mol
# Density = 1.962439 g / cm^3
# Si number density = 19.669160 Si / 1000 Ang^3
#
#
#
# Elastic Constant Matrix: (Units=GPa)
#
#
# Indices 1 2 3 4 5 6 
#
# 1 133.2314 46.2657 11.0568 -0.0001 -9.8234 0.0000
# 2 46.2657 116.7272 10.7313 -0.0001 12.7191 -0.0002
# 3 11.0568 10.7313 21.9256 -0.0006 -5.1240 -0.0001
# 4 -0.0001 -0.0001 -0.0006 17.8413 -0.0005 1.1372
# 5 -9.8234 12.7191 -5.1240 -0.0005 38.0451 0.0000
# 6 0.0000 -0.0002 -0.0001 1.1372 0.0000 28.3068
#
#
#
# Elastic Compliance Matrix: (Units=1/GPa)
#
#
# Indices 1 2 3 4 5 6 
#
# 1 0.009263 -0.003861 -0.001983 0.000000 0.003416 0.000000
# 2 -0.003861 0.011117 -0.004745 0.000000 -0.005353 0.000000
# 3 -0.001983 -0.004745 0.050780 0.000002 0.007913 0.000000
# 4 0.000000 0.000000 0.000002 0.056194 0.000001 -0.002257
# 5 0.003416 -0.005353 0.007913 0.000001 0.030022 0.000000
# 6 0.000000 0.000000 0.000000 -0.002257 0.000000 0.035418
#
#
# Mechanical properties :
#
#
# Convention : Reuss Voigt Hill
#
# Bulk Modulus (GPa) = 20.00721 45.33243 32.66982
# Shear Modulus (GPa) = 21.67950 30.42734 26.05342
#
# Velocity S-wave (km/s) = 3.32355 3.93740 3.64343
# Velocity P-wave (km/s) = 4.99219 6.61577 5.86047
#
# Compressibility (1/GPa) = 0.04998197
#
# Stress axis : x y z
#
# Youngs Moduli (GPa) = 107.95607 89.95319 19.69263
#
# Poissons Ratio (x) = 0.34734 0.03905
# Poissons Ratio (y) = 0.41685 0.09344
# Poissons Ratio (z) = 0.21409 0.42680
#
# Static dielectric constant tensor:
#      x y z
#    x 1.717240 0.000000 0.091720 
#    y 0.000000 1.733140 0.000000 
#    z 0.091720 0.000000 1.787290 
# 
# From -- ./inp_files/135042.got.cif
#   From: 2010.05.17/outbox.cif.g08.bks.cpg/sg12_68_cif.got.tgz:135042.got - 2010.06.03 13:09:07.
