data_PCOD9212300
_publ_section_title
;
Structure prediction by ZEFSAII (Michael W. Deem and Ramdas Pophale) SiO2 
 PCOD9212300
Probable space group: C 2/M
;
_chemical_formula_sum "Si O2"
_cell_formula_units_Z 32
_cell_length_a 9.306174
_cell_length_b 34.480280
_cell_length_c 7.262140
_cell_angle_alpha 90.000000
_cell_angle_beta 34.996885
_cell_angle_gamma 90.000000
_cell_volume 1336.485183
_symmetry_space_group_name_H-M "C 2/M"
_symmetry_group_IT_number 12
_symmetry_cell_setting 'monoclinic'
loop_
_space_group_symop_operation_xyz
x,y,z
-x,y,-z
-x,-y,-z
x,-y,z
1/2+x,1/2+y,z
1/2-x,1/2+y,-z
1/2-x,1/2-y,-z
1/2+x,1/2-y,z
loop_
_atom_site_type_symbol
_atom_site_label
_atom_site_fract_x
_atom_site_fract_y
_atom_site_fract_z
Si Si1 0.409192 0.544665 0.382944
Si Si2 0.227151 0.671171 0.969624
Si Si3 0.597711 0.088265 0.199247
Si Si4 0.728674 0.295594 0.491737
O O1 0.500000 0.545840 0.500000
O O2 0.363842 0.500000 0.378349
O O3 0.146620 0.567599 0.633186
O O4 0.658757 0.561294 0.022739
O O5 0.250218 0.692030 0.746273
O O6 0.468329 0.685704 0.824756
O O7 0.202789 0.625088 0.976543
O O8 0.970603 0.685405 0.325426
O O9 0.500000 0.102032 0.500000
O O10 0.750000 0.250000 0.500000
#
# Coordination Sequence:
#
# PCOD9212300 Si02
#       4
#     8   8   8   8
#     4  11  26  46  75 108 144 191 246 301 356 425
#     4  10  23  41  65  98 131 179 228 296 355 421
#     4  12  26  45  71 106 151 194 239 296 364 441
#     4  10  21  41  67  92 124 173 235 289 356 417
#
# _framework density 23.9434
#
# number of rings (size 3 to 8) (size 9 to 14) (size 15 to 20)
#    0.000    1.250    0.000    4.500   10.500    5.000 
#   13.500    0.000    0.000    0.000    0.000    0.000 
#    0.000    0.000    0.000    0.000    0.000    0.000 
#
# Total GULP energy -89456.762582 kJ/mol
# GULP energy per Si atom -5591.047661 kJ/mol
# Density = 2.388890 g / cm^3
# Si number density = 23.943400 Si / 1000 Ang^3
#
#
#
# Elastic Constant Matrix: (Units=GPa)
#
#
# Indices 1 2 3 4 5 6 
#
# 1 123.5881 69.5448 86.1301 0.0000 -33.0344 0.0000
# 2 69.5448 213.7484 64.4366 0.0000 -38.9911 0.0000
# 3 86.1301 64.4366 119.5146 0.0000 -65.6554 0.0000
# 4 0.0000 0.0000 0.0000 43.0653 0.0000 -11.0926
# 5 -33.0344 -38.9911 -65.6554 0.0000 84.4228 0.0000
# 6 0.0000 0.0000 0.0000 -11.0926 0.0000 43.5532
#
#
#
# Elastic Compliance Matrix: (Units=1/GPa)
#
#
# Indices 1 2 3 4 5 6 
#
# 1 0.018508 -0.002503 -0.015094 0.000000 -0.005652 0.000000
# 2 -0.002503 0.005933 -0.000747 0.000000 0.001180 0.000000
# 3 -0.015094 -0.000747 0.028307 0.000000 0.015763 0.000000
# 4 0.000000 0.000000 0.000000 0.024851 0.000000 0.006329
# 5 -0.005652 0.001180 0.015763 0.000000 0.022437 0.000000
# 6 0.000000 0.000000 0.000000 0.006329 0.000000 0.024572
#
#
# Mechanical properties :
#
#
# Convention : Reuss Voigt Hill
#
# Bulk Modulus (GPa) = 62.26208 99.67493 80.96851
# Shear Modulus (GPa) = 30.00320 49.99091 39.99705
#
# Velocity S-wave (km/s) = 3.54374 4.57429 4.09159
# Velocity P-wave (km/s) = 6.54251 8.34378 7.49743
#
# Compressibility (1/GPa) = 0.01606114
#
# Stress axis : x y z
#
# Youngs Moduli (GPa) = 54.03120 168.54601 35.32700
#
# Poissons Ratio (x) = 0.42180 0.53321
# Poissons Ratio (y) = 0.13522 0.02639
# Poissons Ratio (z) = 0.81553 0.12593
#
# Static dielectric constant tensor:
#      x y z
#    x 1.913340 0.000000 0.005160 
#    y 0.000000 1.919290 0.000000 
#    z 0.005160 0.000000 1.976720 
# 
# From -- ./inp_files/54530.got.cif
#   From: 2010.05.17/outbox.cif.g08.bks.cpg/sg12_28_cif.got.tgz:54530.got - 2010.06.03 13:09:07.
