data_PCOD9212284
_publ_section_title
;
Structure prediction by ZEFSAII (Michael W. Deem and Ramdas Pophale) SiO2 
 PCOD9212284
Probable space group: C 2/M
;
_chemical_formula_sum "Si O2"
_cell_formula_units_Z 38
_cell_length_a 11.670876
_cell_length_b 21.284169
_cell_length_c 11.984182
_cell_angle_alpha 90.000000
_cell_angle_beta 144.736224
_cell_angle_gamma 90.000000
_cell_volume 1718.705012
_symmetry_space_group_name_H-M "C 2/M"
_symmetry_group_IT_number 12
_symmetry_cell_setting 'monoclinic'
loop_
_space_group_symop_operation_xyz
x,y,z
-x,y,-z
-x,-y,-z
x,-y,z
1/2+x,1/2+y,z
1/2-x,1/2+y,-z
1/2-x,1/2-y,-z
1/2+x,1/2-y,z
loop_
_atom_site_type_symbol
_atom_site_label
_atom_site_fract_x
_atom_site_fract_y
_atom_site_fract_z
Si Si1 0.500000 0.227327 0.000000
Si Si2 0.692993 0.500000 0.800203
Si Si3 0.022419 0.394323 0.671158
Si Si4 0.500000 0.000000 0.500000
Si Si5 0.280562 0.000000 0.614543
Si Si6 0.774794 0.863439 0.072516
Si Si7 0.687556 0.300053 0.356374
O O1 0.651443 0.182396 0.054191
O O2 0.619153 0.267457 0.187101
O O3 0.793740 0.500000 0.758367
O O4 0.453754 0.500000 0.596825
O O5 0.743971 0.435527 0.903087
O O6 0.883293 0.439805 0.638691
O O7 0.875245 0.345211 0.498364
O O8 0.115760 0.444550 0.661463
O O9 0.179979 0.360119 0.874311
O O10 0.999970 0.840483 0.248977
O O11 0.750000 0.250000 0.500000
#
# Coordination Sequence:
#
# PCOD9212284 Si02
#       7
#     4   4   8   2   4   8   8
#     4  12  28  47  74 105 140 200 242 292 370 420
#     4  11  22  39  77 101 134 184 230 306 360 428
#     4  11  24  48  68 105 146 186 237 300 357 432
#     4  10  26  42  78 102 146 194 226 302 368 416
#     4  10  21  41  67 107 138 178 235 293 371 410
#     4  12  26  48  72 107 141 187 244 300 361 433
#     4  12  28  48  73 104 147 190 242 301 350 438
#
# _framework density 22.109670000000001
#
# number of rings (size 3 to 8) (size 9 to 14) (size 15 to 20)
#    0.000    0.632    4.211    3.158    2.947    2.105 
#    0.000    1.053    0.000    0.000    0.000    0.000 
#    0.000    0.000    0.000    0.000    0.000    0.000 
#
# Total GULP energy -106087.069555 kJ/mol
# GULP energy per Si atom -5583.529977 kJ/mol
# Density = 2.205935 g / cm^3
# Si number density = 22.109670 Si / 1000 Ang^3
#
#
#
# Elastic Constant Matrix: (Units=GPa)
#
#
# Indices 1 2 3 4 5 6 
#
# 1 27.6284 37.2802 23.0407 0.0000 -8.5571 0.0000
# 2 37.2802 164.7274 77.5406 0.0000 -12.3830 0.0000
# 3 23.0407 77.5406 152.5298 0.0000 -13.6867 0.0001
# 4 0.0000 0.0000 0.0000 52.7038 0.0000 -4.1372
# 5 -8.5571 -12.3830 -13.6867 0.0000 33.5662 0.0000
# 6 0.0000 0.0000 0.0001 -4.1372 0.0000 6.0803
#
#
#
# Elastic Compliance Matrix: (Units=1/GPa)
#
#
# Indices 1 2 3 4 5 6 
#
# 1 0.055466 -0.010914 -0.001996 0.000000 0.009300 0.000000
# 2 -0.010914 0.010186 -0.003573 0.000000 -0.000481 0.000000
# 3 -0.001996 -0.003573 0.008833 0.000000 0.001775 0.000000
# 4 0.000000 0.000000 0.000000 0.020045 0.000000 0.013639
# 5 0.009300 -0.000481 0.001775 0.000000 0.032709 0.000000
# 6 0.000000 0.000000 0.000000 0.013639 0.000000 0.173747
#
#
# Mechanical properties :
#
#
# Convention : Reuss Voigt Hill
#
# Bulk Modulus (GPa) = 24.08467 68.95654 46.52060
# Shear Modulus (GPa) = 14.37638 32.27167 23.32403
#
# Velocity S-wave (km/s) = 2.55273 3.82464 3.25148
# Velocity P-wave (km/s) = 4.42781 7.12460 5.93150
#
# Compressibility (1/GPa) = 0.04152019
#
# Stress axis : x y z
#
# Youngs Moduli (GPa) = 18.02891 98.17060 113.21011
#
# Poissons Ratio (x) = 1.07147 0.22593
# Poissons Ratio (y) = 0.19677 0.40449
# Poissons Ratio (z) = 0.03598 0.35075
#
# Static dielectric constant tensor:
#      x y z
#    x 1.871990 0.000000 -0.062290 
#    y 0.000000 1.786160 0.000000 
#    z -0.062290 0.000000 1.799250 
# 
# From -- ./inp_files/134224.got.cif
#   From: 2010.05.17/outbox.cif.g08.bks.cpg/sg12_68_cif.got.tgz:134224.got - 2010.06.03 13:09:07.
