data_PCOD9212388
_publ_section_title
;
Structure prediction by ZEFSAII (Michael W. Deem and Ramdas Pophale) SiO2 
 PCOD9212388
Probable space group: C 2/M
;
_chemical_formula_sum "Si O2"
_cell_formula_units_Z 58
_cell_length_a 19.265600
_cell_length_b 19.809475
_cell_length_c 7.545855
_cell_angle_alpha 90.000000
_cell_angle_beta 129.274663
_cell_angle_gamma 90.000000
_cell_volume 2229.319804
_symmetry_space_group_name_H-M "C 2/M"
_symmetry_group_IT_number 12
_symmetry_cell_setting 'monoclinic'
loop_
_space_group_symop_operation_xyz
x,y,z
-x,y,-z
-x,-y,-z
x,-y,z
1/2+x,1/2+y,z
1/2-x,1/2+y,-z
1/2-x,1/2-y,-z
1/2+x,1/2-y,z
loop_
_atom_site_type_symbol
_atom_site_label
_atom_site_fract_x
_atom_site_fract_y
_atom_site_fract_z
Si Si1 0.547256 0.606279 0.894632
Si Si2 0.800289 0.710900 0.348673
Si Si3 0.219334 0.336870 0.083259
Si Si4 0.500000 0.000000 0.500000
Si Si5 0.546802 0.101833 0.892086
Si Si6 0.492474 0.748673 0.699929
Si Si7 0.774235 0.926434 0.647997
Si Si8 0.128843 0.073708 0.577555
O O1 0.543273 0.686940 0.871267
O O2 0.476017 0.582930 0.633578
O O3 0.500000 0.585219 0.000000
O O4 0.647287 0.579671 0.077452
O O5 0.725889 0.769392 0.212485
O O6 0.886415 0.749051 0.564740
O O7 0.782419 0.641560 0.422311
O O8 0.812493 0.685974 0.163681
O O9 0.319858 0.367715 0.234154
O O10 0.155199 0.395100 0.057894
O O11 0.512049 0.058106 0.673813
O O12 0.525812 0.179981 0.821932
O O13 0.500000 0.081869 0.000000
O O14 0.500000 0.743159 0.500000
O O15 0.823351 0.924640 0.538189
O O16 0.728399 0.000000 0.594794
O O17 0.144183 0.000000 0.681755
#
# Coordination Sequence:
#
# PCOD9212388 Si02
#       8
#     8   8   8   2   8   8   8   8
#     4  10  21  41  69 100 136 181 235 291 362 439
#     4  11  24  43  69  99 145 186 228 302 364 423
#     4  11  24  45  66 102 136 183 240 291 363 430
#     4  12  26  56  72 106 140 188 248 310 366 428
#     4  12  27  48  76 103 140 193 245 300 367 440
#     4  12  23  45  67 101 140 185 237 298 357 424
#     4  10  23  42  67 101 136 183 232 289 369 439
#     4  10  22  41  65  99 141 178 225 297 358 435
#
# _framework density 26.016904
#
# number of rings (size 3 to 8) (size 9 to 14) (size 15 to 20)
#    0.000    1.103    3.448    1.862    4.828    3.862 
#    3.724    0.000    0.000    2.483    0.000    0.000 
#    0.000    0.000    0.000    0.000    0.000    0.000 
#
# Total GULP energy -162214.855210 kJ/mol
# GULP energy per Si atom -5593.615697 kJ/mol
# Density = 2.595769 g / cm^3
# Si number density = 26.016904 Si / 1000 Ang^3
#
#
#
# Elastic Constant Matrix: (Units=GPa)
#
#
# Indices 1 2 3 4 5 6 
#
# 1 62.9538 8.3984 35.3161 0.0000 -31.7265 0.0000
# 2 8.3984 149.4050 16.7757 0.0000 -16.5260 0.0000
# 3 35.3161 16.7757 87.2920 0.0000 -12.6332 0.0000
# 4 0.0000 0.0000 0.0000 53.9259 0.0000 6.0580
# 5 -31.7265 -16.5260 -12.6332 0.0000 35.2539 0.0000
# 6 0.0000 0.0000 0.0000 6.0580 0.0000 29.6930
#
#
#
# Elastic Compliance Matrix: (Units=1/GPa)
#
#
# Indices 1 2 3 4 5 6 
#
# 1 0.037294 0.002557 -0.011126 0.000000 0.030774 0.000000
# 2 0.002557 0.007306 -0.001698 0.000000 0.005117 0.000000
# 3 -0.011126 -0.001698 0.015524 0.000000 -0.005245 0.000000
# 4 0.000000 0.000000 0.000000 0.018979 0.000000 -0.003872
# 5 0.030774 0.005117 -0.005245 0.000000 0.056580 0.000000
# 6 0.000000 0.000000 0.000000 -0.003872 0.000000 0.034468
#
#
# Mechanical properties :
#
#
# Convention : Reuss Voigt Hill
#
# Bulk Modulus (GPa) = 25.25846 46.73678 35.99762
# Shear Modulus (GPa) = 24.52399 39.71859 32.12129
#
# Velocity S-wave (km/s) = 3.07354 3.91147 3.51754
# Velocity P-wave (km/s) = 4.72494 6.19697 5.51033
#
# Compressibility (1/GPa) = 0.03959069
#
# Stress axis : x y z
#
# Youngs Moduli (GPa) = 26.81389 136.87025 64.41558
#
# Poissons Ratio (x) = -0.34996 0.71668
# Poissons Ratio (y) = -0.06856 0.10937
# Poissons Ratio (z) = 0.29833 0.23239
#
# Static dielectric constant tensor:
#      x y z
#    x 2.151950 0.000000 0.070270 
#    y 0.000000 1.983390 0.000000 
#    z 0.070270 0.000000 2.085130 
# 
# From -- ./inp_files/99311.got.cif
#   From: 2010.05.17/outbox.cif.g08.bks.cpg/sg12_50_cif.got.tgz:99311.got - 2010.06.03 13:09:07.
