data_PCOD9212434
_publ_section_title
;
Structure prediction by ZEFSAII (Michael W. Deem and Ramdas Pophale) SiO2 
 PCOD9212434
Probable space group: C 2/M
;
_chemical_formula_sum "Si O2"
_cell_formula_units_Z 58
_cell_length_a 22.263788
_cell_length_b 7.556130
_cell_length_c 18.161963
_cell_angle_alpha 90.000000
_cell_angle_beta 123.724979
_cell_angle_gamma 90.000000
_cell_volume 2541.173463
_symmetry_space_group_name_H-M "C 2/M"
_symmetry_group_IT_number 12
_symmetry_cell_setting 'monoclinic'
loop_
_space_group_symop_operation_xyz
x,y,z
-x,y,-z
-x,-y,-z
x,-y,z
1/2+x,1/2+y,z
1/2-x,1/2+y,-z
1/2-x,1/2-y,-z
1/2+x,1/2-y,z
loop_
_atom_site_type_symbol
_atom_site_label
_atom_site_fract_x
_atom_site_fract_y
_atom_site_fract_z
Si Si1 0.884330 0.787889 0.625735
Si Si2 0.627634 0.716696 0.552161
Si Si3 0.308345 0.302387 0.101806
Si Si4 0.531535 0.715597 0.789882
Si Si5 0.545735 0.284716 0.963031
Si Si6 0.289143 0.206949 0.703737
Si Si7 0.500000 0.000000 0.500000
Si Si8 0.806283 0.797077 0.874602
O O1 0.862417 0.741564 0.528241
O O2 0.831635 0.735411 0.656467
O O3 0.965811 0.719037 0.695531
O O4 0.886169 0.000000 0.629766
O O5 0.614861 0.500000 0.550815
O O6 0.705311 0.760208 0.640575
O O7 0.563624 0.841730 0.537525
O O8 0.327233 0.500000 0.092132
O O9 0.386858 0.215556 0.165371
O O10 0.266320 0.297931 0.150243
O O11 0.250000 0.250000 0.000000
O O12 0.531001 0.500000 0.781436
O O13 0.514650 0.761640 0.863019
O O14 0.547193 0.500000 0.967242
O O15 0.500000 0.219201 0.000000
O O16 0.627392 0.224917 0.032400
O O17 0.323358 0.292147 0.799908
O O18 0.290453 0.000000 0.719781
O O19 0.794689 0.000000 0.888147
#
# Coordination Sequence:
#
# PCOD9212434 Si02
#       8
#     8   8   8   8   8   8   2   8
#     4  10  21  41  70  99 130 170 224 279 335 409
#     4  10  25  46  71 105 142 183 225 278 340 399
#     4  11  21  37  59  84 123 169 217 269 330 401
#     4   9  18  34  58  88 120 163 211 263 330 390
#     4   9  16  29  53  83 115 155 206 264 321 383
#     4  11  24  42  65  97 138 174 217 277 339 405
#     4  12  26  44  80 102 144 184 230 278 328 418
#     4  11  22  37  60  89 122 165 221 270 325 395
#
# _framework density 22.824102
#
# number of rings (size 3 to 8) (size 9 to 14) (size 15 to 20)
#    0.000    1.793    1.379    2.690    2.897    3.310 
#    0.000    4.138    0.000    1.655    0.000    0.000 
#    0.000    0.000    0.000    0.000    0.000    0.000 
#
# Total GULP energy -161625.567393 kJ/mol
# GULP energy per Si atom -5573.295427 kJ/mol
# Density = 2.277215 g / cm^3
# Si number density = 22.824102 Si / 1000 Ang^3
#
#
#
# Elastic Constant Matrix: (Units=GPa)
#
#
# Indices 1 2 3 4 5 6 
#
# 1 65.7079 1.3426 -19.5639 0.0000 14.3799 0.0000
# 2 1.3426 69.7630 0.7883 0.0000 5.9407 0.0000
# 3 -19.5639 0.7883 66.8059 0.0000 5.5193 0.0000
# 4 0.0000 0.0000 0.0000 11.5739 0.0000 0.3837
# 5 14.3799 5.9407 5.5193 0.0000 23.6905 0.0000
# 6 0.0000 0.0000 0.0000 0.3837 0.0000 26.7565
#
#
#
# Elastic Compliance Matrix: (Units=1/GPa)
#
#
# Indices 1 2 3 4 5 6 
#
# 1 0.020460 0.000741 0.007162 0.000000 -0.014273 0.000000
# 2 0.000741 0.014675 0.000392 0.000000 -0.004221 0.000000
# 3 0.007162 0.000392 0.017771 0.000000 -0.008586 0.000000
# 4 0.000000 0.000000 0.000000 0.086442 0.000000 -0.001240
# 5 -0.014273 -0.004221 -0.008586 0.000000 0.053933 0.000000
# 6 0.000000 0.000000 0.000000 -0.001240 0.000000 0.037392
#
#
# Mechanical properties :
#
#
# Convention : Reuss Voigt Hill
#
# Bulk Modulus (GPa) = 14.38927 18.60120 16.49524
# Shear Modulus (GPa) = 21.07501 27.05151 24.06326
#
# Velocity S-wave (km/s) = 3.04199 3.44643 3.25051
# Velocity P-wave (km/s) = 4.31930 4.89946 4.61850
#
# Compressibility (1/GPa) = 0.06949624
#
# Stress axis : x y z
#
# Youngs Moduli (GPa) = 48.87634 68.14308 56.27199
#
# Poissons Ratio (x) = -0.05048 -0.40302
# Poissons Ratio (y) = -0.03621 -0.02209
# Poissons Ratio (z) = -0.35005 -0.02675
#
# Static dielectric constant tensor:
#      x y z
#    x 1.885410 0.000000 0.007280 
#    y 0.000000 1.892410 0.000000 
#    z 0.007280 0.000000 1.844800 
# 
# From -- ./inp_files/282261.got.cif
#   From: 2010.05.17/outbox.cif.g08.bks.cpg/sg12_142_cif.got.tgz:282261.got - 2010.06.03 13:09:07.
