data_PCOD9212716
_publ_section_title
;
Structure prediction by ZEFSAII (Michael W. Deem and Ramdas Pophale) SiO2 
 PCOD9212716
Probable space group: C 2/M
;
_chemical_formula_sum "Si O2"
_cell_formula_units_Z 48
_cell_length_a 17.451660
_cell_length_b 30.393640
_cell_length_c 8.685128
_cell_angle_alpha 90.000000
_cell_angle_beta 30.484999
_cell_angle_gamma 90.000000
_cell_volume 2337.068623
_symmetry_space_group_name_H-M "C 2/M"
_symmetry_group_IT_number 12
_symmetry_cell_setting 'monoclinic'
loop_
_space_group_symop_operation_xyz
x,y,z
-x,y,-z
-x,-y,-z
x,-y,z
1/2+x,1/2+y,z
1/2-x,1/2+y,-z
1/2-x,1/2-y,-z
1/2+x,1/2-y,z
loop_
_atom_site_type_symbol
_atom_site_label
_atom_site_fract_x
_atom_site_fract_y
_atom_site_fract_z
Si Si1 0.580520 0.500000 0.108179
Si Si2 0.926714 0.675949 0.967796
Si Si3 0.763355 0.000000 0.843083
Si Si4 0.137215 0.426764 0.862901
Si Si5 0.637876 0.144350 0.360113
Si Si6 0.681080 0.295126 0.182530
Si Si7 0.652563 0.586143 0.784360
O O1 0.419110 0.500000 0.474088
O O2 0.699268 0.500000 0.042786
O O3 0.605293 0.542968 0.961411
O O4 0.048841 0.680360 0.618763
O O5 0.900127 0.623342 0.028700
O O6 0.767512 0.696424 0.194277
O O7 0.000000 0.691497 0.000000
O O8 0.674548 0.043160 0.942486
O O9 0.271940 0.426199 0.507512
O O10 0.000000 0.445249 0.000000
O O11 0.500000 0.123500 0.500000
O O12 0.729059 0.113114 0.317683
O O13 0.755931 0.166528 0.039191
O O14 0.500000 0.294938 0.500000
O O15 0.750000 0.250000 0.000000
O O16 0.500000 0.611522 0.000000
#
# Coordination Sequence:
#
# PCOD9212716 Si02
#       7
#     4   8   4   8   8   8   8
#     4  11  26  38  58  86 131 170 218 278 324 376
#     4  10  21  43  68  98 131 169 213 268 321 381
#     4  11  24  41  56  91 124 170 224 273 321 384
#     4  11  22  41  65  90 127 169 215 274 327 377
#     4  10  23  42  66  94 132 164 213 265 323 384
#     4  11  25  45  71 100 135 172 208 258 322 384
#     4  12  23  41  64  89 128 172 220 268 330 380
#
# _framework density 20.538550000000001
#
# number of rings (size 3 to 8) (size 9 to 14) (size 15 to 20)
#    0.000    1.167    5.000    2.500    7.000    0.000 
#    0.000    5.417    0.000    0.000    0.000    0.000 
#    0.000    0.000    0.000    0.000    0.000    0.000 
#
# Total GULP energy -134042.396358 kJ/mol
# GULP energy per Si atom -5585.099848 kJ/mol
# Density = 2.049180 g / cm^3
# Si number density = 20.538550 Si / 1000 Ang^3
#
#
#
# Elastic Constant Matrix: (Units=GPa)
#
#
# Indices 1 2 3 4 5 6 
#
# 1 172.2701 34.9728 43.4341 0.0000 -31.7691 0.0000
# 2 34.9728 56.1124 8.3528 0.0000 -17.1097 0.0000
# 3 43.4341 8.3528 116.5081 0.0000 -23.2072 0.0000
# 4 0.0000 0.0000 0.0000 8.9164 0.0000 -18.1004
# 5 -31.7691 -17.1097 -23.2072 0.0000 45.2321 0.0000
# 6 0.0000 0.0000 0.0000 -18.1004 0.0000 10.1000
#
#
#
# Elastic Compliance Matrix: (Units=1/GPa)
#
#
# Indices 1 2 3 4 5 6 
#
# 1 0.007564 -0.003515 -0.001977 0.000000 0.002969 0.000000
# 2 -0.003515 0.021779 0.001000 0.000000 0.006283 0.000000
# 3 -0.001977 0.001000 0.010077 0.000000 0.004160 0.000000
# 4 0.000000 0.000000 0.000000 -0.042514 0.000000 -0.076190
# 5 0.002969 0.006283 0.004160 0.000000 0.028705 0.000000
# 6 0.000000 0.000000 0.000000 -0.076190 0.000000 -0.037532
#
#
# Mechanical properties :
#
#
# Convention : Reuss Voigt Hill
#
# Bulk Modulus (GPa) = 32.85365 57.60111 45.22738
# Shear Modulus (GPa) = 693.75500 30.05843 361.90672
#
# Velocity S-wave (km/s) = 18.39878 3.82974 13.28876
# Velocity P-wave (km/s) = 21.61907 6.90378 16.04753
#
# Compressibility (1/GPa) = 0.03043802
#
# Stress axis : x y z
#
# Youngs Moduli (GPa) = 132.19965 45.91587 99.23663
#
# Poissons Ratio (x) = 0.16139 0.19615
# Poissons Ratio (y) = 0.46468 -0.09928
# Poissons Ratio (z) = 0.26130 -0.04594
#
# Static dielectric constant tensor:
#      x y z
#    x 1.743460 0.000000 -0.029710 
#    y 0.000000 1.715820 0.000000 
#    z -0.029710 0.000000 1.620790 
# 
# From -- ./inp_files/80635.got.cif
#   From: 2010.05.17/outbox.cif.g08.bks.cpg/sg12_41_cif.got.tgz:80635.got - 2010.06.03 13:09:07.
