data_PCOD9212001
_publ_section_title
;
Structure prediction by ZEFSAII (Michael W. Deem and Ramdas Pophale) SiO2 
 PCOD9212001
Probable space group: C 2/M
;
_chemical_formula_sum "Si O2"
_cell_formula_units_Z 32
_cell_length_a 18.349701
_cell_length_b 12.153678
_cell_length_c 6.234663
_cell_angle_alpha 90.000000
_cell_angle_beta 69.396035
_cell_angle_gamma 90.000000
_cell_volume 1301.493117
_symmetry_space_group_name_H-M "C 2/M"
_symmetry_group_IT_number 12
_symmetry_cell_setting 'monoclinic'
loop_
_space_group_symop_operation_xyz
x,y,z
-x,y,-z
-x,-y,-z
x,-y,z
1/2+x,1/2+y,z
1/2-x,1/2+y,-z
1/2-x,1/2-y,-z
1/2+x,1/2-y,z
loop_
_atom_site_type_symbol
_atom_site_label
_atom_site_fract_x
_atom_site_fract_y
_atom_site_fract_z
Si Si1 0.073623 0.623834 0.084649
Si Si2 0.780738 0.000000 0.752202
Si Si3 0.670445 0.262367 0.711563
Si Si4 0.282619 0.500000 0.235112
Si Si5 0.082968 0.179449 0.410931
O O1 0.073816 0.500000 0.171763
O O2 0.152990 0.657166 0.875792
O O3 0.073602 0.720100 0.257737
O O4 0.000000 0.628858 0.000000
O O5 0.752021 0.000000 0.522835
O O6 0.842017 0.897067 0.697668
O O7 0.743074 0.000000 0.036467
O O8 0.750000 0.250000 0.500000
O O9 0.672772 0.383021 0.815254
O O10 0.599612 0.266604 0.622001
O O11 0.000000 0.120078 0.500000
#
# Coordination Sequence:
#
# PCOD9212001 Si02
#       5
#     8   4   8   4   8
#     4  11  24  43  68  98 134 180 235 288 345 420
#     4  10  21  40  70 102 134 171 228 285 349 420
#     4  11  25  44  66  98 139 178 231 293 354 416
#     4  10  22  44  67 100 138 179 226 285 357 419
#     4  11  22  42  66  98 130 181 226 288 352 420
#
# _framework density 24.587146000000001
#
# number of rings (size 3 to 8) (size 9 to 14) (size 15 to 20)
#    0.000    1.250    5.000    0.375    1.750    2.500 
#    0.000    3.750    0.000    0.000    0.000    0.000 
#    0.000    0.000    0.000    0.000    0.000    0.000 
#
# Total GULP energy -89121.755503 kJ/mol
# GULP energy per Si atom -5570.109719 kJ/mol
# Density = 2.453118 g / cm^3
# Si number density = 24.587146 Si / 1000 Ang^3
#
#
#
# Elastic Constant Matrix: (Units=GPa)
#
#
# Indices 1 2 3 4 5 6 
#
# 1 88.3673 6.1876 26.7254 0.0000 12.4517 0.0000
# 2 6.1876 165.2004 32.1918 0.0000 17.3982 0.0000
# 3 26.7254 32.1918 118.7732 0.0000 22.4212 0.0000
# 4 0.0000 0.0000 0.0000 -5.0770 0.0000 0.2029
# 5 12.4517 17.3982 22.4212 0.0000 46.4043 0.0000
# 6 0.0000 0.0000 0.0000 0.2029 0.0000 23.8424
#
#
#
# Elastic Compliance Matrix: (Units=1/GPa)
#
#
# Indices 1 2 3 4 5 6 
#
# 1 0.012347 0.000245 -0.002423 0.000000 -0.002234 0.000000
# 2 0.000245 0.006522 -0.001484 0.000000 -0.001794 0.000000
# 3 -0.002423 -0.001484 0.010056 0.000000 -0.003652 0.000000
# 4 0.000000 0.000000 0.000000 -0.196900 0.000000 0.001676
# 5 -0.002234 -0.001794 -0.003652 0.000000 0.024587 0.000000
# 6 0.000000 0.000000 0.000000 0.001676 0.000000 0.041928
#
#
# Mechanical properties :
#
#
# Convention : Reuss Voigt Hill
#
# Bulk Modulus (GPa) = 46.29366 55.83892 51.06629
# Shear Modulus (GPa) = -57.51343 33.51635 -11.99854
#
# Velocity S-wave (km/s) = -4.84174 3.69611 -2.21147
# Velocity P-wave (km/s) = 3.51956 6.40117 3.78071
#
# Compressibility (1/GPa) = 0.02160123
#
# Stress axis : x y z
#
# Youngs Moduli (GPa) = 80.99251 153.32166 99.44006
#
# Poissons Ratio (x) = -0.03756 0.24092
# Poissons Ratio (y) = -0.01984 0.14759
# Poissons Ratio (z) = 0.19623 0.22756
#
# Static dielectric constant tensor:
#      x y z
#    x 1.987350 0.000000 -0.059190 
#    y 0.000000 1.938850 0.000000 
#    z -0.059190 0.000000 2.091860 
# 
# From -- ./inp_files/19195.got.cif
#   From: 2010.05.17/outbox.cif.g08.bks.cpg/sg12_10_cif.got.tgz:19195.got - 2010.06.03 13:09:07.
