data_PCOD9212488
_publ_section_title
;
Structure prediction by ZEFSAII (Michael W. Deem and Ramdas Pophale) SiO2 
 PCOD9212488
Probable space group: C 2/M
;
_chemical_formula_sum "Si O2"
_cell_formula_units_Z 60
_cell_length_a 21.266314
_cell_length_b 9.514613
_cell_length_c 17.570132
_cell_angle_alpha 90.000000
_cell_angle_beta 127.431834
_cell_angle_gamma 90.000000
_cell_volume 2823.065865
_symmetry_space_group_name_H-M "C 2/M"
_symmetry_group_IT_number 12
_symmetry_cell_setting 'monoclinic'
loop_
_space_group_symop_operation_xyz
x,y,z
-x,y,-z
-x,-y,-z
x,-y,z
1/2+x,1/2+y,z
1/2-x,1/2+y,-z
1/2-x,1/2-y,-z
1/2+x,1/2-y,z
loop_
_atom_site_type_symbol
_atom_site_label
_atom_site_fract_x
_atom_site_fract_y
_atom_site_fract_z
Si Si1 0.226947 0.500000 0.961731
Si Si2 0.676206 0.836519 0.537295
Si Si3 0.146983 0.249128 0.969687
Si Si4 0.389830 0.161954 0.338061
Si Si5 0.031032 0.837844 0.379262
Si Si6 0.021745 0.840248 0.195800
Si Si7 0.178852 0.661115 0.304090
Si Si8 0.748684 0.842103 0.185074
O O1 0.296776 0.620936 0.011327
O O2 0.159758 0.376201 0.921101
O O3 0.639868 0.835030 0.596561
O O4 0.612485 0.749122 0.442529
O O5 0.759260 0.754938 0.602682
O O6 0.684799 0.000000 0.521740
O O7 0.056506 0.202639 0.906764
O O8 0.181754 0.306018 0.075093
O O9 0.466341 0.257680 0.382132
O O10 0.318548 0.228558 0.236610
O O11 0.405488 0.000000 0.328968
O O12 0.001438 0.838569 0.270680
O O13 0.042964 0.000000 0.412426
O O14 0.094259 0.734981 0.238352
O O15 0.046320 0.000000 0.194452
O O16 0.174899 0.500000 0.328260
O O17 0.213331 0.657838 0.243624
O O18 0.778999 0.000000 0.189903
#
# Coordination Sequence:
#
# PCOD9212488 Si02
#       8
#     4   8   8   8   8   8   8   8
#     4  10  24  38  64  90 130 164 200 240 300 364
#     4  10  21  42  63  90 123 158 197 251 304 359
#     4  11  23  41  62  93 127 168 197 246 297 359
#     4  10  22  36  61  93 126 157 200 247 300 364
#     4  11  24  38  61  89 123 161 202 247 308 364
#     4  11  26  44  59  88 123 160 203 255 301 351
#     4  10  23  43  67  88 116 156 209 253 301 359
#     4  10  22  40  62  90 121 163 202 249 302 357
#
# _framework density 21.253488999999998
#
# number of rings (size 3 to 8) (size 9 to 14) (size 15 to 20)
#    0.000    1.600    1.333    2.000    5.600    5.867 
#    0.000    2.000    0.000    0.000    0.000    0.000 
#    0.000    0.000    0.000    0.000    0.000    0.000 
#
# Total GULP energy -167282.607662 kJ/mol
# GULP energy per Si atom -5576.086922 kJ/mol
# Density = 2.120511 g / cm^3
# Si number density = 21.253489 Si / 1000 Ang^3
#
#
#
# Elastic Constant Matrix: (Units=GPa)
#
#
# Indices 1 2 3 4 5 6 
#
# 1 51.6585 38.0275 12.5909 0.0000 18.3793 0.0000
# 2 38.0275 171.2617 3.1497 0.0000 12.6008 0.0000
# 3 12.5909 3.1497 61.6867 0.0000 4.1325 0.0000
# 4 0.0000 0.0000 0.0000 24.8384 0.0000 13.2217
# 5 18.3793 12.6008 4.1325 0.0000 35.7237 0.0000
# 6 0.0000 0.0000 0.0000 13.2217 0.0000 27.4355
#
#
#
# Elastic Compliance Matrix: (Units=1/GPa)
#
#
# Indices 1 2 3 4 5 6 
#
# 1 0.028939 -0.005424 -0.004798 0.000000 -0.012420 0.000000
# 2 -0.005424 0.007013 0.000733 0.000000 0.000232 0.000000
# 3 -0.004798 0.000733 0.017138 0.000000 0.000227 0.000000
# 4 0.000000 0.000000 0.000000 0.054152 0.000000 -0.026097
# 5 -0.012420 0.000232 0.000227 0.000000 0.034275 0.000000
# 6 0.000000 0.000000 0.000000 -0.026097 0.000000 0.049026
#
#
# Mechanical properties :
#
#
# Convention : Reuss Voigt Hill
#
# Bulk Modulus (GPa) = 29.31412 43.57146 36.44279
# Shear Modulus (GPa) = 22.63592 32.98878 27.81235
#
# Velocity S-wave (km/s) = 3.26704 3.94402 3.62138
# Velocity P-wave (km/s) = 5.29660 6.42540 5.88811
#
# Compressibility (1/GPa) = 0.03411326
#
# Stress axis : x y z
#
# Youngs Moduli (GPa) = 34.55581 142.59778 58.35141
#
# Poissons Ratio (x) = 0.77339 0.27995
# Poissons Ratio (y) = 0.18742 -0.04280
# Poissons Ratio (z) = 0.16579 -0.10458
#
# Static dielectric constant tensor:
#      x y z
#    x 1.771900 0.000000 -0.054820 
#    y 0.000000 1.739170 0.000000 
#    z -0.054820 0.000000 1.775750 
# 
# From -- ./inp_files/324666.got.cif
#   From: 2010.05.17/outbox.cif.g08.bks.cpg/sg12_163_cif.got.tgz:324666.got - 2010.06.03 13:09:07.
