data_PCOD9212644
_publ_section_title
;
Structure prediction by ZEFSAII (Michael W. Deem and Ramdas Pophale) SiO2 
 PCOD9212644
Probable space group: C 2/M
;
_chemical_formula_sum "Si O2"
_cell_formula_units_Z 56
_cell_length_a 13.666444
_cell_length_b 14.809759
_cell_length_c 13.457641
_cell_angle_alpha 90.000000
_cell_angle_beta 114.581274
_cell_angle_gamma 90.000000
_cell_volume 2476.932025
_symmetry_space_group_name_H-M "C 2/M"
_symmetry_group_IT_number 12
_symmetry_cell_setting 'monoclinic'
loop_
_space_group_symop_operation_xyz
x,y,z
-x,y,-z
-x,-y,-z
x,-y,z
1/2+x,1/2+y,z
1/2-x,1/2+y,-z
1/2-x,1/2-y,-z
1/2+x,1/2-y,z
loop_
_atom_site_type_symbol
_atom_site_label
_atom_site_fract_x
_atom_site_fract_y
_atom_site_fract_z
Si Si1 0.859919 0.711092 0.820316
Si Si2 0.371179 0.599228 0.918288
Si Si3 0.769504 0.104469 0.089548
Si Si4 0.988091 0.602141 0.378430
Si Si5 0.775115 0.337977 0.577773
Si Si6 0.047459 0.242111 0.765021
Si Si7 0.557278 0.599971 0.420773
O O1 0.843600 0.814930 0.841945
O O2 0.836951 0.646891 0.904988
O O3 0.779584 0.683557 0.696885
O O4 0.980809 0.712115 0.826415
O O5 0.358908 0.500000 0.865968
O O6 0.500000 0.606298 0.000000
O O7 0.293578 0.602971 0.981967
O O8 0.859192 0.175638 0.163345
O O9 0.782123 0.000000 0.128002
O O10 0.952017 0.500000 0.344443
O O11 0.109242 0.618564 0.392133
O O12 0.000000 0.617703 0.500000
O O13 0.918720 0.677609 0.294008
O O14 0.750000 0.250000 0.500000
O O15 0.681009 0.402631 0.503147
O O16 0.966807 0.176249 0.670144
O O17 0.500000 0.625319 0.500000
O O18 0.520148 0.500000 0.373337
#
# Coordination Sequence:
#
# PCOD9212644 Si02
#       7
#     8   8   8   8   8   8   8
#     4  11  23  39  64  95 129 168 206 262 319 382
#     4  10  21  42  70  98 125 159 208 266 325 384
#     4  11  24  42  69  98 128 166 212 264 327 385
#     4  10  22  38  57  79 118 171 214 254 307 368
#     4  11  22  38  56  87 124 166 208 256 306 368
#     4  11  22  37  62  92 130 165 217 265 314 376
#     4  11  22  36  58  88 125 167 216 265 311 364
#
# _framework density 22.608613999999999
#
# number of rings (size 3 to 8) (size 9 to 14) (size 15 to 20)
#    0.000    1.286    4.286    2.571    2.000    4.571 
#    0.000    0.714    0.000    1.286    0.000    0.000 
#    0.000    0.000    0.000    0.000    0.000    0.000 
#
# Total GULP energy -156409.903169 kJ/mol
# GULP energy per Si atom -5586.067970 kJ/mol
# Density = 2.255716 g / cm^3
# Si number density = 22.608614 Si / 1000 Ang^3
#
#
#
# Elastic Constant Matrix: (Units=GPa)
#
#
# Indices 1 2 3 4 5 6 
#
# 1 63.0455 8.8437 7.0439 0.0000 -20.2795 0.0000
# 2 8.8437 129.1480 35.3848 0.0000 -17.5303 0.0000
# 3 7.0439 35.3848 40.2736 0.0000 -16.8487 0.0000
# 4 0.0000 0.0000 0.0000 72.9304 0.0000 -16.1631
# 5 -20.2795 -17.5303 -16.8487 0.0000 32.8973 0.0000
# 6 0.0000 0.0000 0.0000 -16.1631 0.0000 23.9129
#
#
#
# Elastic Compliance Matrix: (Units=1/GPa)
#
#
# Indices 1 2 3 4 5 6 
#
# 1 0.019927 -0.000168 0.002245 0.000000 0.013344 0.000000
# 2 -0.000168 0.010229 -0.008554 0.000000 0.000966 0.000000
# 3 0.002245 -0.008554 0.038977 0.000000 0.016788 0.000000
# 4 0.000000 0.000000 0.000000 0.016128 0.000000 0.010901
# 5 0.013344 0.000966 0.016788 0.000000 0.047737 0.000000
# 6 0.000000 0.000000 0.000000 0.010901 0.000000 0.049187
#
#
# Mechanical properties :
#
#
# Convention : Reuss Voigt Hill
#
# Bulk Modulus (GPa) = 17.80041 37.22351 27.51196
# Shear Modulus (GPa) = 23.37937 38.02775 30.70356
#
# Velocity S-wave (km/s) = 3.21922 4.10567 3.68917
# Velocity P-wave (km/s) = 4.65921 6.24303 5.50834
#
# Compressibility (1/GPa) = 0.05617850
#
# Stress axis : x y z
#
# Youngs Moduli (GPa) = 50.18408 97.75729 25.65647
#
# Poissons Ratio (x) = 0.01646 -0.05761
# Poissons Ratio (y) = 0.00845 0.21947
# Poissons Ratio (z) = -0.11268 0.83621
#
# Static dielectric constant tensor:
#      x y z
#    x 1.940270 0.000000 -0.023910 
#    y 0.000000 1.819450 0.000000 
#    z -0.023910 0.000000 1.851960 
# 
# From -- ./inp_files/214336.got.cif
#   From: 2010.05.17/outbox.cif.g08.bks.cpg/sg12_108_cif.got.tgz:214336.got - 2010.06.03 13:09:07.
