data_PCOD9212139
_publ_section_title
;
Structure prediction by ZEFSAII (Michael W. Deem and Ramdas Pophale) SiO2 
 PCOD9212139
Probable space group: C 2/M
;
_chemical_formula_sum "Si O2"
_cell_formula_units_Z 40
_cell_length_a 10.228706
_cell_length_b 26.970955
_cell_length_c 17.360244
_cell_angle_alpha 90.000000
_cell_angle_beta 153.507528
_cell_angle_gamma 90.000000
_cell_volume 2136.415975
_symmetry_space_group_name_H-M "C 2/M"
_symmetry_group_IT_number 12
_symmetry_cell_setting 'monoclinic'
loop_
_space_group_symop_operation_xyz
x,y,z
-x,y,-z
-x,-y,-z
x,-y,z
1/2+x,1/2+y,z
1/2-x,1/2+y,-z
1/2-x,1/2-y,-z
1/2+x,1/2-y,z
loop_
_atom_site_type_symbol
_atom_site_label
_atom_site_fract_x
_atom_site_fract_y
_atom_site_fract_z
Si Si1 0.298561 0.897599 0.116907
Si Si2 0.387911 0.941324 0.856882
Si Si3 0.932691 0.706105 0.554803
Si Si4 0.139735 0.878640 0.493417
Si Si5 0.577522 0.711329 0.960313
O O1 0.365893 0.927876 0.075868
O O2 0.567932 0.903585 0.317965
O O3 0.257647 0.839134 0.072467
O O4 0.000000 0.912599 0.000000
O O5 0.100127 0.914014 0.671921
O O6 0.335686 0.000000 0.832578
O O7 0.500000 0.924519 0.000000
O O8 0.750000 0.750000 0.500000
O O9 0.743243 0.659081 0.482203
O O10 0.000000 0.713907 0.500000
O O11 0.259698 0.698480 0.759721
O O12 0.000000 0.856294 0.500000
O O13 0.500000 0.736809 0.000000
O O14 0.750000 0.750000 0.000000
#
# Coordination Sequence:
#
# PCOD9212139 Si02
#       5
#     8   8   8   8   8
#     4  10  21  41  64  90 127 164 208 256 307 376
#     4  10  24  43  67  95 123 158 208 262 320 376
#     4  12  25  38  60  92 128 169 213 253 306 366
#     4  10  22  41  64  88 128 164 209 255 309 371
#     4  11  23  40  59  89 129 166 210 255 302 364
#
# _framework density 18.722944999999999
#
# number of rings (size 3 to 8) (size 9 to 14) (size 15 to 20)
#    0.000    1.400    4.000    1.800    8.400    4.800 
#    0.000    0.000    0.000    3.000    0.000    0.000 
#    0.000    0.000    0.000    0.000    0.000    0.000 
#
# Total GULP energy -111505.811996 kJ/mol
# GULP energy per Si atom -5575.290600 kJ/mol
# Density = 1.868033 g / cm^3
# Si number density = 18.722945 Si / 1000 Ang^3
#
#
#
# Elastic Constant Matrix: (Units=GPa)
#
#
# Indices 1 2 3 4 5 6 
#
# 1 161.5332 46.1527 62.8709 -0.0015 -9.4152 -0.0009
# 2 46.1527 53.5365 35.9472 0.0005 -3.6976 0.0003
# 3 62.8709 35.9472 126.4312 0.0114 -0.3101 0.0029
# 4 -0.0015 0.0005 0.0114 -15.0877 0.0006 -12.2457
# 5 -9.4152 -3.6976 -0.3101 0.0006 37.9286 -0.0002
# 6 -0.0009 0.0003 0.0029 -12.2457 -0.0002 21.6136
#
#
#
# Elastic Compliance Matrix: (Units=1/GPa)
#
#
# Indices 1 2 3 4 5 6 
#
# 1 0.009046 -0.005767 -0.002855 -0.000003 0.001660 -0.000001
# 2 -0.005767 0.026947 -0.004791 -0.000002 0.001156 -0.000001
# 3 -0.002855 -0.004791 0.010689 0.000006 -0.001088 0.000002
# 4 -0.000003 -0.000002 0.000006 -0.045401 0.000000 -0.025723
# 5 0.001660 0.001156 -0.001088 0.000000 0.026881 0.000000
# 6 -0.000001 -0.000001 0.000002 -0.025723 0.000000 0.031693
#
#
# Mechanical properties :
#
#
# Convention : Reuss Voigt Hill
#
# Bulk Modulus (GPa) = 50.36151 70.16027 60.26089
# Shear Modulus (GPa) = 53.59063 21.99290 37.79177
#
# Velocity S-wave (km/s) = 5.35585 3.43103 4.49762
# Velocity P-wave (km/s) = 8.07487 7.29728 7.69590
#
# Compressibility (1/GPa) = 0.01985643
#
# Stress axis : x y z
#
# Youngs Moduli (GPa) = 110.54243 37.10929 93.55837
#
# Poissons Ratio (x) = 0.21402 0.26708
# Poissons Ratio (y) = 0.63752 0.44824
# Poissons Ratio (z) = 0.31556 0.17779
#
# Static dielectric constant tensor:
#      x y z
#    x 1.673190 0.000000 -0.039800 
#    y 0.000000 1.645330 0.000000 
#    z -0.039800 0.000000 1.720910 
# 
# From -- ./inp_files/41412.got.cif
#   From: 2010.05.17/outbox.cif.g08.bks.cpg/sg12_21_cif.got.tgz:41412.got - 2010.06.03 13:09:07.
