data_PCOD9212528
_publ_section_title
;
Structure prediction by ZEFSAII (Michael W. Deem and Ramdas Pophale) SiO2 
 PCOD9212528
Probable space group: C 2/M
;
_chemical_formula_sum "Si O2"
_cell_formula_units_Z 64
_cell_length_a 14.192048
_cell_length_b 17.722304
_cell_length_c 18.813252
_cell_angle_alpha 90.000000
_cell_angle_beta 136.469825
_cell_angle_gamma 90.000000
_cell_volume 3258.983983
_symmetry_space_group_name_H-M "C 2/M"
_symmetry_group_IT_number 12
_symmetry_cell_setting 'monoclinic'
loop_
_space_group_symop_operation_xyz
x,y,z
-x,y,-z
-x,-y,-z
x,-y,z
1/2+x,1/2+y,z
1/2-x,1/2+y,-z
1/2-x,1/2-y,-z
1/2+x,1/2-y,z
loop_
_atom_site_type_symbol
_atom_site_label
_atom_site_fract_x
_atom_site_fract_y
_atom_site_fract_z
Si Si1 0.650091 0.644136 0.397109
Si Si2 0.321975 0.912322 0.208151
Si Si3 0.061353 0.914299 0.611065
Si Si4 0.176546 0.090120 0.978073
Si Si5 0.378172 0.354219 0.783151
Si Si6 0.900965 0.319910 0.624493
Si Si7 0.550968 0.910397 0.948303
Si Si8 0.322256 0.178332 0.740876
O O1 0.557497 0.592217 0.396002
O O2 0.641047 0.623536 0.309679
O O3 0.805588 0.648166 0.509887
O O4 0.591962 0.729303 0.377064
O O5 0.216062 0.900327 0.214349
O O6 0.452844 0.859479 0.291507
O O7 0.364795 0.000000 0.227394
O O8 0.245404 0.894003 0.092167
O O9 0.185212 0.858535 0.696120
O O10 0.000000 0.895677 0.500000
O O11 0.114494 0.000000 0.637298
O O12 0.036242 0.133905 0.889949
O O13 0.147859 0.000000 0.959446
O O14 0.291175 0.108337 0.981519
O O15 0.335966 0.266496 0.764778
O O16 0.823261 0.333246 0.656566
O O17 0.453622 0.864436 0.843092
O O18 0.536286 0.000000 0.926476
O O19 0.500000 0.895355 0.000000
#
# Coordination Sequence:
#
# PCOD9212528 Si02
#       8
#     8   8   8   8   8   8   8   8
#     4  10  23  42  61  92 130 164 204 259 311 369
#     4  11  23  42  67  91 121 166 214 258 306 365
#     4  11  23  38  63  93 122 160 205 255 313 375
#     4  10  22  42  65  89 126 166 206 258 310 371
#     4  11  25  40  62  94 124 169 210 254 312 363
#     4  10  21  42  66  89 125 169 211 249 312 373
#     4  10  22  39  61  92 126 163 200 252 323 373
#     4  11  22  41  63  91 125 164 204 258 306 378
#
# _framework density 19.638021999999999
#
# number of rings (size 3 to 8) (size 9 to 14) (size 15 to 20)
#    0.000    1.500    2.500    1.875    1.750    5.000 
#    0.000    0.625    0.000    0.000    0.000    0.000 
#    0.000    0.000    0.000    0.000    0.000    0.000 
#
# Total GULP energy -178862.024584 kJ/mol
# GULP energy per Si atom -5589.438268 kJ/mol
# Density = 1.959332 g / cm^3
# Si number density = 19.638022 Si / 1000 Ang^3
#
#
#
# Elastic Constant Matrix: (Units=GPa)
#
#
# Indices 1 2 3 4 5 6 
#
# 1 81.2907 21.4712 23.2100 0.0000 -1.0095 0.0000
# 2 21.4712 34.5155 40.2159 0.0000 2.9393 0.0000
# 3 23.2100 40.2159 86.8949 0.0000 0.2802 0.0000
# 4 0.0000 0.0000 0.0000 23.1262 0.0000 -1.9609
# 5 -1.0095 2.9393 0.2802 0.0000 22.1942 0.0000
# 6 0.0000 0.0000 0.0000 -1.9609 0.0000 32.4768
#
#
#
# Elastic Compliance Matrix: (Units=1/GPa)
#
#
# Indices 1 2 3 4 5 6 
#
# 1 0.014827 -0.010363 0.000829 0.000000 0.002036 0.000000
# 2 -0.010363 0.071562 -0.030321 0.000000 -0.009566 0.000000
# 3 0.000829 -0.030321 0.025307 0.000000 0.003734 0.000000
# 4 0.000000 0.000000 0.000000 0.043463 0.000000 0.002624
# 5 0.002036 -0.009566 0.003734 0.000000 0.046369 0.000000
# 6 0.000000 0.000000 0.000000 0.002624 0.000000 0.030950
#
#
# Mechanical properties :
#
#
# Convention : Reuss Voigt Hill
#
# Bulk Modulus (GPa) = 31.26251 41.38835 36.32543
# Shear Modulus (GPa) = 15.48701 23.41305 19.45003
#
# Velocity S-wave (km/s) = 2.81129 3.45662 3.15052
# Velocity P-wave (km/s) = 5.14701 6.08706 5.63667
#
# Compressibility (1/GPa) = 0.03198720
#
# Stress axis : x y z
#
# Youngs Moduli (GPa) = 67.44316 13.97386 39.51411
#
# Poissons Ratio (x) = 0.14482 -0.03277
# Poissons Ratio (y) = 0.69893 1.19810
# Poissons Ratio (z) = -0.05593 0.42370
#
# Static dielectric constant tensor:
#      x y z
#    x 1.684620 0.000000 -0.018110 
#    y 0.000000 1.678490 0.000000 
#    z -0.018110 0.000000 1.666490 
# 
# From -- ./inp_files/271733.got.cif
#   From: 2010.05.17/outbox.cif.g08.bks.cpg/sg12_136_cif.got.tgz:271733.got - 2010.06.03 13:09:07.
