data_PCOD9212548
_publ_section_title
;
Structure prediction by ZEFSAII (Michael W. Deem and Ramdas Pophale) SiO2 
 PCOD9212548
Probable space group: C 2/M
;
_chemical_formula_sum "Si O2"
_cell_formula_units_Z 28
_cell_length_a 13.613646
_cell_length_b 17.031602
_cell_length_c 4.993920
_cell_angle_alpha 90.000000
_cell_angle_beta 89.800682
_cell_angle_gamma 90.000000
_cell_volume 1157.894274
_symmetry_space_group_name_H-M "C 2/M"
_symmetry_group_IT_number 12
_symmetry_cell_setting 'monoclinic'
loop_
_space_group_symop_operation_xyz
x,y,z
-x,y,-z
-x,-y,-z
x,-y,z
1/2+x,1/2+y,z
1/2-x,1/2+y,-z
1/2-x,1/2-y,-z
1/2+x,1/2-y,z
loop_
_atom_site_type_symbol
_atom_site_label
_atom_site_fract_x
_atom_site_fract_y
_atom_site_fract_z
Si Si1 0.687214 0.585979 0.157508
Si Si2 0.099923 0.342999 0.909636
Si Si3 0.636738 0.260296 0.424306
Si Si4 0.923799 0.000000 0.250468
O O1 0.681410 0.500000 0.292275
O O2 0.646143 0.573168 0.853777
O O3 0.802317 0.608278 0.156509
O O4 0.625161 0.651165 0.316094
O O5 0.081544 0.278759 0.675587
O O6 0.125753 0.293251 0.167374
O O7 0.000000 0.386923 0.000000
O O8 0.750000 0.250000 0.500000
O O9 0.000000 0.000000 0.500000
O O10 0.000000 0.000000 0.000000
#
# Coordination Sequence:
#
# PCOD9212548 Si02
#       4
#     8   8   8   4
#     4   9  22  44  70 104 141 184 234 298 358 419
#     4  11  23  42  70 103 140 186 235 290 355 429
#     4  10  21  42  66  95 136 188 236 284 342 414
#     4  10  24  42  65 100 139 180 230 282 356 420
#
# _framework density 24.181826000000001
#
# number of rings (size 3 to 8) (size 9 to 14) (size 15 to 20)
#    0.857    1.143    0.000    4.286    0.000    8.571 
#    0.000    2.857    0.000    9.429    0.000    0.000 
#    0.000    0.000    0.000    0.000    0.000    0.000 
#
# Total GULP energy -78034.634521 kJ/mol
# GULP energy per Si atom -5573.902466 kJ/mol
# Density = 2.412679 g / cm^3
# Si number density = 24.181826 Si / 1000 Ang^3
#
#
#
# Elastic Constant Matrix: (Units=GPa)
#
#
# Indices 1 2 3 4 5 6 
#
# 1 135.1790 30.4655 9.8625 0.0000 11.1349 0.0000
# 2 30.4655 91.3080 11.3772 0.0000 11.3346 0.0000
# 3 9.8625 11.3772 156.9711 0.0000 33.1163 0.0000
# 4 0.0000 0.0000 0.0000 43.6059 0.0000 -6.8651
# 5 11.1349 11.3346 33.1163 0.0000 36.2691 0.0000
# 6 0.0000 0.0000 0.0000 -6.8651 0.0000 44.4526
#
#
#
# Elastic Compliance Matrix: (Units=1/GPa)
#
#
# Indices 1 2 3 4 5 6 
#
# 1 0.008100 -0.002491 0.000040 0.000000 -0.001744 0.000000
# 2 -0.002491 0.012161 -0.000105 0.000000 -0.002940 0.000000
# 3 0.000040 -0.000105 0.007892 0.000000 -0.007185 0.000000
# 4 0.000000 0.000000 0.000000 0.023504 0.000000 0.003630
# 5 -0.001744 -0.002940 -0.007185 0.000000 0.035587 0.000000
# 6 0.000000 0.000000 0.000000 0.003630 0.000000 0.023056
#
#
# Mechanical properties :
#
#
# Convention : Reuss Voigt Hill
#
# Bulk Modulus (GPa) = 43.40165 54.09650 48.74907
# Shear Modulus (GPa) = 40.62018 46.98238 43.80128
#
# Velocity S-wave (km/s) = 4.10296 4.41259 4.26059
# Velocity P-wave (km/s) = 6.35867 6.95562 6.66383
#
# Compressibility (1/GPa) = 0.02304060
#
# Stress axis : x y z
#
# Youngs Moduli (GPa) = 123.46013 82.22954 126.71835
#
# Poissons Ratio (x) = 0.20483 -0.00503
# Poissons Ratio (y) = 0.30753 0.01326
# Poissons Ratio (z) = -0.00490 0.00860
#
# Static dielectric constant tensor:
#      x y z
#    x 2.143920 0.000000 -0.082840 
#    y 0.000000 2.052810 0.000000 
#    z -0.082840 0.000000 2.041280 
# 
# From -- ./inp_files/10013.got.cif
#   From: 2010.05.17/outbox.cif.g08.bks.cpg/sg12_6_cif.got.tgz:10013.got - 2010.06.03 13:09:07.
