data_PCOD9212500
_publ_section_title
;
Structure prediction by ZEFSAII (Michael W. Deem and Ramdas Pophale) SiO2 
 PCOD9212500
Probable space group: C 2/M
;
_chemical_formula_sum "Si O2"
_cell_formula_units_Z 34
_cell_length_a 14.934237
_cell_length_b 8.558538
_cell_length_c 12.434312
_cell_angle_alpha 90.000000
_cell_angle_beta 110.937418
_cell_angle_gamma 90.000000
_cell_volume 1484.355460
_symmetry_space_group_name_H-M "C 2/M"
_symmetry_group_IT_number 12
_symmetry_cell_setting 'monoclinic'
loop_
_space_group_symop_operation_xyz
x,y,z
-x,y,-z
-x,-y,-z
x,-y,z
1/2+x,1/2+y,z
1/2-x,1/2+y,-z
1/2-x,1/2-y,-z
1/2+x,1/2-y,z
loop_
_atom_site_type_symbol
_atom_site_label
_atom_site_fract_x
_atom_site_fract_y
_atom_site_fract_z
Si Si1 0.409873 0.329725 0.652420
Si Si2 0.742277 0.815443 0.283433
Si Si3 0.500000 0.500000 0.500000
Si Si4 0.108983 0.690091 0.025634
Si Si5 0.398708 0.817792 0.214787
O O1 0.426441 0.500000 0.713453
O O2 0.304197 0.273429 0.636461
O O3 0.438734 0.366667 0.542706
O O4 0.487354 0.208368 0.731136
O O5 0.848237 0.776815 0.288048
O O6 0.734311 0.000000 0.296971
O O7 0.677354 0.764656 0.152582
O O8 0.109288 0.500000 0.022938
O O9 0.135838 0.741749 0.916828
O O10 0.000000 0.740472 0.000000
O O11 0.375929 0.000000 0.216283
#
# Coordination Sequence:
#
# PCOD9212500 Si02
#       5
#     8   8   2   8   8
#     4  10  21  42  64  84 114 154 197 252 314 352
#     4  11  21  36  61  91 126 162 198 240 290 357
#     4   8  24  44  70  78 120 142 198 276 316 346
#     4   9  17  32  54  87 126 166 198 233 282 347
#     4  11  21  36  61  91 126 162 198 240 290 357
#
# _framework density 22.905564999999999
#
# number of rings (size 3 to 8) (size 9 to 14) (size 15 to 20)
#    0.706    1.176    2.353    2.824    0.000    0.000 
#    0.000    8.235    0.000    0.000    0.000    0.000 
#    0.000    0.000    0.000    0.000    0.000    0.000 
#
# Total GULP energy -94652.292233 kJ/mol
# GULP energy per Si atom -5567.781896 kJ/mol
# Density = 2.285343 g / cm^3
# Si number density = 22.905565 Si / 1000 Ang^3
#
#
#
# Elastic Constant Matrix: (Units=GPa)
#
#
# Indices 1 2 3 4 5 6 
#
# 1 120.9053 12.1597 19.1977 0.0000 -39.1576 0.0000
# 2 12.1597 48.5991 11.3213 0.0000 -22.1900 0.0000
# 3 19.1977 11.3213 82.3206 0.0000 -20.5930 0.0000
# 4 0.0000 0.0000 0.0000 17.6556 0.0000 -11.3375
# 5 -39.1576 -22.1900 -20.5930 0.0000 45.3265 0.0000
# 6 0.0000 0.0000 0.0000 -11.3375 0.0000 38.2906
#
#
#
# Elastic Compliance Matrix: (Units=1/GPa)
#
#
# Indices 1 2 3 4 5 6 
#
# 1 0.011663 0.002175 -0.000262 0.000000 0.011022 0.000000
# 2 0.002175 0.026921 -0.000499 0.000000 0.014832 0.000000
# 3 -0.000262 -0.000499 0.013719 0.000000 0.005762 0.000000
# 4 0.000000 0.000000 0.000000 0.069937 0.000000 0.020708
# 5 0.011022 0.014832 0.005762 0.000000 0.041463 0.000000
# 6 0.000000 0.000000 0.000000 0.020708 0.000000 0.032247
#
#
# Mechanical properties :
#
#
# Convention : Reuss Voigt Hill
#
# Bulk Modulus (GPa) = 18.13864 37.46472 27.80168
# Shear Modulus (GPa) = 23.64078 34.19763 28.91921
#
# Velocity S-wave (km/s) = 3.21611 3.86811 3.55708
# Velocity P-wave (km/s) = 4.66125 6.02838 5.38835
#
# Compressibility (1/GPa) = 0.05513093
#
# Stress axis : x y z
#
# Youngs Moduli (GPa) = 85.73785 37.14630 72.89269
#
# Poissons Ratio (x) = -0.08081 0.01909
# Poissons Ratio (y) = -0.18651 0.03640
# Poissons Ratio (z) = 0.02246 0.01855
#
# Static dielectric constant tensor:
#      x y z
#    x 1.845720 0.000000 0.005690 
#    y 0.000000 1.771330 0.000000 
#    z 0.005690 0.000000 1.923460 
# 
# From -- ./inp_files/210654.got.cif
#   From: 2010.05.17/outbox.cif.g08.bks.cpg/sg12_106_cif.got.tgz:210654.got - 2010.06.03 13:09:07.
