data_PCOD9212715
_publ_section_title
;
Structure prediction by ZEFSAII (Michael W. Deem and Ramdas Pophale) SiO2 
 PCOD9212715
Probable space group: C 2/M
;
_chemical_formula_sum "Si O2"
_cell_formula_units_Z 56
_cell_length_a 13.001002
_cell_length_b 22.996717
_cell_length_c 14.068615
_cell_angle_alpha 90.000000
_cell_angle_beta 32.538629
_cell_angle_gamma 90.000000
_cell_volume 2262.402132
_symmetry_space_group_name_H-M "C 2/M"
_symmetry_group_IT_number 12
_symmetry_cell_setting 'monoclinic'
loop_
_space_group_symop_operation_xyz
x,y,z
-x,y,-z
-x,-y,-z
x,-y,z
1/2+x,1/2+y,z
1/2-x,1/2+y,-z
1/2-x,1/2-y,-z
1/2+x,1/2-y,z
loop_
_atom_site_type_symbol
_atom_site_label
_atom_site_fract_x
_atom_site_fract_y
_atom_site_fract_z
Si Si1 0.521399 0.105967 0.375170
Si Si2 0.123786 0.935690 0.998009
Si Si3 0.719499 0.566702 0.292817
Si Si4 0.207160 0.823252 0.565206
Si Si5 0.202889 0.210553 0.790157
Si Si6 0.806958 0.139982 0.872894
Si Si7 0.396150 0.181052 0.229289
O O1 0.500000 0.086388 0.500000
O O2 0.659654 0.066076 0.207870
O O3 0.315593 0.114434 0.489695
O O4 0.632266 0.169832 0.293139
O O5 0.066037 0.000000 0.074702
O O6 0.122407 0.891085 0.085294
O O7 0.000000 0.921880 0.000000
O O8 0.500000 0.568820 0.500000
O O9 0.785387 0.500000 0.248548
O O10 0.736766 0.591144 0.171775
O O11 0.833629 0.614625 0.263953
O O12 0.204524 0.807449 0.678233
O O13 0.332987 0.795990 0.382041
O O14 0.992819 0.825151 0.695185
O O15 0.208398 0.280266 0.769874
O O16 0.000000 0.200556 0.000000
O O17 0.624079 0.179852 0.038638
#
# Coordination Sequence:
#
# PCOD9212715 Si02
#       7
#     8   8   8   8   8   8   8
#     4  10  21  43  68  97 140 186 228 287 355 411
#     4  11  23  41  70 105 143 188 236 288 350 422
#     4  11  25  47  74 104 142 188 239 297 357 420
#     4  11  24  45  70 105 141 185 232 295 354 423
#     4  11  24  44  72 103 141 186 235 293 356 426
#     4  12  24  46  74 103 147 181 241 290 357 427
#     4  12  26  48  72 106 141 189 241 293 356 424
#
# _framework density 24.752452999999999
#
# number of rings (size 3 to 8) (size 9 to 14) (size 15 to 20)
#    0.000    0.857    2.857    5.143    0.000    4.286 
#   10.286    1.429    0.000    0.000    0.000    0.000 
#    0.000    0.000    0.000    0.000    0.000    0.000 
#
# Total GULP energy -156514.201444 kJ/mol
# GULP energy per Si atom -5589.792909 kJ/mol
# Density = 2.469612 g / cm^3
# Si number density = 24.752453 Si / 1000 Ang^3
#
#
#
# Elastic Constant Matrix: (Units=GPa)
#
#
# Indices 1 2 3 4 5 6 
#
# 1 103.8020 21.3356 34.8702 -0.0056 8.9840 -0.0184
# 2 21.3356 98.5133 22.8678 -0.0316 2.8036 -0.0268
# 3 34.8702 22.8678 155.7405 -0.0532 5.0916 -0.0608
# 4 -0.0056 -0.0316 -0.0532 11.0685 0.0599 5.4825
# 5 8.9840 2.8036 5.0916 0.0599 47.5675 0.0467
# 6 -0.0184 -0.0268 -0.0608 5.4825 0.0467 9.2417
#
#
#
# Elastic Compliance Matrix: (Units=1/GPa)
#
#
# Indices 1 2 3 4 5 6 
#
# 1 0.010864 -0.001814 -0.002110 -0.000009 -0.001719 0.000016
# 2 -0.001814 0.010822 -0.001177 0.000021 -0.000169 0.000008
# 3 -0.002110 -0.001177 0.007076 0.000016 -0.000290 0.000031
# 4 -0.000009 0.000021 0.000016 0.127941 -0.000088 -0.075898
# 5 -0.001719 -0.000169 -0.000290 -0.000088 0.021389 -0.000062
# 6 0.000016 0.000008 0.000031 -0.075898 -0.000062 0.153231
#
#
# Mechanical properties :
#
#
# Convention : Reuss Voigt Hill
#
# Bulk Modulus (GPa) = 53.88209 57.35589 55.61899
# Shear Modulus (GPa) = 14.37971 32.17436 23.27703
#
# Velocity S-wave (km/s) = 2.41289 3.60925 3.06991
# Velocity P-wave (km/s) = 5.43860 6.37111 5.92323
#
# Compressibility (1/GPa) = 0.01855904
#
# Stress axis : x y z
#
# Youngs Moduli (GPa) = 92.04555 92.40494 141.32911
#
# Poissons Ratio (x) = 0.16764 0.29819
# Poissons Ratio (y) = 0.16699 0.16638
# Poissons Ratio (z) = 0.19421 0.10879
#
# Static dielectric constant tensor:
#      x y z
#    x 1.958900 0.000000 -0.021320 
#    y 0.000000 2.040520 0.000010 
#    z -0.021320 0.000010 1.971680 
# 
# From -- ./inp_files/218656.got.cif
#   From: 2010.05.17/outbox.cif.g08.bks.cpg/sg12_110_cif.got.tgz:218656.got - 2010.06.03 13:09:07.
