data_PCOD9212821
_publ_section_title
;
Structure prediction by ZEFSAII (Michael W. Deem and Ramdas Pophale) SiO2 
 PCOD9212821
Probable space group: C 2/M
;
_chemical_formula_sum "Si O2"
_cell_formula_units_Z 44
_cell_length_a 11.190160
_cell_length_b 21.425179
_cell_length_c 9.288914
_cell_angle_alpha 90.000000
_cell_angle_beta 73.172123
_cell_angle_gamma 90.000000
_cell_volume 2131.663991
_symmetry_space_group_name_H-M "C 2/M"
_symmetry_group_IT_number 12
_symmetry_cell_setting 'monoclinic'
loop_
_space_group_symop_operation_xyz
x,y,z
-x,y,-z
-x,-y,-z
x,-y,z
1/2+x,1/2+y,z
1/2-x,1/2+y,-z
1/2-x,1/2-y,-z
1/2+x,1/2-y,z
loop_
_atom_site_type_symbol
_atom_site_label
_atom_site_fract_x
_atom_site_fract_y
_atom_site_fract_z
Si Si1 0.696515 0.109217 0.575006
Si Si2 0.533605 0.617272 0.824314
Si Si3 0.960845 0.570762 0.847838
Si Si4 0.112628 0.802766 0.344372
Si Si5 0.305710 0.163703 0.731631
Si Si6 0.867412 0.000000 0.396112
O O1 0.581441 0.085737 0.709032
O O2 0.765958 0.167623 0.623103
O O3 0.653826 0.130037 0.431069
O O4 0.797394 0.054572 0.517538
O O5 0.427280 0.653685 0.774228
O O6 0.656236 0.661403 0.781897
O O7 0.569363 0.555101 0.725384
O O8 0.500000 0.603438 0.000000
O O9 0.916831 0.500000 0.831131
O O10 0.856585 0.620663 0.841814
O O11 0.000000 0.574326 0.000000
O O12 0.140165 0.732743 0.285198
O O13 0.000000 0.803464 0.500000
#
# Coordination Sequence:
#
# PCOD9212821 Si02
#       6
#     8   8   8   8   8   4
#     4  11  23  43  71 101 131 179 234 277 338 403
#     4  11  27  45  67 103 135 180 230 280 346 405
#     4  11  26  45  68 103 138 174 225 285 344 400
#     4  12  24  44  70 100 139 176 231 285 330 407
#     4  11  26  43  73  95 135 186 226 277 339 408
#     4  10  21  45  70  96 129 179 224 280 335 397
#
# _framework density 20.641151000000001
#
# number of rings (size 3 to 8) (size 9 to 14) (size 15 to 20)
#    0.000    0.909    4.545    2.455   10.182    3.636 
#    0.000    0.000    0.000    0.000    0.000    0.000 
#    0.000    0.000    0.000    0.000    0.000    0.000 
#
# Total GULP energy -122553.911421 kJ/mol
# GULP energy per Si atom -5570.632337 kJ/mol
# Density = 2.059417 g / cm^3
# Si number density = 20.641151 Si / 1000 Ang^3
#
#
#
# Elastic Constant Matrix: (Units=GPa)
#
#
# Indices 1 2 3 4 5 6 
#
# 1 23.8673 5.2570 3.4909 0.0000 12.0814 0.0000
# 2 5.2570 111.2023 -9.2990 0.0000 17.0218 0.0000
# 3 3.4909 -9.2990 39.5059 0.0000 -5.8355 0.0000
# 4 0.0000 0.0000 0.0000 -37.4331 0.0000 45.7365
# 5 12.0814 17.0218 -5.8355 0.0000 27.8911 0.0000
# 6 0.0000 0.0000 0.0000 45.7365 0.0000 -31.5912
#
#
#
# Elastic Compliance Matrix: (Units=1/GPa)
#
#
# Indices 1 2 3 4 5 6 
#
# 1 0.056583 0.000687 -0.008792 0.000000 -0.026769 0.000000
# 2 0.000687 0.010013 0.001393 0.000000 -0.006117 0.000000
# 3 -0.008792 0.001393 0.027711 0.000000 0.008756 0.000000
# 4 0.000000 0.000000 0.000000 0.034743 0.000000 0.050300
# 5 -0.026769 -0.006117 0.008756 0.000000 0.053014 0.000000
# 6 0.000000 0.000000 0.000000 0.050300 0.000000 0.041168
#
#
# Mechanical properties :
#
#
# Convention : Reuss Voigt Hill
#
# Bulk Modulus (GPa) = 12.36366 19.27480 15.81923
# Shear Modulus (GPa) = 18.96689 3.44849 11.20769
#
# Velocity S-wave (km/s) = 3.03460 1.29395 2.33272
# Velocity P-wave (km/s) = 4.27566 3.40452 3.86471
#
# Compressibility (1/GPa) = 0.08088217
#
# Stress axis : x y z
#
# Youngs Moduli (GPa) = 17.67320 99.87072 36.08706
#
# Poissons Ratio (x) = -0.06865 0.31728
# Poissons Ratio (y) = -0.01215 -0.05025
# Poissons Ratio (z) = 0.15539 -0.13907
#
# Static dielectric constant tensor:
#      x y z
#    x 1.752450 0.000000 0.002920 
#    y 0.000000 1.687180 0.000000 
#    z 0.002920 0.000000 1.725480 
# 
# From -- ./inp_files/49314.got.cif
#   From: 2010.05.17/outbox.cif.g08.bks.cpg/sg12_25_cif.got.tgz:49314.got - 2010.06.03 13:09:07.
