data_PCOD9212796
_publ_section_title
;
Structure prediction by ZEFSAII (Michael W. Deem and Ramdas Pophale) SiO2 
 PCOD9212796
Probable space group: C 2/M
;
_chemical_formula_sum "Si O2"
_cell_formula_units_Z 38
_cell_length_a 16.883724
_cell_length_b 14.607816
_cell_length_c 8.179147
_cell_angle_alpha 90.000000
_cell_angle_beta 66.996449
_cell_angle_gamma 90.000000
_cell_volume 1856.847358
_symmetry_space_group_name_H-M "C 2/M"
_symmetry_group_IT_number 12
_symmetry_cell_setting 'monoclinic'
loop_
_space_group_symop_operation_xyz
x,y,z
-x,y,-z
-x,-y,-z
x,-y,z
1/2+x,1/2+y,z
1/2-x,1/2+y,-z
1/2-x,1/2-y,-z
1/2+x,1/2-y,z
loop_
_atom_site_type_symbol
_atom_site_label
_atom_site_fract_x
_atom_site_fract_y
_atom_site_fract_z
Si Si1 0.414800 0.000000 0.179180
Si Si2 0.245514 0.500000 0.935391
Si Si3 0.426119 0.160556 0.431346
Si Si4 0.909388 0.854475 0.299845
Si Si5 0.742740 0.106702 0.253493
Si Si6 0.603407 0.500000 0.428343
Si Si7 0.000000 0.000000 0.000000
O O1 0.417665 0.087478 0.294466
O O2 0.329139 0.000000 0.137899
O O3 0.500000 0.000000 0.000000
O O4 0.340038 0.500000 0.780186
O O5 0.236644 0.586986 0.064950
O O6 0.500000 0.134649 0.500000
O O7 0.443716 0.258935 0.337469
O O8 0.337394 0.157859 0.604269
O O9 0.830181 0.845373 0.237883
O O10 0.976223 0.920061 0.154660
O O11 0.873946 0.910535 0.484386
O O12 0.745850 0.000000 0.314939
O O13 0.500000 0.500000 0.500000
#
# Coordination Sequence:
#
# PCOD9212796 Si02
#       7
#     4   4   8   8   8   4   2
#     4  12  24  42  68  99 140 183 235 293 344 406
#     4  10  22  41  68 102 133 184 234 282 359 409
#     4  12  25  45  69 102 140 188 238 285 348 418
#     4  11  24  43  70  96 139 184 235 280 364 412
#     4  10  21  44  69  95 140 186 227 286 355 407
#     4  11  22  38  65  97 135 176 230 291 346 421
#     4  10  22  44  70  96 144 176 222 298 350 414
#
# _framework density 20.464793
#
# number of rings (size 3 to 8) (size 9 to 14) (size 15 to 20)
#    0.632    0.421    3.158    4.105    7.368    0.000 
#    0.000    2.105    0.000    0.000    0.000    0.000 
#    0.000    0.000    0.000    0.000    0.000    0.000 
#
# Total GULP energy -105847.376979 kJ/mol
# GULP energy per Si atom -5570.914578 kJ/mol
# Density = 2.041821 g / cm^3
# Si number density = 20.464793 Si / 1000 Ang^3
#
#
#
# Elastic Constant Matrix: (Units=GPa)
#
#
# Indices 1 2 3 4 5 6 
#
# 1 131.6993 5.8659 40.3842 0.0000 23.2408 0.0000
# 2 5.8659 63.6007 50.7499 0.0000 4.8893 0.0000
# 3 40.3842 50.7499 150.4915 0.0000 -1.1024 0.0000
# 4 0.0000 0.0000 0.0000 217.3548 0.0000 -596.9518
# 5 23.2408 4.8893 -1.1024 0.0000 32.1513 0.0000
# 6 0.0000 0.0000 0.0000 -596.9518 0.0000 1895.5458
#
#
#
# Elastic Compliance Matrix: (Units=1/GPa)
#
#
# Indices 1 2 3 4 5 6 
#
# 1 0.009933 0.002527 -0.003574 0.000000 -0.007687 0.000000
# 2 0.002527 0.022560 -0.008327 0.000000 -0.005543 0.000000
# 3 -0.003574 -0.008327 0.010443 0.000000 0.004208 0.000000
# 4 0.000000 0.000000 0.000000 0.034059 0.000000 0.010726
# 5 -0.007687 -0.005543 0.004208 0.000000 0.037647 0.000000
# 6 0.000000 0.000000 0.000000 0.010726 0.000000 0.003905
#
#
# Mechanical properties :
#
#
# Convention : Reuss Voigt Hill
#
# Bulk Modulus (GPa) = 41.34250 59.97685 50.65968
# Shear Modulus (GPa) = 34.39796 445.59646 239.99721
#
# Velocity S-wave (km/s) = 4.10425 14.77196 10.84102
# Velocity P-wave (km/s) = 6.53494 17.89745 13.47264
#
# Compressibility (1/GPa) = 0.02418818
#
# Stress axis : x y z
#
# Youngs Moduli (GPa) = 100.67587 44.32564 95.76078
#
# Poissons Ratio (x) = -0.11199 0.34223
# Poissons Ratio (y) = -0.25436 0.79736
# Poissons Ratio (z) = 0.35979 0.36908
#
# Static dielectric constant tensor:
#      x y z
#    x 1.759230 0.000000 0.004290 
#    y 0.000000 1.693600 0.000000 
#    z 0.004290 0.000000 1.733240 
# 
# From -- ./inp_files/59028.got.cif
#   From: 2010.05.17/outbox.cif.g08.bks.cpg/sg12_30_cif.got.tgz:59028.got - 2010.06.03 13:09:07.
