data_PCOD9212491
_publ_section_title
;
Structure prediction by ZEFSAII (Michael W. Deem and Ramdas Pophale) SiO2 
 PCOD9212491
Probable space group: C 2/M
;
_chemical_formula_sum "Si O2"
_cell_formula_units_Z 48
_cell_length_a 9.299973
_cell_length_b 29.218673
_cell_length_c 14.028833
_cell_angle_alpha 90.000000
_cell_angle_beta 34.383777
_cell_angle_gamma 90.000000
_cell_volume 2152.817226
_symmetry_space_group_name_H-M "C 2/M"
_symmetry_group_IT_number 12
_symmetry_cell_setting 'monoclinic'
loop_
_space_group_symop_operation_xyz
x,y,z
-x,y,-z
-x,-y,-z
x,-y,z
1/2+x,1/2+y,z
1/2-x,1/2+y,-z
1/2-x,1/2-y,-z
1/2+x,1/2-y,z
loop_
_atom_site_type_symbol
_atom_site_label
_atom_site_fract_x
_atom_site_fract_y
_atom_site_fract_z
Si Si1 0.954535 0.114819 0.752806
Si Si2 0.081866 0.206549 0.791952
Si Si3 0.533692 0.553274 0.874154
Si Si4 0.902603 0.703166 0.799340
Si Si5 0.210884 0.384495 0.693158
Si Si6 0.377751 0.052615 0.420623
O O1 0.049286 0.163616 0.739437
O O2 0.885592 0.084885 0.882500
O O3 0.184938 0.086463 0.578355
O O4 0.735968 0.117239 0.793114
O O5 0.317911 0.204481 0.735505
O O6 0.069674 0.253175 0.738606
O O7 0.841683 0.205507 0.996506
O O8 0.459041 0.500000 0.908923
O O9 0.838625 0.555945 0.692587
O O10 0.500000 0.569802 0.000000
O O11 0.040756 0.656061 0.746342
O O12 0.500000 0.376191 0.500000
O O13 0.123391 0.431172 0.689251
O O14 0.293811 0.000000 0.475004
#
# Coordination Sequence:
#
# PCOD9212491 Si02
#       6
#     8   8   8   8   8   8
#     4  11  22  36  61  94 122 163 211 250 315 374
#     4  10  22  38  67  94 122 169 205 260 314 372
#     4  10  22  39  60  89 125 164 213 264 314 372
#     4  10  21  42  63  92 131 161 211 257 313 375
#     4  10  23  40  61  92 126 168 207 258 311 373
#     4  10  22  42  64  88 125 170 212 262 316 373
#
# _framework density 22.296365000000002
#
# number of rings (size 3 to 8) (size 9 to 14) (size 15 to 20)
#    0.000    1.833    0.000    3.000    4.667    8.333 
#    0.000    9.167    0.000    3.000    0.000    0.000 
#    0.000    0.000    0.000    0.000    0.000    0.000 
#
# Total GULP energy -134266.306996 kJ/mol
# GULP energy per Si atom -5594.429458 kJ/mol
# Density = 2.224562 g / cm^3
# Si number density = 22.296365 Si / 1000 Ang^3
#
#
#
# Elastic Constant Matrix: (Units=GPa)
#
#
# Indices 1 2 3 4 5 6 
#
# 1 189.4436 71.0931 6.3118 0.0000 15.5180 0.0000
# 2 71.0931 111.4711 6.0320 0.0000 14.4690 0.0000
# 3 6.3118 6.0320 25.3734 0.0000 6.0146 0.0000
# 4 0.0000 0.0000 0.0000 -10.0729 0.0000 58.8262
# 5 15.5180 14.4690 6.0146 0.0000 29.1385 0.0000
# 6 0.0000 0.0000 0.0000 58.8262 0.0000 -29.8730
#
#
#
# Elastic Compliance Matrix: (Units=1/GPa)
#
#
# Indices 1 2 3 4 5 6 
#
# 1 0.007013 -0.004252 -0.000367 0.000000 -0.001548 0.000000
# 2 -0.004252 0.012203 -0.000992 0.000000 -0.003590 0.000000
# 3 -0.000367 -0.000992 0.041611 0.000000 -0.007901 0.000000
# 4 0.000000 0.000000 0.000000 0.009455 0.000000 0.018618
# 5 -0.001548 -0.003590 -0.007901 0.000000 0.038557 0.000000
# 6 0.000000 0.000000 0.000000 0.018618 0.000000 0.003188
#
#
# Mechanical properties :
#
#
# Convention : Reuss Voigt Hill
#
# Bulk Modulus (GPa) = 20.15931 54.79579 37.47755
# Shear Modulus (GPa) = 35.76952 14.02861 24.89906
#
# Velocity S-wave (km/s) = 4.00969 2.51108 3.34538
# Velocity P-wave (km/s) = 5.52249 5.74777 5.63626
#
# Compressibility (1/GPa) = 0.04960488
#
# Stress axis : x y z
#
# Youngs Moduli (GPa) = 142.58531 81.95040 24.03190
#
# Poissons Ratio (x) = 0.34847 0.00882
# Poissons Ratio (y) = 0.60629 0.02384
# Poissons Ratio (z) = 0.05231 0.08131
#
# Static dielectric constant tensor:
#      x y z
#    x 1.831770 0.000000 0.040680 
#    y 0.000000 1.757500 0.000000 
#    z 0.040680 0.000000 1.904820 
# 
# From -- ./inp_files/200149.got.cif
#   From: 2010.05.17/outbox.cif.g08.bks.cpg/sg12_101_cif.got.tgz:200149.got - 2010.06.03 13:09:07.
