data_PCOD9212933
_publ_section_title
;
Structure prediction by ZEFSAII (Michael W. Deem and Ramdas Pophale) SiO2 
 PCOD9212933
Probable space group: C 2/M
;
_chemical_formula_sum "Si O2"
_cell_formula_units_Z 64
_cell_length_a 17.642853
_cell_length_b 21.252774
_cell_length_c 9.603194
_cell_angle_alpha 90.000000
_cell_angle_beta 82.599418
_cell_angle_gamma 90.000000
_cell_volume 3570.814201
_symmetry_space_group_name_H-M "C 2/M"
_symmetry_group_IT_number 12
_symmetry_cell_setting 'monoclinic'
loop_
_space_group_symop_operation_xyz
x,y,z
-x,y,-z
-x,-y,-z
x,-y,z
1/2+x,1/2+y,z
1/2-x,1/2+y,-z
1/2-x,1/2-y,-z
1/2+x,1/2-y,z
loop_
_atom_site_type_symbol
_atom_site_label
_atom_site_fract_x
_atom_site_fract_y
_atom_site_fract_z
Si Si1 0.450816 0.759544 0.876601
Si Si2 0.793006 0.694176 0.902581
Si Si3 0.439698 0.429806 0.219254
Si Si4 0.705472 0.805510 0.429963
Si Si5 0.061773 0.254757 0.601344
Si Si6 0.601785 0.368987 0.236731
Si Si7 0.312907 0.574273 0.024962
Si Si8 0.348719 0.369277 0.455999
O O1 0.382391 0.807819 0.924444
O O2 0.512324 0.777801 0.743514
O O3 0.403348 0.699843 0.830008
O O4 0.500000 0.743259 0.000000
O O5 0.792763 0.706225 0.735559
O O6 0.751576 0.626899 0.933705
O O7 0.750000 0.750000 0.000000
O O8 0.463729 0.500000 0.177731
O O9 0.515692 0.392771 0.237507
O O10 0.385217 0.407748 0.106872
O O11 0.386906 0.426754 0.368193
O O12 0.750000 0.750000 0.500000
O O13 0.620799 0.802952 0.514773
O O14 0.758519 0.865123 0.451297
O O15 0.111251 0.192461 0.624681
O O16 0.000000 0.235438 0.500000
O O17 0.628914 0.365866 0.388660
O O18 0.657320 0.414088 0.137658
O O19 0.294916 0.500000 0.053701
#
# Coordination Sequence:
#
# PCOD9212933 Si02
#       8
#     8   8   8   8   8   8   8   8
#     4  12  24  35  59  92 124 154 191 253 306 364
#     4  12  24  39  61  92 120 154 208 254 300 364
#     4  11  22  37  56  80 115 166 205 232 282 355
#     4  10  22  35  57  83 119 162 192 246 307 350
#     4  11  19  36  53  80 119 152 192 235 311 353
#     4  12  22  35  55  85 124 162 199 238 290 354
#     4  11  25  42  60  82 122 167 204 247 302 357
#     4  11  21  35  54  81 117 161 197 242 288 345
#
# _framework density 17.923083999999999
#
# number of rings (size 3 to 8) (size 9 to 14) (size 15 to 20)
#    0.000    0.750    6.250    2.625    3.500    2.500 
#    0.000    0.000    0.000    0.375    0.000    2.625 
#    0.000    0.000    0.000    0.000    0.000    0.000 
#
# Total GULP energy -178497.779966 kJ/mol
# GULP energy per Si atom -5578.055624 kJ/mol
# Density = 1.788229 g / cm^3
# Si number density = 17.923084 Si / 1000 Ang^3
#
#
#
# Elastic Constant Matrix: (Units=GPa)
#
#
# Indices 1 2 3 4 5 6 
#
# 1 87.1518 33.8927 32.4035 0.0000 -12.4763 0.0000
# 2 33.8927 61.3257 18.3324 0.0000 -6.7922 0.0000
# 3 32.4035 18.3324 107.8094 0.0000 -7.3043 0.0000
# 4 0.0000 0.0000 0.0000 13.0562 0.0000 2.3549
# 5 -12.4763 -6.7922 -7.3043 0.0000 31.9679 0.0000
# 6 0.0000 0.0000 0.0000 2.3549 0.0000 13.1846
#
#
#
# Elastic Compliance Matrix: (Units=1/GPa)
#
#
# Indices 1 2 3 4 5 6 
#
# 1 0.016203 -0.007522 -0.003322 0.000000 0.003966 0.000000
# 2 -0.007522 0.020966 -0.001220 0.000000 0.001240 0.000000
# 3 -0.003322 -0.001220 0.010539 0.000000 0.000852 0.000000
# 4 0.000000 0.000000 0.000000 0.079142 0.000000 -0.014136
# 5 0.003966 0.001240 0.000852 0.000000 0.033287 0.000000
# 6 0.000000 0.000000 0.000000 -0.014136 0.000000 0.078371
#
#
# Mechanical properties :
#
#
# Convention : Reuss Voigt Hill
#
# Bulk Modulus (GPa) = 42.41125 47.28269 44.84697
# Shear Modulus (GPa) = 18.48454 23.08562 20.78508
#
# Velocity S-wave (km/s) = 3.21491 3.59282 3.40910
# Velocity P-wave (km/s) = 6.12333 6.60676 6.36963
#
# Compressibility (1/GPa) = 0.02357865
#
# Stress axis : x y z
#
# Youngs Moduli (GPa) = 61.71886 47.69680 94.88258
#
# Poissons Ratio (x) = 0.35879 0.31520
# Poissons Ratio (y) = 0.46426 0.11578
# Poissons Ratio (z) = 0.20503 0.05820
#
# Static dielectric constant tensor:
#      x y z
#    x 1.666930 0.000000 -0.030130 
#    y 0.000000 1.700690 0.000000 
#    z -0.030130 0.000000 1.649910 
# 
# From -- ./inp_files/78759.got.cif
#   From: 2010.05.17/outbox.cif.g08.bks.cpg/sg12_40_cif.got.tgz:78759.got - 2010.06.03 13:09:07.
