data_PCOD9212413
_publ_section_title
;
Structure prediction by ZEFSAII (Michael W. Deem and Ramdas Pophale) SiO2 
 PCOD9212413
Probable space group: C 2/M
;
_chemical_formula_sum "Si O2"
_cell_formula_units_Z 36
_cell_length_a 13.082447
_cell_length_b 23.014793
_cell_length_c 9.131420
_cell_angle_alpha 90.000000
_cell_angle_beta 34.518946
_cell_angle_gamma 90.000000
_cell_volume 1558.013727
_symmetry_space_group_name_H-M "C 2/M"
_symmetry_group_IT_number 12
_symmetry_cell_setting 'monoclinic'
loop_
_space_group_symop_operation_xyz
x,y,z
-x,y,-z
-x,-y,-z
x,-y,z
1/2+x,1/2+y,z
1/2-x,1/2+y,-z
1/2-x,1/2-y,-z
1/2+x,1/2-y,z
loop_
_atom_site_type_symbol
_atom_site_label
_atom_site_fract_x
_atom_site_fract_y
_atom_site_fract_z
Si Si1 0.795488 0.243912 0.273728
Si Si2 0.301653 0.625856 0.660928
Si Si3 0.534079 0.566674 0.796189
Si Si4 0.500000 0.157023 0.500000
Si Si5 0.639342 0.934978 0.111612
O O1 0.750000 0.250000 0.500000
O O2 0.766779 0.308809 0.245858
O O3 0.664614 0.199056 0.347012
O O4 0.000000 0.226978 0.000000
O O5 0.500000 0.623579 0.500000
O O6 0.332617 0.604863 0.458822
O O7 0.173981 0.583535 0.904012
O O8 0.600695 0.500000 0.724735
O O9 0.500000 0.587871 0.000000
O O10 0.338946 0.564947 0.949085
O O11 0.465647 0.114386 0.676995
O O12 0.563992 0.000000 0.215249
#
# Coordination Sequence:
#
# PCOD9212413 Si02
#       5
#     8   8   8   4   8
#     4  12  29  46  73 107 143 191 244 294 357 425
#     4  10  21  41  69  99 142 182 233 290 356 419
#     4   9  19  36  65 102 138 180 234 292 352 419
#     4  12  27  46  74 102 147 186 240 296 356 424
#     4  10  22  41  69 100 136 186 234 285 359 425
#
# _framework density 23.106342999999999
#
# number of rings (size 3 to 8) (size 9 to 14) (size 15 to 20)
#    0.000    1.556    1.111    2.333    9.333    4.444 
#    0.000    0.000    0.000    4.667    0.000    0.000 
#    0.000    0.000    0.000    0.000    0.000    0.000 
#
# Total GULP energy -100843.565771 kJ/mol
# GULP energy per Si atom -5602.420321 kJ/mol
# Density = 2.305375 g / cm^3
# Si number density = 23.106343 Si / 1000 Ang^3
#
#
#
# Elastic Constant Matrix: (Units=GPa)
#
#
# Indices 1 2 3 4 5 6 
#
# 1 96.3607 49.4874 67.9559 0.0000 2.5624 0.0004
# 2 49.4874 183.1243 72.9557 0.0000 -0.4960 0.0000
# 3 67.9559 72.9557 146.7623 0.0000 6.5486 0.0004
# 4 0.0000 0.0000 0.0000 36.1518 0.0000 13.1200
# 5 2.5624 -0.4960 6.5486 0.0000 39.8094 -0.0005
# 6 0.0004 0.0000 0.0004 13.1200 -0.0005 -61.2484
#
#
#
# Elastic Compliance Matrix: (Units=1/GPa)
#
#
# Indices 1 2 3 4 5 6 
#
# 1 0.015819 -0.001691 -0.006485 0.000000 0.000028 0.000000
# 2 -0.001691 0.007007 -0.002729 0.000000 0.000645 0.000000
# 3 -0.006485 -0.002729 0.011238 0.000000 -0.001465 0.000000
# 4 0.000000 0.000000 0.000000 0.025666 0.000000 0.005498
# 5 0.000028 0.000645 -0.001465 0.000000 0.025367 0.000000
# 6 0.000000 0.000000 0.000000 0.005498 0.000000 -0.015149
#
#
# Mechanical properties :
#
#
# Convention : Reuss Voigt Hill
#
# Bulk Modulus (GPa) = 81.60730 89.67170 85.63950
# Shear Modulus (GPa) = 52.16878 18.66578 35.41728
#
# Velocity S-wave (km/s) = 4.75675 2.84530 3.91934
# Velocity P-wave (km/s) = 8.09714 7.04889 7.59113
#
# Compressibility (1/GPa) = 0.01225381
#
# Stress axis : x y z
#
# Youngs Moduli (GPa) = 63.21497 142.72159 88.97995
#
# Poissons Ratio (x) = 0.24136 0.57706
# Poissons Ratio (y) = 0.10691 0.24280
# Poissons Ratio (z) = 0.40997 0.38945
#
# Static dielectric constant tensor:
#      x y z
#    x 1.844340 0.000000 0.026520 
#    y 0.000000 1.837250 0.000000 
#    z 0.026520 0.000000 1.803010 
# 
# From -- ./inp_files/64000.got.cif
#   From: 2010.05.17/outbox.cif.g08.bks.cpg/sg12_32_cif.got.tgz:64000.got - 2010.06.03 13:09:07.
