data_PCOD9212523
_publ_section_title
;
Structure prediction by ZEFSAII (Michael W. Deem and Ramdas Pophale) SiO2 
 PCOD9212523
Probable space group: C 2/M
;
_chemical_formula_sum "Si O2"
_cell_formula_units_Z 48
_cell_length_a 8.391446
_cell_length_b 27.969685
_cell_length_c 10.100100
_cell_angle_alpha 90.000000
_cell_angle_beta 91.791214
_cell_angle_gamma 90.000000
_cell_volume 2369.396758
_symmetry_space_group_name_H-M "C 2/M"
_symmetry_group_IT_number 12
_symmetry_cell_setting 'monoclinic'
loop_
_space_group_symop_operation_xyz
x,y,z
-x,y,-z
-x,-y,-z
x,-y,z
1/2+x,1/2+y,z
1/2-x,1/2+y,-z
1/2-x,1/2-y,-z
1/2+x,1/2-y,z
loop_
_atom_site_type_symbol
_atom_site_label
_atom_site_fract_x
_atom_site_fract_y
_atom_site_fract_z
Si Si1 0.120484 0.000000 0.884915
Si Si2 0.000000 0.346619 0.500000
Si Si3 0.329535 0.918769 0.796649
Si Si4 0.145000 0.000000 0.326433
Si Si5 0.888242 0.768976 0.098571
Si Si6 0.059390 0.500000 0.846832
Si Si7 0.682564 0.594894 0.503696
Si Si8 0.610880 0.187056 0.224471
O O1 0.221691 0.950898 0.890626
O O2 0.029804 0.000000 0.742070
O O3 0.000000 0.000000 0.000000
O O4 0.161249 0.375964 0.543966
O O5 0.056918 0.317670 0.373970
O O6 0.234132 0.913269 0.657211
O O7 0.387063 0.866138 0.838358
O O8 0.480232 0.953060 0.781013
O O9 0.170692 0.953572 0.418073
O O10 0.261729 0.000000 0.201683
O O11 0.793407 0.795691 0.210962
O O12 0.991516 0.724892 0.155200
O O13 0.750000 0.750000 0.000000
O O14 0.000000 0.798645 0.000000
O O15 0.000000 0.500000 0.000000
O O16 0.500000 0.615583 0.500000
#
# Coordination Sequence:
#
# PCOD9212523 Si02
#       8
#     4   4   8   4   8   4   8   8
#     4  11  22  37  56  90 134 167 223 262 308 394
#     4  10  24  41  62 100 138 166 212 269 338 422
#     4  10  22  41  59  87 134 167 210 269 325 391
#     4  12  19  34  62  84 119 178 217 273 324 355
#     4   9  20  41  66  93 120 160 221 268 308 392
#     4  11  24  38  56  91 132 177 215 264 324 398
#     4  11  21  39  62  96 127 169 229 273 319 390
#     4  10  21  42  65  94 129 165 212 273 336 387
#
# _framework density 20.258320999999999
#
# number of rings (size 3 to 8) (size 9 to 14) (size 15 to 20)
#    0.000    1.667    1.667    4.250    0.000    4.333 
#   12.000    5.000    0.000    0.000    0.000    0.000 
#    0.000    0.000    0.000    0.000    0.000    0.000 
#
# Total GULP energy -133650.455329 kJ/mol
# GULP energy per Si atom -5568.768972 kJ/mol
# Density = 2.021221 g / cm^3
# Si number density = 20.258321 Si / 1000 Ang^3
#
#
#
# Elastic Constant Matrix: (Units=GPa)
#
#
# Indices 1 2 3 4 5 6 
#
# 1 137.7133 48.6214 40.3599 0.0000 -20.3876 0.0000
# 2 48.6214 107.8843 27.1508 0.0000 -11.8955 0.0000
# 3 40.3599 27.1508 82.9502 0.0000 -23.9374 0.0000
# 4 0.0000 0.0000 0.0000 48.3737 0.0000 54.2910
# 5 -20.3876 -11.8955 -23.9374 0.0000 52.1973 0.0000
# 6 0.0000 0.0000 0.0000 54.2910 0.0000 156.2298
#
#
#
# Elastic Compliance Matrix: (Units=1/GPa)
#
#
# Indices 1 2 3 4 5 6 
#
# 1 0.009594 -0.003368 -0.003118 0.000000 0.001550 0.000000
# 2 -0.003368 0.011321 -0.001961 0.000000 0.000365 0.000000
# 3 -0.003118 -0.001961 0.015829 0.000000 0.005594 0.000000
# 4 0.000000 0.000000 0.000000 0.033890 0.000000 -0.011777
# 5 0.001550 0.000365 0.005594 0.000000 0.022412 0.000000
# 6 0.000000 0.000000 0.000000 -0.011777 0.000000 0.010493
#
#
# Mechanical properties :
#
#
# Convention : Reuss Voigt Hill
#
# Bulk Modulus (GPa) = 50.38265 62.31243 56.34754
# Shear Modulus (GPa) = 39.35415 65.52120 52.43767
#
# Velocity S-wave (km/s) = 4.41229 5.69325 5.09320
# Velocity P-wave (km/s) = 7.13315 8.60483 7.90332
#
# Compressibility (1/GPa) = 0.01984810
#
# Stress axis : x y z
#
# Youngs Moduli (GPa) = 104.23229 88.33125 63.17514
#
# Poissons Ratio (x) = 0.29751 0.19700
# Poissons Ratio (y) = 0.35107 0.12391
# Poissons Ratio (z) = 0.32503 0.17325
#
# Static dielectric constant tensor:
#      x y z
#    x 1.786420 0.000000 -0.017490 
#    y 0.000000 1.726960 0.000000 
#    z -0.017490 0.000000 1.742880 
# 
# From -- ./inp_files/42322.got.cif
#   From: 2010.05.17/outbox.cif.g08.bks.cpg/sg12_22_cif.got.tgz:42322.got - 2010.06.03 13:09:07.
