data_PCOD9212810
_publ_section_title
;
Structure prediction by ZEFSAII (Michael W. Deem and Ramdas Pophale) SiO2 
 PCOD9212810
Probable space group: C 2/M
;
_chemical_formula_sum "Si O2"
_cell_formula_units_Z 64
_cell_length_a 16.679375
_cell_length_b 26.201932
_cell_length_c 6.865741
_cell_angle_alpha 90.000000
_cell_angle_beta 97.011821
_cell_angle_gamma 90.000000
_cell_volume 2978.106354
_symmetry_space_group_name_H-M "C 2/M"
_symmetry_group_IT_number 12
_symmetry_cell_setting 'monoclinic'
loop_
_space_group_symop_operation_xyz
x,y,z
-x,y,-z
-x,-y,-z
x,-y,z
1/2+x,1/2+y,z
1/2-x,1/2+y,-z
1/2-x,1/2-y,-z
1/2+x,1/2-y,z
loop_
_atom_site_type_symbol
_atom_site_label
_atom_site_fract_x
_atom_site_fract_y
_atom_site_fract_z
Si Si1 0.219075 0.184701 0.289195
Si Si2 0.586364 0.336350 0.918592
Si Si3 0.667815 0.441422 0.833170
Si Si4 0.137557 0.756316 0.617269
Si Si5 0.930852 0.325859 0.686503
Si Si6 0.691628 0.946528 0.845007
Si Si7 0.573926 0.860044 0.920862
Si Si8 0.294156 0.093275 0.538759
O O1 0.185766 0.208930 0.478678
O O2 0.297667 0.218778 0.257471
O O3 0.245758 0.130363 0.378552
O O4 0.155485 0.178440 0.097244
O O5 0.607963 0.392752 0.835930
O O6 0.591100 0.292942 0.752375
O O7 0.500000 0.337206 0.000000
O O8 0.637305 0.500000 0.786211
O O9 0.735897 0.426883 0.691022
O O10 0.717084 0.444009 0.050458
O O11 0.088727 0.721472 0.451437
O O12 0.912204 0.316499 0.912880
O O13 0.870667 0.373113 0.629090
O O14 0.973921 0.339715 0.280368
O O15 0.679593 0.947919 0.610511
O O16 0.658768 0.000000 0.919865
O O17 0.646692 0.896513 0.906820
O O18 0.500000 0.891198 0.000000
#
# Coordination Sequence:
#
# PCOD9212810 Si02
#       8
#     8   8   8   8   8   8   8   8
#     4  10  22  41  72 100 129 174 223 275 329 405
#     4  12  26  46  70 101 140 172 216 288 345 405
#     4  11  23  43  70  98 132 176 229 285 346 404
#     4  10  21  44  72  97 133 179 229 265 331 405
#     4   8  19  38  64  93 132 187 224 273 330 399
#     4  11  22  36  65  99 132 180 235 283 328 396
#     4   8  18  40  60  91 143 182 224 277 333 380
#     4  11  19  40  66  96 130 174 231 281 335 396
#
# _framework density 21.490167
#
# number of rings (size 3 to 8) (size 9 to 14) (size 15 to 20)
#    0.750    1.000    3.750    0.750    0.000    1.500 
#    6.750    5.625    0.000    0.750    0.000    0.000 
#    0.000    0.000    0.000    0.000    0.000    0.000 
#
# Total GULP energy -178305.114654 kJ/mol
# GULP energy per Si atom -5572.034833 kJ/mol
# Density = 2.144125 g / cm^3
# Si number density = 21.490167 Si / 1000 Ang^3
#
#
#
# Elastic Constant Matrix: (Units=GPa)
#
#
# Indices 1 2 3 4 5 6 
#
# 1 79.6067 52.7001 38.2046 0.0000 -3.5056 0.0000
# 2 52.7001 145.4944 56.3776 0.0000 2.8705 0.0000
# 3 38.2046 56.3776 93.9979 0.0000 -2.1517 0.0000
# 4 0.0000 0.0000 0.0000 26.8162 0.0000 5.6402
# 5 -3.5056 2.8705 -2.1517 0.0000 35.6083 0.0000
# 6 0.0000 0.0000 0.0000 5.6402 0.0000 14.9446
#
#
#
# Elastic Compliance Matrix: (Units=1/GPa)
#
#
# Indices 1 2 3 4 5 6 
#
# 1 0.017941 -0.004856 -0.004336 0.000000 0.001896 0.000000
# 2 -0.004856 0.010307 -0.004244 0.000000 -0.001565 0.000000
# 3 -0.004336 -0.004244 0.014965 0.000000 0.000820 0.000000
# 4 0.000000 0.000000 0.000000 0.040506 0.000000 -0.015287
# 5 0.001896 -0.001565 0.000820 0.000000 0.028446 0.000000
# 6 0.000000 0.000000 0.000000 -0.015287 0.000000 0.072683
#
#
# Mechanical properties :
#
#
# Convention : Reuss Voigt Hill
#
# Bulk Modulus (GPa) = 61.19539 68.18484 64.69011
# Shear Modulus (GPa) = 23.02366 26.92829 24.97598
#
# Velocity S-wave (km/s) = 3.27671 3.54369 3.41281
# Velocity P-wave (km/s) = 6.54627 6.96713 6.75997
#
# Compressibility (1/GPa) = 0.01634110
#
# Stress axis : x y z
#
# Youngs Moduli (GPa) = 55.73940 97.01736 66.82064
#
# Poissons Ratio (x) = 0.47107 0.28975
# Poissons Ratio (y) = 0.27064 0.28362
# Poissons Ratio (z) = 0.24170 0.41179
#
# Static dielectric constant tensor:
#      x y z
#    x 1.818570 0.000000 -0.033360 
#    y 0.000000 1.844160 0.000000 
#    z -0.033360 0.000000 1.866520 
# 
# From -- ./inp_files/18312.got.cif
#   From: 2010.05.17/outbox.cif.g08.bks.cpg/sg12_10_cif.got.tgz:18312.got - 2010.06.03 13:09:07.
