data_PCOD9212138
_publ_section_title
;
Structure prediction by ZEFSAII (Michael W. Deem and Ramdas Pophale) SiO2 
 PCOD9212138
Probable space group: C 2/M
;
_chemical_formula_sum "Si O2"
_cell_formula_units_Z 44
_cell_length_a 19.904448
_cell_length_b 12.832674
_cell_length_c 8.534110
_cell_angle_alpha 90.000000
_cell_angle_beta 74.931922
_cell_angle_gamma 90.000000
_cell_volume 2104.896363
_symmetry_space_group_name_H-M "C 2/M"
_symmetry_group_IT_number 12
_symmetry_cell_setting 'monoclinic'
loop_
_space_group_symop_operation_xyz
x,y,z
-x,y,-z
-x,-y,-z
x,-y,z
1/2+x,1/2+y,z
1/2-x,1/2+y,-z
1/2-x,1/2-y,-z
1/2+x,1/2-y,z
loop_
_atom_site_type_symbol
_atom_site_label
_atom_site_fract_x
_atom_site_fract_y
_atom_site_fract_z
Si Si1 0.624533 0.115862 0.140628
Si Si2 0.373372 0.317636 0.652695
Si Si3 0.500000 0.816828 0.000000
Si Si4 0.922863 0.000000 0.130387
Si Si5 0.786190 0.620895 0.208438
Si Si6 0.532155 0.500000 0.314324
Si Si7 0.888780 0.793921 0.271688
O O1 0.619384 0.204579 0.273545
O O2 0.627494 0.000000 0.206792
O O3 0.559440 0.122563 0.059096
O O4 0.690808 0.133282 0.986934
O O5 0.294370 0.356560 0.715493
O O6 0.420090 0.398016 0.725782
O O7 0.391812 0.315149 0.456087
O O8 0.460502 0.749491 0.155663
O O9 0.877402 0.895306 0.165378
O O10 0.959640 0.000000 0.272541
O O11 0.000000 0.000000 0.000000
O O12 0.801888 0.500000 0.241207
O O13 0.831249 0.705207 0.276483
O O14 0.500000 0.500000 0.500000
#
# Coordination Sequence:
#
# PCOD9212138 Si02
#       7
#     8   8   4   4   8   4   8
#     4  10  23  41  64  91 127 163 214 261 317 384
#     4  12  23  42  66  94 129 167 213 266 317 380
#     4  10  21  41  64  90 126 167 205 262 322 378
#     4  12  24  42  64 102 130 164 214 259 325 371
#     4  10  23  45  63  90 127 175 215 254 322 377
#     4  12  24  40  68  94 132 167 205 273 321 372
#     4  11  23  40  66  94 128 165 212 265 314 386
#
# _framework density 20.903641
#
# number of rings (size 3 to 8) (size 9 to 14) (size 15 to 20)
#    0.000    1.091    3.636    2.455    2.545    1.455 
#    1.636    0.909    0.000    0.000    0.000    0.000 
#    0.000    0.000    0.000    0.000    0.000    0.000 
#
# Total GULP energy -122646.681712 kJ/mol
# GULP energy per Si atom -5574.849169 kJ/mol
# Density = 2.085606 g / cm^3
# Si number density = 20.903641 Si / 1000 Ang^3
#
#
#
# Elastic Constant Matrix: (Units=GPa)
#
#
# Indices 1 2 3 4 5 6 
#
# 1 72.9761 25.6436 4.2162 0.0000 -22.8476 0.0000
# 2 25.6436 167.6793 32.1333 0.0000 -7.4247 0.0000
# 3 4.2162 32.1333 69.7102 0.0000 -21.8250 0.0000
# 4 0.0000 0.0000 0.0000 11.6851 0.0000 7.6031
# 5 -22.8476 -7.4247 -21.8250 0.0000 24.5721 0.0000
# 6 0.0000 0.0000 0.0000 7.6031 0.0000 6.1065
#
#
#
# Elastic Compliance Matrix: (Units=1/GPa)
#
#
# Indices 1 2 3 4 5 6 
#
# 1 0.023895 -0.004215 0.009773 0.000000 0.029624 0.000000
# 2 -0.004215 0.007302 -0.005052 0.000000 -0.006201 0.000000
# 3 0.009773 -0.005052 0.025557 0.000000 0.030260 0.000000
# 4 0.000000 0.000000 0.000000 0.450728 0.000000 -0.561194
# 5 0.029624 -0.006201 0.030260 0.000000 0.093245 0.000000
# 6 0.000000 0.000000 0.000000 -0.561194 0.000000 0.862494
#
#
# Mechanical properties :
#
#
# Convention : Reuss Voigt Hill
#
# Bulk Modulus (GPa) = 17.31199 48.26130 32.78665
# Shear Modulus (GPa) = 3.37504 25.03090 14.20297
#
# Velocity S-wave (km/s) = 1.27204 3.46416 2.60945
# Velocity P-wave (km/s) = 3.23376 6.25605 4.97973
#
# Compressibility (1/GPa) = 0.05776343
#
# Stress axis : x y z
#
# Youngs Moduli (GPa) = 41.85058 136.94762 39.12869
#
# Poissons Ratio (x) = 0.57728 -0.38239
# Poissons Ratio (y) = 0.17641 0.19769
# Poissons Ratio (z) = -0.40899 0.69189
#
# Static dielectric constant tensor:
#      x y z
#    x 1.721910 0.000000 -0.016260 
#    y 0.000000 1.942270 0.000000 
#    z -0.016260 0.000000 1.720500 
# 
# From -- ./inp_files/84103.got.cif
#   From: 2010.05.17/outbox.cif.g08.bks.cpg/sg12_43_cif.got.tgz:84103.got - 2010.06.03 13:09:07.
