data_PCOD9212301
_publ_section_title
;
Structure prediction by ZEFSAII (Michael W. Deem and Ramdas Pophale) SiO2 
 PCOD9212301
Probable space group: C 2/M
;
_chemical_formula_sum "Si O2"
_cell_formula_units_Z 56
_cell_length_a 10.136008
_cell_length_b 13.923534
_cell_length_c 22.284254
_cell_angle_alpha 90.000000
_cell_angle_beta 52.852174
_cell_angle_gamma 90.000000
_cell_volume 2506.781685
_symmetry_space_group_name_H-M "C 2/M"
_symmetry_group_IT_number 12
_symmetry_cell_setting 'monoclinic'
loop_
_space_group_symop_operation_xyz
x,y,z
-x,y,-z
-x,-y,-z
x,-y,z
1/2+x,1/2+y,z
1/2-x,1/2+y,-z
1/2-x,1/2-y,-z
1/2+x,1/2-y,z
loop_
_atom_site_type_symbol
_atom_site_label
_atom_site_fract_x
_atom_site_fract_y
_atom_site_fract_z
Si Si1 0.784329 0.616637 0.802700
Si Si2 0.024660 0.884997 0.308411
Si Si3 0.709614 0.883046 0.862351
Si Si4 0.055429 0.226957 0.548611
Si Si5 0.363904 0.116894 0.908796
Si Si6 0.672560 0.886041 0.344007
Si Si7 0.093785 0.883052 0.072996
O O1 0.784693 0.500000 0.801366
O O2 0.883484 0.647093 0.834443
O O3 0.846002 0.644390 0.720323
O O4 0.594853 0.646407 0.865938
O O5 0.001857 0.836758 0.379160
O O6 0.859062 0.866571 0.314897
O O7 0.180909 0.853816 0.225179
O O8 0.037731 0.000000 0.312630
O O9 0.520020 0.854152 0.905782
O O10 0.797356 0.853244 0.899603
O O11 0.711887 0.000000 0.862835
O O12 0.250000 0.250000 0.500000
O O13 0.000000 0.183283 0.500000
O O14 0.954859 0.326113 0.582211
O O15 0.361857 0.000000 0.908991
O O16 0.191765 0.146722 0.986501
O O17 0.645107 0.000000 0.356386
O O18 0.089930 0.000000 0.073128
#
# Coordination Sequence:
#
# PCOD9212301 Si02
#       7
#     8   8   8   8   8   8   8
#     4   9  16  28  48  77 112 155 206 247 290 356
#     4  10  21  41  67  92 125 167 205 248 304 367
#     4   9  16  28  48  76 112 156 204 245 293 358
#     4  12  26  44  67  99 127 152 198 253 309 377
#     4   9  16  23  38  75 121 153 192 258 307 332
#     4  10  21  41  68  92 123 169 208 243 301 374
#     4   9  14  23  42  71 112 158 201 248 298 348
#
# _framework density 22.339400999999999
#
# number of rings (size 3 to 8) (size 9 to 14) (size 15 to 20)
#    0.000    2.286    2.857    0.857    0.000    5.714 
#    0.000    1.429    0.000    0.000    0.000    6.000 
#    0.000    0.000    0.000    0.000    0.000    0.000 
#
# Total GULP energy -156599.592772 kJ/mol
# GULP energy per Si atom -5592.842599 kJ/mol
# Density = 2.228856 g / cm^3
# Si number density = 22.339401 Si / 1000 Ang^3
#
#
#
# Elastic Constant Matrix: (Units=GPa)
#
#
# Indices 1 2 3 4 5 6 
#
# 1 58.7473 -19.2887 0.7934 0.0000 5.1341 0.0000
# 2 -19.2887 58.0060 -3.5423 0.0000 1.1528 0.0000
# 3 0.7934 -3.5423 92.7712 0.0000 8.6018 0.0000
# 4 0.0000 0.0000 0.0000 30.2645 0.0000 7.6964
# 5 5.1341 1.1528 8.6018 0.0000 48.2930 0.0000
# 6 0.0000 0.0000 0.0000 7.6964 0.0000 1.9238
#
#
#
# Elastic Compliance Matrix: (Units=1/GPa)
#
#
# Indices 1 2 3 4 5 6 
#
# 1 0.019349 0.006497 0.000293 0.000000 -0.002264 0.000002
# 2 0.006497 0.019475 0.000809 0.000000 -0.001300 0.000001
# 3 0.000293 0.000809 0.010994 0.000000 -0.002009 0.000002
# 4 0.000000 0.000000 0.000000 -1.903310 0.000000 7.614307
# 5 -0.002264 -0.001300 -0.002009 0.000000 0.021336 -0.000001
# 6 0.000002 0.000001 0.000002 7.614307 -0.000001-29.941700
#
#
# Mechanical properties :
#
#
# Convention : Reuss Voigt Hill
#
# Bulk Modulus (GPa) = 15.38120 18.38327 16.88224
# Shear Modulus (GPa) = -0.15739 31.53374 15.68817
#
# Velocity S-wave (km/s) = -0.26572 3.76117 2.65290
# Velocity P-wave (km/s) = 2.60884 5.20661 4.11794
#
# Compressibility (1/GPa) = 0.06501443
#
# Stress axis : x y z
#
# Youngs Moduli (GPa) = 51.68183 51.34728 90.96018
#
# Poissons Ratio (x) = -0.33360 -0.02661
# Poissons Ratio (y) = -0.33578 -0.07355
# Poissons Ratio (z) = -0.01512 -0.04152
#
# Static dielectric constant tensor:
#      x y z
#    x 1.795200 0.000000 0.022850 
#    y 0.000000 1.874320 0.000000 
#    z 0.022850 0.000000 1.761870 
# 
# From -- ./inp_files/300695.got.cif
#   From: 2010.05.17/outbox.cif.g08.bks.cpg/sg12_151_cif.got.tgz:300695.got - 2010.06.03 13:09:07.
