data_PCOD9212934
_publ_section_title
;
Structure prediction by ZEFSAII (Michael W. Deem and Ramdas Pophale) SiO2 
 PCOD9212934
Probable space group: C 2/M
;
_chemical_formula_sum "Si O2"
_cell_formula_units_Z 34
_cell_length_a 12.608389
_cell_length_b 13.157935
_cell_length_c 16.713265
_cell_angle_alpha 90.000000
_cell_angle_beta 27.794837
_cell_angle_gamma 90.000000
_cell_volume 1292.946345
_symmetry_space_group_name_H-M "C 2/M"
_symmetry_group_IT_number 12
_symmetry_cell_setting 'monoclinic'
loop_
_space_group_symop_operation_xyz
x,y,z
-x,y,-z
-x,-y,-z
x,-y,z
1/2+x,1/2+y,z
1/2-x,1/2+y,-z
1/2-x,1/2-y,-z
1/2+x,1/2-y,z
loop_
_atom_site_type_symbol
_atom_site_label
_atom_site_fract_x
_atom_site_fract_y
_atom_site_fract_z
Si Si1 0.500000 0.000000 0.000000
Si Si2 0.032540 0.891148 0.112670
Si Si3 0.347820 0.108041 0.502300
Si Si4 0.363367 0.667705 0.515676
Si Si5 0.017218 0.668860 0.105523
O O1 0.397672 0.909130 0.126207
O O2 0.040952 0.784668 0.061395
O O3 0.800696 0.894709 0.318051
O O4 0.064399 0.000000 0.050181
O O5 0.237980 0.880218 0.039822
O O6 0.460804 0.219389 0.429976
O O7 0.176588 0.113056 0.540976
O O8 0.474470 0.000000 0.410696
O O9 0.500000 0.625668 0.500000
O O10 0.111948 0.676158 0.723160
#
# Coordination Sequence:
#
# PCOD9212934 Si02
#       5
#     2   8   8   8   8
#     4  12  24  36  56  92 116 146 186 250 276 348
#     4   9  18  39  61  80 109 154 190 237 282 341
#     4   9  20  37  59  83 111 148 191 232 287 337
#     4  10  22  37  55  85 117 148 188 235 281 343
#     4  10  22  35  57  85 116 146 192 232 289 333
#
# _framework density 26.296527999999999
#
# number of rings (size 3 to 8) (size 9 to 14) (size 15 to 20)
#    0.000    2.353    1.176    0.000    4.941    0.941 
#    0.000    0.588    0.000    0.000    0.000    0.000 
#    0.000    0.000    0.000    0.000    0.000    0.000 
#
# Total GULP energy -94668.267548 kJ/mol
# GULP energy per Si atom -5568.721620 kJ/mol
# Density = 2.623668 g / cm^3
# Si number density = 26.296528 Si / 1000 Ang^3
#
#
#
# Elastic Constant Matrix: (Units=GPa)
#
#
# Indices 1 2 3 4 5 6 
#
# 1 121.6893 22.0583 3.6422 0.0732 20.9165 0.0808
# 2 22.0583 277.7105 12.8365 0.0896 24.3013 0.1136
# 3 3.6422 12.8365 32.5035 0.5639 7.2878 0.6037
# 4 0.0732 0.0896 0.5639 2135.8281 0.0198 2218.7575
# 5 20.9165 24.3013 7.2878 0.0198 29.8527 0.0035
# 6 0.0808 0.1136 0.6037 2218.7575 0.0035 2314.0757
#
#
#
# Elastic Compliance Matrix: (Units=1/GPa)
#
#
# Indices 1 2 3 4 5 6 
#
# 1 0.009359 -0.000196 0.000490 0.000018 -0.006518 -0.000017
# 2 -0.000196 0.003905 -0.000887 0.000013 -0.002825 -0.000012
# 3 0.000490 -0.000887 0.032770 0.000071 -0.007622 -0.000077
# 4 0.000018 0.000013 0.000071 0.118168 -0.000105 -0.113300
# 5 -0.006518 -0.002825 -0.007622 -0.000105 0.042225 0.000103
# 6 -0.000017 -0.000012 -0.000077 -0.113300 0.000103 0.109066
#
#
# Mechanical properties :
#
#
# Convention : Reuss Voigt Hill
#
# Bulk Modulus (GPa) = 22.29715 56.55302 39.42509
# Shear Modulus (GPa) = 15.07723 922.17573 468.62648
#
# Velocity S-wave (km/s) = 2.39708 18.74686 13.36396
# Velocity P-wave (km/s) = 4.01981 22.13923 15.91076
#
# Compressibility (1/GPa) = 0.04484879
#
# Stress axis : x y z
#
# Youngs Moduli (GPa) = 106.85205 256.10825 30.51545
#
# Poissons Ratio (x) = 0.05011 -0.01495
# Poissons Ratio (y) = 0.02091 0.02706
# Poissons Ratio (z) = -0.05235 0.22709
#
# Static dielectric constant tensor:
#      x y z
#    x 2.119440 -0.000010 -0.074180 
#    y -0.000010 2.098900 0.000020 
#    z -0.074180 0.000020 2.096080 
# 
# From -- ./inp_files/95553.got.cif
#   From: 2010.05.17/outbox.cif.g08.bks.cpg/sg12_48_cif.got.tgz:95553.got - 2010.06.03 13:09:07.
