data_PCOD9212212
_publ_section_title
;
Structure prediction by ZEFSAII (Michael W. Deem and Ramdas Pophale) SiO2 
 PCOD9212212
Probable space group: C 2/M
;
_chemical_formula_sum "Si O2"
_cell_formula_units_Z 42
_cell_length_a 13.970828
_cell_length_b 15.925632
_cell_length_c 9.028367
_cell_angle_alpha 90.000000
_cell_angle_beta 117.488384
_cell_angle_gamma 90.000000
_cell_volume 1781.979789
_symmetry_space_group_name_H-M "C 2/M"
_symmetry_group_IT_number 12
_symmetry_cell_setting 'monoclinic'
loop_
_space_group_symop_operation_xyz
x,y,z
-x,y,-z
-x,-y,-z
x,-y,z
1/2+x,1/2+y,z
1/2-x,1/2+y,-z
1/2-x,1/2-y,-z
1/2+x,1/2-y,z
loop_
_atom_site_type_symbol
_atom_site_label
_atom_site_fract_x
_atom_site_fract_y
_atom_site_fract_z
Si Si1 0.243506 0.500000 0.396296
Si Si2 0.819178 0.166449 0.560102
Si Si3 0.393578 0.173463 0.151172
Si Si4 0.894718 0.000000 0.113918
Si Si5 0.000000 0.000000 0.500000
Si Si6 0.144802 0.169177 0.078119
Si Si7 0.500000 0.738349 0.500000
Si Si8 0.360032 0.000000 0.982289
O O1 0.242905 0.585920 0.487330
O O2 0.366228 0.500000 0.421213
O O3 0.153069 0.500000 0.204576
O O4 0.750000 0.250000 0.500000
O O5 0.871452 0.166493 0.758548
O O6 0.905907 0.176346 0.489576
O O7 0.273449 0.169888 0.136263
O O8 0.468495 0.204131 0.338823
O O9 0.395341 0.246118 0.028792
O O10 0.411616 0.083789 0.087598
O O11 0.982561 0.000000 0.306469
O O12 0.767298 0.000000 0.066105
O O13 0.903307 0.913671 0.030292
#
# Coordination Sequence:
#
# PCOD9212212 Si02
#       8
#     4   8   8   4   2   8   4   4
#     4  11  24  40  71 101 137 184 223 282 354 409
#     4  12  25  45  70 103 142 180 229 286 342 411
#     4  10  22  41  68  97 134 178 231 276 341 405
#     4   9  20  34  66  96 134 181 219 277 352 406
#     4  10  22  40  62 106 148 164 228 290 338 424
#     4  10  21  41  65  95 137 182 220 274 341 414
#     4  12  27  42  70 105 136 184 231 286 348 403
#     4   9  20  40  65  95 131 183 227 279 344 404
#
# _framework density 23.569291
#
# number of rings (size 3 to 8) (size 9 to 14) (size 15 to 20)
#    0.000    1.524    1.905    2.286   10.667    1.143 
#    0.000    1.905    0.000    2.286    0.000    0.000 
#    0.000    0.000    0.000    0.000    0.000    0.000 
#
# Total GULP energy -117358.018269 kJ/mol
# GULP energy per Si atom -5588.477060 kJ/mol
# Density = 2.351565 g / cm^3
# Si number density = 23.569291 Si / 1000 Ang^3
#
#
#
# Elastic Constant Matrix: (Units=GPa)
#
#
# Indices 1 2 3 4 5 6 
#
# 1 70.4232 6.1839 -13.0841 0.0000 -5.4809 0.0000
# 2 6.1839 239.9913 104.5623 0.0000 4.5656 0.0000
# 3 -13.0841 104.5623 179.1241 0.0000 -1.5680 0.0000
# 4 0.0000 0.0000 0.0000 27.3156 0.0000 16.4091
# 5 -5.4809 4.5656 -1.5680 0.0000 26.9333 0.0000
# 6 0.0000 0.0000 0.0000 16.4091 0.0000 -8.2938
#
#
#
# Elastic Compliance Matrix: (Units=1/GPa)
#
#
# Indices 1 2 3 4 5 6 
#
# 1 0.014915 -0.001255 0.001851 0.000000 0.003356 0.000000
# 2 -0.001255 0.005729 -0.003448 0.000000 -0.001427 0.000000
# 3 0.001851 -0.003448 0.007743 0.000000 0.001412 0.000000
# 4 0.000000 0.000000 0.000000 0.016728 0.000000 0.033096
# 5 0.003356 -0.001427 0.001412 0.000000 0.038136 0.000000
# 6 0.000000 0.000000 0.000000 0.033096 0.000000 -0.055093
#
#
# Mechanical properties :
#
#
# Convention : Reuss Voigt Hill
#
# Bulk Modulus (GPa) = 44.08455 76.09587 60.09021
# Shear Modulus (GPa) = 120.70850 35.31613 78.01231
#
# Velocity S-wave (km/s) = 7.16418 3.87511 5.75943
# Velocity P-wave (km/s) = 9.33696 7.23727 8.35335
#
# Compressibility (1/GPa) = 0.02268368
#
# Stress axis : x y z
#
# Youngs Moduli (GPa) = 67.04583 174.56097 129.14598
#
# Poissons Ratio (x) = 0.21903 -0.23909
# Poissons Ratio (y) = 0.08413 0.44532
# Poissons Ratio (z) = -0.12412 0.60192
#
# Static dielectric constant tensor:
#      x y z
#    x 1.931890 0.000000 0.014740 
#    y 0.000000 1.934880 0.000000 
#    z 0.014740 0.000000 1.869870 
# 
# From -- ./inp_files/73782.got.cif
#   From: 2010.05.17/outbox.cif.g08.bks.cpg/sg12_37_cif.got.tgz:73782.got - 2010.06.03 13:09:07.
