data_PCOD9212349
_publ_section_title
;
Structure prediction by ZEFSAII (Michael W. Deem and Ramdas Pophale) SiO2 
 PCOD9212349
Probable space group: C 2/M
;
_chemical_formula_sum "Si O2"
_cell_formula_units_Z 48
_cell_length_a 8.780585
_cell_length_b 26.956270
_cell_length_c 12.363348
_cell_angle_alpha 90.000000
_cell_angle_beta 48.385657
_cell_angle_gamma 90.000000
_cell_volume 2187.797623
_symmetry_space_group_name_H-M "C 2/M"
_symmetry_group_IT_number 12
_symmetry_cell_setting 'monoclinic'
loop_
_space_group_symop_operation_xyz
x,y,z
-x,y,-z
-x,-y,-z
x,-y,z
1/2+x,1/2+y,z
1/2-x,1/2+y,-z
1/2-x,1/2-y,-z
1/2+x,1/2-y,z
loop_
_atom_site_type_symbol
_atom_site_label
_atom_site_fract_x
_atom_site_fract_y
_atom_site_fract_z
Si Si1 0.399198 0.731234 0.156149
Si Si2 0.809993 0.629581 0.821929
Si Si3 0.167865 0.355444 0.510234
Si Si4 0.773962 0.598347 0.084886
Si Si5 0.659333 0.443377 0.710963
Si Si6 0.408640 0.306678 0.723252
O O1 0.307111 0.678394 0.163851
O O2 0.553037 0.720738 0.179959
O O3 0.225170 0.768165 0.279542
O O4 0.500000 0.753169 0.000000
O O5 0.775468 0.620401 0.963170
O O6 0.727677 0.583561 0.789693
O O7 0.044234 0.637603 0.678194
O O8 0.244179 0.408299 0.426934
O O9 0.367360 0.321673 0.423156
O O10 0.000000 0.337708 0.500000
O O11 0.584972 0.561001 0.181602
O O12 0.715811 0.643415 0.192369
O O13 0.000000 0.578634 0.000000
O O14 0.725606 0.500000 0.673970
#
# Coordination Sequence:
#
# PCOD9212349 Si02
#       6
#     8   8   8   8   8   8
#     4  12  21  36  59  88 119 159 207 247 294 347
#     4  11  21  39  63  88 122 155 200 255 291 354
#     4   9  19  40  59  87 124 152 200 249 297 352
#     4  11  23  40  60  88 124 157 199 247 300 351
#     4  10  21  41  68  92 118 154 196 248 306 360
#     4  11  23  37  58  85 121 165 200 246 292 356
#
# _framework density 21.939871
#
# number of rings (size 3 to 8) (size 9 to 14) (size 15 to 20)
#    0.000    1.333    6.667    1.500    2.333    5.333 
#    0.000    3.333    0.000    1.000    0.000    0.000 
#    0.000    0.000    0.000    0.000    0.000    0.000 
#
# Total GULP energy -134278.214333 kJ/mol
# GULP energy per Si atom -5594.925597 kJ/mol
# Density = 2.188994 g / cm^3
# Si number density = 21.939871 Si / 1000 Ang^3
#
#
#
# Elastic Constant Matrix: (Units=GPa)
#
#
# Indices 1 2 3 4 5 6 
#
# 1 46.4060 19.6009 21.0300 0.0000 -14.7352 0.0000
# 2 19.6009 81.6454 12.0733 0.0000 -11.9440 0.0000
# 3 21.0300 12.0733 112.6292 0.0000 -28.2629 0.0000
# 4 0.0000 0.0000 0.0000 14.9389 0.0000 -4.6400
# 5 -14.7352 -11.9440 -28.2629 0.0000 33.0620 0.0000
# 6 0.0000 0.0000 0.0000 -4.6400 0.0000 18.9854
#
#
#
# Elastic Compliance Matrix: (Units=1/GPa)
#
#
# Indices 1 2 3 4 5 6 
#
# 1 0.027425 -0.005003 -0.002509 0.000000 0.008271 0.000000
# 2 -0.005003 0.013851 0.000185 0.000000 0.002932 0.000000
# 3 -0.002509 0.000185 0.011539 0.000000 0.008813 0.000000
# 4 0.000000 0.000000 0.000000 0.072438 0.000000 0.017704
# 5 0.008271 0.002932 0.008813 0.000000 0.042525 0.000000
# 6 0.000000 0.000000 0.000000 0.017704 0.000000 0.056999
#
#
# Mechanical properties :
#
#
# Convention : Reuss Voigt Hill
#
# Bulk Modulus (GPa) = 26.20478 38.45433 32.32955
# Shear Modulus (GPa) = 19.82940 25.92902 22.87921
#
# Velocity S-wave (km/s) = 3.00960 3.44149 3.23277
# Velocity P-wave (km/s) = 4.90375 5.77555 5.35741
#
# Compressibility (1/GPa) = 0.03816098
#
# Stress axis : x y z
#
# Youngs Moduli (GPa) = 36.46257 72.19813 86.66471
#
# Poissons Ratio (x) = 0.36122 0.21745
# Poissons Ratio (y) = 0.18243 -0.01606
# Poissons Ratio (z) = 0.09149 -0.01338
#
# Static dielectric constant tensor:
#      x y z
#    x 1.819630 0.000000 -0.018320 
#    y 0.000000 1.763130 0.000000 
#    z -0.018320 0.000000 1.847570 
# 
# From -- ./inp_files/200130.got.cif
#   From: 2010.05.17/outbox.cif.g08.bks.cpg/sg12_101_cif.got.tgz:200130.got - 2010.06.03 13:09:07.
