data_PCOD9212363
_publ_section_title
;
Structure prediction by ZEFSAII (Michael W. Deem and Ramdas Pophale) SiO2 
 PCOD9212363
Probable space group: C 2/M
;
_chemical_formula_sum "Si O2"
_cell_formula_units_Z 48
_cell_length_a 18.990200
_cell_length_b 19.333556
_cell_length_c 9.073824
_cell_angle_alpha 90.000000
_cell_angle_beta 135.342949
_cell_angle_gamma 90.000000
_cell_volume 2341.539575
_symmetry_space_group_name_H-M "C 2/M"
_symmetry_group_IT_number 12
_symmetry_cell_setting 'monoclinic'
loop_
_space_group_symop_operation_xyz
x,y,z
-x,y,-z
-x,-y,-z
x,-y,z
1/2+x,1/2+y,z
1/2-x,1/2+y,-z
1/2-x,1/2-y,-z
1/2+x,1/2-y,z
loop_
_atom_site_type_symbol
_atom_site_label
_atom_site_fract_x
_atom_site_fract_y
_atom_site_fract_z
Si Si1 0.702575 0.578126 0.646456
Si Si2 0.047416 0.681570 0.424728
Si Si3 0.095148 0.580240 0.243285
Si Si4 0.574915 0.276086 0.972213
Si Si5 0.009443 0.923851 0.836839
Si Si6 0.776391 0.776150 0.201965
O O1 0.702685 0.500000 0.709026
O O2 0.800806 0.584582 0.689885
O O3 0.600363 0.585458 0.399422
O O4 0.710277 0.641639 0.769633
O O5 0.097119 0.626758 0.390489
O O6 0.124693 0.739069 0.594197
O O7 0.000000 0.648524 0.500000
O O8 0.965489 0.722363 0.207756
O O9 0.078629 0.500000 0.257463
O O10 0.000000 0.601375 0.000000
O O11 0.572293 0.354147 0.903726
O O12 0.500000 0.274773 0.000000
O O13 0.685988 0.250194 0.172440
O O14 0.047708 0.000000 0.844912
O O15 0.000000 0.927119 0.000000
O O16 0.750000 0.750000 0.000000
#
# Coordination Sequence:
#
# PCOD9212363 Si02
#       6
#     8   8   8   8   8   8
#     4  10  21  41  68  95 125 167 216 264 324 388
#     4  12  24  40  62  91 131 172 216 266 323 383
#     4  10  23  42  65  93 126 166 218 272 323 382
#     4  11  23  40  64  94 124 168 217 269 326 383
#     4   9  19  36  60  92 126 156 200 265 325 378
#     4  12  25  41  63  93 134 170 211 270 325 385
#
# _framework density 20.499333
#
# number of rings (size 3 to 8) (size 9 to 14) (size 15 to 20)
#    0.000    1.333    3.333    2.500    4.667    1.667 
#    0.000    1.667    0.000    3.000    0.000    0.000 
#    0.000    0.000    0.000    0.000    0.000    0.000 
#
# Total GULP energy -134065.111206 kJ/mol
# GULP energy per Si atom -5586.046300 kJ/mol
# Density = 2.045268 g / cm^3
# Si number density = 20.499333 Si / 1000 Ang^3
#
#
#
# Elastic Constant Matrix: (Units=GPa)
#
#
# Indices 1 2 3 4 5 6 
#
# 1 48.1256 21.8397 10.7377 0.0000 -9.0444 0.0000
# 2 21.8397 152.8650 34.0421 0.0000 -19.0155 0.0000
# 3 10.7377 34.0421 49.3809 0.0000 -3.1824 0.0000
# 4 0.0000 0.0000 0.0000 22.3550 0.0000 6.3334
# 5 -9.0444 -19.0155 -3.1824 0.0000 30.3873 0.0000
# 6 0.0000 0.0000 0.0000 6.3334 0.0000 12.4211
#
#
#
# Elastic Compliance Matrix: (Units=1/GPa)
#
#
# Indices 1 2 3 4 5 6 
#
# 1 0.023429 -0.001910 -0.003429 0.000000 0.005419 0.000000
# 2 -0.001910 0.008487 -0.005165 0.000000 0.004202 0.000000
# 3 -0.003429 -0.005165 0.024448 0.000000 -0.001692 0.000000
# 4 0.000000 0.000000 0.000000 0.052286 0.000000 -0.026660
# 5 0.005419 0.004202 -0.001692 0.000000 0.036974 0.000000
# 6 0.000000 0.000000 0.000000 -0.026660 0.000000 0.094101
#
#
# Mechanical properties :
#
#
# Convention : Reuss Voigt Hill
#
# Bulk Modulus (GPa) = 28.28257 42.62338 35.45298
# Shear Modulus (GPa) = 18.34740 25.28281 21.81510
#
# Velocity S-wave (km/s) = 2.99494 3.51572 3.26573
# Velocity P-wave (km/s) = 5.07803 6.10885 5.61713
#
# Compressibility (1/GPa) = 0.03535746
#
# Stress axis : x y z
#
# Youngs Moduli (GPa) = 42.68203 117.82081 40.90320
#
# Poissons Ratio (x) = 0.22499 0.14025
# Poissons Ratio (y) = 0.08150 0.21127
# Poissons Ratio (z) = 0.14635 0.60855
#
# Static dielectric constant tensor:
#      x y z
#    x 1.767660 0.000000 -0.014510 
#    y 0.000000 1.748460 0.000000 
#    z -0.014510 0.000000 1.794900 
# 
# From -- ./inp_files/77284.got.cif
#   From: 2010.05.17/outbox.cif.g08.bks.cpg/sg12_39_cif.got.tgz:77284.got - 2010.06.03 13:09:07.
