data_PCOD9212154
_publ_section_title
;
Structure prediction by ZEFSAII (Michael W. Deem and Ramdas Pophale) SiO2 
 PCOD9212154
Probable space group: C 2/M
;
_chemical_formula_sum "Si O2"
_cell_formula_units_Z 58
_cell_length_a 21.392406
_cell_length_b 7.707751
_cell_length_c 27.687608
_cell_angle_alpha 90.000000
_cell_angle_beta 143.126244
_cell_angle_gamma 90.000000
_cell_volume 2739.447541
_symmetry_space_group_name_H-M "C 2/M"
_symmetry_group_IT_number 12
_symmetry_cell_setting 'monoclinic'
loop_
_space_group_symop_operation_xyz
x,y,z
-x,y,-z
-x,-y,-z
x,-y,z
1/2+x,1/2+y,z
1/2-x,1/2+y,-z
1/2-x,1/2-y,-z
1/2+x,1/2-y,z
loop_
_atom_site_type_symbol
_atom_site_label
_atom_site_fract_x
_atom_site_fract_y
_atom_site_fract_z
Si Si1 0.001711 0.209702 0.745363
Si Si2 0.051924 0.701440 0.482717
Si Si3 0.215479 0.288382 0.233435
Si Si4 0.278386 0.206001 0.651688
Si Si5 0.000000 0.000000 0.000000
Si Si6 0.987729 0.700409 0.059839
Si Si7 0.923825 0.797097 0.312060
Si Si8 0.370130 0.707223 0.082777
O O1 0.033659 0.275873 0.712070
O O2 0.083058 0.266426 0.836979
O O3 0.885819 0.259634 0.690516
O O4 0.003100 0.000000 0.744888
O O5 0.021580 0.500000 0.461349
O O6 0.175801 0.716902 0.563734
O O7 0.000000 0.774235 0.500000
O O8 0.006766 0.785387 0.406611
O O9 0.217655 0.500000 0.236126
O O10 0.215541 0.229027 0.289137
O O11 0.315982 0.223576 0.266659
O O12 0.107722 0.241255 0.141498
O O13 0.262174 0.000000 0.643612
O O14 0.057352 0.155656 0.003489
O O15 0.981140 0.500000 0.040040
O O16 0.935670 0.711110 0.080001
O O17 0.902491 0.000000 0.289723
O O18 0.383727 0.500000 0.088952
O O19 0.250000 0.750000 0.000000
#
# Coordination Sequence:
#
# PCOD9212154 Si02
#       8
#     8   8   8   8   2   8   8   8
#     4  10  23  41  65  94 131 170 213 272 329 390
#     4  11  23  38  58  93 129 165 211 267 330 387
#     4   9  19  37  66  94 122 168 221 267 326 390
#     4  11  21  37  66  92 120 169 218 263 317 393
#     4  12  26  44  64 106 136 170 226 282 346 406
#     4  11  23  44  70  99 138 179 225 283 340 409
#     4  10  21  41  64  93 129 168 216 269 326 387
#     4  11  23  42  68  99 134 177 227 276 338 413
#
# _framework density 21.172150999999999
#
# number of rings (size 3 to 8) (size 9 to 14) (size 15 to 20)
#    0.000    1.517    3.448    1.448    0.000    3.310 
#    2.483    2.759    0.000    0.000    0.000    0.000 
#    0.000    0.000    0.000    0.000    0.000    0.000 
#
# Total GULP energy -161801.995801 kJ/mol
# GULP energy per Si atom -5579.379166 kJ/mol
# Density = 2.112396 g / cm^3
# Si number density = 21.172151 Si / 1000 Ang^3
#
#
#
# Elastic Constant Matrix: (Units=GPa)
#
#
# Indices 1 2 3 4 5 6 
#
# 1 178.0399 6.3028 81.0905 0.0000 -12.4586 0.0000
# 2 6.3028 72.5805 1.4522 0.0003 -9.0708 -0.0001
# 3 81.0905 1.4522 104.5410 0.0000 4.3759 0.0000
# 4 0.0000 0.0003 0.0000 37.4618 0.0000 -17.3231
# 5 -12.4586 -9.0708 4.3759 0.0000 42.3674 0.0000
# 6 0.0000 -0.0001 0.0000 -17.3231 0.0000 38.7378
#
#
#
# Elastic Compliance Matrix: (Units=1/GPa)
#
#
# Indices 1 2 3 4 5 6 
#
# 1 0.009163 -0.000226 -0.007246 0.000000 0.003394 0.000000
# 2 -0.000226 0.014173 -0.000146 0.000000 0.002983 0.000000
# 3 -0.007246 -0.000146 0.015345 0.000000 -0.003747 0.000000
# 4 0.000000 0.000000 0.000000 0.033653 0.000000 0.015049
# 5 0.003394 0.002983 -0.003747 0.000000 0.025627 0.000000
# 6 0.000000 0.000000 0.000000 0.015049 0.000000 0.032544
#
#
# Mechanical properties :
#
#
# Convention : Reuss Voigt Hill
#
# Bulk Modulus (GPa) = 42.65565 59.20581 50.93073
# Shear Modulus (GPa) = 32.56114 41.46780 37.01447
#
# Velocity S-wave (km/s) = 3.92589 4.43041 4.18576
# Velocity P-wave (km/s) = 6.38286 7.36180 6.88974
#
# Compressibility (1/GPa) = 0.02344355
#
# Stress axis : x y z
#
# Youngs Moduli (GPa) = 109.13885 70.55573 65.16674
#
# Poissons Ratio (x) = 0.01598 0.47221
# Poissons Ratio (y) = 0.02472 0.00952
# Poissons Ratio (z) = 0.79084 0.01031
#
# Static dielectric constant tensor:
#      x y z
#    x 1.765990 0.000000 -0.017210 
#    y 0.000000 1.773650 0.000000 
#    z -0.017210 0.000000 1.770330 
# 
# From -- ./inp_files/346556.got.cif
#   From: 2010.05.17/outbox.cif.g08.bks.cpg/sg12_174_cif.got.tgz:346556.got - 2010.06.03 13:09:07.
