data_PCOD9212403
_publ_section_title
;
Structure prediction by ZEFSAII (Michael W. Deem and Ramdas Pophale) SiO2 
 PCOD9212403
Probable space group: C 2/M
;
_chemical_formula_sum "Si O2"
_cell_formula_units_Z 56
_cell_length_a 20.424616
_cell_length_b 24.545892
_cell_length_c 9.564498
_cell_angle_alpha 90.000000
_cell_angle_beta 146.242356
_cell_angle_gamma 90.000000
_cell_volume 2664.529728
_symmetry_space_group_name_H-M "C 2/M"
_symmetry_group_IT_number 12
_symmetry_cell_setting 'monoclinic'
loop_
_space_group_symop_operation_xyz
x,y,z
-x,y,-z
-x,-y,-z
x,-y,z
1/2+x,1/2+y,z
1/2-x,1/2+y,-z
1/2-x,1/2-y,-z
1/2+x,1/2-y,z
loop_
_atom_site_type_symbol
_atom_site_label
_atom_site_fract_x
_atom_site_fract_y
_atom_site_fract_z
Si Si1 0.851797 0.561934 0.046560
Si Si2 0.072113 0.728751 0.992659
Si Si3 0.140870 0.939676 0.239800
Si Si4 0.281689 0.595564 0.918362
Si Si5 0.475179 0.319170 0.301632
Si Si6 0.722046 0.355316 0.606488
Si Si7 0.453228 0.851857 0.567160
O O1 0.861137 0.500000 0.014508
O O2 0.779587 0.601459 0.815959
O O3 0.783828 0.564142 0.073877
O O4 0.978715 0.590682 0.289473
O O5 0.091929 0.777884 0.920591
O O6 0.991386 0.686971 0.760115
O O7 0.188092 0.695321 0.243284
O O8 0.000000 0.747536 0.000000
O O9 0.177984 0.937653 0.144463
O O10 0.200279 0.889955 0.427817
O O11 0.170413 0.000000 0.350414
O O12 0.000000 0.932916 0.000000
O O13 0.184161 0.638332 0.691021
O O14 0.394133 0.627810 0.175629
O O15 0.500000 0.296420 0.500000
O O16 0.598056 0.334540 0.446591
O O17 0.500000 0.831250 0.500000
#
# Coordination Sequence:
#
# PCOD9212403 Si02
#       7
#     8   8   8   8   8   8   8
#     4  10  21  41  69  97 129 171 215 266 324 382
#     4  11  26  43  67  94 124 175 217 271 327 386
#     4  11  23  39  62  93 133 173 207 259 323 383
#     4  11  22  40  64  95 132 168 215 267 316 391
#     4  12  26  43  65  94 129 173 218 270 331 379
#     4  11  24  45  65  96 133 167 219 272 318 393
#     4   9  21  41  64  95 130 162 214 267 320 383
#
# _framework density 21.016842
#
# number of rings (size 3 to 8) (size 9 to 14) (size 15 to 20)
#    0.000    1.286    2.857    2.143    4.000    4.286 
#    0.000    0.714    0.000    4.714    0.000    0.000 
#    0.000    0.000    0.000    0.000    0.000    0.000 
#
# Total GULP energy -156519.315143 kJ/mol
# GULP energy per Si atom -5589.975541 kJ/mol
# Density = 2.096901 g / cm^3
# Si number density = 21.016842 Si / 1000 Ang^3
#
#
#
# Elastic Constant Matrix: (Units=GPa)
#
#
# Indices 1 2 3 4 5 6 
#
# 1 79.2009 10.4137 15.4155 0.0000 -11.2181 0.0000
# 2 10.4137 79.3533 24.6559 0.0000 -9.2405 0.0000
# 3 15.4155 24.6559 75.4107 0.0000 6.6012 0.0000
# 4 0.0000 0.0000 0.0000 5.0302 0.0000 -19.4668
# 5 -11.2181 -9.2405 6.6012 0.0000 32.0278 0.0000
# 6 0.0000 0.0000 0.0000 -19.4668 0.0000 3.9023
#
#
#
# Elastic Compliance Matrix: (Units=1/GPa)
#
#
# Indices 1 2 3 4 5 6 
#
# 1 0.014081 -0.000172 -0.003309 0.000000 0.005565 0.000000
# 2 -0.000172 0.014892 -0.005300 0.000000 0.005329 0.000000
# 3 -0.003309 -0.005300 0.016198 0.000000 -0.006027 0.000000
# 4 0.000000 0.000000 0.000000 -0.010860 0.000000 -0.054176
# 5 0.005565 0.005329 -0.006027 0.000000 0.035952 0.000000
# 6 0.000000 0.000000 0.000000 -0.054176 0.000000 -0.013999
#
#
# Mechanical properties :
#
#
# Convention : Reuss Voigt Hill
#
# Bulk Modulus (GPa) = 36.22165 37.21501 36.71833
# Shear Modulus (GPa) = 60.22020 20.42405 40.32212
#
# Velocity S-wave (km/s) = 5.35869 3.12074 4.38489
# Velocity P-wave (km/s) = 7.45381 5.54356 6.56850
#
# Compressibility (1/GPa) = 0.02760780
#
# Stress axis : x y z
#
# Youngs Moduli (GPa) = 71.01766 67.15101 61.73683
#
# Poissons Ratio (x) = 0.01152 0.20431
# Poissons Ratio (y) = 0.01219 0.32723
# Poissons Ratio (z) = 0.23503 0.35592
#
# Static dielectric constant tensor:
#      x y z
#    x 1.733990 0.000000 -0.026610 
#    y 0.000000 1.761000 0.000000 
#    z -0.026610 0.000000 1.739990 
# 
# From -- ./inp_files/80129.got.cif
#   From: 2010.05.17/outbox.cif.g08.bks.cpg/sg12_41_cif.got.tgz:80129.got - 2010.06.03 13:09:07.
