data_PCOD9212836
_publ_section_title
;
Structure prediction by ZEFSAII (Michael W. Deem and Ramdas Pophale) SiO2 
 PCOD9212836
Probable space group: C 2/M
;
_chemical_formula_sum "Si O2"
_cell_formula_units_Z 48
_cell_length_a 11.746538
_cell_length_b 22.506299
_cell_length_c 15.739541
_cell_angle_alpha 90.000000
_cell_angle_beta 24.447736
_cell_angle_gamma 90.000000
_cell_volume 1722.117028
_symmetry_space_group_name_H-M "C 2/M"
_symmetry_group_IT_number 12
_symmetry_cell_setting 'monoclinic'
loop_
_space_group_symop_operation_xyz
x,y,z
-x,y,-z
-x,-y,-z
x,-y,z
1/2+x,1/2+y,z
1/2-x,1/2+y,-z
1/2-x,1/2-y,-z
1/2+x,1/2-y,z
loop_
_atom_site_type_symbol
_atom_site_label
_atom_site_fract_x
_atom_site_fract_y
_atom_site_fract_z
Si Si1 0.209647 0.431733 0.617426
Si Si2 0.149629 0.065323 0.172079
Si Si3 0.369178 0.839511 0.186737
Si Si4 0.719101 0.858314 0.185737
Si Si5 0.625993 0.726617 0.192848
Si Si6 0.723008 0.639317 0.681767
O O1 0.194972 0.500000 0.660043
O O2 0.477802 0.430933 0.375410
O O3 0.236431 0.375422 0.661339
O O4 0.933228 0.414993 0.753489
O O5 0.925671 0.080626 0.252892
O O6 0.260723 0.000000 0.087734
O O7 0.396227 0.111089 0.997119
O O8 0.581239 0.784603 0.052801
O O9 0.836405 0.809345 0.742142
O O10 0.598326 0.794860 0.236168
O O11 0.977092 0.856548 0.085224
O O12 0.533327 0.862445 0.408967
O O13 0.402250 0.694185 0.287343
#
# Coordination Sequence:
#
# PCOD9212836 Si02
#       6
#     8   8   8   8   8   8
#     4  11  25  44  76 114 150 197 252 308 368 446
#     4  10  22  45  75 109 150 194 249 310 370 442
#     4  10  21  47  74 106 145 196 247 305 378 431
#     4  12  24  42  74 105 148 196 250 303 373 446
#     4  10  24  45  73 107 145 198 243 310 375 442
#     4  11  24  45  69 107 142 195 249 299 377 441
#
# _framework density 27.872668999999998
#
# number of rings (size 3 to 8) (size 9 to 14) (size 15 to 20)
#    0.000    1.333    3.333    2.500    2.333    3.333 
#    0.000   23.333    0.000   18.000    0.000    0.000 
#    0.000    0.000    0.000    0.000    0.000    0.000 
#
# Total GULP energy -134053.707724 kJ/mol
# GULP energy per Si atom -5585.571155 kJ/mol
# Density = 2.780923 g / cm^3
# Si number density = 27.872669 Si / 1000 Ang^3
#
#
#
# Elastic Constant Matrix: (Units=GPa)
#
#
# Indices 1 2 3 4 5 6 
#
# 1 168.8542 33.6121 54.1423 -0.0358 0.5770 0.0685
# 2 33.6121 155.6485 29.2072 -0.0234 5.2654 0.0513
# 3 54.1423 29.2072 198.5607 -0.0443 12.0816 0.1045
# 4 -0.0358 -0.0234 -0.0443 10.8681 -0.0234 47.6003
# 5 0.5770 5.2654 12.0816 -0.0234 60.8930 -0.0583
# 6 0.0685 0.0513 0.1045 47.6003 -0.0583 -42.5218
#
#
#
# Elastic Compliance Matrix: (Units=1/GPa)
#
#
# Indices 1 2 3 4 5 6 
#
# 1 0.006686 -0.001142 -0.001678 -0.000001 0.000368 0.000003
# 2 -0.001142 0.006811 -0.000663 -0.000003 -0.000446 0.000002
# 3 -0.001678 -0.000663 0.005655 -0.000006 -0.001049 0.000005
# 4 -0.000001 -0.000003 -0.000006 0.015588 0.000024 0.017449
# 5 0.000368 -0.000446 -0.001049 0.000024 0.016665 0.000002
# 6 0.000003 0.000002 0.000005 0.017449 0.000002 -0.003984
#
#
# Mechanical properties :
#
#
# Convention : Reuss Voigt Hill
#
# Bulk Modulus (GPa) = 82.05500 84.10963 83.08232
# Shear Modulus (GPa) = 85.54516 32.92131 59.23323
#
# Velocity S-wave (km/s) = 5.54599 3.44049 4.61492
# Velocity P-wave (km/s) = 8.39725 6.78414 7.63343
#
# Compressibility (1/GPa) = 0.01218695
#
# Stress axis : x y z
#
# Youngs Moduli (GPa) = 149.56249 146.82497 176.83203
#
# Poissons Ratio (x) = 0.16760 0.29666
# Poissons Ratio (y) = 0.17073 0.11731
# Poissons Ratio (z) = 0.25091 0.09741
#
# Static dielectric constant tensor:
#      x y z
#    x 2.261790 -0.000030 0.232630 
#    y -0.000030 2.035150 0.000200 
#    z 0.232630 0.000200 2.813580 
# 
# From -- ./inp_files/272037.got.cif
#   From: 2010.05.17/outbox.cif.g08.bks.cpg/sg12_137_cif.got.tgz:272037.got - 2010.06.03 13:09:07.
