data_PCOD9212818
_publ_section_title
;
Structure prediction by ZEFSAII (Michael W. Deem and Ramdas Pophale) SiO2 
 PCOD9212818
Probable space group: C 2/M
;
_chemical_formula_sum "Si O2"
_cell_formula_units_Z 58
_cell_length_a 14.999835
_cell_length_b 21.763274
_cell_length_c 17.431372
_cell_angle_alpha 90.000000
_cell_angle_beta 150.163722
_cell_angle_gamma 90.000000
_cell_volume 2831.103271
_symmetry_space_group_name_H-M "C 2/M"
_symmetry_group_IT_number 12
_symmetry_cell_setting 'monoclinic'
loop_
_space_group_symop_operation_xyz
x,y,z
-x,y,-z
-x,-y,-z
x,-y,z
1/2+x,1/2+y,z
1/2-x,1/2+y,-z
1/2-x,1/2-y,-z
1/2+x,1/2-y,z
loop_
_atom_site_type_symbol
_atom_site_label
_atom_site_fract_x
_atom_site_fract_y
_atom_site_fract_z
Si Si1 0.764981 0.167845 0.907050
Si Si2 0.785661 0.429897 0.840214
Si Si3 0.141821 0.072509 0.898545
Si Si4 0.867618 0.306239 0.621596
Si Si5 0.706215 0.677671 0.668545
Si Si6 0.000000 0.500000 0.500000
Si Si7 0.831780 0.196082 0.792323
Si Si8 0.777062 0.391533 0.416781
O O1 0.581595 0.205091 0.780373
O O2 0.788359 0.154216 0.833803
O O3 0.764681 0.109304 0.962690
O O4 0.957014 0.198400 0.068834
O O5 0.721183 0.500000 0.781355
O O6 0.718083 0.407957 0.872875
O O7 0.725012 0.385149 0.728081
O O8 0.000000 0.430386 0.000000
O O9 0.929231 0.085666 0.739515
O O10 0.172765 0.000000 0.930576
O O11 0.750000 0.250000 0.500000
O O12 0.807515 0.320389 0.663091
O O13 0.832425 0.364849 0.540428
O O14 0.500000 0.689814 0.500000
O O15 0.777138 0.734962 0.770630
O O16 0.900250 0.445644 0.477121
O O17 0.724882 0.167269 0.641933
#
# Coordination Sequence:
#
# PCOD9212818 Si02
#       8
#     8   8   8   8   8   2   8   8
#     4  10  23  41  65  99 131 176 221 284 332 401
#     4  10  23  44  69  95 127 172 221 278 340 411
#     4  10  21  45  67  94 134 176 229 279 335 407
#     4  12  24  44  67 100 137 176 227 286 339 405
#     4  12  25  42  66  99 132 179 215 282 350 397
#     4  12  24  40  72  98 132 192 220 282 334 416
#     4  10  23  44  63  97 140 173 225 278 339 412
#     4  11  23  44  66  98 134 182 231 272 344 409
#
# _framework density 20.486712000000001
#
# number of rings (size 3 to 8) (size 9 to 14) (size 15 to 20)
#    0.000    1.241    2.069    3.310    2.897    0.828 
#    6.207    1.379    0.000    0.000    0.000    0.000 
#    0.000    0.000    0.000    0.000    0.000    0.000 
#
# Total GULP energy -161770.438348 kJ/mol
# GULP energy per Si atom -5578.290978 kJ/mol
# Density = 2.044008 g / cm^3
# Si number density = 20.486712 Si / 1000 Ang^3
#
#
#
# Elastic Constant Matrix: (Units=GPa)
#
#
# Indices 1 2 3 4 5 6 
#
# 1 151.2266 47.1327 39.4789 -0.0003 -0.4981 0.0006
# 2 47.1327 86.5074 35.5841 -0.0014 -5.8000 0.0023
# 3 39.4789 35.5841 69.5266 -0.0133 10.0664 0.0341
# 4 -0.0003 -0.0014 -0.0133 -21.6973 -0.0034 34.2357
# 5 -0.4981 -5.8000 10.0664 -0.0034 40.0968 0.0099
# 6 0.0006 0.0023 0.0341 34.2357 0.0099 -34.2302
#
#
#
# Elastic Compliance Matrix: (Units=1/GPa)
#
#
# Indices 1 2 3 4 5 6 
#
# 1 0.008468 -0.003269 -0.003198 0.000005 0.000435 0.000002
# 2 -0.003269 0.016601 -0.007246 0.000009 0.004180 0.000004
# 3 -0.003198 -0.007246 0.020822 -0.000031 -0.006315 -0.000012
# 4 0.000005 0.000009 -0.000031 0.079720 -0.000004 0.079733
# 5 0.000435 0.004180 -0.006315 -0.000004 0.027135 -0.000002
# 6 0.000002 0.000004 -0.000012 0.079733 -0.000002 0.050532
#
#
# Mechanical properties :
#
#
# Convention : Reuss Voigt Hill
#
# Bulk Modulus (GPa) = 54.15549 61.29465 57.72507
# Shear Modulus (GPa) = 21.10966 9.17151 15.14059
#
# Velocity S-wave (km/s) = 3.21348 2.11814 2.72149
# Velocity P-wave (km/s) = 6.34511 5.99718 6.17360
#
# Compressibility (1/GPa) = 0.01846535
#
# Stress axis : x y z
#
# Youngs Moduli (GPa) = 118.09530 60.23583 48.02667
#
# Poissons Ratio (x) = 0.19690 0.15360
# Poissons Ratio (y) = 0.38603 0.34799
# Poissons Ratio (z) = 0.37769 0.43645
#
# Static dielectric constant tensor:
#      x y z
#    x 1.743600 0.000000 -0.004560 
#    y 0.000000 1.720720 0.000000 
#    z -0.004560 0.000000 1.737120 
# 
# From -- ./inp_files/272723.got.cif
#   From: 2010.05.17/outbox.cif.g08.bks.cpg/sg12_137_cif.got.tgz:272723.got - 2010.06.03 13:09:07.
