data_PCOD9212827
_publ_section_title
;
Structure prediction by ZEFSAII (Michael W. Deem and Ramdas Pophale) SiO2 
 PCOD9212827
Probable space group: C 2/M
;
_chemical_formula_sum "Si O2"
_cell_formula_units_Z 30
_cell_length_a 5.504071
_cell_length_b 22.418109
_cell_length_c 11.688959
_cell_angle_alpha 90.000000
_cell_angle_beta 55.833502
_cell_angle_gamma 90.000000
_cell_volume 1193.381028
_symmetry_space_group_name_H-M "C 2/M"
_symmetry_group_IT_number 12
_symmetry_cell_setting 'monoclinic'
loop_
_space_group_symop_operation_xyz
x,y,z
-x,y,-z
-x,-y,-z
x,-y,z
1/2+x,1/2+y,z
1/2-x,1/2+y,-z
1/2-x,1/2-y,-z
1/2+x,1/2-y,z
loop_
_atom_site_type_symbol
_atom_site_label
_atom_site_fract_x
_atom_site_fract_y
_atom_site_fract_z
Si Si1 0.826376 0.215131 0.769971
Si Si2 0.097547 0.114768 0.088268
Si Si3 0.500000 0.660151 0.500000
Si Si4 0.006879 0.432605 0.361233
Si Si5 0.500000 0.500000 0.000000
O O1 0.039301 0.253216 0.795702
O O2 0.742870 0.155961 0.862734
O O3 0.030180 0.198390 0.606586
O O4 0.814698 0.090664 0.233791
O O5 0.205443 0.053487 0.002689
O O6 0.000000 0.150847 0.000000
O O7 0.234451 0.616273 0.601960
O O8 0.956305 0.500000 0.329107
O O9 0.000000 0.436571 0.500000
#
# Coordination Sequence:
#
# PCOD9212827 Si02
#       5
#     8   8   4   8   2
#     4  12  27  47  75 107 152 200 257 308 367 447
#     4  10  21  45  76 107 148 192 241 303 380 439
#     4  12  25  42  70 108 148 199 246 310 380 430
#     4  11  21  40  70 107 146 185 240 307 369 447
#     4   8  20  44  78 106 152 188 240 302 384 462
#
# _framework density 25.138660999999999
#
# number of rings (size 3 to 8) (size 9 to 14) (size 15 to 20)
#    0.800    0.267    4.000    2.800    0.000    1.067 
#    2.400    4.000    0.000    8.000    0.000    0.000 
#    0.000    0.000    0.000    0.000    0.000    0.000 
#
# Total GULP energy -83602.030454 kJ/mol
# GULP energy per Si atom -5573.468697 kJ/mol
# Density = 2.508144 g / cm^3
# Si number density = 25.138661 Si / 1000 Ang^3
#
#
#
# Elastic Constant Matrix: (Units=GPa)
#
#
# Indices 1 2 3 4 5 6 
#
# 1 90.0465 68.8136 18.6532 0.0000 29.2070 0.0000
# 2 68.8136 147.8981 44.1498 0.0000 28.4758 0.0000
# 3 18.6532 44.1498 140.0120 0.0000 21.5583 0.0000
# 4 0.0000 0.0000 0.0000 3.8408 0.0000 -23.5169
# 5 29.2070 28.4758 21.5583 0.0000 45.4538 0.0000
# 6 0.0000 0.0000 0.0000 -23.5169 0.0000 3.7680
#
#
#
# Elastic Compliance Matrix: (Units=1/GPa)
#
#
# Indices 1 2 3 4 5 6 
#
# 1 0.019513 -0.007846 0.001131 0.000000 -0.008160 0.000000
# 2 -0.007846 0.011296 -0.002377 0.000000 -0.000908 0.000000
# 3 0.001131 -0.002377 0.008224 0.000000 -0.003138 0.000000
# 4 0.000000 0.000000 0.000000 -0.006996 0.000000 -0.043665
# 5 -0.008160 -0.000908 -0.003138 0.000000 0.029301 0.000000
# 6 0.000000 0.000000 0.000000 -0.043665 0.000000 -0.007132
#
#
# Mechanical properties :
#
#
# Convention : Reuss Voigt Hill
#
# Bulk Modulus (GPa) = 47.96125 71.24330 59.60227
# Shear Modulus (GPa) = 63.01914 27.03520 45.02717
#
# Velocity S-wave (km/s) = 5.01229 3.28295 4.23679
# Velocity P-wave (km/s) = 7.25379 6.54003 6.90614
#
# Compressibility (1/GPa) = 0.02085017
#
# Stress axis : x y z
#
# Youngs Moduli (GPa) = 51.24669 88.52534 121.59051
#
# Poissons Ratio (x) = 0.69454 -0.13748
# Poissons Ratio (y) = 0.40206 0.28901
# Poissons Ratio (z) = -0.05794 0.21042
#
# Static dielectric constant tensor:
#      x y z
#    x 2.124160 0.000000 0.027350 
#    y 0.000000 2.011220 0.000000 
#    z 0.027350 0.000000 2.025970 
# 
# From -- ./inp_files/114779.got.cif
#   From: 2010.05.17/outbox.cif.g08.bks.cpg/sg12_58_cif.got.tgz:114779.got - 2010.06.03 13:09:07.
