data_PCOD9212381
_publ_section_title
;
Structure prediction by ZEFSAII (Michael W. Deem and Ramdas Pophale) SiO2 
 PCOD9212381
Probable space group: C 2/M
;
_chemical_formula_sum "Si O2"
_cell_formula_units_Z 64
_cell_length_a 24.364527
_cell_length_b 15.291774
_cell_length_c 11.462334
_cell_angle_alpha 90.000000
_cell_angle_beta 140.746879
_cell_angle_gamma 90.000000
_cell_volume 2702.211635
_symmetry_space_group_name_H-M "C 2/M"
_symmetry_group_IT_number 12
_symmetry_cell_setting 'monoclinic'
loop_
_space_group_symop_operation_xyz
x,y,z
-x,y,-z
-x,-y,-z
x,-y,z
1/2+x,1/2+y,z
1/2-x,1/2+y,-z
1/2-x,1/2-y,-z
1/2+x,1/2-y,z
loop_
_atom_site_type_symbol
_atom_site_label
_atom_site_fract_x
_atom_site_fract_y
_atom_site_fract_z
Si Si1 0.833554 0.401428 0.800115
Si Si2 0.048712 0.098860 0.232990
Si Si3 0.160228 0.200773 0.873555
Si Si4 0.153008 0.900720 0.639021
Si Si5 0.963378 0.279237 0.140751
Si Si6 0.948019 0.602441 0.531750
Si Si7 0.747602 0.597223 0.202829
Si Si8 0.729581 0.346196 0.421846
O O1 0.860126 0.500000 0.874257
O O2 0.746425 0.380821 0.732901
O O3 0.801855 0.399400 0.613749
O O4 0.909452 0.335451 0.958791
O O5 0.082341 0.099934 0.421371
O O6 0.136152 0.115398 0.302987
O O7 0.991956 0.186713 0.132114
O O8 0.013992 0.000000 0.153122
O O9 0.127817 0.167147 0.696651
O O10 0.098665 0.257755 0.851989
O O11 0.250000 0.250000 0.000000
O O12 0.184996 0.118021 0.994239
O O13 0.159196 0.000000 0.695340
O O14 0.035645 0.337940 0.326685
O O15 0.969454 0.500000 0.593359
O O16 0.847275 0.606186 0.331138
O O17 0.000000 0.627550 0.500000
O O18 0.733285 0.500000 0.224602
O O19 0.734102 0.657941 0.291049
O O20 0.750000 0.250000 0.500000
#
# Coordination Sequence:
#
# PCOD9212381 Si02
#       8
#     8   8   8   8   8   8   8   8
#     4  10  21  41  68  98 129 172 224 280 337 395
#     4  10  24  44  67  97 136 183 227 275 341 405
#     4  12  24  38  61  96 134 166 221 276 333 389
#     4   9  20  40  64  89 126 174 224 275 329 398
#     4  12  24  38  66  95 133 174 222 275 341 407
#     4  10  23  41  62  94 133 172 213 272 347 407
#     4  11  24  43  68  94 126 172 221 269 322 393
#     4  11  22  43  74  99 129 170 232 279 330 396
#
# _framework density 23.684303
#
# number of rings (size 3 to 8) (size 9 to 14) (size 15 to 20)
#    0.000    1.375    1.250    4.875    5.250    1.000 
#    0.000    6.875    0.000    8.250    0.000    0.000 
#    0.000    0.000    0.000    0.000    0.000    0.000 
#
# Total GULP energy -179073.461073 kJ/mol
# GULP energy per Si atom -5596.045659 kJ/mol
# Density = 2.363040 g / cm^3
# Si number density = 23.684303 Si / 1000 Ang^3
#
#
#
# Elastic Constant Matrix: (Units=GPa)
#
#
# Indices 1 2 3 4 5 6 
#
# 1 60.6800 12.4509 7.0149 0.0000 -13.8764 0.0000
# 2 12.4509 134.5837 32.3705 0.0000 4.3748 0.0000
# 3 7.0149 32.3705 84.0620 0.0000 -11.5174 0.0000
# 4 0.0000 0.0000 0.0000 40.0001 0.0000 1.4822
# 5 -13.8764 4.3748 -11.5174 0.0000 27.7585 0.0000
# 6 0.0000 0.0000 0.0000 1.4822 0.0000 30.1154
#
#
#
# Elastic Compliance Matrix: (Units=1/GPa)
#
#
# Indices 1 2 3 4 5 6 
#
# 1 0.019210 -0.002273 0.000675 0.000000 0.010241 0.000000
# 2 -0.002273 0.008661 -0.003699 0.000000 -0.004036 0.000000
# 3 0.000675 -0.003699 0.014197 0.000000 0.006811 0.000000
# 4 0.000000 0.000000 0.000000 0.025046 0.000000 -0.001233
# 5 0.010241 -0.004036 0.006811 0.000000 0.044607 0.000000
# 6 0.000000 0.000000 0.000000 -0.001233 0.000000 0.033266
#
#
# Mechanical properties :
#
#
# Convention : Reuss Voigt Hill
#
# Bulk Modulus (GPa) = 31.76946 42.55538 37.16242
# Shear Modulus (GPa) = 30.10755 34.74074 32.42415
#
# Velocity S-wave (km/s) = 3.56926 3.83407 3.70403
# Velocity P-wave (km/s) = 5.51625 6.13245 5.83249
#
# Compressibility (1/GPa) = 0.03147677
#
# Stress axis : x y z
#
# Youngs Moduli (GPa) = 52.05577 115.45547 70.43703
#
# Poissons Ratio (x) = 0.26238 -0.04756
# Poissons Ratio (y) = 0.11830 0.26052
# Poissons Ratio (z) = -0.03515 0.42702
#
# Static dielectric constant tensor:
#      x y z
#    x 1.880700 0.000000 0.001770 
#    y 0.000000 1.949050 0.000000 
#    z 0.001770 0.000000 1.895440 
# 
# From -- ./inp_files/183815.got.cif
#   From: 2010.05.17/outbox.cif.g08.bks.cpg/sg12_92_cif.got.tgz:183815.got - 2010.06.03 13:09:07.
