data_PCOD9212703
_publ_section_title
;
Structure prediction by ZEFSAII (Michael W. Deem and Ramdas Pophale) SiO2 
 PCOD9212703
Probable space group: C 2/M
;
_chemical_formula_sum "Si O2"
_cell_formula_units_Z 50
_cell_length_a 25.862579
_cell_length_b 17.398452
_cell_length_c 5.208135
_cell_angle_alpha 90.000000
_cell_angle_beta 68.415364
_cell_angle_gamma 90.000000
_cell_volume 2179.161020
_symmetry_space_group_name_H-M "C 2/M"
_symmetry_group_IT_number 12
_symmetry_cell_setting 'monoclinic'
loop_
_space_group_symop_operation_xyz
x,y,z
-x,y,-z
-x,-y,-z
x,-y,z
1/2+x,1/2+y,z
1/2-x,1/2+y,-z
1/2-x,1/2-y,-z
1/2+x,1/2-y,z
loop_
_atom_site_type_symbol
_atom_site_label
_atom_site_fract_x
_atom_site_fract_y
_atom_site_fract_z
Si Si1 0.933876 0.872963 0.388589
Si Si2 0.177288 0.085132 0.676831
Si Si3 0.784385 0.587642 0.197901
Si Si4 0.000000 0.000000 0.500000
Si Si5 0.939350 0.706617 0.160651
Si Si6 0.334534 0.161708 0.603803
Si Si7 0.860592 0.205612 0.905473
O O1 0.886015 0.906408 0.295282
O O2 0.951674 0.788004 0.276007
O O3 0.901485 0.858498 0.715226
O O4 0.981829 0.932629 0.332317
O O5 0.217994 0.089180 0.357706
O O6 0.186952 0.000000 0.776790
O O7 0.183987 0.159589 0.844253
O O8 0.802288 0.500000 0.221070
O O9 0.805144 0.642225 0.390259
O O10 0.808639 0.611301 0.879281
O O11 0.900056 0.654883 0.413094
O O12 0.899337 0.734779 0.997504
O O13 0.000000 0.672094 0.000000
O O14 0.332604 0.247882 0.723121
#
# Coordination Sequence:
#
# PCOD9212703 Si02
#       7
#     8   8   8   2   8   8   8
#     4  10  22  37  58  97 133 186 240 283 332 393
#     4  10  23  41  61  94 144 188 233 289 343 404
#     4  11  25  45  72 102 137 179 222 287 363 427
#     4  12  20  36  62  92 144 194 238 294 322 390
#     4  10  21  43  67  95 135 177 231 283 347 410
#     4  11  23  45  71 105 131 179 229 288 349 422
#     4  10  22  41  63  99 136 178 239 284 332 420
#
# _framework density 22.944610999999998
#
# number of rings (size 3 to 8) (size 9 to 14) (size 15 to 20)
#    0.000    1.600    2.400    1.440    3.360    3.200 
#    0.000    2.000    0.000    2.880    0.000    0.000 
#    0.000    0.000    0.000    0.000    0.000    0.000 
#
# Total GULP energy -139332.617795 kJ/mol
# GULP energy per Si atom -5573.304712 kJ/mol
# Density = 2.289239 g / cm^3
# Si number density = 22.944611 Si / 1000 Ang^3
#
#
#
# Elastic Constant Matrix: (Units=GPa)
#
#
# Indices 1 2 3 4 5 6 
#
# 1 62.2314 21.3938 20.7936 0.0000 0.9869 0.0000
# 2 21.3938 36.2847 3.3076 0.0000 0.0119 0.0000
# 3 20.7936 3.3076 104.9110 0.0000 -3.1453 0.0000
# 4 0.0000 0.0000 0.0000 145.0002 0.0000 -120.5142
# 5 0.9869 0.0119 -3.1453 0.0000 36.9039 0.0000
# 6 0.0000 0.0000 0.0000 -120.5142 0.0000 149.8455
#
#
#
# Elastic Compliance Matrix: (Units=1/GPa)
#
#
# Indices 1 2 3 4 5 6 
#
# 1 0.021665 -0.012415 -0.003930 0.000000 -0.000910 0.000000
# 2 -0.012415 0.034754 0.001378 0.000000 0.000438 0.000000
# 3 -0.003930 0.001378 0.010297 0.000000 0.000982 0.000000
# 4 0.000000 0.000000 0.000000 0.020800 0.000000 0.016729
# 5 -0.000910 0.000438 0.000982 0.000000 0.027205 0.000000
# 6 0.000000 0.000000 0.000000 0.016729 0.000000 0.020128
#
#
# Mechanical properties :
#
#
# Convention : Reuss Voigt Hill
#
# Bulk Modulus (GPa) = 27.18734 32.71303 29.95018
# Shear Modulus (GPa) = 28.24164 76.87874 52.56019
#
# Velocity S-wave (km/s) = 3.51217 5.79474 4.79136
# Velocity P-wave (km/s) = 5.32184 7.68507 6.60993
#
# Compressibility (1/GPa) = 0.03678183
#
# Stress axis : x y z
#
# Youngs Moduli (GPa) = 46.15813 28.77354 97.11763
#
# Poissons Ratio (x) = 0.35723 0.38166
# Poissons Ratio (y) = 0.57306 -0.13384
# Poissons Ratio (z) = 0.18140 -0.03965
#
# Static dielectric constant tensor:
#      x y z
#    x 1.913240 0.000000 0.014930 
#    y 0.000000 1.846530 0.000000 
#    z 0.014930 0.000000 1.973990 
# 
# From -- ./inp_files/28605.got.cif
#   From: 2010.05.17/outbox.cif.g08.bks.cpg/sg12_15_cif.got.tgz:28605.got - 2010.06.03 13:09:07.
