data_PCOD9212540
_publ_section_title
;
Structure prediction by ZEFSAII (Michael W. Deem and Ramdas Pophale) SiO2 
 PCOD9212540
Probable space group: C 2/M
;
_chemical_formula_sum "Si O2"
_cell_formula_units_Z 32
_cell_length_a 9.573385
_cell_length_b 22.485258
_cell_length_c 12.036578
_cell_angle_alpha 90.000000
_cell_angle_beta 141.772039
_cell_angle_gamma 90.000000
_cell_volume 1603.286016
_symmetry_space_group_name_H-M "C 2/M"
_symmetry_group_IT_number 12
_symmetry_cell_setting 'monoclinic'
loop_
_space_group_symop_operation_xyz
x,y,z
-x,y,-z
-x,-y,-z
x,-y,z
1/2+x,1/2+y,z
1/2-x,1/2+y,-z
1/2-x,1/2-y,-z
1/2+x,1/2-y,z
loop_
_atom_site_type_symbol
_atom_site_label
_atom_site_fract_x
_atom_site_fract_y
_atom_site_fract_z
Si Si1 0.863473 0.000000 0.799919
Si Si2 0.636705 0.000000 0.968319
Si Si3 0.899129 0.199105 0.043376
Si Si4 0.205317 0.309408 0.543512
Si Si5 0.408332 0.903906 0.247678
O O1 0.699934 0.942749 0.718177
O O2 0.000000 0.000000 0.000000
O O3 0.080582 0.000000 0.850700
O O4 0.562931 0.945358 0.842325
O O5 0.500000 0.000000 0.000000
O O6 0.077089 0.178120 0.245618
O O7 0.750000 0.250000 0.000000
O O8 0.767585 0.144794 0.905985
O O9 0.000000 0.231381 0.000000
O O10 0.250000 0.250000 0.500000
O O11 0.000000 0.297178 0.500000
O O12 0.124473 0.366194 0.421709
#
# Coordination Sequence:
#
# PCOD9212540 Si02
#       5
#     4   4   8   8   8
#     4   8  18  38  66  91 126 173 225 263 329 394
#     4  10  22  42  68 101 131 176 229 284 341 397
#     4  12  22  39  64  93 131 176 218 269 333 395
#     4  12  24  41  64 100 136 173 223 273 330 401
#     4  10  21  42  66  93 131 174 224 271 326 402
#
# _framework density 19.959008999999998
#
# number of rings (size 3 to 8) (size 9 to 14) (size 15 to 20)
#    0.000    1.500    5.000    2.250    0.000    1.000 
#    4.500    7.500    0.000    1.500    0.000    0.000 
#    0.000    0.000    0.000    0.000    0.000    0.000 
#
# Total GULP energy -89146.923099 kJ/mol
# GULP energy per Si atom -5571.682694 kJ/mol
# Density = 1.991358 g / cm^3
# Si number density = 19.959009 Si / 1000 Ang^3
#
#
#
# Elastic Constant Matrix: (Units=GPa)
#
#
# Indices 1 2 3 4 5 6 
#
# 1 160.8515 69.9210 26.5260 0.0000 -7.7724 0.0000
# 2 69.9210 130.9594 56.1716 0.0000 3.3479 0.0000
# 3 26.5260 56.1716 158.3047 0.0000 0.5198 0.0000
# 4 0.0000 0.0000 0.0000 379.9638 0.0000 152.0495
# 5 -7.7724 3.3479 0.5198 0.0000 21.5802 0.0000
# 6 0.0000 0.0000 0.0000 152.0495 0.0000 92.7917
#
#
#
# Elastic Compliance Matrix: (Units=1/GPa)
#
#
# Indices 1 2 3 4 5 6 
#
# 1 0.008392 -0.004680 0.000242 0.000000 0.003743 0.000000
# 2 -0.004680 0.011655 -0.003340 0.000000 -0.003413 0.000000
# 3 0.000242 -0.003340 0.007460 0.000000 0.000426 0.000000
# 4 0.000000 0.000000 0.000000 0.007644 0.000000 -0.012526
# 5 0.003743 -0.003413 0.000426 0.000000 0.048206 0.000000
# 6 0.000000 0.000000 0.000000 -0.012526 0.000000 0.031303
#
#
# Mechanical properties :
#
#
# Convention : Reuss Voigt Hill
#
# Bulk Modulus (GPa) = 83.67610 83.92808 83.80209
# Shear Modulus (GPa) = 37.25775 118.70026 77.97901
#
# Velocity S-wave (km/s) = 4.32524 7.72018 6.25735
# Velocity P-wave (km/s) = 8.18282 11.02768 9.71000
#
# Compressibility (1/GPa) = 0.01195084
#
# Stress axis : x y z
#
# Youngs Moduli (GPa) = 119.15620 85.80208 134.04659
#
# Poissons Ratio (x) = 0.40158 -0.03247
# Poissons Ratio (y) = 0.55769 0.44772
# Poissons Ratio (z) = -0.02886 0.28658
#
# Static dielectric constant tensor:
#      x y z
#    x 1.719650 0.000000 0.044810 
#    y 0.000000 1.810350 0.000000 
#    z 0.044810 0.000000 1.741880 
# 
# From -- ./inp_files/122283.got.cif
#   From: 2010.05.17/outbox.cif.g08.bks.cpg/sg12_62_cif.got.tgz:122283.got - 2010.06.03 13:09:07.
