data_PCOD9212189
_publ_section_title
;
Structure prediction by ZEFSAII (Michael W. Deem and Ramdas Pophale) SiO2 
 PCOD9212189
Probable space group: C 2/M
;
_chemical_formula_sum "Si O2"
_cell_formula_units_Z 64
_cell_length_a 19.025108
_cell_length_b 8.605061
_cell_length_c 30.150072
_cell_angle_alpha 90.000000
_cell_angle_beta 39.234440
_cell_angle_gamma 90.000000
_cell_volume 3121.954254
_symmetry_space_group_name_H-M "C 2/M"
_symmetry_group_IT_number 12
_symmetry_cell_setting 'monoclinic'
loop_
_space_group_symop_operation_xyz
x,y,z
-x,y,-z
-x,-y,-z
x,-y,z
1/2+x,1/2+y,z
1/2-x,1/2+y,-z
1/2-x,1/2-y,-z
1/2+x,1/2-y,z
loop_
_atom_site_type_symbol
_atom_site_label
_atom_site_fract_x
_atom_site_fract_y
_atom_site_fract_z
Si Si1 0.542196 0.688020 0.300608
Si Si2 0.626756 0.685682 0.068745
Si Si3 0.597749 0.177638 0.845106
Si Si4 0.783395 0.186321 0.435647
Si Si5 0.853203 0.189225 0.843221
Si Si6 0.697620 0.816398 0.303184
Si Si7 0.370987 0.686326 0.567895
Si Si8 0.620134 0.819416 0.935939
O O1 0.551533 0.500000 0.298167
O O2 0.412500 0.729272 0.365619
O O3 0.589525 0.741692 0.229872
O O4 0.612163 0.754346 0.307516
O O5 0.628276 0.500000 0.062839
O O6 0.527716 0.760783 0.089351
O O7 0.592843 0.725284 0.136231
O O8 0.750000 0.750000 0.000000
O O9 0.678671 0.275443 0.774417
O O10 0.647287 0.178424 0.870515
O O11 0.595911 0.000000 0.830496
O O12 0.750000 0.250000 0.500000
O O13 0.704462 0.249378 0.435216
O O14 0.775738 0.000000 0.439395
O O15 0.726811 0.250533 0.907154
O O16 0.847399 0.000000 0.843465
O O17 0.673154 0.740640 0.362696
O O18 0.685412 0.000000 0.313133
O O19 0.500000 0.736628 0.500000
O O20 0.368348 0.500000 0.567171
O O21 0.609985 0.000000 0.956461
O O22 0.500000 0.744475 0.000000
#
# Coordination Sequence:
#
# PCOD9212189 Si02
#       8
#     8   8   8   8   8   8   8   8
#     4  10  21  41  65  90 122 166 212 256 310 374
#     4  11  23  39  61  88 123 164 210 265 323 387
#     4  11  22  39  63  89 123 165 210 263 320 379
#     4  11  24  41  67  99 133 170 211 258 313 375
#     4   9  18  35  59  85 116 158 207 254 303 367
#     4  12  25  41  64  95 131 168 210 261 317 381
#     4  11  25  45  69  97 130 169 215 265 316 373
#     4   9  16  30  58  88 110 147 205 254 299 362
#
# _framework density 20.499980000000001
#
# number of rings (size 3 to 8) (size 9 to 14) (size 15 to 20)
#    0.000    1.500    1.250    4.125    1.750    7.000 
#    0.000    1.250    0.000    1.500    0.000    0.000 
#    0.000    0.000    0.000    0.000    0.000    0.000 
#
# Total GULP energy -178792.527027 kJ/mol
# GULP energy per Si atom -5587.266470 kJ/mol
# Density = 2.045332 g / cm^3
# Si number density = 20.499980 Si / 1000 Ang^3
#
#
#
# Elastic Constant Matrix: (Units=GPa)
#
#
# Indices 1 2 3 4 5 6 
#
# 1 120.1789 26.2249 35.4368 0.0001 -1.1865 -0.0010
# 2 26.2249 42.4624 14.1419 0.0002 -4.5376 -0.0029
# 3 35.4368 14.1419 103.7531 0.0000 -3.3730 -0.0001
# 4 0.0001 0.0002 0.0000 25.9293 0.0001 -0.8668
# 5 -1.1865 -4.5376 -3.3730 0.0001 39.3857 0.0001
# 6 -0.0010 -0.0029 -0.0001 -0.8668 0.0001 30.2872
#
#
#
# Elastic Compliance Matrix: (Units=1/GPa)
#
#
# Indices 1 2 3 4 5 6 
#
# 1 0.010345 -0.005517 -0.002800 0.000000 -0.000564 0.000000
# 2 -0.005517 0.027873 -0.001821 0.000000 0.002889 0.000002
# 3 -0.002800 -0.001821 0.010863 0.000000 0.000636 0.000000
# 4 0.000000 0.000000 0.000000 0.038603 0.000000 0.001105
# 5 -0.000564 0.002889 0.000636 0.000000 0.025760 0.000000
# 6 0.000000 0.000002 0.000000 0.001105 0.000000 0.033049
#
#
# Mechanical properties :
#
#
# Convention : Reuss Voigt Hill
#
# Bulk Modulus (GPa) = 34.71494 46.44460 40.57977
# Shear Modulus (GPa) = 28.34952 31.82650 30.08801
#
# Velocity S-wave (km/s) = 3.72278 3.94447 3.83523
# Velocity P-wave (km/s) = 5.95396 6.59168 6.28092
#
# Compressibility (1/GPa) = 0.02880604
#
# Stress axis : x y z
#
# Youngs Moduli (GPa) = 96.66767 35.87749 92.05257
#
# Poissons Ratio (x) = 0.19793 0.25771
# Poissons Ratio (y) = 0.53329 0.16762
# Poissons Ratio (z) = 0.27063 0.06533
#
# Static dielectric constant tensor:
#      x y z
#    x 1.707230 0.000000 -0.004100 
#    y 0.000000 1.696830 0.000000 
#    z -0.004100 0.000000 1.737180 
# 
# From -- ./inp_files/378223.got.cif
#   From: 2010.05.17/outbox.cif.g08.bks.cpg/sg12_190_cif.got.tgz:378223.got - 2010.06.03 13:09:07.
