data_PCOD9212315
_publ_section_title
;
Structure prediction by ZEFSAII (Michael W. Deem and Ramdas Pophale) SiO2 
 PCOD9212315
Probable space group: C 2/M
;
_chemical_formula_sum "Si O2"
_cell_formula_units_Z 52
_cell_length_a 5.177778
_cell_length_b 27.303949
_cell_length_c 20.209347
_cell_angle_alpha 90.000000
_cell_angle_beta 52.530726
_cell_angle_gamma 90.000000
_cell_volume 2267.599936
_symmetry_space_group_name_H-M "C 2/M"
_symmetry_group_IT_number 12
_symmetry_cell_setting 'monoclinic'
loop_
_space_group_symop_operation_xyz
x,y,z
-x,y,-z
-x,-y,-z
x,-y,z
1/2+x,1/2+y,z
1/2-x,1/2+y,-z
1/2-x,1/2-y,-z
1/2+x,1/2-y,z
loop_
_atom_site_type_symbol
_atom_site_label
_atom_site_fract_x
_atom_site_fract_y
_atom_site_fract_z
Si Si1 0.782688 0.860864 0.859451
Si Si2 0.763733 0.779603 0.758928
Si Si3 0.186037 0.327068 0.407696
Si Si4 0.314281 0.606245 0.594132
Si Si5 0.324882 0.944356 0.766291
Si Si6 0.500000 0.215647 0.000000
Si Si7 0.365517 0.051122 0.917742
O O1 0.714465 0.831128 0.802997
O O2 0.513335 0.899821 0.920951
O O3 0.086326 0.897092 0.800337
O O4 0.742683 0.818887 0.919945
O O5 0.429655 0.760186 0.781229
O O6 0.058520 0.789360 0.662353
O O7 0.408911 0.370334 0.402867
O O8 0.000000 0.305570 0.500000
O O9 0.930709 0.351027 0.395614
O O10 0.500000 0.586291 0.500000
O O11 0.112075 0.568917 0.670697
O O12 0.404322 0.946684 0.832239
O O13 0.208606 0.000000 0.767520
O O14 0.250000 0.250000 0.000000
O O15 0.520964 0.000000 0.916854
O O16 0.000000 0.049992 0.000000
#
# Coordination Sequence:
#
# PCOD9212315 Si02
#       7
#     8   8   8   8   8   4   8
#     4  12  25  44  72  93 143 180 223 294 344 403
#     4  12  26  41  65  98 131 177 231 280 343 412
#     4  10  21  41  67  93 132 179 229 286 348 408
#     4  10  21  41  68 100 139 186 230 284 352 416
#     4  11  24  41  70 106 138 186 238 285 350 422
#     4  12  30  50  73 106 137 184 240 282 344 424
#     4  10  23  43  71 105 138 178 231 284 351 422
#
# _framework density 22.931733999999999
#
# number of rings (size 3 to 8) (size 9 to 14) (size 15 to 20)
#    0.000    1.077    1.538    4.154    5.385    0.923 
#    0.000    3.077    0.000    2.769    0.000    0.000 
#    0.000    0.000    0.000    0.000    0.000    0.000 
#
# Total GULP energy -145257.088212 kJ/mol
# GULP energy per Si atom -5586.811085 kJ/mol
# Density = 2.287954 g / cm^3
# Si number density = 22.931734 Si / 1000 Ang^3
#
#
#
# Elastic Constant Matrix: (Units=GPa)
#
#
# Indices 1 2 3 4 5 6 
#
# 1 49.7349 23.5561 33.6838 0.0000 -8.7262 0.0000
# 2 23.5561 141.9647 62.6591 0.0000 -1.3390 0.0000
# 3 33.6838 62.6591 135.3612 0.0000 -8.9435 0.0000
# 4 0.0000 0.0000 0.0000 52.3783 0.0000 0.7957
# 5 -8.7262 -1.3390 -8.9435 0.0000 30.3377 0.0000
# 6 0.0000 0.0000 0.0000 0.7957 0.0000 28.0379
#
#
#
# Elastic Compliance Matrix: (Units=1/GPa)
#
#
# Indices 1 2 3 4 5 6 
#
# 1 0.025458 -0.001937 -0.005059 0.000000 0.005746 0.000000
# 2 -0.001937 0.009021 -0.003778 0.000000 -0.001273 0.000000
# 3 -0.005059 -0.003778 0.010492 0.000000 0.001471 0.000000
# 4 0.000000 0.000000 0.000000 0.019100 0.000000 -0.000542
# 5 0.005746 -0.001273 0.001471 0.000000 0.034993 0.000000
# 6 0.000000 0.000000 0.000000 -0.000542 0.000000 0.035681
#
#
# Mechanical properties :
#
#
# Convention : Reuss Voigt Hill
#
# Bulk Modulus (GPa) = 42.69117 62.98432 52.83775
# Shear Modulus (GPa) = 30.46894 35.96157 33.21525
#
# Velocity S-wave (km/s) = 3.64906 3.96435 3.80997
# Velocity P-wave (km/s) = 6.03417 6.96278 6.51504
#
# Compressibility (1/GPa) = 0.02342405
#
# Stress axis : x y z
#
# Youngs Moduli (GPa) = 39.27966 110.85407 95.30660
#
# Poissons Ratio (x) = 0.21476 0.48213
# Poissons Ratio (y) = 0.07610 0.36005
# Poissons Ratio (z) = 0.19871 0.41878
#
# Static dielectric constant tensor:
#      x y z
#    x 1.891230 0.000000 0.000980 
#    y 0.000000 1.820690 0.000000 
#    z 0.000980 0.000000 1.962420 
# 
# From -- ./inp_files/298345.got.cif
#   From: 2010.05.17/outbox.cif.g08.bks.cpg/sg12_150_cif.got.tgz:298345.got - 2010.06.03 13:09:07.
