data_PCOD9212334
_publ_section_title
;
Structure prediction by ZEFSAII (Michael W. Deem and Ramdas Pophale) SiO2 
 PCOD9212334
Probable space group: C 2/M
;
_chemical_formula_sum "Si O2"
_cell_formula_units_Z 58
_cell_length_a 8.026586
_cell_length_b 20.842733
_cell_length_c 16.951212
_cell_angle_alpha 90.000000
_cell_angle_beta 62.946555
_cell_angle_gamma 90.000000
_cell_volume 2525.576442
_symmetry_space_group_name_H-M "C 2/M"
_symmetry_group_IT_number 12
_symmetry_cell_setting 'monoclinic'
loop_
_space_group_symop_operation_xyz
x,y,z
-x,y,-z
-x,-y,-z
x,-y,z
1/2+x,1/2+y,z
1/2-x,1/2+y,-z
1/2-x,1/2-y,-z
1/2+x,1/2-y,z
loop_
_atom_site_type_symbol
_atom_site_label
_atom_site_fract_x
_atom_site_fract_y
_atom_site_fract_z
Si Si1 0.079948 0.574246 0.207706
Si Si2 0.341153 0.597174 0.474653
Si Si3 0.112463 0.804436 0.143703
Si Si4 0.501654 0.825794 0.094658
Si Si5 0.985014 0.068329 0.909453
Si Si6 0.148810 0.815589 0.662342
Si Si7 0.000000 0.500000 0.500000
Si Si8 0.443995 0.173370 0.371219
O O1 0.012162 0.500000 0.225491
O O2 0.304330 0.570930 0.169713
O O3 0.052248 0.609576 0.129552
O O4 0.987005 0.620380 0.293502
O O5 0.500000 0.570528 0.500000
O O6 0.429712 0.628167 0.376725
O O7 0.162526 0.554028 0.488384
O O8 0.243255 0.654302 0.543709
O O9 0.116282 0.735650 0.100992
O O10 0.122085 0.866509 0.086026
O O11 0.926629 0.817325 0.232790
O O12 0.288228 0.808761 0.163451
O O13 0.500000 0.827566 0.000000
O O14 0.899080 0.000000 0.900809
O O15 0.000000 0.065818 0.000000
O O16 0.370556 0.824953 0.615649
O O17 0.084692 0.745371 0.651228
#
# Coordination Sequence:
#
# PCOD9212334 Si02
#       8
#     8   8   8   8   8   8   2   8
#     4  11  25  43  67 100 141 193 239 303 373 441
#     4  12  28  49  79 115 152 200 247 305 369 446
#     4  12  23  41  67 100 138 182 240 303 364 437
#     4  12  25  42  67 101 141 187 245 309 372 440
#     4  10  21  41  67  96 134 185 238 290 363 437
#     4  12  24  45  73 106 147 187 249 312 376 445
#     4  12  26  56  76 118 156 200 242 300 372 446
#     4  12  24  46  74 106 148 188 250 309 378 445
#
# _framework density 22.965053999999999
#
# number of rings (size 3 to 8) (size 9 to 14) (size 15 to 20)
#    0.000    0.414    4.138    4.759    2.897    0.828 
#    1.241    0.000    0.000    0.000    0.000    0.000 
#    0.000    0.000    0.000    0.000    0.000    0.000 
#
# Total GULP energy -161735.324995 kJ/mol
# GULP energy per Si atom -5577.080172 kJ/mol
# Density = 2.291278 g / cm^3
# Si number density = 22.965054 Si / 1000 Ang^3
#
#
#
# Elastic Constant Matrix: (Units=GPa)
#
#
# Indices 1 2 3 4 5 6 
#
# 1 103.1217 53.0466 -7.4072 0.0000 5.7320 0.0000
# 2 53.0466 171.2772 9.8388 0.0000 31.9126 0.0000
# 3 -7.4072 9.8388 50.2787 0.0000 9.5920 0.0000
# 4 0.0000 0.0000 0.0000 -5.6697 0.0000 -5.0985
# 5 5.7320 31.9126 9.5920 0.0000 30.5004 0.0000
# 6 0.0000 0.0000 0.0000 -5.0985 0.0000 9.0960
#
#
#
# Elastic Compliance Matrix: (Units=1/GPa)
#
#
# Indices 1 2 3 4 5 6 
#
# 1 0.011873 -0.004048 0.002297 0.000000 0.001282 0.000000
# 2 -0.004048 0.008633 -0.000753 0.000000 -0.008035 0.000000
# 3 0.002297 -0.000753 0.021603 0.000000 -0.006438 0.000000
# 4 0.000000 0.000000 0.000000 -0.117267 0.000000 -0.065732
# 5 0.001282 -0.008035 -0.006438 0.000000 0.042977 0.000000
# 6 0.000000 0.000000 0.000000 -0.065732 0.000000 0.073094
#
#
# Mechanical properties :
#
#
# Convention : Reuss Voigt Hill
#
# Bulk Modulus (GPa) = 26.95361 48.40377 37.67869
# Shear Modulus (GPa) = 85.78109 24.73198 55.25653
#
# Velocity S-wave (km/s) = 6.11833 3.28524 4.91054
# Velocity P-wave (km/s) = 7.85329 5.95930 6.97092
#
# Compressibility (1/GPa) = 0.03710079
#
# Stress axis : x y z
#
# Youngs Moduli (GPa) = 84.22200 115.84115 46.28982
#
# Poissons Ratio (x) = 0.46894 -0.10632
# Poissons Ratio (y) = 0.34094 0.03485
# Poissons Ratio (z) = -0.19344 0.08721
#
# Static dielectric constant tensor:
#      x y z
#    x 1.876120 0.000000 -0.021090 
#    y 0.000000 1.865480 0.000000 
#    z -0.021090 0.000000 1.930450 
# 
# From -- ./inp_files/258478.got.cif
#   From: 2010.05.17/outbox.cif.g08.bks.cpg/sg12_130_cif.got.tgz:258478.got - 2010.06.03 13:09:07.
