data_PCOD9212244
_publ_section_title
;
Structure prediction by ZEFSAII (Michael W. Deem and Ramdas Pophale) SiO2 
 PCOD9212244
Probable space group: C 2/M
;
_chemical_formula_sum "Si O2"
_cell_formula_units_Z 64
_cell_length_a 30.150139
_cell_length_b 8.855385
_cell_length_c 18.765738
_cell_angle_alpha 90.000000
_cell_angle_beta 40.281067
_cell_angle_gamma 90.000000
_cell_volume 3239.338151
_symmetry_space_group_name_H-M "C 2/M"
_symmetry_group_IT_number 12
_symmetry_cell_setting 'monoclinic'
loop_
_space_group_symop_operation_xyz
x,y,z
-x,y,-z
-x,-y,-z
x,-y,z
1/2+x,1/2+y,z
1/2-x,1/2+y,-z
1/2-x,1/2-y,-z
1/2+x,1/2-y,z
loop_
_atom_site_type_symbol
_atom_site_label
_atom_site_fract_x
_atom_site_fract_y
_atom_site_fract_z
Si Si1 0.187161 0.679497 0.121603
Si Si2 0.814840 0.819783 0.719704
Si Si3 0.837057 0.322211 0.148355
Si Si4 0.598747 0.315893 0.517967
Si Si5 0.958905 0.175678 0.921906
Si Si6 0.679639 0.679707 0.557878
Si Si7 0.046290 0.820323 0.240579
Si Si8 0.405623 0.822315 0.214628
O O1 0.192620 0.500000 0.111524
O O2 0.188518 0.735938 0.201384
O O3 0.114752 0.734384 0.178601
O O4 0.250000 0.750000 0.000000
O O5 0.742895 0.797316 0.767023
O O6 0.874689 0.769736 0.592248
O O7 0.822518 0.000000 0.723571
O O8 0.850859 0.500000 0.118140
O O9 0.861012 0.289725 0.199281
O O10 0.883785 0.224522 0.038849
O O11 0.599261 0.500000 0.518483
O O12 0.652051 0.267797 0.514576
O O13 0.521977 0.269586 0.633695
O O14 0.965783 0.198642 0.828879
O O15 0.015504 0.276559 0.891973
O O16 0.970981 0.000000 0.923098
O O17 0.687847 0.500000 0.544359
O O18 0.750000 0.750000 0.500000
O O19 0.622683 0.725110 0.685346
O O20 0.055936 0.000000 0.241953
O O21 0.399567 0.000000 0.237913
#
# Coordination Sequence:
#
# PCOD9212244 Si02
#       8
#     8   8   8   8   8   8   8   8
#     4  12  26  44  66  95 126 157 199 253 310 373
#     4  10  21  41  67  91 119 160 205 249 301 363
#     4  10  22  38  57  85 121 162 209 255 306 368
#     4   9  19  39  65  90 123 163 207 250 299 367
#     4  11  22  37  59  88 121 159 206 258 309 365
#     4  11  21  37  59  88 123 164 212 259 303 357
#     4  10  21  41  66  92 123 163 207 253 306 367
#     4  11  22  37  57  85 121 162 206 254 308 367
#
# _framework density 19.757121999999999
#
# number of rings (size 3 to 8) (size 9 to 14) (size 15 to 20)
#    0.000    1.500    1.250    4.125    0.000    8.500 
#    0.000    5.625    0.000    0.000    0.000    0.000 
#    0.000    0.000    0.000    0.000    0.000    0.000 
#
# Total GULP energy -178881.306429 kJ/mol
# GULP energy per Si atom -5590.040826 kJ/mol
# Density = 1.971215 g / cm^3
# Si number density = 19.757122 Si / 1000 Ang^3
#
#
#
# Elastic Constant Matrix: (Units=GPa)
#
#
# Indices 1 2 3 4 5 6 
#
# 1 99.6166 56.2806 47.4678 -0.0007 -6.4165 0.0000
# 2 56.2806 58.0794 34.4889 -0.0009 5.8221 0.0038
# 3 47.4678 34.4889 97.8281 -0.0068 7.7444 0.0029
# 4 -0.0007 -0.0009 -0.0068 31.7944 0.0037 -3.4130
# 5 -6.4165 5.8221 7.7444 0.0037 27.0542 -0.0007
# 6 0.0000 0.0038 0.0029 -3.4130 -0.0007 30.0632
#
#
#
# Elastic Compliance Matrix: (Units=1/GPa)
#
#
# Indices 1 2 3 4 5 6 
#
# 1 0.027589 -0.024668 -0.005759 -0.000003 0.013500 0.000004
# 2 -0.024668 0.044006 -0.002386 0.000001 -0.014638 -0.000006
# 3 -0.005759 -0.002386 0.014248 0.000003 -0.004931 -0.000001
# 4 -0.000003 0.000001 0.000003 0.031840 -0.000006 0.003615
# 5 0.013500 -0.014638 -0.004931 -0.000006 0.044726 0.000003
# 6 0.000004 -0.000006 -0.000001 0.003615 0.000003 0.033674
#
#
# Mechanical properties :
#
#
# Convention : Reuss Voigt Hill
#
# Bulk Modulus (GPa) = 49.46304 59.11097 54.28700
# Shear Modulus (GPa) = 18.62560 25.60148 22.11354
#
# Velocity S-wave (km/s) = 3.07372 3.60364 3.34918
# Velocity P-wave (km/s) = 6.13897 6.87741 6.51865
#
# Compressibility (1/GPa) = 0.02021712
#
# Stress axis : x y z
#
# Youngs Moduli (GPa) = 36.24639 22.72409 70.18646
#
# Poissons Ratio (x) = 0.56056 0.40418
# Poissons Ratio (y) = 0.89413 0.16747
# Poissons Ratio (z) = 0.20873 0.05422
#
# Static dielectric constant tensor:
#      x y z
#    x 1.691230 0.000000 -0.010900 
#    y 0.000000 1.670320 0.000000 
#    z -0.010900 0.000000 1.705770 
# 
# From -- ./inp_files/295472.got.cif
#   From: 2010.05.17/outbox.cif.g08.bks.cpg/sg12_148_cif.got.tgz:295472.got - 2010.06.03 13:09:07.
