data_PCOD9212803
_publ_section_title
;
Structure prediction by ZEFSAII (Michael W. Deem and Ramdas Pophale) SiO2 
 PCOD9212803
Probable space group: C 2/M
;
_chemical_formula_sum "Si O2"
_cell_formula_units_Z 48
_cell_length_a 11.563533
_cell_length_b 27.923400
_cell_length_c 13.954472
_cell_angle_alpha 90.000000
_cell_angle_beta 29.600620
_cell_angle_gamma 90.000000
_cell_volume 2225.647397
_symmetry_space_group_name_H-M "C 2/M"
_symmetry_group_IT_number 12
_symmetry_cell_setting 'monoclinic'
loop_
_space_group_symop_operation_xyz
x,y,z
-x,y,-z
-x,-y,-z
x,-y,z
1/2+x,1/2+y,z
1/2-x,1/2+y,-z
1/2-x,1/2-y,-z
1/2+x,1/2-y,z
loop_
_atom_site_type_symbol
_atom_site_label
_atom_site_fract_x
_atom_site_fract_y
_atom_site_fract_z
Si Si1 0.683606 0.945758 0.633172
Si Si2 0.240453 0.642947 0.728563
Si Si3 0.528592 0.608177 0.258277
Si Si4 0.507459 0.225101 0.201999
Si Si5 0.667926 0.556355 0.965395
Si Si6 0.645880 0.188652 0.489114
O O1 0.677985 0.906587 0.720688
O O2 0.907107 0.933776 0.407536
O O3 0.691069 0.000000 0.664317
O O4 0.444285 0.940155 0.744914
O O5 0.500000 0.656068 0.500000
O O6 0.278358 0.632467 0.812828
O O7 0.072313 0.685043 0.815888
O O8 0.619793 0.587657 0.093532
O O9 0.324617 0.646737 0.387978
O O10 0.511324 0.200891 0.304693
O O11 0.304356 0.264962 0.352552
O O12 0.750000 0.250000 0.000000
O O13 0.618730 0.500000 0.020585
O O14 0.500000 0.571435 0.000000
O O15 0.500000 0.176330 0.500000
#
# Coordination Sequence:
#
# PCOD9212803 Si02
#       6
#     8   8   8   8   8   8
#     4  10  22  41  68 101 137 178 228 279 339 416
#     4  10  21  44  70  99 141 176 228 289 348 417
#     4  11  24  42  71  98 135 184 228 282 354 408
#     4  11  25  47  71  99 134 181 230 284 360 420
#     4  10  24  43  65 101 145 185 236 288 338 412
#     4  11  26  44  67  99 138 175 227 294 339 424
#
# _framework density 21.566758
#
# number of rings (size 3 to 8) (size 9 to 14) (size 15 to 20)
#    0.000    1.500    3.333    1.000    7.000    5.000 
#    0.000    4.167    0.000    0.000    0.000    0.000 
#    0.000    0.000    0.000    0.000    0.000    0.000 
#
# Total GULP energy -134326.368027 kJ/mol
# GULP energy per Si atom -5596.932001 kJ/mol
# Density = 2.151767 g / cm^3
# Si number density = 21.566758 Si / 1000 Ang^3
#
#
#
# Elastic Constant Matrix: (Units=GPa)
#
#
# Indices 1 2 3 4 5 6 
#
# 1 175.8736 53.7062 54.2424 0.0000 -9.6893 0.0000
# 2 53.7062 107.5643 44.0698 0.0000 -10.0040 0.0000
# 3 54.2424 44.0698 101.2868 0.0001 0.4914 -0.0001
# 4 0.0000 0.0000 0.0001 42.7997 0.0000 -3.1900
# 5 -9.6893 -10.0040 0.4914 0.0000 29.3819 0.0000
# 6 0.0000 0.0000 -0.0001 -3.1900 0.0000 34.2666
#
#
#
# Elastic Compliance Matrix: (Units=1/GPa)
#
#
# Indices 1 2 3 4 5 6 
#
# 1 0.007403 -0.002325 -0.002961 0.000000 0.001699 0.000000
# 2 -0.002325 0.012518 -0.004219 0.000000 0.003566 0.000000
# 3 -0.002961 -0.004219 0.013307 0.000000 -0.002635 0.000000
# 4 0.000000 0.000000 0.000000 0.023528 0.000000 0.002190
# 5 0.001699 0.003566 -0.002635 0.000000 0.035853 0.000000
# 6 0.000000 0.000000 0.000000 0.002190 0.000000 0.029387
#
#
# Mechanical properties :
#
#
# Convention : Reuss Voigt Hill
#
# Bulk Modulus (GPa) = 70.33288 76.52904 73.43096
# Shear Modulus (GPa) = 34.30679 36.80342 35.55511
#
# Velocity S-wave (km/s) = 3.99272 4.13545 4.06471
# Velocity P-wave (km/s) = 7.34426 7.63966 7.49342
#
# Compressibility (1/GPa) = 0.01421810
#
# Stress axis : x y z
#
# Youngs Moduli (GPa) = 135.08566 79.88728 75.14838
#
# Poissons Ratio (x) = 0.18573 0.22252
# Poissons Ratio (y) = 0.31407 0.31702
# Poissons Ratio (z) = 0.40000 0.33702
#
# Static dielectric constant tensor:
#      x y z
#    x 1.758650 0.000000 -0.002480 
#    y 0.000000 1.713940 0.000000 
#    z -0.002480 0.000000 1.812220 
# 
# From -- ./inp_files/209265.got.cif
#   From: 2010.05.17/outbox.cif.g08.bks.cpg/sg12_105_cif.got.tgz:209265.got - 2010.06.03 13:09:07.
