data_PCOD9212584
_publ_section_title
;
Structure prediction by ZEFSAII (Michael W. Deem and Ramdas Pophale) SiO2 
 PCOD9212584
Probable space group: C 2/M
;
_chemical_formula_sum "Si O2"
_cell_formula_units_Z 58
_cell_length_a 24.771817
_cell_length_b 22.534837
_cell_length_c 8.307609
_cell_angle_alpha 90.000000
_cell_angle_beta 34.527596
_cell_angle_gamma 90.000000
_cell_volume 2628.576085
_symmetry_space_group_name_H-M "C 2/M"
_symmetry_group_IT_number 12
_symmetry_cell_setting 'monoclinic'
loop_
_space_group_symop_operation_xyz
x,y,z
-x,y,-z
-x,-y,-z
x,-y,z
1/2+x,1/2+y,z
1/2-x,1/2+y,-z
1/2-x,1/2-y,-z
1/2+x,1/2-y,z
loop_
_atom_site_type_symbol
_atom_site_label
_atom_site_fract_x
_atom_site_fract_y
_atom_site_fract_z
Si Si1 0.461311 0.738755 0.836532
Si Si2 0.000000 0.000000 0.500000
Si Si3 0.815939 0.327326 0.071133
Si Si4 0.104124 0.104766 0.062150
Si Si5 0.255264 0.933159 0.437243
Si Si6 0.648113 0.244489 0.560457
Si Si7 0.419308 0.065911 0.301702
Si Si8 0.284763 0.137287 0.794864
O O1 0.437743 0.671620 0.839563
O O2 0.572915 0.743774 0.601306
O O3 0.413769 0.790263 0.845114
O O4 0.409198 0.751536 0.134491
O O5 0.967145 0.947066 0.710584
O O6 0.805614 0.390994 0.182526
O O7 0.734075 0.289725 0.358941
O O8 0.783452 0.331102 0.967125
O O9 0.158573 0.091339 0.758845
O O10 0.187286 0.104156 0.994291
O O11 0.329967 0.937803 0.401122
O O12 0.238758 0.000000 0.415817
O O13 0.696565 0.182316 0.398031
O O14 0.378253 0.096289 0.559495
O O15 0.454994 0.000000 0.253587
O O16 0.500000 0.098732 0.000000
#
# Coordination Sequence:
#
# PCOD9212584 Si02
#       8
#     8   2   8   8   8   8   8   8
#     4  11  24  42  72  94 135 176 234 285 334 416
#     4  12  28  40  76 102 138 182 244 272 326 396
#     4  12  24  43  64 102 138 179 218 287 351 397
#     4  11  23  46  67  97 134 185 227 280 329 398
#     4  10  21  42  68  93 133 180 224 271 340 405
#     4  11  24  42  66 100 127 181 226 276 347 407
#     4   9  20  40  65  90 122 172 226 270 324 406
#     4  11  25  39  65  96 139 169 224 277 349 401
#
# _framework density 22.065176999999998
#
# number of rings (size 3 to 8) (size 9 to 14) (size 15 to 20)
#    0.000    1.241    3.448    2.483    6.759    1.103 
#    0.000    0.000    0.000    4.966    0.000    0.000 
#    0.000    0.000    0.000    0.000    0.000    0.000 
#
# Total GULP energy -161679.668298 kJ/mol
# GULP energy per Si atom -5575.160976 kJ/mol
# Density = 2.201496 g / cm^3
# Si number density = 22.065177 Si / 1000 Ang^3
#
#
#
# Elastic Constant Matrix: (Units=GPa)
#
#
# Indices 1 2 3 4 5 6 
#
# 1 41.5060 7.9630 -0.4496 0.0000 -0.2075 0.0000
# 2 7.9630 130.9375 15.7082 0.0000 8.6505 0.0000
# 3 -0.4496 15.7082 54.2990 0.0000 1.0405 0.0000
# 4 0.0000 0.0000 0.0000 24.1114 0.0000 4.8725
# 5 -0.2075 8.6505 1.0405 0.0000 29.5939 0.0000
# 6 0.0000 0.0000 0.0000 4.8725 0.0000 9.5059
#
#
#
# Elastic Compliance Matrix: (Units=1/GPa)
#
#
# Indices 1 2 3 4 5 6 
#
# 1 0.024411 -0.001604 0.000654 0.000000 0.000617 0.000000
# 2 -0.001604 0.008168 -0.002332 0.000000 -0.002317 0.000000
# 3 0.000654 -0.002332 0.019096 0.000000 0.000015 0.000000
# 4 0.000000 0.000000 0.000000 0.046267 0.000000 -0.023715
# 5 0.000617 -0.002317 0.000015 0.000000 0.034472 0.000000
# 6 0.000000 0.000000 0.000000 -0.023715 0.000000 0.117353
#
#
# Mechanical properties :
#
#
# Convention : Reuss Voigt Hill
#
# Bulk Modulus (GPa) = 22.16699 30.35397 26.26048
# Shear Modulus (GPa) = 18.42529 26.21031 22.31780
#
# Velocity S-wave (km/s) = 2.89284 3.45027 3.18378
# Velocity P-wave (km/s) = 4.60717 5.44600 5.04405
#
# Compressibility (1/GPa) = 0.04511213
#
# Stress axis : x y z
#
# Youngs Moduli (GPa) = 40.96548 122.43580 52.36641
#
# Poissons Ratio (x) = 0.19636 -0.03426
# Poissons Ratio (y) = 0.06570 0.12210
# Poissons Ratio (z) = -0.02680 0.28548
#
# Static dielectric constant tensor:
#      x y z
#    x 1.824460 0.000000 0.001440 
#    y 0.000000 2.014770 0.000000 
#    z 0.001440 0.000000 1.841140 
# 
# From -- ./inp_files/106897.got.cif
#   From: 2010.05.17/outbox.cif.g08.bks.cpg/sg12_54_cif.got.tgz:106897.got - 2010.06.03 13:09:07.
