data_PCOD9212963
_publ_section_title
;
Structure prediction by ZEFSAII (Michael W. Deem and Ramdas Pophale) SiO2 
 PCOD9212963
Probable space group: C 2/M
;
_chemical_formula_sum "Si O2"
_cell_formula_units_Z 60
_cell_length_a 18.130965
_cell_length_b 29.599019
_cell_length_c 17.074675
_cell_angle_alpha 90.000000
_cell_angle_beta 161.265768
_cell_angle_gamma 90.000000
_cell_volume 2943.049916
_symmetry_space_group_name_H-M "C 2/M"
_symmetry_group_IT_number 12
_symmetry_cell_setting 'monoclinic'
loop_
_space_group_symop_operation_xyz
x,y,z
-x,y,-z
-x,-y,-z
x,-y,z
1/2+x,1/2+y,z
1/2-x,1/2+y,-z
1/2-x,1/2-y,-z
1/2+x,1/2-y,z
loop_
_atom_site_type_symbol
_atom_site_label
_atom_site_fract_x
_atom_site_fract_y
_atom_site_fract_z
Si Si1 0.858080 0.448738 0.970879
Si Si2 0.500000 0.598035 0.500000
Si Si3 0.685611 0.401211 0.374762
Si Si4 0.693254 0.052762 0.894064
Si Si5 0.284501 0.871432 0.649872
Si Si6 0.943260 0.764483 0.254881
Si Si7 0.939645 0.285874 0.028960
Si Si8 0.673426 0.699376 0.337177
O O1 0.935676 0.500000 0.035876
O O2 0.663266 0.434558 0.714646
O O3 0.788668 0.445068 0.992785
O O4 0.053442 0.411921 0.157918
O O5 0.394578 0.630173 0.460249
O O6 0.441743 0.427252 0.115136
O O7 0.691643 0.388155 0.473157
O O8 0.667772 0.353118 0.312266
O O9 0.941908 0.424164 0.619791
O O10 0.678813 0.000000 0.857156
O O11 0.430543 0.825517 0.793833
O O12 0.074051 0.720178 0.414256
O O13 0.099478 0.793925 0.353992
O O14 0.750000 0.750000 0.000000
O O15 0.822354 0.787889 0.206113
O O16 0.025686 0.235496 0.139057
O O17 0.000000 0.293317 0.000000
#
# Coordination Sequence:
#
# PCOD9212963 Si02
#       8
#     8   4   8   8   8   8   8   8
#     4  10  22  36  50  72 105 149 203 257 305 358
#     4  12  21  36  50  72 104 150 212 250 309 352
#     4  11  22  38  64  86 118 156 202 251 302 365
#     4  10  22  39  60  88 120 153 194 252 313 362
#     4  11  24  36  53  78 107 155 205 256 306 354
#     4   9  19  36  57  79 117 147 208 247 300 359
#     4  11  24  39  57  83 122 161 202 258 312 364
#     4  10  22  36  59  89 109 160 205 251 304 367
#
# _framework density 20.387015000000002
#
# number of rings (size 3 to 8) (size 9 to 14) (size 15 to 20)
#    0.000    1.600    1.333    4.200    7.467    5.867 
#    0.000    0.000    0.000    0.000    0.000    0.000 
#    0.000    3.200    0.000    0.000    0.000    0.000 
#
# Total GULP energy -167188.213616 kJ/mol
# GULP energy per Si atom -5572.940454 kJ/mol
# Density = 2.034061 g / cm^3
# Si number density = 20.387015 Si / 1000 Ang^3
#
#
#
# Elastic Constant Matrix: (Units=GPa)
#
#
# Indices 1 2 3 4 5 6 
#
# 1 29.2796 6.6998 14.8221 0.0002 29.6027 0.0002
# 2 6.6998 166.7636 76.3819 0.0005 38.4481 0.0003
# 3 14.8221 76.3819 92.8228 -0.0005 24.0281 0.0009
# 4 0.0002 0.0005 -0.0005 43.5482 0.0011 -4.3936
# 5 29.6027 38.4481 24.0281 0.0011 79.3858 0.0011
# 6 0.0002 0.0003 0.0009 -4.3936 0.0011 13.8638
#
#
#
# Elastic Compliance Matrix: (Units=1/GPa)
#
#
# Indices 1 2 3 4 5 6 
#
# 1 0.061092 0.007440 -0.009817 0.000000 -0.023413 0.000002
# 2 0.007440 0.010992 -0.008829 0.000000 -0.005426 0.000001
# 3 -0.009817 -0.008829 0.019043 0.000000 0.002173 -0.000001
# 4 0.000000 0.000000 0.000000 0.023722 -0.000001 0.007518
# 5 -0.023413 -0.005426 0.002173 -0.000001 0.023298 -0.000002
# 6 0.000002 0.000001 -0.000001 0.007518 -0.000002 0.074513
#
#
# Mechanical properties :
#
#
# Convention : Reuss Voigt Hill
#
# Bulk Modulus (GPa) = 14.55255 53.85263 34.20259
# Shear Modulus (GPa) = 19.38161 40.09037 29.73599
#
# Velocity S-wave (km/s) = 3.08666 4.43930 3.82327
# Velocity P-wave (km/s) = 4.45611 7.26285 6.02519
#
# Compressibility (1/GPa) = 0.06871646
#
# Stress axis : x y z
#
# Youngs Moduli (GPa) = 16.36875 90.97164 52.51142
#
# Poissons Ratio (x) = -0.67682 0.51549
# Poissons Ratio (y) = -0.12178 0.46362
# Poissons Ratio (z) = 0.16069 0.80318
#
# Static dielectric constant tensor:
#      x y z
#    x 1.751970 0.000000 0.075380 
#    y 0.000000 1.790450 0.000000 
#    z 0.075380 0.000000 1.829090 
# 
# From -- ./inp_files/279642.got.cif
#   From: 2010.05.17/outbox.cif.g08.bks.cpg/sg12_140_cif.got.tgz:279642.got - 2010.06.03 13:09:07.
