data_PCOD9212519
_publ_section_title
;
Structure prediction by ZEFSAII (Michael W. Deem and Ramdas Pophale) SiO2 
 PCOD9212519
Probable space group: C 2/M
;
_chemical_formula_sum "Si O2"
_cell_formula_units_Z 48
_cell_length_a 9.609758
_cell_length_b 28.312282
_cell_length_c 8.917776
_cell_angle_alpha 90.000000
_cell_angle_beta 88.510315
_cell_angle_gamma 90.000000
_cell_volume 2425.476543
_symmetry_space_group_name_H-M "C 2/M"
_symmetry_group_IT_number 12
_symmetry_cell_setting 'monoclinic'
loop_
_space_group_symop_operation_xyz
x,y,z
-x,y,-z
-x,-y,-z
x,-y,z
1/2+x,1/2+y,z
1/2-x,1/2+y,-z
1/2-x,1/2-y,-z
1/2+x,1/2-y,z
loop_
_atom_site_type_symbol
_atom_site_label
_atom_site_fract_x
_atom_site_fract_y
_atom_site_fract_z
Si Si1 0.149491 0.211085 0.070945
Si Si2 0.148081 0.634635 0.046455
Si Si3 0.838077 0.098729 0.543829
Si Si4 0.847835 0.789354 0.571806
Si Si5 0.833593 0.555107 0.190449
Si Si6 0.089390 0.598273 0.358829
O O1 0.146008 0.215952 0.249423
O O2 0.250000 0.250000 0.000000
O O3 0.222074 0.162527 0.020646
O O4 0.000000 0.214682 0.000000
O O5 0.140770 0.632374 0.225419
O O6 0.154754 0.583814 0.964674
O O7 0.000000 0.656539 0.000000
O O8 0.810291 0.155454 0.542627
O O9 0.788936 0.077593 0.704035
O O10 0.728686 0.076957 0.427546
O O11 0.000000 0.090987 0.500000
O O12 0.750000 0.750000 0.500000
O O13 0.000000 0.782308 0.500000
O O14 0.813165 0.500000 0.168608
O O15 0.977050 0.564707 0.279298
O O16 0.000000 0.619462 0.500000
#
# Coordination Sequence:
#
# PCOD9212519 Si02
#       6
#     8   8   8   8   8   8
#     4  12  26  44  66  99 133 173 218 267 321 388
#     4  10  22  40  64  95 130 169 213 269 324 382
#     4  10  22  40  63  95 130 169 215 263 326 382
#     4  11  25  43  66  96 133 174 214 264 322 390
#     4  10  21  42  65  92 128 169 218 269 323 385
#     4   9  21  37  62  93 122 166 211 265 318 381
#
# _framework density 19.789923999999999
#
# number of rings (size 3 to 8) (size 9 to 14) (size 15 to 20)
#    0.000    1.667    1.667    1.500    7.000    8.333 
#    0.000    0.000    0.000    3.500    0.000    0.000 
#    0.000    0.000    0.000    0.000    0.000    0.000 
#
# Total GULP energy -133959.003063 kJ/mol
# GULP energy per Si atom -5581.625128 kJ/mol
# Density = 1.974488 g / cm^3
# Si number density = 19.789924 Si / 1000 Ang^3
#
#
#
# Elastic Constant Matrix: (Units=GPa)
#
#
# Indices 1 2 3 4 5 6 
#
# 1 146.2745 53.2544 58.1307 0.0000 -15.4415 0.0000
# 2 53.2544 112.3826 37.1789 0.0000 -10.4693 0.0000
# 3 58.1307 37.1789 166.9282 0.0000 -19.8422 0.0000
# 4 0.0000 0.0000 0.0000 17.5891 0.0000 -6.4587
# 5 -15.4415 -10.4693 -19.8422 0.0000 30.4901 0.0000
# 6 0.0000 0.0000 0.0000 -6.4587 0.0000 18.2290
#
#
#
# Elastic Compliance Matrix: (Units=1/GPa)
#
#
# Indices 1 2 3 4 5 6 
#
# 1 0.009170 -0.003432 -0.002186 0.000000 0.002043 0.000000
# 2 -0.003432 0.011012 -0.001100 0.000000 0.001327 0.000000
# 3 -0.002186 -0.001100 0.007392 0.000000 0.003326 0.000000
# 4 0.000000 0.000000 0.000000 0.065356 0.000000 0.023156
# 5 0.002043 0.001327 0.003326 0.000000 0.036452 0.000000
# 6 0.000000 0.000000 0.000000 0.023156 0.000000 0.063062
#
#
# Mechanical properties :
#
#
# Convention : Reuss Voigt Hill
#
# Bulk Modulus (GPa) = 70.72768 80.30146 75.51457
# Shear Modulus (GPa) = 23.74236 31.72974 27.73605
#
# Velocity S-wave (km/s) = 3.46745 4.00850 3.74775
# Velocity P-wave (km/s) = 7.20054 7.87967 7.54775
#
# Compressibility (1/GPa) = 0.01413874
#
# Stress axis : x y z
#
# Youngs Moduli (GPa) = 109.04562 90.81053 135.27780
#
# Poissons Ratio (x) = 0.31166 0.29575
# Poissons Ratio (y) = 0.37424 0.14876
# Poissons Ratio (z) = 0.23840 0.09986
#
# Static dielectric constant tensor:
#      x y z
#    x 1.618760 0.000000 0.052640 
#    y 0.000000 1.722220 0.000000 
#    z 0.052640 0.000000 1.658610 
# 
# From -- ./inp_files/42240.got.cif
#   From: 2010.05.17/outbox.cif.g08.bks.cpg/sg12_22_cif.got.tgz:42240.got - 2010.06.03 13:09:07.
