data_PCOD9212277
_publ_section_title
;
Structure prediction by ZEFSAII (Michael W. Deem and Ramdas Pophale) SiO2 
 PCOD9212277
Probable space group: C 2/M
;
_chemical_formula_sum "Si O2"
_cell_formula_units_Z 36
_cell_length_a 27.623247
_cell_length_b 11.060360
_cell_length_c 6.209730
_cell_angle_alpha 90.000000
_cell_angle_beta 116.286995
_cell_angle_gamma 90.000000
_cell_volume 1701.018876
_symmetry_space_group_name_H-M "C 2/M"
_symmetry_group_IT_number 12
_symmetry_cell_setting 'monoclinic'
loop_
_space_group_symop_operation_xyz
x,y,z
-x,y,-z
-x,-y,-z
x,-y,z
1/2+x,1/2+y,z
1/2-x,1/2+y,-z
1/2-x,1/2-y,-z
1/2+x,1/2-y,z
loop_
_atom_site_type_symbol
_atom_site_label
_atom_site_fract_x
_atom_site_fract_y
_atom_site_fract_z
Si Si1 0.525104 0.500000 0.805223
Si Si2 0.135995 0.634128 0.118639
Si Si3 0.252817 0.631215 0.148188
Si Si4 0.629236 0.362520 0.409826
Si Si5 0.439302 0.731191 0.328585
O O1 0.500000 0.500000 0.500000
O O2 0.554625 0.627863 0.841445
O O3 0.500000 0.500000 0.000000
O O4 0.121463 0.500000 0.170030
O O5 0.199483 0.634062 0.188841
O O6 0.125699 0.744129 0.257489
O O7 0.100841 0.666401 0.837711
O O8 0.251643 0.500000 0.027959
O O9 0.309189 0.635410 0.383702
O O10 0.250000 0.750000 0.000000
O O11 0.619600 0.500000 0.308244
O O12 0.587982 0.335747 0.522867
O O13 0.500000 0.774896 0.500000
#
# Coordination Sequence:
#
# PCOD9212277 Si02
#       5
#     4   8   8   8   8
#     4  10  24  42  70 104 144 180 238 310 365 412
#     4  11  26  43  66  97 137 183 222 281 356 426
#     4  10  21  41  66  98 132 170 222 280 348 420
#     4  11  24  42  69 101 131 172 230 286 348 415
#     4  11  25  41  68 100 134 177 233 289 351 411
#
# _framework density 21.163785000000001
#
# number of rings (size 3 to 8) (size 9 to 14) (size 15 to 20)
#    0.000    1.333    3.333    0.667    7.778    3.111 
#    0.000    1.111    0.000    0.000    0.000    0.000 
#    0.000    0.000    0.000    0.000    0.000    0.000 
#
# Total GULP energy -100331.628765 kJ/mol
# GULP energy per Si atom -5573.979376 kJ/mol
# Density = 2.111562 g / cm^3
# Si number density = 21.163785 Si / 1000 Ang^3
#
#
#
# Elastic Constant Matrix: (Units=GPa)
#
#
# Indices 1 2 3 4 5 6 
#
# 1 125.7032 36.6632 43.3559 0.0000 12.8083 0.0000
# 2 36.6632 202.8748 66.2428 0.0000 -15.3998 0.0000
# 3 43.3559 66.2428 62.5058 0.0000 4.5237 0.0000
# 4 0.0000 0.0000 0.0000 13.7288 0.0000 -16.0990
# 5 12.8083 -15.3998 4.5237 0.0000 39.4175 0.0000
# 6 0.0000 0.0000 0.0000 -16.0990 0.0000 25.1050
#
#
#
# Elastic Compliance Matrix: (Units=1/GPa)
#
#
# Indices 1 2 3 4 5 6 
#
# 1 0.010743 0.000377 -0.007673 0.000000 -0.002463 0.000000
# 2 0.000377 0.008194 -0.009245 0.000000 0.004140 0.000000
# 3 -0.007673 -0.009245 0.031460 0.000000 -0.004729 0.000000
# 4 0.000000 0.000000 0.000000 0.293688 0.000000 0.188333
# 5 -0.002463 0.004140 -0.004729 0.000000 0.028330 0.000000
# 6 0.000000 0.000000 0.000000 0.188333 0.000000 0.160605
#
#
# Mechanical properties :
#
#
# Convention : Reuss Voigt Hill
#
# Bulk Modulus (GPa) = 57.75085 75.95640 66.85362
# Shear Modulus (GPa) = 8.74321 31.97171 20.35746
#
# Velocity S-wave (km/s) = 2.03474 3.89096 3.10482
# Velocity P-wave (km/s) = 5.73298 7.49359 6.67162
#
# Compressibility (1/GPa) = 0.01731576
#
# Stress axis : x y z
#
# Youngs Moduli (GPa) = 93.08733 122.04216 31.78612
#
# Poissons Ratio (x) = -0.04600 0.24388
# Poissons Ratio (y) = -0.03509 0.29386
# Poissons Ratio (z) = 0.71422 1.12826
#
# Static dielectric constant tensor:
#      x y z
#    x 1.846200 0.000000 0.044700 
#    y 0.000000 1.776990 0.000000 
#    z 0.044700 0.000000 1.849010 
# 
# From -- ./inp_files/27557.got.cif
#   From: 2010.05.17/outbox.cif.g08.bks.cpg/sg12_14_cif.got.tgz:27557.got - 2010.06.03 13:09:07.
