data_PCOD9212314
_publ_section_title
;
Structure prediction by ZEFSAII (Michael W. Deem and Ramdas Pophale) SiO2 
 PCOD9212314
Probable space group: C 2/M
;
_chemical_formula_sum "Si O2"
_cell_formula_units_Z 58
_cell_length_a 24.005341
_cell_length_b 7.879129
_cell_length_c 21.743284
_cell_angle_alpha 90.000000
_cell_angle_beta 38.478318
_cell_angle_gamma 90.000000
_cell_volume 2558.904651
_symmetry_space_group_name_H-M "C 2/M"
_symmetry_group_IT_number 12
_symmetry_cell_setting 'monoclinic'
loop_
_space_group_symop_operation_xyz
x,y,z
-x,y,-z
-x,-y,-z
x,-y,z
1/2+x,1/2+y,z
1/2-x,1/2+y,-z
1/2-x,1/2-y,-z
1/2+x,1/2-y,z
loop_
_atom_site_type_symbol
_atom_site_label
_atom_site_fract_x
_atom_site_fract_y
_atom_site_fract_z
Si Si1 0.761344 0.303071 0.419994
Si Si2 0.855821 0.187237 0.225195
Si Si3 0.079433 0.797594 0.500944
Si Si4 0.443803 0.802503 0.956769
Si Si5 0.854850 0.796145 0.907590
Si Si6 0.277834 0.196276 0.176414
Si Si7 0.000000 0.500000 0.500000
Si Si8 0.902377 0.794092 0.730048
O O1 0.785078 0.500000 0.398083
O O2 0.750000 0.250000 0.500000
O O3 0.835141 0.210514 0.314854
O O4 0.667961 0.279034 0.465026
O O5 0.794006 0.302217 0.235162
O O6 0.959830 0.217796 0.122720
O O7 0.830327 0.000000 0.228092
O O8 0.072653 0.654258 0.454846
O O9 0.994247 0.748769 0.617385
O O10 0.073494 0.000000 0.487654
O O11 0.405155 0.785534 0.921525
O O12 0.458431 0.000000 0.959785
O O13 0.366541 0.728906 0.067727
O O14 0.894131 0.740165 0.807897
O O15 0.863525 0.000000 0.904866
O O16 0.750000 0.750000 0.000000
O O17 0.185117 0.268733 0.231176
O O18 0.276736 0.000000 0.156651
O O19 0.901527 0.000000 0.730541
#
# Coordination Sequence:
#
# PCOD9212314 Si02
#       8
#     8   8   8   8   8   8   2   8
#     4  11  26  48  73  99 136 181 233 289 347 409
#     4  12  27  43  66  96 130 173 225 277 336 398
#     4  10  25  46  71 103 141 184 227 290 355 416
#     4  11  23  42  64  94 131 175 220 272 332 397
#     4  11  21  38  63  94 132 173 219 267 326 395
#     4  10  21  41  67  93 131 175 218 264 329 402
#     4  12  26  44  76 106 144 170 242 284 360 426
#     4   9  20  41  65  92 132 176 215 263 334 405
#
# _framework density 22.665949000000001
#
# number of rings (size 3 to 8) (size 9 to 14) (size 15 to 20)
#    0.000    1.379    1.379    3.103    5.793    2.759 
#    2.483    0.000    0.000    0.000    0.000    0.000 
#    0.000    0.000    0.000    0.000    0.000    0.000 
#
# Total GULP energy -161910.710796 kJ/mol
# GULP energy per Si atom -5583.127958 kJ/mol
# Density = 2.261436 g / cm^3
# Si number density = 22.665949 Si / 1000 Ang^3
#
#
#
# Elastic Constant Matrix: (Units=GPa)
#
#
# Indices 1 2 3 4 5 6 
#
# 1 85.1347 6.0676 11.4559 0.0014 8.2774 0.0007
# 2 6.0676 80.1074 8.7703 0.0016 -5.7003 0.0040
# 3 11.4559 8.7703 112.4122 0.0039 5.2815 -0.0023
# 4 0.0014 0.0016 0.0039 10.3855 -0.0015 7.0069
# 5 8.2774 -5.7003 5.2815 -0.0015 34.3986 0.0001
# 6 0.0007 0.0040 -0.0023 7.0069 0.0001 27.7300
#
#
#
# Elastic Compliance Matrix: (Units=1/GPa)
#
#
# Indices 1 2 3 4 5 6 
#
# 1 0.012245 -0.001025 -0.001029 -0.000002 -0.002959 0.000000
# 2 -0.001025 0.012853 -0.001017 0.000000 0.002533 -0.000002
# 3 -0.001029 -0.001017 0.009142 -0.000005 -0.001325 0.000002
# 4 -0.000002 0.000000 -0.000005 0.116076 0.000006 -0.029330
# 5 -0.002959 0.002533 -0.001325 0.000006 0.030406 -0.000002
# 6 0.000000 -0.000002 0.000002 -0.029330 -0.000002 0.043473
#
#
# Mechanical properties :
#
#
# Convention : Reuss Voigt Hill
#
# Bulk Modulus (GPa) = 35.59098 36.69355 36.14227
# Shear Modulus (GPa) = 20.85903 31.26018 26.05961
#
# Velocity S-wave (km/s) = 3.03690 3.71775 3.39444
# Velocity P-wave (km/s) = 5.29467 5.88667 5.59850
#
# Compressibility (1/GPa) = 0.02809701
#
# Stress axis : x y z
#
# Youngs Moduli (GPa) = 81.66418 77.80583 109.38181
#
# Poissons Ratio (x) = 0.07978 0.11254
# Poissons Ratio (y) = 0.08374 0.11127
# Poissons Ratio (z) = 0.08403 0.07915
#
# Static dielectric constant tensor:
#      x y z
#    x 1.826840 0.000000 0.044970 
#    y 0.000000 1.820630 0.000010 
#    z 0.044970 0.000010 1.903840 
# 
# From -- ./inp_files/324524.got.cif
#   From: 2010.05.17/outbox.cif.g08.bks.cpg/sg12_163_cif.got.tgz:324524.got - 2010.06.03 13:09:07.
