data_PCOD9212921
_publ_section_title
;
Structure prediction by ZEFSAII (Michael W. Deem and Ramdas Pophale) SiO2 
 PCOD9212921
Probable space group: C 2/M
;
_chemical_formula_sum "Si O2"
_cell_formula_units_Z 60
_cell_length_a 13.348735
_cell_length_b 20.749860
_cell_length_c 11.393789
_cell_angle_alpha 90.000000
_cell_angle_beta 95.784185
_cell_angle_gamma 90.000000
_cell_volume 3139.833541
_symmetry_space_group_name_H-M "C 2/M"
_symmetry_group_IT_number 12
_symmetry_cell_setting 'monoclinic'
loop_
_space_group_symop_operation_xyz
x,y,z
-x,y,-z
-x,-y,-z
x,-y,z
1/2+x,1/2+y,z
1/2-x,1/2+y,-z
1/2-x,1/2-y,-z
1/2+x,1/2-y,z
loop_
_atom_site_type_symbol
_atom_site_label
_atom_site_fract_x
_atom_site_fract_y
_atom_site_fract_z
Si Si1 0.370919 0.242393 0.314517
Si Si2 0.026275 0.070730 0.866053
Si Si3 0.502003 0.285980 0.140694
Si Si4 0.764288 0.928403 0.225924
Si Si5 0.842199 0.304982 0.709405
Si Si6 0.000000 0.831514 0.500000
Si Si7 0.610108 0.124965 0.525690
Si Si8 0.827690 0.928325 0.503279
O O1 0.398191 0.259544 0.184400
O O2 0.258965 0.265401 0.328007
O O3 0.446245 0.286549 0.399079
O O4 0.386290 0.169726 0.358845
O O5 0.981764 0.139170 0.820914
O O6 0.146032 0.077550 0.856922
O O7 0.997595 0.000000 0.811441
O O8 0.000000 0.067581 0.000000
O O9 0.584138 0.239817 0.208756
O O10 0.500000 0.282785 0.000000
O O11 0.687842 0.869220 0.221379
O O12 0.818034 0.925558 0.360098
O O13 0.718277 0.000000 0.210187
O O14 0.882763 0.328690 0.588271
O O15 0.087884 0.876240 0.456460
O O16 0.500000 0.092216 0.500000
O O17 0.713842 0.085075 0.533608
O O18 0.859203 0.000000 0.541152
#
# Coordination Sequence:
#
# PCOD9212921 Si02
#       8
#     8   8   8   8   8   4   8   8
#     4  12  22  36  57  86 116 151 193 240 295 349
#     4   9  17  33  55  81 111 142 186 236 290 349
#     4  11  23  38  58  86 115 154 195 242 299 339
#     4   9  17  34  56  81 114 152 192 234 288 351
#     4  11  21  37  58  85 119 151 198 243 289 355
#     4  12  19  34  62  86 119 150 190 240 292 356
#     4  11  21  36  60  86 116 157 197 237 291 354
#     4  10  22  35  54  87 122 156 189 235 296 355
#
# _framework density 19.109293000000001
#
# number of rings (size 3 to 8) (size 9 to 14) (size 15 to 20)
#    0.000    1.467    6.000    0.600    1.867    0.800 
#    0.000    0.667    0.000    0.400    0.000    0.000 
#    0.000    0.000    0.000    0.000    0.000    0.000 
#
# Total GULP energy -167328.291146 kJ/mol
# GULP energy per Si atom -5577.609705 kJ/mol
# Density = 1.906580 g / cm^3
# Si number density = 19.109293 Si / 1000 Ang^3
#
#
#
# Elastic Constant Matrix: (Units=GPa)
#
#
# Indices 1 2 3 4 5 6 
#
# 1 60.1192 -4.5686 1.5524 0.0000 -4.1303 0.0000
# 2 -4.5686 93.1008 7.0232 0.0000 6.1830 0.0000
# 3 1.5524 7.0232 57.3246 0.0000 -17.3811 0.0000
# 4 0.0000 0.0000 0.0000 2.8906 0.0000 3.6307
# 5 -4.1303 6.1830 -17.3811 0.0000 28.2010 0.0000
# 6 0.0000 0.0000 0.0000 3.6307 0.0000 12.9065
#
#
#
# Elastic Compliance Matrix: (Units=1/GPa)
#
#
# Indices 1 2 3 4 5 6 
#
# 1 0.016846 0.000648 0.000208 0.000000 0.002454 0.000000
# 2 0.000648 0.011232 -0.002597 0.000000 -0.003968 0.000000
# 3 0.000208 -0.002597 0.022062 0.000000 0.014197 0.000000
# 4 0.000000 0.000000 0.000000 0.534973 0.000000 -0.150491
# 5 0.002454 -0.003968 0.014197 0.000000 0.045439 0.000000
# 6 0.000000 0.000000 0.000000 -0.150491 0.000000 0.119815
#
#
# Mechanical properties :
#
#
# Convention : Reuss Voigt Hill
#
# Bulk Modulus (GPa) = 21.43211 24.28428 22.85819
# Shear Modulus (GPa) = 6.49856 22.56877 14.53367
#
# Velocity S-wave (km/s) = 1.84611 3.44035 2.76081
# Velocity P-wave (km/s) = 3.97291 5.34013 4.70644
#
# Compressibility (1/GPa) = 0.04665896
#
# Stress axis : x y z
#
# Youngs Moduli (GPa) = 59.36103 89.02902 45.32749
#
# Poissons Ratio (x) = -0.05769 -0.00944
# Poissons Ratio (y) = -0.03847 0.11771
# Poissons Ratio (z) = -0.01237 0.23120
#
# Static dielectric constant tensor:
#      x y z
#    x 1.679960 0.000000 -0.035440 
#    y 0.000000 1.706240 0.000000 
#    z -0.035440 0.000000 1.672590 
# 
# From -- ./inp_files/133939.got.cif
#   From: 2010.05.17/outbox.cif.g08.bks.cpg/sg12_67_cif.got.tgz:133939.got - 2010.06.03 13:09:07.
