data_PCOD9212235
_publ_section_title
;
Structure prediction by ZEFSAII (Michael W. Deem and Ramdas Pophale) SiO2 
 PCOD9212235
Probable space group: C 2/M
;
_chemical_formula_sum "Si O2"
_cell_formula_units_Z 48
_cell_length_a 8.892393
_cell_length_b 21.596085
_cell_length_c 12.792012
_cell_angle_alpha 90.000000
_cell_angle_beta 104.367569
_cell_angle_gamma 90.000000
_cell_volume 2379.756334
_symmetry_space_group_name_H-M "C 2/M"
_symmetry_group_IT_number 12
_symmetry_cell_setting 'monoclinic'
loop_
_space_group_symop_operation_xyz
x,y,z
-x,y,-z
-x,-y,-z
x,-y,z
1/2+x,1/2+y,z
1/2-x,1/2+y,-z
1/2-x,1/2-y,-z
1/2+x,1/2-y,z
loop_
_atom_site_type_symbol
_atom_site_label
_atom_site_fract_x
_atom_site_fract_y
_atom_site_fract_z
Si Si1 0.691353 0.620295 0.813595
Si Si2 0.854603 0.733386 0.920469
Si Si3 0.951832 0.691770 0.373873
Si Si4 0.838102 0.569922 0.036861
Si Si5 0.030069 0.572516 0.266498
Si Si6 0.089851 0.806179 0.264031
O O1 0.770497 0.687958 0.826714
O O2 0.803385 0.577703 0.763683
O O3 0.518747 0.633230 0.744148
O O4 0.714613 0.601985 0.939387
O O5 0.909604 0.790177 0.859804
O O6 0.750000 0.750000 0.000000
O O7 0.000000 0.700681 0.000000
O O8 0.022902 0.625241 0.352752
O O9 0.014636 0.747091 0.310547
O O10 0.000000 0.706662 0.500000
O O11 0.765940 0.686785 0.331123
O O12 0.782895 0.500000 0.043637
O O13 0.896083 0.593097 0.159531
O O14 0.000000 0.566643 0.000000
O O15 0.005527 0.500000 0.290003
#
# Coordination Sequence:
#
# PCOD9212235 Si02
#       6
#     8   8   8   8   8   8
#     4  11  20  34  61  90 128 162 198 237 291 383
#     4  12  21  32  53  90 129 161 189 234 295 371
#     4  12  25  44  65  86 120 160 213 274 321 366
#     4   8  16  31  55  85 118 158 196 231 279 355
#     4  10  21  41  66  91 121 167 213 252 305 366
#     4  12  24  40  60  93 126 163 204 250 322 374
#
# _framework density 20.170133
#
# number of rings (size 3 to 8) (size 9 to 14) (size 15 to 20)
#    0.000    1.167    5.000    3.500    2.333    0.333 
#    0.000    1.667    0.000    3.000    0.000    0.000 
#    0.000    0.000    0.000    0.000    0.000    0.000 
#
# Total GULP energy -133880.244934 kJ/mol
# GULP energy per Si atom -5578.343539 kJ/mol
# Density = 2.012423 g / cm^3
# Si number density = 20.170133 Si / 1000 Ang^3
#
#
#
# Elastic Constant Matrix: (Units=GPa)
#
#
# Indices 1 2 3 4 5 6 
#
# 1 90.1984 24.9638 41.7719 0.0000 14.6495 0.0000
# 2 24.9638 70.7520 18.5805 0.0000 -5.7190 0.0000
# 3 41.7719 18.5805 82.7375 0.0000 -0.2430 0.0000
# 4 0.0000 0.0000 0.0000 19.0674 0.0000 -0.1346
# 5 14.6495 -5.7190 -0.2430 0.0000 24.1268 0.0000
# 6 0.0000 0.0000 0.0000 -0.1346 0.0000 15.7208
#
#
#
# Elastic Compliance Matrix: (Units=1/GPa)
#
#
# Indices 1 2 3 4 5 6 
#
# 1 0.018348 -0.005357 -0.008097 0.000000 -0.012492 0.000000
# 2 -0.005357 0.016890 -0.001067 0.000000 0.007246 0.000000
# 3 -0.008097 -0.001067 0.016428 0.000000 0.004829 0.000000
# 4 0.000000 0.000000 0.000000 0.052449 0.000000 0.000449
# 5 -0.012492 0.007246 0.004829 0.000000 0.050799 0.000000
# 6 0.000000 0.000000 0.000000 0.000449 0.000000 0.063614
#
#
# Mechanical properties :
#
#
# Convention : Reuss Voigt Hill
#
# Bulk Modulus (GPa) = 44.20142 46.03557 45.11849
# Shear Modulus (GPa) = 19.59925 22.34111 20.97018
#
# Velocity S-wave (km/s) = 3.12059 3.33172 3.22788
# Velocity P-wave (km/s) = 5.91151 6.13789 6.02576
#
# Compressibility (1/GPa) = 0.02262371
#
# Stress axis : x y z
#
# Youngs Moduli (GPa) = 54.50153 59.20663 60.87094
#
# Poissons Ratio (x) = 0.31718 0.49288
# Poissons Ratio (y) = 0.29198 0.06495
# Poissons Ratio (z) = 0.44130 0.06317
#
# Static dielectric constant tensor:
#      x y z
#    x 2.341980 0.000000 0.069070 
#    y 0.000000 1.747940 0.000000 
#    z 0.069070 0.000000 1.721380 
# 
# From -- ./inp_files/122041.got.cif
#   From: 2010.05.17/outbox.cif.g08.bks.cpg/sg12_62_cif.got.tgz:122041.got - 2010.06.03 13:09:07.
