data_PCOD9212911
_publ_section_title
;
Structure prediction by ZEFSAII (Michael W. Deem and Ramdas Pophale) SiO2 
 PCOD9212911
Probable space group: C 2/M
;
_chemical_formula_sum "Si O2"
_cell_formula_units_Z 56
_cell_length_a 14.008590
_cell_length_b 29.839865
_cell_length_c 12.517786
_cell_angle_alpha 90.000000
_cell_angle_beta 32.737961
_cell_angle_gamma 90.000000
_cell_volume 2829.786494
_symmetry_space_group_name_H-M "C 2/M"
_symmetry_group_IT_number 12
_symmetry_cell_setting 'monoclinic'
loop_
_space_group_symop_operation_xyz
x,y,z
-x,y,-z
-x,-y,-z
x,-y,z
1/2+x,1/2+y,z
1/2-x,1/2+y,-z
1/2-x,1/2-y,-z
1/2+x,1/2-y,z
loop_
_atom_site_type_symbol
_atom_site_label
_atom_site_fract_x
_atom_site_fract_y
_atom_site_fract_z
Si Si1 0.297124 0.664682 0.733544
Si Si2 0.465126 0.449368 0.406279
Si Si3 0.696811 0.765669 0.268529
Si Si4 0.837543 0.377889 0.352806
Si Si5 0.798307 0.203585 0.396712
Si Si6 0.894048 0.158286 0.986386
Si Si7 0.228421 0.404936 0.987325
O O1 0.500000 0.664262 0.500000
O O2 0.258156 0.715454 0.805140
O O3 0.180695 0.648569 0.742585
O O4 0.265239 0.631787 0.860429
O O5 0.500000 0.440938 0.500000
O O6 0.395458 0.500000 0.462151
O O7 0.327775 0.412336 0.491600
O O8 0.650738 0.445168 0.169116
O O9 0.500000 0.766877 0.500000
O O10 0.806552 0.779737 0.268136
O O11 0.742332 0.804366 0.143859
O O12 0.827084 0.337494 0.449674
O O13 0.017154 0.406086 0.192729
O O14 0.750000 0.250000 0.500000
O O15 0.985996 0.178685 0.222880
O O16 0.807848 0.113264 0.023243
O O17 0.000000 0.150441 0.000000
#
# Coordination Sequence:
#
# PCOD9212911 Si02
#       7
#     8   8   8   8   8   8   8
#     4  11  20  35  55  84 131 166 208 249 302 364
#     4  11  24  44  66  94 129 160 201 259 320 382
#     4  10  22  35  52  84 119 167 215 256 293 356
#     4  12  22  38  62  92 125 166 207 254 305 373
#     4  11  21  35  56  81 123 168 209 249 300 358
#     4  10  23  40  57  83 125 165 213 262 308 350
#     4  12  23  38  64  89 118 167 209 254 319 372
#
# _framework density 19.789479
#
# number of rings (size 3 to 8) (size 9 to 14) (size 15 to 20)
#    0.000    1.000    5.714    1.286    4.000    2.286 
#    0.000    1.429    0.000    0.429    0.000    1.000 
#    0.000    0.000    0.000    0.000    0.000    0.000 
#
# Total GULP energy -156055.635262 kJ/mol
# GULP energy per Si atom -5573.415545 kJ/mol
# Density = 1.974444 g / cm^3
# Si number density = 19.789479 Si / 1000 Ang^3
#
#
#
# Elastic Constant Matrix: (Units=GPa)
#
#
# Indices 1 2 3 4 5 6 
#
# 1 46.3470 13.1234 9.0116 0.0000 -9.7549 0.0000
# 2 13.1234 93.0352 19.4288 0.0000 -1.5555 0.0000
# 3 9.0116 19.4288 71.9226 0.0000 -13.4263 0.0000
# 4 0.0000 0.0000 0.0000 19.6120 0.0000 -3.5141
# 5 -9.7549 -1.5555 -13.4263 0.0000 29.8840 0.0000
# 6 0.0000 0.0000 0.0000 -3.5141 0.0000 16.6387
#
#
#
# Elastic Compliance Matrix: (Units=1/GPa)
#
#
# Indices 1 2 3 4 5 6 
#
# 1 0.024166 -0.003116 -0.000812 0.000000 0.007361 0.000000
# 2 -0.003116 0.011813 -0.003139 0.000000 -0.001813 0.000000
# 3 -0.000812 -0.003139 0.016126 0.000000 0.006817 0.000000
# 4 0.000000 0.000000 0.000000 0.052995 0.000000 0.011192
# 5 0.007361 -0.001813 0.006817 0.000000 0.038834 0.000000
# 6 0.000000 0.000000 0.000000 0.011192 0.000000 0.062465
#
#
# Mechanical properties :
#
#
# Convention : Reuss Voigt Hill
#
# Bulk Modulus (GPa) = 26.33588 32.71471 29.52530
# Shear Modulus (GPa) = 21.44174 24.54302 22.99238
#
# Velocity S-wave (km/s) = 3.29521 3.52548 3.41229
# Velocity P-wave (km/s) = 5.27398 5.75667 5.52060
#
# Compressibility (1/GPa) = 0.03797101
#
# Stress axis : x y z
#
# Youngs Moduli (GPa) = 41.38052 84.64935 62.01130
#
# Poissons Ratio (x) = 0.26378 0.05035
# Poissons Ratio (y) = 0.12895 0.19466
# Poissons Ratio (z) = 0.03360 0.26573
#
# Static dielectric constant tensor:
#      x y z
#    x 1.680130 0.000000 -0.020110 
#    y 0.000000 1.708210 0.000000 
#    z -0.020110 0.000000 1.788950 
# 
# From -- ./inp_files/150382.got.cif
#   From: 2010.05.17/outbox.cif.g08.bks.cpg/sg12_76_cif.got.tgz:150382.got - 2010.06.03 13:09:07.
