data_PCOD9212843
_publ_section_title
;
Structure prediction by ZEFSAII (Michael W. Deem and Ramdas Pophale) SiO2 
 PCOD9212843
Probable space group: C 2/M
;
_chemical_formula_sum "Si O2"
_cell_formula_units_Z 48
_cell_length_a 18.210590
_cell_length_b 23.443568
_cell_length_c 21.090641
_cell_angle_alpha 90.000000
_cell_angle_beta 160.119274
_cell_angle_gamma 90.000000
_cell_volume 3061.943498
_symmetry_space_group_name_H-M "C 2/M"
_symmetry_group_IT_number 12
_symmetry_cell_setting 'monoclinic'
loop_
_space_group_symop_operation_xyz
x,y,z
-x,y,-z
-x,-y,-z
x,-y,z
1/2+x,1/2+y,z
1/2-x,1/2+y,-z
1/2-x,1/2-y,-z
1/2+x,1/2-y,z
loop_
_atom_site_type_symbol
_atom_site_label
_atom_site_fract_x
_atom_site_fract_y
_atom_site_fract_z
Si Si1 0.388065 0.258300 0.474765
Si Si2 0.814412 0.248802 0.901841
Si Si3 0.422929 0.296785 0.114962
Si Si4 0.728572 0.112813 0.317567
Si Si5 0.141226 0.934733 0.708138
Si Si6 0.736659 0.867693 0.068581
O O1 0.500000 0.238961 0.500000
O O2 0.574961 0.250734 0.678458
O O3 0.319597 0.324380 0.408416
O O4 0.167809 0.225988 0.313387
O O5 0.839143 0.309403 0.957649
O O6 0.853106 0.199191 0.984839
O O7 0.000000 0.245325 0.000000
O O8 0.393654 0.349145 0.139247
O O9 0.250000 0.250000 0.000000
O O10 0.739264 0.100963 0.250499
O O11 0.892620 0.069874 0.484323
O O12 0.482622 0.106824 0.137885
O O13 0.170623 0.907102 0.800715
O O14 0.214744 0.000000 0.766855
#
# Coordination Sequence:
#
# PCOD9212843 Si02
#       6
#     8   8   8   8   8   8
#     4  12  18  31  53  72 103 144 172 208 259 307
#     4  11  19  31  50  72 101 140 177 208 250 316
#     4  10  22  32  47  79 102 135 185 212 255 319
#     4  11  19  32  52  72 100 138 180 213 250 302
#     4  11  23  35  51  75 101 140 190 220 249 298
#     4  11  21  34  49  70 106 136 174 218 264 300
#
# _framework density 15.676318
#
# number of rings (size 3 to 8) (size 9 to 14) (size 15 to 20)
#    0.000    1.000    8.333    2.500    0.000    6.000 
#    0.000    0.000    0.000    0.000    0.000    0.000 
#    0.000    1.333    0.000    0.167    0.000    0.000 
#
# Total GULP energy -133805.218679 kJ/mol
# GULP energy per Si atom -5575.217445 kJ/mol
# Density = 1.564064 g / cm^3
# Si number density = 15.676318 Si / 1000 Ang^3
#
#
#
# Elastic Constant Matrix: (Units=GPa)
#
#
# Indices 1 2 3 4 5 6 
#
# 1 90.1690 37.7827 38.2349 -0.0140 1.8086 0.0199
# 2 37.7827 51.6431 26.4931 -0.1362 -1.7890 -0.0585
# 3 38.2349 26.4931 102.2141 -0.0215 3.3729 -0.0529
# 4 -0.0140 -0.1362 -0.0215 9.0873 -0.0723 -2.2316
# 5 1.8086 -1.7890 3.3729 -0.0723 29.2900 -0.0250
# 6 0.0199 -0.0585 -0.0529 -2.2316 -0.0250 9.3609
#
#
#
# Elastic Compliance Matrix: (Units=1/GPa)
#
#
# Indices 1 2 3 4 5 6 
#
# 1 0.017139 -0.010747 -0.003583 -0.000196 -0.001303 -0.000174
# 2 -0.010747 0.029195 -0.003642 0.000512 0.002868 0.000314
# 3 -0.003583 -0.003642 0.012113 -0.000032 -0.001396 0.000042
# 4 -0.000196 0.000512 -0.000032 0.116899 0.000359 0.027872
# 5 -0.001303 0.002868 -0.001396 0.000359 0.034559 0.000191
# 6 -0.000174 0.000314 0.000042 0.027872 0.000191 0.113475
#
#
# Mechanical properties :
#
#
# Convention : Reuss Voigt Hill
#
# Bulk Modulus (GPa) = 44.43360 49.89419 47.16389
# Shear Modulus (GPa) = 13.63051 18.98200 16.30626
#
# Velocity S-wave (km/s) = 2.95192 3.48353 3.22869
# Velocity P-wave (km/s) = 6.32648 6.93375 6.63706
#
# Compressibility (1/GPa) = 0.02250549
#
# Stress axis : x y z
#
# Youngs Moduli (GPa) = 58.34723 34.25200 82.55262
#
# Poissons Ratio (x) = 0.36810 0.29576
# Poissons Ratio (y) = 0.62705 0.30062
# Poissons Ratio (z) = 0.20904 0.12473
#
# Static dielectric constant tensor:
#      x y z
#    x 1.560410 -0.000020 -0.001370 
#    y -0.000020 1.522450 -0.000040 
#    z -0.001370 -0.000040 1.593860 
# 
# From -- ./inp_files/286544.got.cif
#   From: 2010.05.17/outbox.cif.g08.bks.cpg/sg12_144_cif.got.tgz:286544.got - 2010.06.03 13:09:07.
