data_PCOD9212273
_publ_section_title
;
Structure prediction by ZEFSAII (Michael W. Deem and Ramdas Pophale) SiO2 
 PCOD9212273
Probable space group: C 2/M
;
_chemical_formula_sum "Si O2"
_cell_formula_units_Z 30
_cell_length_a 10.687406
_cell_length_b 15.953719
_cell_length_c 9.439538
_cell_angle_alpha 90.000000
_cell_angle_beta 47.545715
_cell_angle_gamma 90.000000
_cell_volume 1187.498684
_symmetry_space_group_name_H-M "C 2/M"
_symmetry_group_IT_number 12
_symmetry_cell_setting 'monoclinic'
loop_
_space_group_symop_operation_xyz
x,y,z
-x,y,-z
-x,-y,-z
x,-y,z
1/2+x,1/2+y,z
1/2-x,1/2+y,-z
1/2-x,1/2-y,-z
1/2+x,1/2-y,z
loop_
_atom_site_type_symbol
_atom_site_label
_atom_site_fract_x
_atom_site_fract_y
_atom_site_fract_z
Si Si1 0.500000 0.723781 0.000000
Si Si2 0.302185 0.000000 0.834217
Si Si3 0.000000 0.500000 0.000000
Si Si4 0.692280 0.000000 0.514189
Si Si5 0.628578 0.329269 0.619511
Si Si6 0.250851 0.638723 0.902230
O O1 0.605726 0.672645 0.806361
O O2 0.625074 0.782168 0.997212
O O3 0.502591 0.000000 0.724487
O O4 0.305753 0.000000 0.661443
O O5 0.230574 0.083087 0.967088
O O6 0.850476 0.572882 0.115174
O O7 0.783392 0.084625 0.488014
O O8 0.750000 0.250000 0.500000
O O9 0.435775 0.331960 0.709591
#
# Coordination Sequence:
#
# PCOD9212273 Si02
#       6
#     4   4   2   4   8   8
#     4  11  24  42  66  97 140 192 236 288 358 428
#     4  10  21  41  68  96 136 184 235 297 357 428
#     4   8  18  38  70  98 126 182 236 292 356 416
#     4  11  24  41  65 101 137 180 241 299 361 430
#     4  12  26  43  69 104 143 187 239 300 363 434
#     4  10  21  41  66  96 136 183 238 292 354 424
#
# _framework density 25.263185
#
# number of rings (size 3 to 8) (size 9 to 14) (size 15 to 20)
#    0.000    1.333    0.000    5.600    0.000    6.933 
#    0.000    1.333    0.000   17.600    0.000    0.000 
#    0.000    0.000    0.000    0.000    0.000    0.000 
#
# Total GULP energy -83700.469835 kJ/mol
# GULP energy per Si atom -5580.031322 kJ/mol
# Density = 2.520569 g / cm^3
# Si number density = 25.263185 Si / 1000 Ang^3
#
#
#
# Elastic Constant Matrix: (Units=GPa)
#
#
# Indices 1 2 3 4 5 6 
#
# 1 109.7856 42.0246 46.1344 0.0000 -31.7134 0.0000
# 2 42.0246 153.0902 77.4057 0.0000 -40.6784 0.0000
# 3 46.1344 77.4057 172.2873 -0.0001 -17.7154 0.0000
# 4 0.0000 0.0000 -0.0001 45.2792 0.0001 -19.6370
# 5 -31.7134 -40.6784 -17.7154 0.0001 66.1538 0.0000
# 6 0.0000 0.0000 0.0000 -19.6370 0.0000 22.6190
#
#
#
# Elastic Compliance Matrix: (Units=1/GPa)
#
#
# Indices 1 2 3 4 5 6 
#
# 1 0.011688 -0.000871 -0.002280 0.000000 0.004457 0.000000
# 2 -0.000871 0.009901 -0.003735 0.000000 0.004670 0.000000
# 3 -0.002280 -0.003735 0.007963 0.000000 -0.001257 0.000000
# 4 0.000000 0.000000 0.000000 0.035422 0.000000 0.030752
# 5 0.004457 0.004670 -0.001257 0.000000 0.019788 0.000000
# 6 0.000000 0.000000 0.000000 0.030752 0.000000 0.070909
#
#
# Mechanical properties :
#
#
# Convention : Reuss Voigt Hill
#
# Bulk Modulus (GPa) = 63.37242 85.14361 74.25801
# Shear Modulus (GPa) = 28.62022 44.78363 36.70192
#
# Velocity S-wave (km/s) = 3.36948 4.21489 3.81567
# Velocity P-wave (km/s) = 6.34643 7.58043 6.99071
#
# Compressibility (1/GPa) = 0.01577974
#
# Stress axis : x y z
#
# Youngs Moduli (GPa) = 85.56036 101.00498 125.57425
#
# Poissons Ratio (x) = 0.08802 0.28630
# Poissons Ratio (y) = 0.07456 0.46897
# Poissons Ratio (z) = 0.19507 0.37721
#
# Static dielectric constant tensor:
#      x y z
#    x 3.108240 0.000000 0.688080 
#    y 0.000000 2.581220 0.000000 
#    z 0.688080 0.000000 2.319490 
# 
# From -- ./inp_files/130784.got.cif
#   From: 2010.05.17/outbox.cif.g08.bks.cpg/sg12_66_cif.got.tgz:130784.got - 2010.06.03 13:09:07.
