data_PCOD9212913
_publ_section_title
;
Structure prediction by ZEFSAII (Michael W. Deem and Ramdas Pophale) SiO2 
 PCOD9212913
Probable space group: C 2/M
;
_chemical_formula_sum "Si O2"
_cell_formula_units_Z 48
_cell_length_a 25.346662
_cell_length_b 17.186582
_cell_length_c 5.812615
_cell_angle_alpha 90.000000
_cell_angle_beta 116.937103
_cell_angle_gamma 90.000000
_cell_volume 2257.383351
_symmetry_space_group_name_H-M "C 2/M"
_symmetry_group_IT_number 12
_symmetry_cell_setting 'monoclinic'
loop_
_space_group_symop_operation_xyz
x,y,z
-x,y,-z
-x,-y,-z
x,-y,z
1/2+x,1/2+y,z
1/2-x,1/2+y,-z
1/2-x,1/2-y,-z
1/2+x,1/2-y,z
loop_
_atom_site_type_symbol
_atom_site_label
_atom_site_fract_x
_atom_site_fract_y
_atom_site_fract_z
Si Si1 0.335212 0.083779 0.533307
Si Si2 0.647924 0.634731 0.691055
Si Si3 0.550167 0.088016 0.916800
Si Si4 0.766743 0.682345 0.708306
Si Si5 0.091385 0.000000 0.330359
Si Si6 0.594539 0.500000 0.831963
Si Si7 0.879949 0.298853 0.241815
O O1 0.390427 0.080883 0.815661
O O2 0.279946 0.106726 0.580058
O O3 0.350676 0.149822 0.383351
O O4 0.328410 0.000000 0.404108
O O5 0.714604 0.663807 0.783528
O O6 0.629365 0.579244 0.440843
O O7 0.608626 0.712135 0.644839
O O8 0.635534 0.576527 0.878523
O O9 0.536517 0.000000 0.803290
O O10 0.500000 0.111439 0.000000
O O11 0.565690 0.151552 0.754548
O O12 0.750000 0.750000 0.500000
O O13 0.828139 0.706462 0.949174
O O14 0.065369 0.000000 0.023896
O O15 0.058657 0.000000 0.516301
#
# Coordination Sequence:
#
# PCOD9212913 Si02
#       7
#     8   8   8   8   4   4   8
#     4  10  22  35  53  80 113 152 192 243 286 351
#     4   9  21  33  51  77 108 153 190 237 282 347
#     4   9  20  39  59  80 111 148 194 247 301 350
#     4  11  22  34  49  75 112 154 192 233 289 340
#     4   8  20  34  52  76 104 147 193 235 284 331
#     4   8  20  34  54  74 106 150 193 232 282 329
#     4  11  21  35  53  80 107 148 194 237 295 350
#
# _framework density 21.263555
#
# number of rings (size 3 to 8) (size 9 to 14) (size 15 to 20)
#    1.000    1.167    1.667    1.000    4.667    1.333 
#    0.000    2.500    0.000    0.000    0.000    2.333 
#    0.000    6.667    0.000    0.000    0.000    0.000 
#
# Total GULP energy -133665.303465 kJ/mol
# GULP energy per Si atom -5569.387644 kJ/mol
# Density = 2.121516 g / cm^3
# Si number density = 21.263555 Si / 1000 Ang^3
#
#
#
# Elastic Constant Matrix: (Units=GPa)
#
#
# Indices 1 2 3 4 5 6 
#
# 1 115.4347 37.3991 8.8351 0.0000 -26.6009 0.0000
# 2 37.3991 154.1100 13.6452 0.0000 -20.3680 0.0000
# 3 8.8351 13.6452 83.4025 0.0000 -16.3277 0.0000
# 4 0.0000 0.0000 0.0000 40.3051 0.0000 -66.7016
# 5 -26.6009 -20.3680 -16.3277 0.0000 22.8579 0.0000
# 6 0.0000 0.0000 0.0000 -66.7016 0.0000 109.2654
#
#
#
# Elastic Compliance Matrix: (Units=1/GPa)
#
#
# Indices 1 2 3 4 5 6 
#
# 1 0.012242 -0.001222 0.001719 0.000000 0.014387 0.000000
# 2 -0.001222 0.007478 -0.000079 0.000000 0.005185 0.000000
# 3 0.001719 -0.000079 0.014182 0.000000 0.012061 0.000000
# 4 0.000000 0.000000 0.000000 -2.420289 0.000000 -1.477477
# 5 0.014387 0.005185 0.012061 0.000000 0.073727 0.000000
# 6 0.000000 0.000000 0.000000 -1.477477 0.000000 -0.892781
#
#
# Mechanical properties :
#
#
# Convention : Reuss Voigt Hill
#
# Bulk Modulus (GPa) = 28.78560 52.52291 40.65425
# Shear Modulus (GPa) = -1.56509 54.02355 26.22923
#
# Velocity S-wave (km/s) = -0.85886 5.04597 3.51597
# Velocity P-wave (km/s) = 3.54731 7.66183 5.97022
#
# Compressibility (1/GPa) = 0.03473959
#
# Stress axis : x y z
#
# Youngs Moduli (GPa) = 81.68319 133.73245 70.51184
#
# Poissons Ratio (x) = 0.16339 -0.12124
# Poissons Ratio (y) = 0.09980 0.00556
# Poissons Ratio (z) = -0.14045 0.01055
#
# Static dielectric constant tensor:
#      x y z
#    x 1.781500 0.000000 -0.016430 
#    y 0.000000 1.788340 0.000000 
#    z -0.016430 0.000000 1.799240 
# 
# From -- ./inp_files/25040.got.cif
#   From: 2010.05.17/outbox.cif.g08.bks.cpg/sg12_13_cif.got.tgz:25040.got - 2010.06.03 13:09:07.
