data_PCOD9212427
_publ_section_title
;
Structure prediction by ZEFSAII (Michael W. Deem and Ramdas Pophale) SiO2 
 PCOD9212427
Probable space group: C 2/M
;
_chemical_formula_sum "Si O2"
_cell_formula_units_Z 50
_cell_length_a 9.637814
_cell_length_b 17.590333
_cell_length_c 18.121079
_cell_angle_alpha 90.000000
_cell_angle_beta 133.441482
_cell_angle_gamma 90.000000
_cell_volume 2230.587960
_symmetry_space_group_name_H-M "C 2/M"
_symmetry_group_IT_number 12
_symmetry_cell_setting 'monoclinic'
loop_
_space_group_symop_operation_xyz
x,y,z
-x,y,-z
-x,-y,-z
x,-y,z
1/2+x,1/2+y,z
1/2-x,1/2+y,-z
1/2-x,1/2-y,-z
1/2+x,1/2-y,z
loop_
_atom_site_type_symbol
_atom_site_label
_atom_site_fract_x
_atom_site_fract_y
_atom_site_fract_z
Si Si1 0.561503 0.630692 0.129363
Si Si2 0.000000 0.000000 0.000000
Si Si3 0.685036 0.215931 0.359315
Si Si4 0.773993 0.587761 0.907167
Si Si5 0.263560 0.282560 0.223071
Si Si6 0.215831 0.618435 0.636357
Si Si7 0.217167 0.581627 0.479919
O O1 0.336806 0.618099 0.061463
O O2 0.624477 0.717206 0.138961
O O3 0.656725 0.612931 0.244066
O O4 0.612241 0.567630 0.088282
O O5 0.470562 0.241462 0.303191
O O6 0.688494 0.190589 0.275310
O O7 0.801436 0.293966 0.395643
O O8 0.760703 0.153048 0.443600
O O9 0.715770 0.500000 0.874480
O O10 0.722271 0.645441 0.823815
O O11 0.000000 0.589149 0.000000
O O12 0.303459 0.583573 0.593889
O O13 0.009609 0.587129 0.584128
O O14 0.258920 0.500000 0.460035
#
# Coordination Sequence:
#
# PCOD9212427 Si02
#       7
#     8   2   8   8   8   8   8
#     4  11  24  45  69 101 139 183 233 285 348 415
#     4  12  28  40  74 110 130 182 246 298 332 422
#     4  11  21  43  67 105 135 185 234 280 339 420
#     4  11  25  46  68  98 138 180 236 291 360 418
#     4  11  23  44  74  99 136 192 232 281 355 422
#     4  10  21  41  70  94 143 185 226 277 345 421
#     4  11  23  38  67 110 137 182 236 289 334 410
#
# _framework density 22.415616
#
# number of rings (size 3 to 8) (size 9 to 14) (size 15 to 20)
#    0.000    1.120    7.200    1.440    3.360    2.560 
#    0.000    0.000    0.000    0.960    0.000    0.000 
#    0.000    0.000    0.000    0.000    0.000    0.000 
#
# Total GULP energy -139351.351864 kJ/mol
# GULP energy per Si atom -5574.054075 kJ/mol
# Density = 2.236460 g / cm^3
# Si number density = 22.415616 Si / 1000 Ang^3
#
#
#
# Elastic Constant Matrix: (Units=GPa)
#
#
# Indices 1 2 3 4 5 6 
#
# 1 75.3423 14.7631 17.4064 0.0000 -6.0290 0.0000
# 2 14.7631 139.6285 45.5420 0.0000 -16.8295 0.0000
# 3 17.4064 45.5420 74.2559 0.0000 -15.1823 0.0000
# 4 0.0000 0.0000 0.0000 8.9263 0.0000 24.3035
# 5 -6.0290 -16.8295 -15.1823 0.0000 36.8141 0.0000
# 6 0.0000 0.0000 0.0000 24.3035 0.0000 -6.6919
#
#
#
# Elastic Compliance Matrix: (Units=1/GPa)
#
#
# Indices 1 2 3 4 5 6 
#
# 1 0.014091 -0.000453 -0.002835 0.000000 0.000932 0.000000
# 2 -0.000453 0.009104 -0.005069 0.000000 0.001997 0.000000
# 3 -0.002835 -0.005069 0.018207 0.000000 0.004727 0.000000
# 4 0.000000 0.000000 0.000000 0.010289 0.000000 0.037367
# 5 0.000932 0.001997 0.004727 0.000000 0.030178 0.000000
# 6 0.000000 0.000000 0.000000 0.037367 0.000000 -0.013724
#
#
# Mechanical properties :
#
#
# Convention : Reuss Voigt Hill
#
# Bulk Modulus (GPa) = 40.50534 49.40553 44.95544
# Shear Modulus (GPa) = 53.71304 21.91073 37.81188
#
# Velocity S-wave (km/s) = 4.90044 3.12985 4.11159
# Velocity P-wave (km/s) = 7.08015 5.92873 6.52987
#
# Compressibility (1/GPa) = 0.02468810
#
# Stress axis : x y z
#
# Youngs Moduli (GPa) = 70.96734 109.84451 54.92465
#
# Poissons Ratio (x) = 0.04976 0.15570
# Poissons Ratio (y) = 0.03215 0.27841
# Poissons Ratio (z) = 0.20118 0.55679
#
# Static dielectric constant tensor:
#      x y z
#    x 1.879290 0.000000 -0.028850 
#    y 0.000000 1.878450 0.000000 
#    z -0.028850 0.000000 1.922460 
# 
# From -- ./inp_files/257249.got.cif
#   From: 2010.05.17/outbox.cif.g08.bks.cpg/sg12_129_cif.got.tgz:257249.got - 2010.06.03 13:09:07.
