data_PCOD9212753
_publ_section_title
;
Structure prediction by ZEFSAII (Michael W. Deem and Ramdas Pophale) SiO2 
 PCOD9212753
Probable space group: C 2/M
;
_chemical_formula_sum "Si O2"
_cell_formula_units_Z 40
_cell_length_a 9.210506
_cell_length_b 17.920574
_cell_length_c 11.346921
_cell_angle_alpha 90.000000
_cell_angle_beta 108.083631
_cell_angle_gamma 90.000000
_cell_volume 1780.382351
_symmetry_space_group_name_H-M "C 2/M"
_symmetry_group_IT_number 12
_symmetry_cell_setting 'monoclinic'
loop_
_space_group_symop_operation_xyz
x,y,z
-x,y,-z
-x,-y,-z
x,-y,z
1/2+x,1/2+y,z
1/2-x,1/2+y,-z
1/2-x,1/2-y,-z
1/2+x,1/2-y,z
loop_
_atom_site_type_symbol
_atom_site_label
_atom_site_fract_x
_atom_site_fract_y
_atom_site_fract_z
Si Si1 0.774276 0.085560 0.913132
Si Si2 0.978211 0.334735 0.813230
Si Si3 0.909803 0.911935 0.687253
Si Si4 0.858832 0.413374 0.555846
Si Si5 0.838406 0.182001 0.148822
O O1 0.592431 0.098462 0.875335
O O2 0.824544 0.101041 0.791353
O O3 0.813155 0.000000 0.950667
O O4 0.849841 0.139713 0.027242
O O5 0.901147 0.358309 0.671179
O O6 0.839467 0.316964 0.864666
O O7 0.086936 0.262952 0.833040
O O8 0.793662 0.892064 0.553826
O O9 0.065267 0.866208 0.733085
O O10 0.941158 0.000000 0.686719
O O11 0.842817 0.500000 0.592564
O O12 0.000000 0.412717 0.500000
#
# Coordination Sequence:
#
# PCOD9212753 Si02
#       5
#     8   8   8   8   8
#     4  11  23  44  72  99 133 176 220 272 334 398
#     4  12  26  44  66  96 137 179 222 274 332 391
#     4  10  22  43  71 101 133 173 222 275 330 394
#     4  10  21  43  74 100 128 172 222 272 329 396
#     4  12  27  43  64  98 138 181 221 273 330 394
#
# _framework density 22.467085999999998
#
# number of rings (size 3 to 8) (size 9 to 14) (size 15 to 20)
#    0.000    1.000    2.000    4.200    0.000    8.800 
#    0.000    2.000    0.000    0.000    0.000    0.000 
#    0.000    0.000    0.000    0.000    0.000    0.000 
#
# Total GULP energy -112026.587208 kJ/mol
# GULP energy per Si atom -5601.329360 kJ/mol
# Density = 2.241595 g / cm^3
# Si number density = 22.467086 Si / 1000 Ang^3
#
#
#
# Elastic Constant Matrix: (Units=GPa)
#
#
# Indices 1 2 3 4 5 6 
#
# 1 115.3560 24.5117 3.1891 0.0000 14.2367 0.0000
# 2 24.5117 87.8144 56.9409 0.0000 1.6207 0.0000
# 3 3.1891 56.9409 112.4820 0.0000 17.5919 0.0000
# 4 0.0000 0.0000 0.0000 6.1449 0.0000 64.1608
# 5 14.2367 1.6207 17.5919 0.0000 39.6930 0.0000
# 6 0.0000 0.0000 0.0000 64.1608 0.0000 -33.3373
#
#
#
# Elastic Compliance Matrix: (Units=1/GPa)
#
#
# Indices 1 2 3 4 5 6 
#
# 1 0.010125 -0.004505 0.002721 0.000000 -0.004654 0.000000
# 2 -0.004505 0.019380 -0.010542 0.000000 0.005497 0.000000
# 3 0.002721 -0.010542 0.015295 0.000000 -0.007325 0.000000
# 4 0.000000 0.000000 0.000000 0.007714 0.000000 0.014847
# 5 -0.004654 0.005497 -0.007325 0.000000 0.029884 0.000000
# 6 0.000000 0.000000 0.000000 0.014847 0.000000 -0.001422
#
#
# Mechanical properties :
#
#
# Convention : Reuss Voigt Hill
#
# Bulk Modulus (GPa) = 49.63217 53.88175 51.75696
# Shear Modulus (GPa) = 44.50584 17.90084 31.20334
#
# Velocity S-wave (km/s) = 4.45560 2.82575 3.73077
# Velocity P-wave (km/s) = 6.97200 5.88907 6.45329
#
# Compressibility (1/GPa) = 0.02014822
#
# Stress axis : x y z
#
# Youngs Moduli (GPa) = 98.76403 51.60082 65.37888
#
# Poissons Ratio (x) = 0.23245 -0.17791
# Poissons Ratio (y) = 0.44492 0.68925
# Poissons Ratio (z) = -0.26876 0.54399
#
# Static dielectric constant tensor:
#      x y z
#    x 1.832060 0.000000 0.001810 
#    y 0.000000 1.804000 0.000000 
#    z 0.001810 0.000000 1.821210 
# 
# From -- ./inp_files/119138.got.cif
#   From: 2010.05.17/outbox.cif.g08.bks.cpg/sg12_60_cif.got.tgz:119138.got - 2010.06.03 13:09:07.
