data_PCOD9212443
_publ_section_title
;
Structure prediction by ZEFSAII (Michael W. Deem and Ramdas Pophale) SiO2 
 PCOD9212443
Probable space group: C 2/M
;
_chemical_formula_sum "Si O2"
_cell_formula_units_Z 40
_cell_length_a 12.794150
_cell_length_b 25.723806
_cell_length_c 5.202406
_cell_angle_alpha 90.000000
_cell_angle_beta 99.870496
_cell_angle_gamma 90.000000
_cell_volume 1686.841619
_symmetry_space_group_name_H-M "C 2/M"
_symmetry_group_IT_number 12
_symmetry_cell_setting 'monoclinic'
loop_
_space_group_symop_operation_xyz
x,y,z
-x,y,-z
-x,-y,-z
x,-y,z
1/2+x,1/2+y,z
1/2-x,1/2+y,-z
1/2-x,1/2-y,-z
1/2+x,1/2-y,z
loop_
_atom_site_type_symbol
_atom_site_label
_atom_site_fract_x
_atom_site_fract_y
_atom_site_fract_z
Si Si1 0.942391 0.437622 0.225156
Si Si2 0.289959 0.795673 0.329746
Si Si3 0.169472 0.877317 0.526212
Si Si4 0.097483 0.789346 0.851724
Si Si5 0.190216 0.939335 0.052717
O O1 0.961838 0.500000 0.232634
O O2 0.816024 0.432980 0.161288
O O3 0.000000 0.416442 0.500000
O O4 0.000000 0.415353 0.000000
O O5 0.250000 0.750000 0.500000
O O6 0.279020 0.847883 0.490286
O O7 0.203599 0.800821 0.064700
O O8 0.393430 0.769900 0.248249
O O9 0.132008 0.906149 0.250943
O O10 0.103431 0.830041 0.621284
O O11 0.175833 0.918380 0.758897
O O12 0.000000 0.795728 0.000000
O O13 0.162734 0.000000 0.059885
#
# Coordination Sequence:
#
# PCOD9212443 Si02
#       5
#     8   8   8   8   8
#     4   9  17  31  52  77 106 150 211 263 306 362
#     4   9  20  39  67  96 128 163 200 271 317 391
#     4  11  21  39  62  92 131 160 218 257 313 377
#     4  10  21  41  71  98 125 169 208 257 332 395
#     4  11  22  37  62  87 124 178 219 264 316 367
#
# _framework density 23.712956999999999
#
# number of rings (size 3 to 8) (size 9 to 14) (size 15 to 20)
#    0.000    2.000    2.000    1.800    0.000    6.400 
#    0.000    1.000   22.000    3.600    0.000    0.000 
#    0.000    0.000    0.000    0.000    0.000    0.000 
#
# Total GULP energy -111679.267830 kJ/mol
# GULP energy per Si atom -5583.963391 kJ/mol
# Density = 2.365899 g / cm^3
# Si number density = 23.712957 Si / 1000 Ang^3
#
#
#
# Elastic Constant Matrix: (Units=GPa)
#
#
# Indices 1 2 3 4 5 6 
#
# 1 49.3186 27.4489 26.8647 0.0000 -10.6405 0.0000
# 2 27.4489 128.1523 60.1734 0.0000 -32.9366 0.0000
# 3 26.8647 60.1734 164.8534 0.0000 -19.3481 0.0000
# 4 0.0000 0.0000 0.0000 48.0652 0.0000 -10.6141
# 5 -10.6405 -32.9366 -19.3481 0.0000 38.2671 0.0000
# 6 0.0000 0.0000 0.0000 -10.6141 0.0000 4.9514
#
#
#
# Elastic Compliance Matrix: (Units=1/GPa)
#
#
# Indices 1 2 3 4 5 6 
#
# 1 0.024000 -0.003360 -0.002382 0.000000 0.002577 0.000000
# 2 -0.003360 0.011887 -0.002871 0.000000 0.007846 0.000000
# 3 -0.002382 -0.002871 0.007584 0.000000 0.000702 0.000000
# 4 0.000000 0.000000 0.000000 0.039506 0.000000 0.084687
# 5 0.002577 0.007846 0.000702 0.000000 0.033956 0.000000
# 6 0.000000 0.000000 0.000000 0.084687 0.000000 0.383501
#
#
# Mechanical properties :
#
#
# Convention : Reuss Voigt Hill
#
# Bulk Modulus (GPa) = 38.10045 63.47760 50.78903
# Shear Modulus (GPa) = 9.49833 33.44589 21.47211
#
# Velocity S-wave (km/s) = 2.00356 3.75967 3.01242
# Velocity P-wave (km/s) = 4.63191 6.75826 5.79347
#
# Compressibility (1/GPa) = 0.02624641
#
# Stress axis : x y z
#
# Youngs Moduli (GPa) = 41.66697 84.12453 131.85004
#
# Poissons Ratio (x) = 0.28262 0.31410
# Poissons Ratio (y) = 0.13998 0.37850
# Poissons Ratio (z) = 0.09926 0.24149
#
# Static dielectric constant tensor:
#      x y z
#    x 1.965120 0.000000 0.030160 
#    y 0.000000 1.931770 0.000000 
#    z 0.030160 0.000000 1.949140 
# 
# From -- ./inp_files/11879.got.cif
#   From: 2010.05.17/outbox.cif.g08.bks.cpg/sg12_6_cif.got.tgz:11879.got - 2010.06.03 13:09:07.
