data_PCOD9212156
_publ_section_title
;
Structure prediction by ZEFSAII (Michael W. Deem and Ramdas Pophale) SiO2 
 PCOD9212156
Probable space group: C 2/M
;
_chemical_formula_sum "Si O2"
_cell_formula_units_Z 48
_cell_length_a 27.811868
_cell_length_b 21.670864
_cell_length_c 12.811743
_cell_angle_alpha 90.000000
_cell_angle_beta 18.098468
_cell_angle_gamma 90.000000
_cell_volume 2398.763214
_symmetry_space_group_name_H-M "C 2/M"
_symmetry_group_IT_number 12
_symmetry_cell_setting 'monoclinic'
loop_
_space_group_symop_operation_xyz
x,y,z
-x,y,-z
-x,-y,-z
x,-y,z
1/2+x,1/2+y,z
1/2-x,1/2+y,-z
1/2-x,1/2-y,-z
1/2+x,1/2-y,z
loop_
_atom_site_type_symbol
_atom_site_label
_atom_site_fract_x
_atom_site_fract_y
_atom_site_fract_z
Si Si1 0.759337 0.931395 0.449674
Si Si2 0.420026 0.595861 0.331096
Si Si3 0.713428 0.789138 0.778215
Si Si4 0.671115 0.193471 0.104214
Si Si5 0.633434 0.431126 0.313984
Si Si6 0.914431 0.687747 0.270145
O O1 0.803534 0.930022 0.481671
O O2 0.646891 0.876413 0.648909
O O3 0.701913 0.000000 0.542621
O O4 0.914792 0.918206 0.061406
O O5 0.361850 0.666423 0.456914
O O6 0.415294 0.573482 0.461838
O O7 0.769262 0.725207 0.613579
O O8 0.676365 0.784154 0.974989
O O9 0.556339 0.817957 0.056581
O O10 0.500000 0.185060 0.500000
O O11 0.750000 0.250000 0.000000
O O12 0.758936 0.127993 0.928213
O O13 0.500000 0.427494 0.500000
O O14 0.703817 0.500000 0.156948
O O15 0.000000 0.724009 0.000000
#
# Coordination Sequence:
#
# PCOD9212156 Si02
#       6
#     8   8   8   8   8   8
#     4  11  23  39  62  90 130 171 206 249 302 374
#     4  10  21  41  64  94 121 166 211 252 310 368
#     4  11  24  41  66  92 123 162 205 264 311 366
#     4  11  24  43  66  92 125 163 211 261 317 372
#     4  10  22  41  67  95 126 163 208 260 314 373
#     4  12  24  40  60  92 127 160 208 252 310 369
#
# _framework density 20.010313
#
# number of rings (size 3 to 8) (size 9 to 14) (size 15 to 20)
#    0.000    1.167    1.667    5.000    2.333    6.000 
#    0.000    0.833    0.000    0.000    0.000    0.000 
#    0.000    0.000    0.000    0.000    0.000    0.000 
#
# Total GULP energy -133840.304909 kJ/mol
# GULP energy per Si atom -5576.679371 kJ/mol
# Density = 1.996477 g / cm^3
# Si number density = 20.010313 Si / 1000 Ang^3
#
#
#
# Elastic Constant Matrix: (Units=GPa)
#
#
# Indices 1 2 3 4 5 6 
#
# 1 159.1471 74.3729 58.7182 -0.0010 7.0499 -0.0019
# 2 74.3729 133.0171 72.7906 -0.0001 5.6732 0.0057
# 3 58.7182 72.7906 111.1053 0.0025 4.7842 0.0147
# 4 -0.0010 -0.0001 0.0025 8.7224 0.0003 15.7495
# 5 7.0499 5.6732 4.7842 0.0003 30.3733 -0.0008
# 6 -0.0019 0.0057 0.0147 15.7495 -0.0008 99.1162
#
#
#
# Elastic Compliance Matrix: (Units=1/GPa)
#
#
# Indices 1 2 3 4 5 6 
#
# 1 0.008880 -0.003706 -0.002221 0.000001 -0.001019 0.000001
# 2 -0.003706 0.013296 -0.006728 0.000002 -0.000563 0.000000
# 3 -0.002221 -0.006728 0.014605 -0.000002 -0.000528 -0.000002
# 4 0.000001 0.000002 -0.000002 0.160777 -0.000002 -0.025547
# 5 -0.001019 -0.000563 -0.000528 -0.000002 0.033349 0.000001
# 6 0.000001 0.000000 -0.000002 -0.025547 0.000001 0.014149
#
#
# Mechanical properties :
#
#
# Convention : Reuss Voigt Hill
#
# Bulk Modulus (GPa) = 87.17987 90.55924 88.86955
# Shear Modulus (GPa) = 18.23566 40.80156 29.51861
#
# Velocity S-wave (km/s) = 3.02207 4.52046 3.84496
# Velocity P-wave (km/s) = 7.47257 8.52060 8.01373
#
# Compressibility (1/GPa) = 0.01147054
#
# Stress axis : x y z
#
# Youngs Moduli (GPa) = 112.61150 75.21256 68.47111
#
# Poissons Ratio (x) = 0.27875 0.15208
# Poissons Ratio (y) = 0.41736 0.46065
# Poissons Ratio (z) = 0.25012 0.50601
#
# Static dielectric constant tensor:
#      x y z
#    x 1.772380 0.000000 -0.006880 
#    y 0.000000 1.728720 0.000000 
#    z -0.006880 0.000000 1.681780 
# 
# From -- ./inp_files/184775.got.cif
#   From: 2010.05.17/outbox.cif.g08.bks.cpg/sg12_93_cif.got.tgz:184775.got - 2010.06.03 13:09:07.
