data_PCOD9212648
_publ_section_title
;
Structure prediction by ZEFSAII (Michael W. Deem and Ramdas Pophale) SiO2 
 PCOD9212648
Probable space group: C 2/M
;
_chemical_formula_sum "Si O2"
_cell_formula_units_Z 36
_cell_length_a 10.818684
_cell_length_b 16.852999
_cell_length_c 9.021462
_cell_angle_alpha 90.000000
_cell_angle_beta 118.413224
_cell_angle_gamma 90.000000
_cell_volume 1446.716867
_symmetry_space_group_name_H-M "C 2/M"
_symmetry_group_IT_number 12
_symmetry_cell_setting 'monoclinic'
loop_
_space_group_symop_operation_xyz
x,y,z
-x,y,-z
-x,-y,-z
x,-y,z
1/2+x,1/2+y,z
1/2-x,1/2+y,-z
1/2-x,1/2-y,-z
1/2+x,1/2-y,z
loop_
_atom_site_type_symbol
_atom_site_label
_atom_site_fract_x
_atom_site_fract_y
_atom_site_fract_z
Si Si1 0.000000 0.154849 0.000000
Si Si2 0.245681 0.592363 0.379115
Si Si3 0.923384 0.590318 0.143682
Si Si4 0.265666 0.851946 0.302224
Si Si5 0.184133 0.814608 0.833032
O O1 0.870132 0.109490 0.854770
O O2 0.064257 0.197845 0.889564
O O3 0.261747 0.500000 0.423529
O O4 0.250100 0.641937 0.532631
O O5 0.351723 0.620653 0.312106
O O6 0.088721 0.604127 0.221151
O O7 0.891483 0.500000 0.081332
O O8 0.894974 0.602568 0.302419
O O9 0.815785 0.649134 0.999959
O O10 0.277324 0.762344 0.243649
#
# Coordination Sequence:
#
# PCOD9212648 Si02
#       5
#     4   8   8   8   8
#     4  10  24  44  63  94 133 184 224 264 334 394
#     4  11  24  44  70 104 136 173 227 284 340 392
#     4  10  21  42  71 100 133 173 224 287 341 390
#     4  11  24  42  67  99 140 178 223 275 336 408
#     4  11  24  42  69 100 138 177 227 275 334 408
#
# _framework density 24.883928000000001
#
# number of rings (size 3 to 8) (size 9 to 14) (size 15 to 20)
#    0.000    1.333    0.000    6.000    6.222    4.444 
#    4.000   21.111    0.000    0.000    0.000    0.000 
#    0.000    0.000    0.000    0.000    0.000    0.000 
#
# Total GULP energy -100526.099850 kJ/mol
# GULP energy per Si atom -5584.783325 kJ/mol
# Density = 2.482729 g / cm^3
# Si number density = 24.883928 Si / 1000 Ang^3
#
#
#
# Elastic Constant Matrix: (Units=GPa)
#
#
# Indices 1 2 3 4 5 6 
#
# 1 91.8667 37.6278 67.0570 0.0000 -38.1644 0.0000
# 2 37.6278 105.9770 54.8174 0.0000 -16.8824 0.0000
# 3 67.0570 54.8174 112.3920 0.0000 -52.9261 0.0000
# 4 0.0000 0.0000 0.0000 24.7166 0.0000 -6.8364
# 5 -38.1644 -16.8824 -52.9261 0.0000 55.9676 0.0000
# 6 0.0000 0.0000 0.0000 -6.8364 0.0000 14.5583
#
#
#
# Elastic Compliance Matrix: (Units=1/GPa)
#
#
# Indices 1 2 3 4 5 6 
#
# 1 0.020058 -0.001783 -0.008852 0.000000 0.004769 0.000000
# 2 -0.001783 0.013201 -0.007341 0.000000 -0.004176 0.000000
# 3 -0.008852 -0.007341 0.025013 0.000000 0.015403 0.000000
# 4 0.000000 0.000000 0.000000 0.046498 0.000000 0.021835
# 5 0.004769 -0.004176 0.015403 0.000000 0.034425 0.000000
# 6 0.000000 0.000000 0.000000 0.021835 0.000000 0.078943
#
#
# Mechanical properties :
#
#
# Convention : Reuss Voigt Hill
#
# Bulk Modulus (GPa) = 44.80509 69.91557 57.36033
# Shear Modulus (GPa) = 19.11811 29.09738 24.10775
#
# Velocity S-wave (km/s) = 2.77481 3.42325 3.11594
# Velocity P-wave (km/s) = 5.32079 6.61684 6.00389
#
# Compressibility (1/GPa) = 0.02231889
#
# Stress axis : x y z
#
# Youngs Moduli (GPa) = 49.85443 75.75021 39.97964
#
# Poissons Ratio (x) = 0.13509 0.35390
# Poissons Ratio (y) = 0.08891 0.29350
# Poissons Ratio (z) = 0.44131 0.55611
#
# Static dielectric constant tensor:
#      x y z
#    x 2.041690 0.000000 -0.017700 
#    y 0.000000 1.990870 0.000000 
#    z -0.017700 0.000000 1.995300 
# 
# From -- ./inp_files/48875.got.cif
#   From: 2010.05.17/outbox.cif.g08.bks.cpg/sg12_25_cif.got.tgz:48875.got - 2010.06.03 13:09:07.
