data_PCOD9212281
_publ_section_title
;
Structure prediction by ZEFSAII (Michael W. Deem and Ramdas Pophale) SiO2 
 PCOD9212281
Probable space group: C 2/M
;
_chemical_formula_sum "Si O2"
_cell_formula_units_Z 44
_cell_length_a 24.305226
_cell_length_b 15.891828
_cell_length_c 14.773283
_cell_angle_alpha 90.000000
_cell_angle_beta 18.755645
_cell_angle_gamma 90.000000
_cell_volume 1834.745216
_symmetry_space_group_name_H-M "C 2/M"
_symmetry_group_IT_number 12
_symmetry_cell_setting 'monoclinic'
loop_
_space_group_symop_operation_xyz
x,y,z
-x,y,-z
-x,-y,-z
x,-y,z
1/2+x,1/2+y,z
1/2-x,1/2+y,-z
1/2-x,1/2-y,-z
1/2+x,1/2-y,z
loop_
_atom_site_type_symbol
_atom_site_label
_atom_site_fract_x
_atom_site_fract_y
_atom_site_fract_z
Si Si1 0.033754 0.255238 0.098449
Si Si2 0.924947 0.820504 0.782441
Si Si3 0.353265 0.000000 0.509501
Si Si4 0.791768 0.139873 0.391449
Si Si5 0.765069 0.405097 0.311208
Si Si6 0.944056 0.362434 0.687453
O O1 0.130981 0.217867 0.032742
O O2 0.976643 0.179009 0.124271
O O3 0.845803 0.288067 0.421536
O O4 0.122337 0.332458 0.910473
O O5 0.988970 0.736297 0.632622
O O6 0.074681 0.885875 0.571082
O O7 0.762950 0.861364 0.986198
O O8 0.238552 0.070821 0.635262
O O9 0.469552 0.074727 0.376886
O O10 0.736042 0.104352 0.578270
O O11 0.821148 0.500000 0.199558
O O12 0.000000 0.388439 0.500000
#
# Coordination Sequence:
#
# PCOD9212281 Si02
#       6
#     8   8   4   8   8   8
#     4  10  21  41  67 101 141 182 218 279 357 424
#     4  10  23  44  69 100 142 183 224 295 345 413
#     4  12  23  44  69 100 136 183 232 308 320 406
#     4  10  22  41  66 103 139 178 225 283 349 412
#     4  11  23  39  72 108 141 177 230 283 349 421
#     4  11  24  44  72  94 134 189 241 277 348 403
#
# _framework density 23.981532000000001
#
# number of rings (size 3 to 8) (size 9 to 14) (size 15 to 20)
#    0.000    1.455    2.727    1.909    2.545    0.727 
#    3.273    0.000    0.000   13.636    2.364    0.000 
#    0.000    0.000    0.000    0.000    0.000    0.000 
#
# Total GULP energy -122552.618038 kJ/mol
# GULP energy per Si atom -5570.573547 kJ/mol
# Density = 2.392695 g / cm^3
# Si number density = 23.981532 Si / 1000 Ang^3
#
#
#
# Elastic Constant Matrix: (Units=GPa)
#
#
# Indices 1 2 3 4 5 6 
#
# 1 111.4099 73.5275 34.6292 -0.0009 -29.1186 0.0004
# 2 73.5275 169.9197 54.4506 -0.0002 -20.1914 0.0001
# 3 34.6292 54.4506 65.5340 -0.0015 -15.0037 0.0007
# 4 -0.0009 -0.0002 -0.0015 20.9366 0.0006 -19.5824
# 5 -29.1186 -20.1914 -15.0037 0.0006 28.3379 -0.0003
# 6 0.0004 0.0001 0.0007 -19.5824 -0.0003 51.2841
#
#
#
# Elastic Compliance Matrix: (Units=1/GPa)
#
#
# Indices 1 2 3 4 5 6 
#
# 1 0.015833 -0.004944 -0.001525 0.000000 0.011939 0.000000
# 2 -0.004944 0.009722 -0.005738 -0.000001 -0.001191 0.000000
# 3 -0.001525 -0.005738 0.022233 0.000002 0.006116 0.000000
# 4 0.000000 -0.000001 0.000002 0.074298 -0.000001 0.028370
# 5 0.011939 -0.001191 0.006116 -0.000001 0.049946 0.000000
# 6 0.000000 0.000000 0.000000 0.028370 0.000000 0.030332
#
#
# Mechanical properties :
#
#
# Convention : Reuss Voigt Hill
#
# Bulk Modulus (GPa) = 42.78306 74.67536 58.72921
# Shear Modulus (GPa) = 21.31570 32.39547 26.85558
#
# Velocity S-wave (km/s) = 2.98457 3.67938 3.35004
# Velocity P-wave (km/s) = 5.45487 7.01831 6.28539
#
# Compressibility (1/GPa) = 0.02337374
#
# Stress axis : x y z
#
# Youngs Moduli (GPa) = 63.15802 102.86470 44.97871
#
# Poissons Ratio (x) = 0.50854 0.06861
# Poissons Ratio (y) = 0.31224 0.25807
# Poissons Ratio (z) = 0.09634 0.59020
#
# Static dielectric constant tensor:
#      x y z
#    x 1.963160 0.000000 0.092290 
#    y 0.000000 1.878050 0.000000 
#    z 0.092290 0.000000 2.023290 
# 
# From -- ./inp_files/241394.got.cif
#   From: 2010.05.17/outbox.cif.g08.bks.cpg/sg12_121_cif.got.tgz:241394.got - 2010.06.03 13:09:07.
