data_PCOD9212616
_publ_section_title
;
Structure prediction by ZEFSAII (Michael W. Deem and Ramdas Pophale) SiO2 
 PCOD9212616
Probable space group: C 2/M
;
_chemical_formula_sum "Si O2"
_cell_formula_units_Z 34
_cell_length_a 15.566438
_cell_length_b 17.284480
_cell_length_c 7.137785
_cell_angle_alpha 90.000000
_cell_angle_beta 130.751592
_cell_angle_gamma 90.000000
_cell_volume 1454.851016
_symmetry_space_group_name_H-M "C 2/M"
_symmetry_group_IT_number 12
_symmetry_cell_setting 'monoclinic'
loop_
_space_group_symop_operation_xyz
x,y,z
-x,y,-z
-x,-y,-z
x,-y,z
1/2+x,1/2+y,z
1/2-x,1/2+y,-z
1/2-x,1/2-y,-z
1/2+x,1/2-y,z
loop_
_atom_site_type_symbol
_atom_site_label
_atom_site_fract_x
_atom_site_fract_y
_atom_site_fract_z
Si Si1 0.727784 0.588211 0.162450
Si Si2 0.978727 0.198459 0.194034
Si Si3 0.275702 0.335007 0.449616
Si Si4 0.590673 0.130988 0.868001
Si Si5 0.500000 0.000000 0.000000
O O1 0.691809 0.500000 0.081006
O O2 0.736435 0.606046 0.395292
O O3 0.633409 0.647039 0.946816
O O4 0.846203 0.602533 0.227616
O O5 0.094972 0.163747 0.438081
O O6 0.964583 0.285783 0.240467
O O7 0.000000 0.202371 0.000000
O O8 0.250000 0.250000 0.500000
O O9 0.189931 0.353845 0.163064
O O10 0.513281 0.067648 0.856190
#
# Coordination Sequence:
#
# PCOD9212616 Si02
#       5
#     8   8   8   8   2
#     4  11  25  43  66 101 139 176 231 285 332 411
#     4  10  21  42  69  95 132 178 225 277 334 404
#     4  11  23  43  70  99 131 182 226 275 346 404
#     4  12  23  47  67  98 140 176 222 286 343 405
#     4  12  24  44  74  94 142 178 216 288 350 396
#
# _framework density 23.370087999999999
#
# number of rings (size 3 to 8) (size 9 to 14) (size 15 to 20)
#    0.000    0.941    7.059    0.706    1.647    5.176 
#    0.000    5.882    0.000    0.000    0.000    0.000 
#    0.000    0.000    0.000    0.000    0.000    0.000 
#
# Total GULP energy -95023.713144 kJ/mol
# GULP energy per Si atom -5589.630185 kJ/mol
# Density = 2.331690 g / cm^3
# Si number density = 23.370088 Si / 1000 Ang^3
#
#
#
# Elastic Constant Matrix: (Units=GPa)
#
#
# Indices 1 2 3 4 5 6 
#
# 1 126.8525 51.9535 9.4550 0.0000 -2.5404 0.0000
# 2 51.9535 156.5209 -7.1482 0.0000 -10.0424 0.0000
# 3 9.4550 -7.1482 88.8764 0.0000 -10.4708 0.0000
# 4 0.0000 0.0000 0.0000 3.9302 0.0000 -121.9165
# 5 -2.5404 -10.0424 -10.4708 0.0000 26.8356 0.0000
# 6 0.0000 0.0000 0.0000 -121.9165 0.0000 1145.9451
#
#
#
# Elastic Compliance Matrix: (Units=1/GPa)
#
#
# Indices 1 2 3 4 5 6 
#
# 1 0.009274 -0.003194 -0.001343 0.000000 -0.000841 0.000000
# 2 -0.003194 0.007708 0.001325 0.000000 0.003099 0.000000
# 3 -0.001343 0.001325 0.012101 0.000000 0.005090 0.000000
# 4 0.000000 0.000000 0.000000 -0.110615 0.000000 -0.011768
# 5 -0.000841 0.003099 0.005090 0.000000 0.040330 0.000000
# 6 0.000000 0.000000 0.000000 -0.011768 0.000000 -0.000379
#
#
# Mechanical properties :
#
#
# Convention : Reuss Voigt Hill
#
# Bulk Modulus (GPa) = 44.12959 53.41892 48.77425
# Shear Modulus (GPa) = -181.13283 256.54149 37.70433
#
# Velocity S-wave (km/s) = -8.81332 10.48865 4.02102
# Velocity P-wave (km/s) = 9.20011 13.02266 6.51720
#
# Compressibility (1/GPa) = 0.02266053
#
# Stress axis : x y z
#
# Youngs Moduli (GPa) = 107.82368 129.72951 82.64019
#
# Poissons Ratio (x) = 0.41432 0.11095
# Poissons Ratio (y) = 0.34436 -0.10949
# Poissons Ratio (z) = 0.14476 -0.17187
#
# Static dielectric constant tensor:
#      x y z
#    x 1.886530 0.000000 0.026720 
#    y 0.000000 1.831470 0.000000 
#    z 0.026720 0.000000 1.924200 
# 
# From -- ./inp_files/73414.got.cif
#   From: 2010.05.17/outbox.cif.g08.bks.cpg/sg12_37_cif.got.tgz:73414.got - 2010.06.03 13:09:07.
