data_PCOD9212675
_publ_section_title
;
Structure prediction by ZEFSAII (Michael W. Deem and Ramdas Pophale) SiO2 
 PCOD9212675
Probable space group: C 2/M
;
_chemical_formula_sum "Si O2"
_cell_formula_units_Z 34
_cell_length_a 8.280348
_cell_length_b 15.263325
_cell_length_c 12.958920
_cell_angle_alpha 90.000000
_cell_angle_beta 63.230177
_cell_angle_gamma 90.000000
_cell_volume 1462.284917
_symmetry_space_group_name_H-M "C 2/M"
_symmetry_group_IT_number 12
_symmetry_cell_setting 'monoclinic'
loop_
_space_group_symop_operation_xyz
x,y,z
-x,y,-z
-x,-y,-z
x,-y,z
1/2+x,1/2+y,z
1/2-x,1/2+y,-z
1/2-x,1/2-y,-z
1/2+x,1/2-y,z
loop_
_atom_site_type_symbol
_atom_site_label
_atom_site_fract_x
_atom_site_fract_y
_atom_site_fract_z
Si Si1 0.509388 0.185660 0.726549
Si Si2 0.593049 0.678404 0.874518
Si Si3 0.253950 0.000000 0.629869
Si Si4 0.500000 0.000000 0.000000
Si Si5 0.504848 0.000000 0.764080
Si Si6 0.579585 0.500000 0.150461
Si Si7 0.000000 0.654331 0.500000
O O1 0.579472 0.262846 0.776699
O O2 0.605943 0.092268 0.716994
O O3 0.508167 0.205133 0.605238
O O4 0.306096 0.167903 0.827102
O O5 0.485614 0.588383 0.887876
O O6 0.500000 0.724020 0.000000
O O7 0.330333 0.912824 0.555167
O O8 0.355978 0.000000 0.712992
O O9 0.042577 0.000000 0.711017
O O10 0.576258 0.000000 0.097980
O O11 0.292402 0.000000 0.104645
#
# Coordination Sequence:
#
# PCOD9212675 Si02
#       7
#     8   8   4   2   4   4   4
#     4  11  24  42  70 101 134 181 226 283 338 405
#     4  12  25  43  68 101 140 180 230 277 346 411
#     4   9  18  41  76  92 122 187 241 267 324 420
#     4  12  28  34  72  98 144 168 222 290 344 394
#     4  10  21  43  62  97 132 182 215 277 341 403
#     4  12  24  46  66 101 134 189 225 275 343 413
#     4   9  18  42  72  99 128 178 240 279 322 409
#
# _framework density 23.251282
#
# number of rings (size 3 to 8) (size 9 to 14) (size 15 to 20)
#    0.000    1.176    4.706    3.176    4.941    0.941 
#    0.000    0.000    0.000   12.000    0.000    0.000 
#    0.000    0.000    0.000    0.000    0.000    0.000 
#
# Total GULP energy -94763.298291 kJ/mol
# GULP energy per Si atom -5574.311664 kJ/mol
# Density = 2.319836 g / cm^3
# Si number density = 23.251282 Si / 1000 Ang^3
#
#
#
# Elastic Constant Matrix: (Units=GPa)
#
#
# Indices 1 2 3 4 5 6 
#
# 1 70.2671 28.9655 27.5121 0.0000 -22.5934 0.0000
# 2 28.9655 89.5032 10.6953 0.0000 20.8044 0.0000
# 3 27.5121 10.6953 161.6436 0.0000 18.2140 0.0000
# 4 0.0000 0.0000 0.0000 25.2142 0.0000 4.3217
# 5 -22.5934 20.8044 18.2140 0.0000 61.9492 0.0000
# 6 0.0000 0.0000 0.0000 4.3217 0.0000 5.2220
#
#
#
# Elastic Compliance Matrix: (Units=1/GPa)
#
#
# Indices 1 2 3 4 5 6 
#
# 1 0.025497 -0.011003 -0.005250 0.000000 0.014538 0.000000
# 2 -0.011003 0.016887 0.001910 0.000000 -0.010246 0.000000
# 3 -0.005250 0.001910 0.007490 0.000000 -0.004758 0.000000
# 4 0.000000 0.000000 0.000000 0.046216 0.000000 -0.038248
# 5 0.014538 -0.010246 -0.004758 0.000000 0.026284 0.000000
# 6 0.000000 0.000000 0.000000 -0.038248 0.000000 0.223151
#
#
# Mechanical properties :
#
#
# Convention : Reuss Voigt Hill
#
# Bulk Modulus (GPa) = 47.19745 50.63996 48.91870
# Shear Modulus (GPa) = 13.11393 35.42648 24.27021
#
# Velocity S-wave (km/s) = 2.37746 3.90761 3.23433
# Velocity P-wave (km/s) = 5.28009 6.49507 5.91884
#
# Compressibility (1/GPa) = 0.02118758
#
# Stress axis : x y z
#
# Youngs Moduli (GPa) = 39.22027 59.21691 133.51611
#
# Poissons Ratio (x) = 0.65158 0.70092
# Poissons Ratio (y) = 0.43155 -0.25501
# Poissons Ratio (z) = 0.20589 -0.11310
#
# Static dielectric constant tensor:
#      x y z
#    x 1.865820 0.000000 0.012200 
#    y 0.000000 1.883580 0.000000 
#    z 0.012200 0.000000 1.901480 
# 
# From -- ./inp_files/194967.got.cif
#   From: 2010.05.17/outbox.cif.g08.bks.cpg/sg12_98_cif.got.tgz:194967.got - 2010.06.03 13:09:07.
