data_PCOD9212219
_publ_section_title
;
Structure prediction by ZEFSAII (Michael W. Deem and Ramdas Pophale) SiO2 
 PCOD9212219
Probable space group: C 2/M
;
_chemical_formula_sum "Si O2"
_cell_formula_units_Z 48
_cell_length_a 12.040147
_cell_length_b 23.822973
_cell_length_c 7.641506
_cell_angle_alpha 90.000000
_cell_angle_beta 70.512752
_cell_angle_gamma 90.000000
_cell_volume 2066.271923
_symmetry_space_group_name_H-M "C 2/M"
_symmetry_group_IT_number 12
_symmetry_cell_setting 'monoclinic'
loop_
_space_group_symop_operation_xyz
x,y,z
-x,y,-z
-x,-y,-z
x,-y,z
1/2+x,1/2+y,z
1/2-x,1/2+y,-z
1/2-x,1/2-y,-z
1/2+x,1/2-y,z
loop_
_atom_site_type_symbol
_atom_site_label
_atom_site_fract_x
_atom_site_fract_y
_atom_site_fract_z
Si Si1 0.829817 0.606734 0.789486
Si Si2 0.536615 0.500000 0.181145
Si Si3 0.516286 0.000000 0.275483
Si Si4 0.000000 0.693566 0.500000
Si Si5 0.068099 0.204071 0.683226
Si Si6 0.146377 0.913169 0.578009
Si Si7 0.741787 0.000000 0.739016
Si Si8 0.676913 0.694202 0.012956
O O1 0.910160 0.555582 0.805591
O O2 0.913268 0.653671 0.654938
O O3 0.736117 0.585025 0.695368
O O4 0.756898 0.638932 0.976452
O O5 0.472053 0.446424 0.304128
O O6 0.677632 0.500000 0.129474
O O7 0.500000 0.500000 0.000000
O O8 0.500000 0.000000 0.500000
O O9 0.396753 0.000000 0.225738
O O10 0.926125 0.736156 0.415119
O O11 0.119770 0.151391 0.552531
O O12 0.129418 0.200013 0.839489
O O13 0.931650 0.193519 0.799387
O O14 0.209139 0.946179 0.391511
O O15 0.750000 0.750000 0.000000
#
# Coordination Sequence:
#
# PCOD9212219 Si02
#       8
#     8   4   4   4   8   8   4   8
#     4  11  22  39  72 101 137 186 227 277 358 405
#     4  11  26  41  67  96 133 182 230 280 350 419
#     4  12  20  42  71 106 142 175 225 295 342 409
#     4  12  22  39  64 107 134 178 238 276 338 412
#     4  10  24  38  65  98 136 173 234 282 336 412
#     4  10  21  41  65  97 132 174 231 288 347 400
#     4  11  22  43  69 101 136 177 225 292 360 402
#     4  10  21  44  62  90 141 187 220 276 349 408
#
# _framework density 23.230243000000002
#
# number of rings (size 3 to 8) (size 9 to 14) (size 15 to 20)
#    0.000    1.333    4.167    1.500    7.000    2.667 
#    0.000    1.667    3.667    1.000    0.000    0.000 
#    0.000    0.000    0.000    0.000    0.000    0.000 
#
# Total GULP energy -134396.837204 kJ/mol
# GULP energy per Si atom -5599.868217 kJ/mol
# Density = 2.317737 g / cm^3
# Si number density = 23.230243 Si / 1000 Ang^3
#
#
#
# Elastic Constant Matrix: (Units=GPa)
#
#
# Indices 1 2 3 4 5 6 
#
# 1 176.7316 74.2385 33.0369 0.0000 -3.5269 0.0000
# 2 74.2385 168.6701 40.1529 0.0000 -13.7914 0.0000
# 3 33.0369 40.1529 47.7112 0.0000 3.5370 0.0000
# 4 0.0000 0.0000 0.0000 26.8349 0.0000 -5.5820
# 5 -3.5269 -13.7914 3.5370 0.0000 34.8895 0.0000
# 6 0.0000 0.0000 0.0000 -5.5820 0.0000 44.9897
#
#
#
# Elastic Compliance Matrix: (Units=1/GPa)
#
#
# Indices 1 2 3 4 5 6 
#
# 1 0.007253 -0.002492 -0.002929 0.000000 0.000045 0.000000
# 2 -0.002492 0.008745 -0.005916 0.000000 0.003805 0.000000
# 3 -0.002929 -0.005916 0.028375 0.000000 -0.005511 0.000000
# 4 0.000000 0.000000 0.000000 0.038252 0.000000 0.004746
# 5 0.000045 0.003805 -0.005511 0.000000 0.030729 0.000000
# 6 0.000000 0.000000 0.000000 0.004746 0.000000 0.022816
#
#
# Mechanical properties :
#
#
# Convention : Reuss Voigt Hill
#
# Bulk Modulus (GPa) = 46.08360 76.44105 61.26232
# Shear Modulus (GPa) = 30.10635 37.72180 33.91408
#
# Velocity S-wave (km/s) = 3.60390 4.03404 3.82502
# Velocity P-wave (km/s) = 6.09904 7.39427 6.77767
#
# Compressibility (1/GPa) = 0.02169969
#
# Stress axis : x y z
#
# Youngs Moduli (GPa) = 137.86795 114.35283 35.24197
#
# Poissons Ratio (x) = 0.28491 0.10322
# Poissons Ratio (y) = 0.34350 0.20850
# Poissons Ratio (z) = 0.40382 0.67655
#
# Static dielectric constant tensor:
#      x y z
#    x 1.883650 0.000000 0.022030 
#    y 0.000000 2.049740 0.000000 
#    z 0.022030 0.000000 1.891760 
# 
# From -- ./inp_files/51420.got.cif
#   From: 2010.05.17/outbox.cif.g08.bks.cpg/sg12_26_cif.got.tgz:51420.got - 2010.06.03 13:09:07.
