data_PCOD9212480
_publ_section_title
;
Structure prediction by ZEFSAII (Michael W. Deem and Ramdas Pophale) SiO2 
 PCOD9212480
Probable space group: C 2/M
;
_chemical_formula_sum "Si O2"
_cell_formula_units_Z 54
_cell_length_a 17.436620
_cell_length_b 19.652060
_cell_length_c 8.502874
_cell_angle_alpha 90.000000
_cell_angle_beta 76.760430
_cell_angle_gamma 90.000000
_cell_volume 2836.199811
_symmetry_space_group_name_H-M "C 2/M"
_symmetry_group_IT_number 12
_symmetry_cell_setting 'monoclinic'
loop_
_space_group_symop_operation_xyz
x,y,z
-x,y,-z
-x,-y,-z
x,-y,z
1/2+x,1/2+y,z
1/2-x,1/2+y,-z
1/2-x,1/2-y,-z
1/2+x,1/2-y,z
loop_
_atom_site_type_symbol
_atom_site_label
_atom_site_fract_x
_atom_site_fract_y
_atom_site_fract_z
Si Si1 0.000000 0.500000 0.000000
Si Si2 0.000000 0.837443 0.000000
Si Si3 0.811201 0.298046 0.385817
Si Si4 0.661118 0.419380 0.909926
Si Si5 0.802289 0.425072 0.606986
Si Si6 0.422257 0.884710 0.815655
Si Si7 0.513386 0.249774 0.678230
Si Si8 0.228173 0.675614 0.945775
O O1 0.971201 0.439808 0.889082
O O2 0.076938 0.883692 0.933154
O O3 0.985694 0.794386 0.843996
O O4 0.750000 0.250000 0.500000
O O5 0.822001 0.366530 0.477701
O O6 0.893884 0.259745 0.336495
O O7 0.775239 0.317819 0.237196
O O8 0.654140 0.500000 0.945168
O O9 0.717952 0.412204 0.730656
O O10 0.709529 0.379375 0.021202
O O11 0.801507 0.500000 0.535455
O O12 0.868467 0.420837 0.710143
O O13 0.473224 0.824325 0.715474
O O14 0.357918 0.847701 0.956817
O O15 0.500000 0.272696 0.500000
O O16 0.250000 0.750000 0.000000
#
# Coordination Sequence:
#
# PCOD9212480 Si02
#       8
#     2   4   8   8   8   8   8   8
#     4  12  22  36  70  90 132 180 214 276 334 406
#     4  12  24  44  70  98 130 170 228 286 339 395
#     4  12  24  40  64  94 130 169 216 271 334 390
#     4  10  23  43  70  94 128 172 219 276 343 400
#     4  10  21  42  62  91 133 174 212 263 329 407
#     4  11  22  42  59  93 133 170 221 271 324 400
#     4  12  25  42  66 100 134 175 223 279 335 396
#     4  11  23  41  68  95 126 173 224 274 328 401
#
# _framework density 19.039560000000002
#
# number of rings (size 3 to 8) (size 9 to 14) (size 15 to 20)
#    0.000    0.889    2.222    6.889    3.111    0.593 
#    4.000    1.111    0.000    0.889    0.000    0.000 
#    0.000    0.000    0.000    0.000    0.000    0.000 
#
# Total GULP energy -150559.978745 kJ/mol
# GULP energy per Si atom -5576.295509 kJ/mol
# Density = 1.899623 g / cm^3
# Si number density = 19.039560 Si / 1000 Ang^3
#
#
#
# Elastic Constant Matrix: (Units=GPa)
#
#
# Indices 1 2 3 4 5 6 
#
# 1 54.7964 17.8566 9.0620 0.0000 -7.4751 0.0000
# 2 17.8566 102.2591 39.9872 0.0000 8.1525 0.0000
# 3 9.0620 39.9872 76.6052 0.0000 26.0690 0.0000
# 4 0.0000 0.0000 0.0000 115.3849 0.0000 -30.5331
# 5 -7.4751 8.1525 26.0690 0.0000 32.8785 0.0000
# 6 0.0000 0.0000 0.0000 -30.5331 0.0000 38.7139
#
#
#
# Elastic Compliance Matrix: (Units=1/GPa)
#
#
# Indices 1 2 3 4 5 6 
#
# 1 0.020989 -0.002809 -0.003941 0.000000 0.008593 0.000000
# 2 -0.002809 0.012853 -0.006950 0.000000 0.001685 0.000000
# 3 -0.003941 -0.006950 0.023099 0.000000 -0.017488 0.000000
# 4 0.000000 0.000000 0.000000 0.010952 0.000000 0.008638
# 5 0.008593 0.001685 -0.017488 0.000000 0.045817 0.000000
# 6 0.000000 0.000000 0.000000 0.008638 0.000000 0.032643
#
#
# Mechanical properties :
#
#
# Convention : Reuss Voigt Hill
#
# Bulk Modulus (GPa) = 33.85172 40.83025 37.34098
# Shear Modulus (GPa) = 27.23299 48.51245 37.87272
#
# Velocity S-wave (km/s) = 3.78608 5.05323 4.46484
# Velocity P-wave (km/s) = 6.07707 7.45241 6.79960
#
# Compressibility (1/GPa) = 0.02954060
#
# Stress axis : x y z
#
# Youngs Moduli (GPa) = 47.64464 77.80200 43.29144
#
# Poissons Ratio (x) = 0.21856 0.17060
# Poissons Ratio (y) = 0.13384 0.30089
# Poissons Ratio (z) = 0.18775 0.54075
#
# Static dielectric constant tensor:
#      x y z
#    x 1.654950 0.000000 -0.039140 
#    y 0.000000 1.561350 0.000000 
#    z -0.039140 0.000000 1.689710 
# 
# From -- ./inp_files/75922.got.cif
#   From: 2010.05.17/outbox.cif.g08.bks.cpg/sg12_38_cif.got.tgz:75922.got - 2010.06.03 13:09:07.
