data_PCOD9212211
_publ_section_title
;
Structure prediction by ZEFSAII (Michael W. Deem and Ramdas Pophale) SiO2 
 PCOD9212211
Probable space group: C 2/M
;
_chemical_formula_sum "Si O2"
_cell_formula_units_Z 52
_cell_length_a 9.370450
_cell_length_b 18.768762
_cell_length_c 20.555604
_cell_angle_alpha 90.000000
_cell_angle_beta 135.980658
_cell_angle_gamma 90.000000
_cell_volume 2512.171927
_symmetry_space_group_name_H-M "C 2/M"
_symmetry_group_IT_number 12
_symmetry_cell_setting 'monoclinic'
loop_
_space_group_symop_operation_xyz
x,y,z
-x,y,-z
-x,-y,-z
x,-y,z
1/2+x,1/2+y,z
1/2-x,1/2+y,-z
1/2-x,1/2-y,-z
1/2+x,1/2-y,z
loop_
_atom_site_type_symbol
_atom_site_label
_atom_site_fract_x
_atom_site_fract_y
_atom_site_fract_z
Si Si1 0.394755 0.753634 0.266716
Si Si2 0.718201 0.853872 0.034510
Si Si3 0.323256 0.374935 0.624893
Si Si4 0.954121 0.625323 0.590039
Si Si5 0.143316 0.000000 0.713525
Si Si6 0.763060 0.500000 0.901104
Si Si7 0.241742 0.000000 0.599787
Si Si8 0.439486 0.207050 0.142032
O O1 0.567551 0.694394 0.310623
O O2 0.472812 0.804431 0.349055
O O3 0.373440 0.800657 0.194769
O O4 0.184299 0.712518 0.213866
O O5 0.855078 0.785028 0.093785
O O6 0.818484 0.926240 0.094819
O O7 0.500000 0.843843 0.000000
O O8 0.658557 0.850359 0.938953
O O9 0.203626 0.356578 0.519484
O O10 0.495911 0.431761 0.664998
O O11 0.156269 0.405162 0.620438
O O12 0.848126 0.568999 0.602857
O O13 0.252177 0.000000 0.819496
O O14 0.264239 0.000000 0.685297
O O15 0.000000 0.500000 0.000000
O O16 0.000000 0.000000 0.500000
#
# Coordination Sequence:
#
# PCOD9212211 Si02
#       8
#     8   8   8   8   4   4   4   8
#     4  12  24  41  66 101 133 177 234 275 343 401
#     4  10  21  41  65  95 133 169 225 282 343 407
#     4  11  24  44  66  97 136 189 226 271 346 399
#     4  11  25  43  65  97 141 177 225 287 331 401
#     4  12  25  42  75  95 136 183 231 275 341 413
#     4  10  24  39  67 102 132 166 224 286 333 408
#     4  12  25  45  67 104 133 182 232 281 338 397
#     4  11  23  40  66  95 133 180 222 277 341 417
#
# _framework density 20.699221000000001
#
# number of rings (size 3 to 8) (size 9 to 14) (size 15 to 20)
#    0.000    0.923    4.615    1.846    4.308    1.231 
#    2.769    0.000    0.000    0.923    0.000    0.000 
#    0.000    0.000    0.000    0.000    0.000    0.000 
#
# Total GULP energy -145325.539636 kJ/mol
# GULP energy per Si atom -5589.443832 kJ/mol
# Density = 2.065211 g / cm^3
# Si number density = 20.699221 Si / 1000 Ang^3
#
#
#
# Elastic Constant Matrix: (Units=GPa)
#
#
# Indices 1 2 3 4 5 6 
#
# 1 75.1319 16.8774 21.9758 0.0001 -8.6363 0.0000
# 2 16.8774 61.8411 24.0774 0.0000 -4.2645 0.0000
# 3 21.9758 24.0774 107.5295 0.0002 -19.8670 0.0000
# 4 0.0001 0.0000 0.0002 -22.3405 0.0001 -0.4412
# 5 -8.6363 -4.2645 -19.8670 0.0001 37.4841 0.0000
# 6 0.0000 0.0000 0.0000 -0.4412 0.0000 31.4833
#
#
#
# Elastic Compliance Matrix: (Units=1/GPa)
#
#
# Indices 1 2 3 4 5 6 
#
# 1 0.014820 -0.003146 -0.001951 0.000000 0.002023 0.000000
# 2 -0.003146 0.018383 -0.003570 0.000000 -0.000526 0.000000
# 3 -0.001951 -0.003570 0.011462 0.000000 0.005219 0.000000
# 4 0.000000 0.000000 0.000000 -0.044749 0.000000 -0.000627
# 5 0.002023 -0.000526 0.005219 0.000000 0.029851 0.000000
# 6 0.000000 0.000000 0.000000 -0.000627 0.000000 0.031754
#
#
# Mechanical properties :
#
#
# Convention : Reuss Voigt Hill
#
# Bulk Modulus (GPa) = 36.58799 41.15153 38.86976
# Shear Modulus (GPa) = 56.84176 21.43020 39.13598
#
# Velocity S-wave (km/s) = 5.24599 3.22112 4.35293
# Velocity P-wave (km/s) = 7.37620 5.81017 6.63952
#
# Compressibility (1/GPa) = 0.02733137
#
# Stress axis : x y z
#
# Youngs Moduli (GPa) = 67.47826 54.39868 87.24298
#
# Poissons Ratio (x) = 0.17111 0.17018
# Poissons Ratio (y) = 0.21226 0.31150
# Poissons Ratio (z) = 0.13163 0.19423
#
# Static dielectric constant tensor:
#      x y z
#    x 1.730740 0.000000 -0.010920 
#    y 0.000000 1.747000 0.000000 
#    z -0.010920 0.000000 1.755820 
# 
# From -- ./inp_files/258576.got.cif
#   From: 2010.05.17/outbox.cif.g08.bks.cpg/sg12_130_cif.got.tgz:258576.got - 2010.06.03 13:09:07.
