data_PCOD9212323
_publ_section_title
;
Structure prediction by ZEFSAII (Michael W. Deem and Ramdas Pophale) SiO2 
 PCOD9212323
Probable space group: C 2/M
;
_chemical_formula_sum "Si O2"
_cell_formula_units_Z 48
_cell_length_a 16.478377
_cell_length_b 16.722759
_cell_length_c 21.333262
_cell_angle_alpha 90.000000
_cell_angle_beta 21.296552
_cell_angle_gamma 90.000000
_cell_volume 2135.107210
_symmetry_space_group_name_H-M "C 2/M"
_symmetry_group_IT_number 12
_symmetry_cell_setting 'monoclinic'
loop_
_space_group_symop_operation_xyz
x,y,z
-x,y,-z
-x,-y,-z
x,-y,z
1/2+x,1/2+y,z
1/2-x,1/2+y,-z
1/2-x,1/2-y,-z
1/2+x,1/2-y,z
loop_
_atom_site_type_symbol
_atom_site_label
_atom_site_fract_x
_atom_site_fract_y
_atom_site_fract_z
Si Si1 0.262830 0.126742 0.795509
Si Si2 0.264266 0.154032 0.664018
Si Si3 0.752044 0.909350 0.706009
Si Si4 0.863225 0.813886 0.749610
Si Si5 0.244372 0.408559 0.472316
Si Si6 0.581001 0.788912 0.074116
O O1 0.287879 0.094925 0.705824
O O2 0.330307 0.220871 0.755212
O O3 0.477085 0.090744 0.677880
O O4 0.000000 0.114563 0.000000
O O5 0.500000 0.200311 0.500000
O O6 0.227518 0.120691 0.620973
O O7 0.076563 0.213281 0.823593
O O8 0.768916 0.866036 0.760746
O O9 0.581492 0.858989 0.786271
O O10 0.000000 0.908540 0.500000
O O11 0.675891 0.000000 0.767251
O O12 0.109313 0.847348 0.590932
O O13 0.714844 0.821769 0.918702
O O14 0.327862 0.500000 0.419213
O O15 0.750000 0.750000 0.000000
#
# Coordination Sequence:
#
# PCOD9212323 Si02
#       6
#     8   8   8   8   8   8
#     4  11  22  40  69 100 129 179 233 283 339 401
#     4  10  21  41  67  94 130 179 223 278 331 408
#     4  11  26  46  70 101 142 184 227 287 355 412
#     4  12  23  42  72 102 138 178 232 287 345 420
#     4  11  26  43  65 101 138 181 227 280 347 410
#     4  12  23  41  68 103 135 176 231 284 340 412
#
# _framework density 22.481307000000001
#
# number of rings (size 3 to 8) (size 9 to 14) (size 15 to 20)
#    0.000    0.833    5.000    2.000    2.333    6.667 
#    0.000    0.000    0.000    0.000    0.000    0.000 
#    0.000    0.000    0.000    0.000    0.000    0.000 
#
# Total GULP energy -133837.177291 kJ/mol
# GULP energy per Si atom -5576.549054 kJ/mol
# Density = 2.243014 g / cm^3
# Si number density = 22.481307 Si / 1000 Ang^3
#
#
#
# Elastic Constant Matrix: (Units=GPa)
#
#
# Indices 1 2 3 4 5 6 
#
# 1 86.1780 22.7396 40.7804 -0.0193 -24.3876 0.0191
# 2 22.7396 111.2831 15.3572 -0.0154 -18.1585 -0.0052
# 3 40.7804 15.3572 116.7963 0.0945 -24.3732 -0.0661
# 4 -0.0193 -0.0154 0.0945 -3.9107 -0.0602 12.8226
# 5 -24.3876 -18.1585 -24.3732 -0.0602 38.8657 0.0045
# 6 0.0191 -0.0052 -0.0661 12.8226 0.0045 4.4760
#
#
#
# Elastic Compliance Matrix: (Units=1/GPa)
#
#
# Indices 1 2 3 4 5 6 
#
# 1 0.015765 -0.001589 -0.003896 -0.000068 0.006706 0.000061
# 2 -0.001589 0.009903 0.000012 -0.000004 0.003637 0.000025
# 3 -0.003896 0.000012 0.010829 0.000075 0.004352 -0.000042
# 4 -0.000068 -0.000004 0.000075 -0.024603 -0.000044 0.070483
# 5 0.006706 0.003637 0.004352 -0.000044 0.034366 0.000130
# 6 0.000061 0.000025 -0.000042 0.070483 0.000130 0.021497
#
#
# Mechanical properties :
#
#
# Convention : Reuss Voigt Hill
#
# Bulk Modulus (GPa) = 39.14033 52.44576 45.79305
# Shear Modulus (GPa) = 57.32682 23.57821 40.45251
#
# Velocity S-wave (km/s) = 5.05521 3.24202 4.24652
# Velocity P-wave (km/s) = 7.17785 6.11502 6.66764
#
# Compressibility (1/GPa) = 0.02554909
#
# Stress axis : x y z
#
# Youngs Moduli (GPa) = 63.43329 100.98293 92.34728
#
# Poissons Ratio (x) = 0.16051 0.35977
# Poissons Ratio (y) = 0.10082 -0.00109
# Poissons Ratio (z) = 0.24712 -0.00119
#
# Static dielectric constant tensor:
#      x y z
#    x 3.554120 -0.000850 -1.068760 
#    y -0.000850 1.870070 0.000620 
#    z -1.068760 0.000620 2.593700 
# 
# From -- ./inp_files/344452.got.cif
#   From: 2010.05.17/outbox.cif.g08.bks.cpg/sg12_173_cif.got.tgz:344452.got - 2010.06.03 13:09:07.
