data_PCOD9212604
_publ_section_title
;
Structure prediction by ZEFSAII (Michael W. Deem and Ramdas Pophale) SiO2 
 PCOD9212604
Probable space group: C 2/M
;
_chemical_formula_sum "Si O2"
_cell_formula_units_Z 58
_cell_length_a 12.266462
_cell_length_b 16.635293
_cell_length_c 21.072196
_cell_angle_alpha 90.000000
_cell_angle_beta 143.818879
_cell_angle_gamma 90.000000
_cell_volume 2538.408950
_symmetry_space_group_name_H-M "C 2/M"
_symmetry_group_IT_number 12
_symmetry_cell_setting 'monoclinic'
loop_
_space_group_symop_operation_xyz
x,y,z
-x,y,-z
-x,-y,-z
x,-y,z
1/2+x,1/2+y,z
1/2-x,1/2+y,-z
1/2-x,1/2-y,-z
1/2+x,1/2-y,z
loop_
_atom_site_type_symbol
_atom_site_label
_atom_site_fract_x
_atom_site_fract_y
_atom_site_fract_z
Si Si1 0.731667 0.815257 0.830690
Si Si2 0.500000 0.000000 0.000000
Si Si3 0.198919 0.361933 0.179391
Si Si4 0.992985 0.095778 0.570889
Si Si5 0.573544 0.089697 0.371399
Si Si6 0.965943 0.905867 0.834508
Si Si7 0.162150 0.590545 0.611919
Si Si8 0.302412 0.160605 0.044297
O O1 0.760806 0.720364 0.839606
O O2 0.523438 0.842915 0.716159
O O3 0.870599 0.855587 0.845650
O O4 0.763517 0.850204 0.915034
O O5 0.628182 0.069753 0.097724
O O6 0.366712 0.374916 0.308530
O O7 0.018245 0.350293 0.138498
O O8 0.000000 0.125254 0.500000
O O9 0.779714 0.109413 0.490023
O O10 0.025480 0.000000 0.582995
O O11 0.436446 0.083190 0.366373
O O12 0.579282 0.000000 0.343409
O O13 0.865570 0.877561 0.722447
O O14 0.922667 0.000000 0.820132
O O15 0.183427 0.896307 0.942938
O O16 0.184140 0.500000 0.593657
O O17 0.000000 0.637224 0.500000
O O18 0.250000 0.250000 0.000000
#
# Coordination Sequence:
#
# PCOD9212604 Si02
#       8
#     8   2   8   8   8   8   8   8
#     4  11  23  44  70  95 138 174 219 294 341 404
#     4  12  28  52  66  96 140 194 232 290 328 428
#     4  12  26  47  69  98 140 184 236 284 347 411
#     4  10  21  42  68  99 135 175 229 284 338 415
#     4   9  19  38  66 100 129 167 216 264 341 406
#     4  10  22  40  66 101 131 170 228 280 341 406
#     4   8  15  33  56  88 128 163 202 263 325 390
#     4  12  25  43  65  93 129 184 226 275 343 403
#
# _framework density 22.848956999999999
#
# number of rings (size 3 to 8) (size 9 to 14) (size 15 to 20)
#    0.000    1.655    2.069    3.310    0.966    2.207 
#    4.966    2.759    0.000    0.000    0.000    0.000 
#    0.000    0.000    0.000    0.000    0.000    0.000 
#
# Total GULP energy -161511.325666 kJ/mol
# GULP energy per Si atom -5569.356057 kJ/mol
# Density = 2.279695 g / cm^3
# Si number density = 22.848957 Si / 1000 Ang^3
#
#
#
# Elastic Constant Matrix: (Units=GPa)
#
#
# Indices 1 2 3 4 5 6 
#
# 1 31.2816 10.9098 20.8674 -0.0001 3.8817 0.0000
# 2 10.9098 93.0845 50.0235 -0.0001 3.4587 -0.0001
# 3 20.8674 50.0235 205.7448 -0.0005 15.2524 -0.0002
# 4 -0.0001 -0.0001 -0.0005 29.2665 -0.0001 -1.6055
# 5 3.8817 3.4587 15.2524 -0.0001 36.4893 0.0000
# 6 0.0000 -0.0001 -0.0002 -1.6055 0.0000 8.2610
#
#
#
# Elastic Compliance Matrix: (Units=1/GPa)
#
#
# Indices 1 2 3 4 5 6 
#
# 1 0.034980 -0.002530 -0.002760 0.000000 -0.002328 0.000000
# 2 -0.002530 0.012541 -0.002811 0.000000 0.000256 0.000000
# 3 -0.002760 -0.002811 0.005967 0.000000 -0.001934 0.000000
# 4 0.000000 0.000000 0.000000 0.034537 0.000000 0.006712
# 5 -0.002328 0.000256 -0.001934 0.000000 0.028437 0.000000
# 6 0.000000 0.000000 0.000000 0.006712 0.000000 0.122355
#
#
# Mechanical properties :
#
#
# Convention : Reuss Voigt Hill
#
# Bulk Modulus (GPa) = 26.82036 54.85692 40.83864
# Shear Modulus (GPa) = 18.69518 31.35737 25.02628
#
# Velocity S-wave (km/s) = 2.86354 3.70858 3.31311
# Velocity P-wave (km/s) = 4.76411 6.51143 5.70506
#
# Compressibility (1/GPa) = 0.03728511
#
# Stress axis : x y z
#
# Youngs Moduli (GPa) = 28.58763 79.73960 167.58061
#
# Poissons Ratio (x) = 0.20174 0.46255
# Poissons Ratio (y) = 0.07233 0.47114
# Poissons Ratio (z) = 0.07891 0.22418
#
# Static dielectric constant tensor:
#      x y z
#    x 1.891040 0.000000 -0.017630 
#    y 0.000000 1.957620 0.000000 
#    z -0.017630 0.000000 2.050750 
# 
# From -- ./inp_files/340674.got.cif
#   From: 2010.05.17/outbox.cif.g08.bks.cpg/sg12_171_cif.got.tgz:340674.got - 2010.06.03 13:09:07.
