data_PCOD9212880
_publ_section_title
;
Structure prediction by ZEFSAII (Michael W. Deem and Ramdas Pophale) SiO2 
 PCOD9212880
Probable space group: C 2/M
;
_chemical_formula_sum "Si O2"
_cell_formula_units_Z 56
_cell_length_a 9.762869
_cell_length_b 28.344915
_cell_length_c 21.985428
_cell_angle_alpha 90.000000
_cell_angle_beta 150.567771
_cell_angle_gamma 90.000000
_cell_volume 2989.628061
_symmetry_space_group_name_H-M "C 2/M"
_symmetry_group_IT_number 12
_symmetry_cell_setting 'monoclinic'
loop_
_space_group_symop_operation_xyz
x,y,z
-x,y,-z
-x,-y,-z
x,-y,z
1/2+x,1/2+y,z
1/2-x,1/2+y,-z
1/2-x,1/2-y,-z
1/2+x,1/2-y,z
loop_
_atom_site_type_symbol
_atom_site_label
_atom_site_fract_x
_atom_site_fract_y
_atom_site_fract_z
Si Si1 0.167931 0.500000 0.128367
Si Si2 0.861383 0.131018 0.293140
Si Si3 0.821689 0.606324 0.145954
Si Si4 0.649715 0.201379 0.491340
Si Si5 0.333482 0.000000 0.125913
Si Si6 0.188554 0.099039 0.853920
Si Si7 0.858516 0.944071 0.511813
Si Si8 0.643421 0.875847 0.704530
O O1 0.337499 0.547867 0.188061
O O2 0.967022 0.500000 0.109640
O O3 0.000000 0.500000 0.000000
O O4 0.534261 0.130312 0.181598
O O5 0.880395 0.132799 0.228222
O O6 0.063862 0.171635 0.394183
O O7 0.977972 0.084302 0.372575
O O8 0.904423 0.550399 0.183164
O O9 0.879452 0.630782 0.232423
O O10 0.500000 0.608703 0.000000
O O11 0.500000 0.206207 0.500000
O O12 0.750000 0.250000 0.500000
O O13 0.449677 0.169649 0.370339
O O14 0.000000 0.000000 0.000000
O O15 0.958684 0.107541 0.815345
O O16 0.500000 0.103901 0.000000
O O17 0.558616 0.918890 0.392770
O O18 0.000000 0.936914 0.500000
O O19 0.849408 0.000000 0.520180
#
# Coordination Sequence:
#
# PCOD9212880 Si02
#       8
#     4   8   8   8   4   8   8   8
#     4  10  22  34  52  83 126 185 223 248 296 348
#     4  11  22  41  63  92 125 163 209 258 316 373
#     4  11  23  37  62  92 133 175 218 257 302 368
#     4  11  26  47  73  97 120 154 207 266 325 390
#     4  10  22  34  52  85 126 179 229 252 282 352
#     4  11  23  39  61  88 133 173 213 255 308 368
#     4  10  22  36  57  86 123 169 213 265 308 348
#     4  11  24  41  63  95 123 163 215 257 320 379
#
# _framework density 18.731428000000001
#
# number of rings (size 3 to 8) (size 9 to 14) (size 15 to 20)
#    0.000    1.286    4.286    0.857   12.000    0.000 
#    0.000    0.714    0.000    5.143    0.000    0.000 
#    0.000    0.000    0.000    0.000    0.000    0.000 
#
# Total GULP energy -156139.512267 kJ/mol
# GULP energy per Si atom -5576.411152 kJ/mol
# Density = 1.868879 g / cm^3
# Si number density = 18.731428 Si / 1000 Ang^3
#
#
#
# Elastic Constant Matrix: (Units=GPa)
#
#
# Indices 1 2 3 4 5 6 
#
# 1 48.2177 24.5065 -7.4887 0.0013 -2.8666 -0.0006
# 2 24.5065 104.8124 31.6494 0.0022 1.1234 -0.0002
# 3 -7.4887 31.6494 79.6201 -0.0015 6.6482 -0.0008
# 4 0.0013 0.0022 -0.0015 14.1808 0.0015 0.0649
# 5 -2.8666 1.1234 6.6482 0.0015 42.2964 -0.0008
# 6 -0.0006 -0.0002 -0.0008 0.0649 -0.0008 25.6669
#
#
#
# Elastic Compliance Matrix: (Units=1/GPa)
#
#
# Indices 1 2 3 4 5 6 
#
# 1 0.025480 -0.007574 0.005316 -0.000001 0.001092 0.000001
# 2 -0.007574 0.013100 -0.005926 -0.000002 0.000070 0.000000
# 3 0.005316 -0.005926 0.015576 0.000002 -0.001931 0.000000
# 4 -0.000001 -0.000002 0.000002 0.070519 -0.000003 -0.000178
# 5 0.001092 0.000070 -0.001931 -0.000003 0.024018 0.000001
# 6 0.000001 0.000000 0.000000 -0.000178 0.000001 0.038961
#
#
# Mechanical properties :
#
#
# Convention : Reuss Voigt Hill
#
# Bulk Modulus (GPa) = 26.46323 36.66495 31.56409
# Shear Modulus (GPa) = 23.08203 28.69435 25.88819
#
# Velocity S-wave (km/s) = 3.51417 3.91817 3.72166
# Velocity P-wave (km/s) = 5.53391 6.33135 5.94601
#
# Compressibility (1/GPa) = 0.03778828
#
# Stress axis : x y z
#
# Youngs Moduli (GPa) = 39.24717 76.33320 64.19977
#
# Poissons Ratio (x) = 0.57818 -0.34130
# Poissons Ratio (y) = 0.29727 0.38043
# Poissons Ratio (z) = -0.20864 0.45233
#
# Static dielectric constant tensor:
#      x y z
#    x 1.684810 -0.000020 -0.070450 
#    y -0.000020 1.679150 0.000020 
#    z -0.070450 0.000020 1.763860 
# 
# From -- ./inp_files/303092.got.cif
#   From: 2010.05.17/outbox.cif.g08.bks.cpg/sg12_152_cif.got.tgz:303092.got - 2010.06.03 13:09:07.
