data_PCOD9212699
_publ_section_title
;
Structure prediction by ZEFSAII (Michael W. Deem and Ramdas Pophale) SiO2 
 PCOD9212699
Probable space group: C 2/M
;
_chemical_formula_sum "Si O2"
_cell_formula_units_Z 34
_cell_length_a 16.866064
_cell_length_b 12.665765
_cell_length_c 7.551700
_cell_angle_alpha 90.000000
_cell_angle_beta 124.897643
_cell_angle_gamma 90.000000
_cell_volume 1323.112109
_symmetry_space_group_name_H-M "C 2/M"
_symmetry_group_IT_number 12
_symmetry_cell_setting 'monoclinic'
loop_
_space_group_symop_operation_xyz
x,y,z
-x,y,-z
-x,-y,-z
x,-y,z
1/2+x,1/2+y,z
1/2-x,1/2+y,-z
1/2-x,1/2-y,-z
1/2+x,1/2-y,z
loop_
_atom_site_type_symbol
_atom_site_label
_atom_site_fract_x
_atom_site_fract_y
_atom_site_fract_z
Si Si1 0.852010 0.341785 0.297160
Si Si2 0.500000 0.000000 0.500000
Si Si3 0.903469 0.343815 0.967363
Si Si4 0.865667 0.113906 0.868848
Si Si5 0.187137 0.117942 0.605995
O O1 0.931342 0.406857 0.503681
O O2 0.744383 0.377367 0.204445
O O3 0.852243 0.216279 0.330592
O O4 0.876668 0.380158 0.130114
O O5 0.916458 0.217714 0.004218
O O6 0.803311 0.363977 0.734415
O O7 0.000000 0.384995 0.000000
O O8 0.858664 0.121592 0.647233
O O9 0.905280 0.000000 0.972569
O O10 0.171941 0.000000 0.660904
#
# Coordination Sequence:
#
# PCOD9212699 Si02
#       5
#     8   2   8   8   8
#     4  11  24  41  66  95 133 167 217 265 326 387
#     4  12  28  40  72 100 126 172 214 278 328 372
#     4  11  25  38  63  98 131 168 224 273 311 383
#     4  10  21  43  67  91 133 178 211 264 335 391
#     4  10  23  43  69  95 130 176 213 262 335 392
#
# _framework density 25.696991000000001
#
# number of rings (size 3 to 8) (size 9 to 14) (size 15 to 20)
#    0.000    1.412    1.176    5.647    8.235    3.765 
#    0.000    0.588    0.000    0.000    0.000    0.000 
#    0.000    0.000    0.000    0.000    0.000    0.000 
#
# Total GULP energy -94915.562075 kJ/mol
# GULP energy per Si atom -5583.268357 kJ/mol
# Density = 2.563850 g / cm^3
# Si number density = 25.696991 Si / 1000 Ang^3
#
#
#
# Elastic Constant Matrix: (Units=GPa)
#
#
# Indices 1 2 3 4 5 6 
#
# 1 159.0484 43.0605 22.4246 0.0000 7.3630 0.0000
# 2 43.0605 252.3221 -1.4307 0.0000 1.0004 0.0000
# 3 22.4246 -1.4307 36.4209 0.0000 -10.3315 0.0000
# 4 0.0000 0.0000 0.0000 159.1475 0.0000 98.4520
# 5 7.3630 1.0004 -10.3315 0.0000 37.7846 0.0000
# 6 0.0000 0.0000 0.0000 98.4520 0.0000 79.3391
#
#
#
# Elastic Compliance Matrix: (Units=1/GPa)
#
#
# Indices 1 2 3 4 5 6 
#
# 1 0.007561 -0.001310 -0.005545 0.000000 -0.002955 0.000000
# 2 -0.001310 0.004191 0.001097 0.000000 0.000444 0.000000
# 3 -0.005545 0.001097 0.033837 0.000000 0.010303 0.000000
# 4 0.000000 0.000000 0.000000 0.027043 0.000000 -0.033557
# 5 -0.002955 0.000444 0.010303 0.000000 0.029847 0.000000
# 6 0.000000 0.000000 0.000000 -0.033557 0.000000 0.054246
#
#
# Mechanical properties :
#
#
# Convention : Reuss Voigt Hill
#
# Bulk Modulus (GPa) = 29.34839 63.98890 46.66864
# Shear Modulus (GPa) = 27.84016 80.83671 54.33844
#
# Velocity S-wave (km/s) = 3.29508 5.61480 4.60345
# Velocity P-wave (km/s) = 5.09141 8.18474 6.81588
#
# Compressibility (1/GPa) = 0.03407342
#
# Stress axis : x y z
#
# Youngs Moduli (GPa) = 132.26441 238.59466 29.55383
#
# Poissons Ratio (x) = 0.31256 0.16387
# Poissons Ratio (y) = 0.17327 -0.03243
# Poissons Ratio (z) = 0.73337 -0.26180
#
# Static dielectric constant tensor:
#      x y z
#    x 1.994330 0.000000 0.019640 
#    y 0.000000 2.084180 0.000000 
#    z 0.019640 0.000000 2.226370 
# 
# From -- ./inp_files/72573.got.cif
#   From: 2010.05.17/outbox.cif.g08.bks.cpg/sg12_37_cif.got.tgz:72573.got - 2010.06.03 13:09:07.
