data_PCOD9212678
_publ_section_title
;
Structure prediction by ZEFSAII (Michael W. Deem and Ramdas Pophale) SiO2 
 PCOD9212678
Probable space group: C 2/M
;
_chemical_formula_sum "Si O2"
_cell_formula_units_Z 64
_cell_length_a 14.589390
_cell_length_b 27.422991
_cell_length_c 12.699545
_cell_angle_alpha 90.000000
_cell_angle_beta 144.686870
_cell_angle_gamma 90.000000
_cell_volume 2936.983403
_symmetry_space_group_name_H-M "C 2/M"
_symmetry_group_IT_number 12
_symmetry_cell_setting 'monoclinic'
loop_
_space_group_symop_operation_xyz
x,y,z
-x,y,-z
-x,-y,-z
x,-y,z
1/2+x,1/2+y,z
1/2-x,1/2+y,-z
1/2-x,1/2-y,-z
1/2+x,1/2-y,z
loop_
_atom_site_type_symbol
_atom_site_label
_atom_site_fract_x
_atom_site_fract_y
_atom_site_fract_z
Si Si1 0.864708 0.057585 0.192218
Si Si2 0.776990 0.870866 0.694021
Si Si3 0.136715 0.128874 0.991065
Si Si4 0.867461 0.305528 0.790899
Si Si5 0.265072 0.553844 0.515771
Si Si6 0.433082 0.264873 0.170596
Si Si7 0.871565 0.271007 0.455265
Si Si8 0.671129 0.913079 0.215179
O O1 0.796706 0.094048 0.038361
O O2 0.797733 0.072614 0.243842
O O3 0.055013 0.064162 0.358125
O O4 0.830675 0.000000 0.143052
O O5 0.698038 0.908766 0.539740
O O6 0.736419 0.816676 0.611634
O O7 0.959624 0.888093 0.854769
O O8 0.758567 0.869400 0.804089
O O9 0.089452 0.182355 0.903148
O O10 0.739408 0.266726 0.709704
O O11 0.795343 0.358625 0.706954
O O12 0.962367 0.276211 0.790899
O O13 0.000000 0.314101 0.000000
O O14 0.268164 0.500000 0.566182
O O15 0.168503 0.554777 0.317020
O O16 0.531326 0.262229 0.371384
O O17 0.250000 0.250000 0.000000
O O18 0.000000 0.294307 0.500000
O O19 0.500000 0.915705 0.000000
#
# Coordination Sequence:
#
# PCOD9212678 Si02
#       8
#     8   8   8   8   8   8   8   8
#     4  10  23  42  66  97 129 168 226 279 323 391
#     4  10  21  43  63  96 130 167 214 272 328 391
#     4  10  22  39  69  93 129 174 216 270 334 388
#     4  11  24  41  60  95 130 169 218 267 325 400
#     4  10  22  42  70  95 123 168 220 276 332 391
#     4  12  25  40  65  93 131 172 224 273 328 398
#     4  12  25  39  63  93 129 177 212 263 330 391
#     4  11  25  40  65  95 136 171 213 270 336 395
#
# _framework density 21.791066000000001
#
# number of rings (size 3 to 8) (size 9 to 14) (size 15 to 20)
#    0.000    1.250    1.250    4.125    8.750    2.500 
#    2.250    2.500    0.000    0.375    0.000    0.000 
#    0.000    0.000    0.000    0.000    0.000    0.000 
#
# Total GULP energy -178235.573005 kJ/mol
# GULP energy per Si atom -5569.861656 kJ/mol
# Density = 2.174147 g / cm^3
# Si number density = 21.791066 Si / 1000 Ang^3
#
#
#
# Elastic Constant Matrix: (Units=GPa)
#
#
# Indices 1 2 3 4 5 6 
#
# 1 59.9139 42.3265 22.3925 0.0000 -14.5073 0.0000
# 2 42.3265 137.5994 33.8591 0.0000 -16.5224 0.0000
# 3 22.3925 33.8591 86.1220 0.0000 -22.5937 0.0000
# 4 0.0000 0.0000 0.0000 19.5343 0.0000 -6.0120
# 5 -14.5073 -16.5224 -22.5937 0.0000 34.6792 0.0000
# 6 0.0000 0.0000 0.0000 -6.0120 0.0000 11.8371
#
#
#
# Elastic Compliance Matrix: (Units=1/GPa)
#
#
# Indices 1 2 3 4 5 6 
#
# 1 0.022977 -0.005869 -0.002266 0.000000 0.005339 0.000000
# 2 -0.005869 0.009679 -0.002067 0.000000 0.000810 0.000000
# 3 -0.002266 -0.002067 0.015084 0.000000 0.007895 0.000000
# 4 0.000000 0.000000 0.000000 0.060676 0.000000 0.030817
# 5 0.005339 0.000810 0.007895 0.000000 0.036599 0.000000
# 6 0.000000 0.000000 0.000000 0.030817 0.000000 0.100131
#
#
# Mechanical properties :
#
#
# Convention : Reuss Voigt Hill
#
# Bulk Modulus (GPa) = 36.58188 53.42127 45.00158
# Shear Modulus (GPa) = 18.20424 25.54728 21.87576
#
# Velocity S-wave (km/s) = 2.89346 3.42771 3.17185
# Velocity P-wave (km/s) = 5.29026 6.34303 5.84041
#
# Compressibility (1/GPa) = 0.02733594
#
# Stress axis : x y z
#
# Youngs Moduli (GPa) = 43.52266 103.32061 66.29373
#
# Poissons Ratio (x) = 0.60639 0.15022
# Poissons Ratio (y) = 0.25544 0.13702
# Poissons Ratio (z) = 0.09862 0.21354
#
# Static dielectric constant tensor:
#      x y z
#    x 1.607630 0.000000 0.332620 
#    y 0.000000 1.869610 0.000000 
#    z 0.332620 0.000000 1.360060 
# 
# From -- ./inp_files/149816.got.cif
#   From: 2010.05.17/outbox.cif.g08.bks.cpg/sg12_75_cif.got.tgz:149816.got - 2010.06.03 13:09:07.
