data_PCOD9212574
_publ_section_title
;
Structure prediction by ZEFSAII (Michael W. Deem and Ramdas Pophale) SiO2 
 PCOD9212574
Probable space group: C 2/M
;
_chemical_formula_sum "Si O2"
_cell_formula_units_Z 38
_cell_length_a 16.038245
_cell_length_b 20.771518
_cell_length_c 4.965443
_cell_angle_alpha 90.000000
_cell_angle_beta 61.834557
_cell_angle_gamma 90.000000
_cell_volume 1458.306797
_symmetry_space_group_name_H-M "C 2/M"
_symmetry_group_IT_number 12
_symmetry_cell_setting 'monoclinic'
loop_
_space_group_symop_operation_xyz
x,y,z
-x,y,-z
-x,-y,-z
x,-y,z
1/2+x,1/2+y,z
1/2-x,1/2+y,-z
1/2-x,1/2-y,-z
1/2+x,1/2-y,z
loop_
_atom_site_type_symbol
_atom_site_label
_atom_site_fract_x
_atom_site_fract_y
_atom_site_fract_z
Si Si1 0.727374 0.623297 0.729110
Si Si2 0.893087 0.754883 0.047122
Si Si3 0.500000 0.000000 0.000000
Si Si4 0.370515 0.572787 0.595843
Si Si5 0.409697 0.878884 0.813371
Si Si6 0.000000 0.825589 0.500000
O O1 0.717205 0.585289 0.467241
O O2 0.827081 0.614295 0.720658
O O3 0.689948 0.696616 0.740699
O O4 0.657101 0.591352 0.058243
O O5 0.877552 0.679045 0.060887
O O6 0.913773 0.780040 0.712901
O O7 0.000000 0.764618 0.000000
O O8 0.557427 0.942856 0.083282
O O9 0.400779 0.500000 0.529553
O O10 0.450615 0.622558 0.378862
O O11 0.500000 0.856787 0.500000
#
# Coordination Sequence:
#
# PCOD9212574 Si02
#       6
#     8   8   2   8   8   4
#     4  11  27  44  75 106 145 188 247 297 359 429
#     4  11  21  46  71 107 140 183 235 302 364 430
#     4  12  30  48  72 102 142 196 246 304 358 432
#     4  11  24  42  69 107 147 191 228 290 356 438
#     4  12  28  48  73 101 140 192 245 305 362 429
#     4  10  21  42  68 103 144 180 238 284 360 431
#
# _framework density 26.057617
#
# number of rings (size 3 to 8) (size 9 to 14) (size 15 to 20)
#    0.000    0.842    4.211    1.895    5.895    0.000 
#    0.000    7.368    0.000    0.000    0.000    0.000 
#    0.000    0.000    0.000    0.000    0.000    0.000 
#
# Total GULP energy -105970.485761 kJ/mol
# GULP energy per Si atom -5577.393987 kJ/mol
# Density = 2.599831 g / cm^3
# Si number density = 26.057617 Si / 1000 Ang^3
#
#
#
# Elastic Constant Matrix: (Units=GPa)
#
#
# Indices 1 2 3 4 5 6 
#
# 1 179.4358 56.7255 5.8541 0.0000 20.2154 0.0000
# 2 56.7255 236.9692 27.4886 0.0000 22.9740 0.0000
# 3 5.8541 27.4886 55.8422 0.0000 4.8495 0.0000
# 4 0.0000 0.0000 0.0000 15.4330 0.0000 6.2098
# 5 20.2154 22.9740 4.8495 0.0000 39.0096 0.0000
# 6 0.0000 0.0000 0.0000 6.2098 0.0000 32.9184
#
#
#
# Elastic Compliance Matrix: (Units=1/GPa)
#
#
# Indices 1 2 3 4 5 6 
#
# 1 0.006253 -0.001275 0.000191 0.000000 -0.002513 0.000000
# 2 -0.001275 0.004967 -0.002138 0.000000 -0.001999 0.000000
# 3 0.000191 -0.002138 0.019045 0.000000 -0.001207 0.000000
# 4 0.000000 0.000000 0.000000 0.070118 0.000000 -0.013227
# 5 -0.002513 -0.001999 -0.001207 0.000000 0.028264 0.000000
# 6 0.000000 0.000000 0.000000 -0.013227 0.000000 0.032873
#
#
# Mechanical properties :
#
#
# Convention : Reuss Voigt Hill
#
# Bulk Modulus (GPa) = 41.98205 72.48708 57.23457
# Shear Modulus (GPa) = 28.42429 42.95080 35.68754
#
# Velocity S-wave (km/s) = 3.30635 4.06433 3.70478
# Velocity P-wave (km/s) = 5.54275 7.06424 6.34923
#
# Compressibility (1/GPa) = 0.02381970
#
# Stress axis : x y z
#
# Youngs Moduli (GPa) = 159.92054 201.32939 52.50779
#
# Poissons Ratio (x) = 0.25676 -0.01000
# Poissons Ratio (y) = 0.20395 0.11225
# Poissons Ratio (z) = -0.03046 0.43040
#
# Static dielectric constant tensor:
#      x y z
#    x 2.132820 0.000000 0.027070 
#    y 0.000000 1.950010 0.000000 
#    z 0.027070 0.000000 2.319730 
# 
# From -- ./inp_files/15778.got.cif
#   From: 2010.05.17/outbox.cif.g08.bks.cpg/sg12_8_cif.got.tgz:15778.got - 2010.06.03 13:09:07.
