data_PCOD9212382
_publ_section_title
;
Structure prediction by ZEFSAII (Michael W. Deem and Ramdas Pophale) SiO2 
 PCOD9212382
Probable space group: C 2/M
;
_chemical_formula_sum "Si O2"
_cell_formula_units_Z 42
_cell_length_a 19.354941
_cell_length_b 7.277779
_cell_length_c 12.008186
_cell_angle_alpha 90.000000
_cell_angle_beta 68.520145
_cell_angle_gamma 90.000000
_cell_volume 1574.005122
_symmetry_space_group_name_H-M "C 2/M"
_symmetry_group_IT_number 12
_symmetry_cell_setting 'monoclinic'
loop_
_space_group_symop_operation_xyz
x,y,z
-x,y,-z
-x,-y,-z
x,-y,z
1/2+x,1/2+y,z
1/2-x,1/2+y,-z
1/2-x,1/2-y,-z
1/2+x,1/2-y,z
loop_
_atom_site_type_symbol
_atom_site_label
_atom_site_fract_x
_atom_site_fract_y
_atom_site_fract_z
Si Si1 0.484087 0.213880 0.209322
Si Si2 0.805273 0.293815 0.135660
Si Si3 0.267487 0.718935 0.617150
Si Si4 0.647767 0.221634 0.124946
Si Si5 0.427006 0.721344 0.479762
Si Si6 0.000000 0.000000 0.000000
O O1 0.565584 0.268299 0.211655
O O2 0.430130 0.229835 0.347159
O O3 0.473926 0.339953 0.107820
O O4 0.488652 0.000000 0.174251
O O5 0.835395 0.500000 0.130319
O O6 0.793801 0.205028 0.261969
O O7 0.719157 0.299829 0.144436
O O8 0.847649 0.209776 0.006272
O O9 0.267229 0.500000 0.636728
O O10 0.250000 0.750000 0.500000
O O11 0.351433 0.787954 0.582368
O O12 0.657351 0.000000 0.119729
O O13 0.500000 0.788486 0.500000
O O14 0.426207 0.500000 0.485584
#
# Coordination Sequence:
#
# PCOD9212382 Si02
#       6
#     8   8   8   8   8   2
#     4  11  24  42  65  96 132 171 220 276 333 400
#     4   9  18  35  59  87 122 163 205 257 318 384
#     4  10  22  38  59  90 126 169 215 260 323 391
#     4   9  19  35  58  92 123 153 207 267 323 378
#     4  10  21  41  68  98 131 174 227 281 332 395
#     4  12  26  44  62  90 128 172 218 266 334 394
#
# _framework density 26.683520999999999
#
# number of rings (size 3 to 8) (size 9 to 14) (size 15 to 20)
#    0.000    2.095    0.952    1.429    1.333    4.952 
#    0.000    1.905    0.000    0.000    0.000    0.000 
#    0.000    0.000    0.000    0.000    0.000    0.000 
#
# Total GULP energy -117313.898371 kJ/mol
# GULP energy per Si atom -5586.376113 kJ/mol
# Density = 2.662279 g / cm^3
# Si number density = 26.683521 Si / 1000 Ang^3
#
#
#
# Elastic Constant Matrix: (Units=GPa)
#
#
# Indices 1 2 3 4 5 6 
#
# 1 83.2452 -18.8863 -6.1421 0.0000 5.4424 0.0000
# 2 -18.8863 167.9573 2.5973 0.0000 2.6850 0.0000
# 3 -6.1421 2.5973 161.4845 0.0000 0.0967 0.0000
# 4 0.0000 0.0000 0.0000 15.3365 0.0000 5.4993
# 5 5.4424 2.6850 0.0967 0.0000 45.2934 0.0000
# 6 0.0000 0.0000 0.0000 5.4993 0.0000 7.4438
#
#
#
# Elastic Compliance Matrix: (Units=1/GPa)
#
#
# Indices 1 2 3 4 5 6 
#
# 1 0.012472 0.001421 0.000452 0.000000 -0.001584 0.000000
# 2 0.001421 0.006123 -0.000044 0.000000 -0.000534 0.000000
# 3 0.000452 -0.000044 0.006211 0.000000 -0.000065 0.000000
# 4 0.000000 0.000000 0.000000 0.088702 0.000000 -0.065531
# 5 -0.001584 -0.000534 -0.000065 0.000000 0.022300 0.000000
# 6 0.000000 0.000000 0.000000 -0.065531 0.000000 0.182753
#
#
# Mechanical properties :
#
#
# Convention : Reuss Voigt Hill
#
# Bulk Modulus (GPa) = 35.13264 40.86942 38.00103
# Shear Modulus (GPa) = 15.41352 42.62261 29.01806
#
# Velocity S-wave (km/s) = 2.40603 4.00101 3.30129
# Velocity P-wave (km/s) = 4.57314 6.05753 5.36690
#
# Compressibility (1/GPa) = 0.02846356
#
# Stress axis : x y z
#
# Youngs Moduli (GPa) = 80.17979 163.32222 161.01757
#
# Poissons Ratio (x) = -0.23204 -0.07286
# Poissons Ratio (y) = -0.11392 0.00710
# Poissons Ratio (z) = -0.03628 0.00721
#
# Static dielectric constant tensor:
#      x y z
#    x 2.138290 0.000000 0.025120 
#    y 0.000000 1.972790 0.000000 
#    z 0.025120 0.000000 2.064930 
# 
# From -- ./inp_files/163034.got.cif
#   From: 2010.05.17/outbox.cif.g08.bks.cpg/sg12_82_cif.got.tgz:163034.got - 2010.06.03 13:09:07.
