data_PCOD9212625
_publ_section_title
;
Structure prediction by ZEFSAII (Michael W. Deem and Ramdas Pophale) SiO2 
 PCOD9212625
Probable space group: C 2/M
;
_chemical_formula_sum "Si O2"
_cell_formula_units_Z 24
_cell_length_a 13.394966
_cell_length_b 18.215984
_cell_length_c 10.509651
_cell_angle_alpha 90.000000
_cell_angle_beta 157.813803
_cell_angle_gamma 90.000000
_cell_volume 968.355713
_symmetry_space_group_name_H-M "C 2/M"
_symmetry_group_IT_number 12
_symmetry_cell_setting 'monoclinic'
loop_
_space_group_symop_operation_xyz
x,y,z
-x,y,-z
-x,-y,-z
x,-y,z
1/2+x,1/2+y,z
1/2-x,1/2+y,-z
1/2-x,1/2-y,-z
1/2+x,1/2-y,z
loop_
_atom_site_type_symbol
_atom_site_label
_atom_site_fract_x
_atom_site_fract_y
_atom_site_fract_z
Si Si1 0.802909 0.888315 0.374680
Si Si2 0.556445 0.236051 0.389217
Si Si3 0.736914 0.419595 0.379936
O O1 0.821690 0.799735 0.379072
O O2 0.866584 0.907480 0.596774
O O3 0.000000 0.918372 0.500000
O O4 0.500000 0.910978 0.000000
O O5 0.750000 0.250000 0.500000
O O6 0.586180 0.149883 0.450402
O O7 0.250000 0.250000 0.000000
O O8 0.868221 0.500000 0.530750
O O9 0.500000 0.419442 0.000000
#
# Coordination Sequence:
#
# PCOD9212625 Si02
#       3
#     8   8   8
#     4  11  23  43  71 101 135 183 241 294 344 411
#     4  10  21  42  69  98 134 180 236 288 341 412
#     4  10  23  45  72 107 150 190 232 292 366 434
#
# _framework density 24.784281
#
# number of rings (size 3 to 8) (size 9 to 14) (size 15 to 20)
#    0.000    1.667    0.000    5.000    0.000    4.000 
#    0.000   21.667    0.000   37.000    0.000    0.000 
#    0.000    0.000    0.000    0.000    0.000    0.000 
#
# Total GULP energy -67021.532051 kJ/mol
# GULP energy per Si atom -5585.127671 kJ/mol
# Density = 2.472787 g / cm^3
# Si number density = 24.784281 Si / 1000 Ang^3
#
#
#
# Elastic Constant Matrix: (Units=GPa)
#
#
# Indices 1 2 3 4 5 6 
#
# 1 178.3905 4.4714 79.2052 0.0001 -4.3656 0.0001
# 2 4.4714 244.6566 45.7619 0.0000 7.2820 0.0002
# 3 79.2052 45.7619 162.7811 0.0023 20.6374 0.0011
# 4 0.0001 0.0000 0.0023 18.1229 0.0008 -0.6105
# 5 -4.3656 7.2820 20.6374 0.0008 48.4496 0.0002
# 6 0.0001 0.0002 0.0011 -0.6105 0.0002 -12.7137
#
#
#
# Elastic Compliance Matrix: (Units=1/GPa)
#
#
# Indices 1 2 3 4 5 6 
#
# 1 0.007461 0.000558 -0.004082 0.000000 0.002327 0.000000
# 2 0.000558 0.004357 -0.001501 0.000000 0.000035 0.000000
# 3 -0.004082 -0.001501 0.009059 -0.000001 -0.004001 0.000001
# 4 0.000000 0.000000 -0.000001 0.055090 0.000000 -0.002645
# 5 0.002327 0.000035 -0.004001 0.000000 0.022549 0.000000
# 6 0.000000 0.000000 0.000001 -0.002645 0.000000 -0.078528
#
#
# Mechanical properties :
#
#
# Convention : Reuss Voigt Hill
#
# Bulk Modulus (GPa) = 92.36551 93.85613 93.11082
# Shear Modulus (GPa) = 148.60722 41.19776 94.90249
#
# Velocity S-wave (km/s) = 7.75180 4.08150 6.19472
# Velocity P-wave (km/s) = 10.83832 7.75648 9.42423
#
# Compressibility (1/GPa) = 0.01082655
#
# Stress axis : x y z
#
# Youngs Moduli (GPa) = 134.02660 229.52462 110.39106
#
# Poissons Ratio (x) = -0.12806 0.45065
# Poissons Ratio (y) = -0.07478 0.16566
# Poissons Ratio (z) = 0.54714 0.34445
#
# Static dielectric constant tensor:
#      x y z
#    x 1.721550 0.000000 -0.060310 
#    y 0.000000 2.052400 0.000000 
#    z -0.060310 0.000000 1.900430 
# 
# From -- ./inp_files/10622.got.cif
#   From: 2010.05.17/outbox.cif.g08.bks.cpg/sg12_6_cif.got.tgz:10622.got - 2010.06.03 13:09:07.
