data_PCOD9212031
_publ_section_title
;
Structure prediction by ZEFSAII (Michael W. Deem and Ramdas Pophale) SiO2 
 PCOD9212031
Probable space group: C 2/M
;
_chemical_formula_sum "Si O2"
_cell_formula_units_Z 64
_cell_length_a 8.503359
_cell_length_b 29.265296
_cell_length_c 12.771410
_cell_angle_alpha 90.000000
_cell_angle_beta 85.148497
_cell_angle_gamma 90.000000
_cell_volume 3166.820997
_symmetry_space_group_name_H-M "C 2/M"
_symmetry_group_IT_number 12
_symmetry_cell_setting 'monoclinic'
loop_
_space_group_symop_operation_xyz
x,y,z
-x,y,-z
-x,-y,-z
x,-y,z
1/2+x,1/2+y,z
1/2-x,1/2+y,-z
1/2-x,1/2-y,-z
1/2+x,1/2-y,z
loop_
_atom_site_type_symbol
_atom_site_label
_atom_site_fract_x
_atom_site_fract_y
_atom_site_fract_z
Si Si1 0.690037 0.892881 0.483091
Si Si2 0.184980 0.201774 0.467035
Si Si3 0.668780 0.602093 0.130426
Si Si4 0.345687 0.947617 0.716486
Si Si5 0.605035 0.282826 0.887692
Si Si6 0.202387 0.883844 0.895468
Si Si7 0.774506 0.550719 0.322735
Si Si8 0.701086 0.699440 0.217798
O O1 0.500000 0.893909 0.500000
O O2 0.740238 0.840464 0.473954
O O3 0.729399 0.925549 0.383653
O O4 0.765485 0.913295 0.584501
O O5 0.250000 0.250000 0.500000
O O6 0.222259 0.198662 0.341042
O O7 0.000000 0.199964 0.500000
O O8 0.480408 0.607223 0.125820
O O9 0.707802 0.564401 0.213865
O O10 0.737599 0.649479 0.171075
O O11 0.732299 0.596994 0.009744
O O12 0.307052 0.911899 0.809546
O O13 0.534901 0.949349 0.693715
O O14 0.291762 0.000000 0.737479
O O15 0.712172 0.328444 0.894574
O O16 0.481395 0.291655 0.801234
O O17 0.702151 0.238328 0.849412
O O18 0.500000 0.278261 0.000000
O O19 0.722697 0.500000 0.355929
#
# Coordination Sequence:
#
# PCOD9212031 Si02
#       8
#     8   8   8   8   8   8   8   8
#     4  10  22  41  65  91 125 163 208 257 310 369
#     4  12  26  42  62  93 130 167 206 254 313 374
#     4  10  21  41  59  90 122 160 201 253 310 367
#     4  10  23  40  63  93 122 161 208 256 314 369
#     4  11  22  40  63  91 120 164 209 254 305 367
#     4  10  22  40  63  86 128 158 202 254 308 367
#     4  10  21  41  65  90 121 159 205 261 312 368
#     4  11  23  40  61  88 126 160 207 253 306 368
#
# _framework density 20.209541999999999
#
# number of rings (size 3 to 8) (size 9 to 14) (size 15 to 20)
#    0.000    1.500    3.750    1.875    5.250    4.000 
#    0.000    2.500    0.000    2.250    0.000    0.000 
#    0.000    0.000    0.000    0.000    0.000    0.000 
#
# Total GULP energy -178726.090008 kJ/mol
# GULP energy per Si atom -5585.190313 kJ/mol
# Density = 2.016354 g / cm^3
# Si number density = 20.209542 Si / 1000 Ang^3
#
#
#
# Elastic Constant Matrix: (Units=GPa)
#
#
# Indices 1 2 3 4 5 6 
#
# 1 2.8161 9.8424 6.6868 0.0000 2.5196 0.0000
# 2 9.8424 101.9832 21.7155 0.0000 -4.6811 0.0000
# 3 6.6868 21.7155 92.2042 0.0000 11.0816 0.0000
# 4 0.0000 0.0000 0.0000 15.9162 0.0000 7.7595
# 5 2.5196 -4.6811 11.0816 0.0000 28.5114 0.0000
# 6 0.0000 0.0000 0.0000 7.7595 0.0000 28.3006
#
#
#
# Elastic Compliance Matrix: (Units=1/GPa)
#
#
# Indices 1 2 3 4 5 6 
#
# 1 0.704127 -0.064749 -0.028385 0.000000 -0.061824 0.000000
# 2 -0.064749 0.016490 -0.000211 0.000000 0.008511 0.000000
# 3 -0.028385 -0.000211 0.013277 0.000000 -0.002686 0.000000
# 4 0.000000 0.000000 0.000000 0.072523 0.000000 -0.019885
# 5 -0.061824 0.008511 -0.002686 0.000000 0.042979 0.000000
# 6 0.000000 0.000000 0.000000 -0.019885 0.000000 0.040787
#
#
# Mechanical properties :
#
#
# Convention : Reuss Voigt Hill
#
# Bulk Modulus (GPa) = 1.82747 30.38810 16.10779
# Shear Modulus (GPa) = 3.97054 25.12955 14.55005
#
# Velocity S-wave (km/s) = 1.40319 3.53008 2.68612
# Velocity P-wave (km/s) = 1.87923 5.62890 4.19619
#
# Compressibility (1/GPa) = 0.54720385
#
# Stress axis : x y z
#
# Youngs Moduli (GPa) = 1.42020 60.64257 75.32080
#
# Poissons Ratio (x) = 3.92655 2.13797
# Poissons Ratio (y) = 0.09196 0.01588
# Poissons Ratio (z) = 0.04031 0.01279
#
# Static dielectric constant tensor:
#      x y z
#    x 1.713990 0.000000 0.000380 
#    y 0.000000 1.412710 0.000000 
#    z 0.000380 0.000000 1.721360 
# 
# From -- ./inp_files/125751.got.cif
#   From: 2010.05.17/outbox.cif.g08.bks.cpg/sg12_63_cif.got.tgz:125751.got - 2010.06.03 13:09:07.
