data_PCOD9212333
_publ_section_title
;
Structure prediction by ZEFSAII (Michael W. Deem and Ramdas Pophale) SiO2 
 PCOD9212333
Probable space group: C 2/M
;
_chemical_formula_sum "Si O2"
_cell_formula_units_Z 56
_cell_length_a 17.474544
_cell_length_b 19.215498
_cell_length_c 9.222266
_cell_angle_alpha 90.000000
_cell_angle_beta 63.294911
_cell_angle_gamma 90.000000
_cell_volume 2766.354144
_symmetry_space_group_name_H-M "C 2/M"
_symmetry_group_IT_number 12
_symmetry_cell_setting 'monoclinic'
loop_
_space_group_symop_operation_xyz
x,y,z
-x,y,-z
-x,-y,-z
x,-y,z
1/2+x,1/2+y,z
1/2-x,1/2+y,-z
1/2-x,1/2-y,-z
1/2+x,1/2-y,z
loop_
_atom_site_type_symbol
_atom_site_label
_atom_site_fract_x
_atom_site_fract_y
_atom_site_fract_z
Si Si1 0.198462 0.810343 0.626062
Si Si2 0.738097 0.181127 0.108434
Si Si3 0.941264 0.417049 0.188558
Si Si4 0.642576 0.583585 0.174516
Si Si5 0.459769 0.184054 0.691034
Si Si6 0.253131 0.582816 0.635623
Si Si7 0.999877 0.819520 0.174853
O O1 0.250000 0.750000 0.500000
O O2 0.215921 0.803436 0.779740
O O3 0.231839 0.882126 0.530827
O O4 0.097234 0.811686 0.689272
O O5 0.639771 0.163071 0.229415
O O6 0.750000 0.250000 0.000000
O O7 0.785985 0.117104 0.990920
O O8 0.943536 0.500000 0.214554
O O9 0.843358 0.397069 0.236114
O O10 0.979858 0.374432 0.289128
O O11 0.000000 0.402169 0.000000
O O12 0.639892 0.500000 0.168117
O O13 0.675666 0.604572 0.307142
O O14 0.553066 0.617822 0.202460
O O15 0.500000 0.202449 0.500000
O O16 0.457909 0.249109 0.802481
O O17 0.256582 0.500000 0.623680
O O18 0.000000 0.825498 0.000000
#
# Coordination Sequence:
#
# PCOD9212333 Si02
#       7
#     8   8   8   8   8   8   8
#     4  12  25  42  68  98 132 176 223 275 341 397
#     4  12  23  44  67  95 135 176 226 283 332 398
#     4  10  21  41  67  96 133 178 223 273 335 406
#     4  11  25  45  71 100 133 180 230 279 337 406
#     4  12  25  40  67 101 136 175 223 282 341 401
#     4  10  23  43  65  96 135 174 220 276 341 401
#     4  12  25  46  67  96 134 175 227 280 333 406
#
# _framework density 20.24325
#
# number of rings (size 3 to 8) (size 9 to 14) (size 15 to 20)
#    0.000    0.714    2.857    4.714    2.000    3.429 
#    0.000    1.429    0.000    0.000    0.000    0.000 
#    0.000    0.000    0.000    0.000    0.000    0.000 
#
# Total GULP energy -156537.378421 kJ/mol
# GULP energy per Si atom -5590.620658 kJ/mol
# Density = 2.019718 g / cm^3
# Si number density = 20.243250 Si / 1000 Ang^3
#
#
#
# Elastic Constant Matrix: (Units=GPa)
#
#
# Indices 1 2 3 4 5 6 
#
# 1 136.6445 46.0832 39.6290 0.0000 -8.2269 0.0000
# 2 46.0832 57.0334 25.5570 0.0000 5.6901 0.0000
# 3 39.6290 25.5570 74.9090 0.0000 0.5543 0.0000
# 4 0.0000 0.0000 0.0000 32.1880 0.0000 2.8536
# 5 -8.2269 5.6901 0.5543 0.0000 41.5581 0.0000
# 6 0.0000 0.0000 0.0000 2.8536 0.0000 37.8835
#
#
#
# Elastic Compliance Matrix: (Units=1/GPa)
#
#
# Indices 1 2 3 4 5 6 
#
# 1 0.011101 -0.007860 -0.003216 0.000000 0.003317 0.000000
# 2 -0.007860 0.026579 -0.004872 0.000000 -0.005130 0.000000
# 3 -0.003216 -0.004872 0.016715 0.000000 -0.000192 0.000000
# 4 0.000000 0.000000 0.000000 0.031276 0.000000 -0.002356
# 5 0.003317 -0.005130 -0.000192 0.000000 0.025424 0.000000
# 6 0.000000 0.000000 0.000000 -0.002356 0.000000 0.026574
#
#
# Mechanical properties :
#
#
# Convention : Reuss Voigt Hill
#
# Bulk Modulus (GPa) = 44.44542 54.56947 49.50744
# Shear Modulus (GPa) = 28.23815 32.81377 30.52596
#
# Velocity S-wave (km/s) = 3.73894 4.03050 3.88746
# Velocity P-wave (km/s) = 6.37518 6.97677 6.68275
#
# Compressibility (1/GPa) = 0.02249951
#
# Stress axis : x y z
#
# Youngs Moduli (GPa) = 90.07976 37.62315 59.82814
#
# Poissons Ratio (x) = 0.29571 0.19240
# Poissons Ratio (y) = 0.70800 0.29150
# Poissons Ratio (z) = 0.28969 0.18331
#
# Static dielectric constant tensor:
#      x y z
#    x 1.704280 0.000000 0.013960 
#    y 0.000000 1.709580 0.000000 
#    z 0.013960 0.000000 1.670460 
# 
# From -- ./inp_files/77363.got.cif
#   From: 2010.05.17/outbox.cif.g08.bks.cpg/sg12_39_cif.got.tgz:77363.got - 2010.06.03 13:09:07.
