data_PCOD9212567
_publ_section_title
;
Structure prediction by ZEFSAII (Michael W. Deem and Ramdas Pophale) SiO2 
 PCOD9212567
Probable space group: C 2/M
;
_chemical_formula_sum "Si O2"
_cell_formula_units_Z 58
_cell_length_a 8.540699
_cell_length_b 26.233465
_cell_length_c 12.023583
_cell_angle_alpha 90.000000
_cell_angle_beta 88.071316
_cell_angle_gamma 90.000000
_cell_volume 2692.383240
_symmetry_space_group_name_H-M "C 2/M"
_symmetry_group_IT_number 12
_symmetry_cell_setting 'monoclinic'
loop_
_space_group_symop_operation_xyz
x,y,z
-x,y,-z
-x,-y,-z
x,-y,z
1/2+x,1/2+y,z
1/2-x,1/2+y,-z
1/2-x,1/2-y,-z
1/2+x,1/2-y,z
loop_
_atom_site_type_symbol
_atom_site_label
_atom_site_fract_x
_atom_site_fract_y
_atom_site_fract_z
Si Si1 0.184176 0.359518 0.494932
Si Si2 0.678174 0.711469 0.331946
Si Si3 0.680435 0.869007 0.827819
Si Si4 0.000000 0.000000 0.500000
Si Si5 0.304033 0.442954 0.660736
Si Si6 0.321322 0.318795 0.287309
Si Si7 0.419162 0.943913 0.879725
Si Si8 0.328360 0.372443 0.055053
O O1 0.500000 0.150779 0.500000
O O2 0.273944 0.312326 0.551198
O O3 0.212996 0.408713 0.572298
O O4 0.256800 0.362727 0.370601
O O5 0.792516 0.681135 0.244218
O O6 0.499465 0.696392 0.312274
O O7 0.710422 0.770573 0.314699
O O8 0.802993 0.910491 0.773103
O O9 0.516967 0.898896 0.818255
O O10 0.716458 0.857438 0.954603
O O11 0.965855 0.956108 0.596237
O O12 0.234766 0.500000 0.678114
O O13 0.319612 0.334741 0.159020
O O14 0.242300 0.925854 0.901103
O O15 0.429587 0.000000 0.828726
O O16 0.500000 0.946915 0.000000
O O17 0.500000 0.375345 0.000000
#
# Coordination Sequence:
#
# PCOD9212567 Si02
#       8
#     8   8   8   2   8   8   8   8
#     4  11  25  44  71 101 137 173 227 293 347 418
#     4  11  25  43  71  95 135 183 229 282 355 406
#     4  10  21  42  67  95 133 183 222 281 335 415
#     4   8  20  36  62 112 128 184 214 292 332 418
#     4   9  21  38  70  96 137 174 231 270 354 399
#     4  12  26  44  69 100 138 181 233 288 349 416
#     4   9  20  39  66  92 128 177 227 272 338 396
#     4  11  24  43  64 100 140 176 233 284 336 409
#
# _framework density 21.542254
#
# number of rings (size 3 to 8) (size 9 to 14) (size 15 to 20)
#    0.414    1.241    1.379    2.069    9.655    1.655 
#    0.000    0.690    0.000    0.000    0.000    0.000 
#    0.000    0.000    0.000    0.000    0.000    0.000 
#
# Total GULP energy -161553.556639 kJ/mol
# GULP energy per Si atom -5570.812298 kJ/mol
# Density = 2.149322 g / cm^3
# Si number density = 21.542254 Si / 1000 Ang^3
#
#
#
# Elastic Constant Matrix: (Units=GPa)
#
#
# Indices 1 2 3 4 5 6 
#
# 1 48.2128 12.4909 29.4387 0.0000 -4.4480 0.0000
# 2 12.4909 67.2865 24.1612 0.0000 9.5468 0.0000
# 3 29.4387 24.1612 122.6441 0.0000 -2.9381 0.0000
# 4 0.0000 0.0000 0.0000 24.3878 0.0000 -12.7628
# 5 -4.4480 9.5468 -2.9381 0.0000 25.2080 0.0000
# 6 0.0000 0.0000 0.0000 -12.7628 0.0000 16.8388
#
#
#
# Elastic Compliance Matrix: (Units=1/GPa)
#
#
# Indices 1 2 3 4 5 6 
#
# 1 0.025356 -0.003557 -0.005261 0.000000 0.005208 0.000000
# 2 -0.003557 0.017608 -0.002798 0.000000 -0.007622 0.000000
# 3 -0.005261 -0.002798 0.009999 0.000000 0.001297 0.000000
# 4 0.000000 0.000000 0.000000 0.067961 0.000000 0.051510
# 5 0.005208 -0.007622 0.001297 0.000000 0.043627 0.000000
# 6 0.000000 0.000000 0.000000 0.051510 0.000000 0.098429
#
#
# Mechanical properties :
#
#
# Convention : Reuss Voigt Hill
#
# Bulk Modulus (GPa) = 33.63396 41.14723 37.39059
# Shear Modulus (GPa) = 16.88508 24.75708 20.82108
#
# Velocity S-wave (km/s) = 2.80270 3.39371 3.11227
# Velocity P-wave (km/s) = 5.11081 5.87355 5.50541
#
# Compressibility (1/GPa) = 0.02973185
#
# Stress axis : x y z
#
# Youngs Moduli (GPa) = 39.43909 56.79175 100.01355
#
# Poissons Ratio (x) = 0.20200 0.52614
# Poissons Ratio (y) = 0.14028 0.27981
# Poissons Ratio (z) = 0.20748 0.15889
#
# Static dielectric constant tensor:
#      x y z
#    x 1.815280 0.000000 -0.018180 
#    y 0.000000 1.775390 0.000000 
#    z -0.018180 0.000000 1.789140 
# 
# From -- ./inp_files/124319.got.cif
#   From: 2010.05.17/outbox.cif.g08.bks.cpg/sg12_63_cif.got.tgz:124319.got - 2010.06.03 13:09:07.
