data_PCOD9212351
_publ_section_title
;
Structure prediction by ZEFSAII (Michael W. Deem and Ramdas Pophale) SiO2 
 PCOD9212351
Probable space group: C 2/M
;
_chemical_formula_sum "Si O2"
_cell_formula_units_Z 56
_cell_length_a 9.234423
_cell_length_b 26.651750
_cell_length_c 15.589031
_cell_angle_alpha 90.000000
_cell_angle_beta 44.043645
_cell_angle_gamma 90.000000
_cell_volume 2667.277526
_symmetry_space_group_name_H-M "C 2/M"
_symmetry_group_IT_number 12
_symmetry_cell_setting 'monoclinic'
loop_
_space_group_symop_operation_xyz
x,y,z
-x,y,-z
-x,-y,-z
x,-y,z
1/2+x,1/2+y,z
1/2-x,1/2+y,-z
1/2-x,1/2-y,-z
1/2+x,1/2-y,z
loop_
_atom_site_type_symbol
_atom_site_label
_atom_site_fract_x
_atom_site_fract_y
_atom_site_fract_z
Si Si1 0.562464 0.392934 0.132230
Si Si2 0.258092 0.500000 0.883885
Si Si3 0.686095 0.194631 0.063748
Si Si4 0.740816 0.667797 0.211781
Si Si5 0.302395 0.500000 0.654214
Si Si6 0.869113 0.342817 0.717473
Si Si7 0.746872 0.605046 0.379492
Si Si8 0.008482 0.754443 0.588711
O O1 0.646471 0.450281 0.108216
O O2 0.637812 0.368197 0.188233
O O3 0.317460 0.381923 0.220700
O O4 0.671305 0.353734 0.019960
O O5 0.323776 0.500000 0.751540
O O6 0.000000 0.500000 0.000000
O O7 0.472999 0.186746 0.102451
O O8 0.658141 0.186475 0.178717
O O9 0.750000 0.250000 0.000000
O O10 0.765341 0.637808 0.288148
O O11 0.589360 0.713328 0.294742
O O12 0.500000 0.500000 0.500000
O O13 0.182713 0.549699 0.677807
O O14 0.885798 0.298145 0.641271
O O15 0.092344 0.371010 0.622440
O O16 0.500000 0.603284 0.500000
O O17 0.000000 0.780238 0.500000
O O18 0.250000 0.750000 0.500000
#
# Coordination Sequence:
#
# PCOD9212351 Si02
#       8
#     8   4   8   8   4   8   8   8
#     4  12  25  42  66 101 140 177 230 300 367 422
#     4  12  26  47  75 107 141 189 251 305 365 448
#     4  11  23  43  65  93 133 184 231 277 345 437
#     4  11  21  38  65  89 127 178 225 273 343 421
#     4  10  22  45  76 100 127 178 243 291 344 431
#     4  11  25  41  63  97 139 174 224 289 360 415
#     4  10  21  41  68  92 123 171 229 273 335 424
#     4  12  23  39  61  95 132 174 224 280 346 422
#
# _framework density 20.995190000000001
#
# number of rings (size 3 to 8) (size 9 to 14) (size 15 to 20)
#    0.000    0.857    1.429    7.286    2.000    1.714 
#    0.000    1.429    0.000    1.714    0.000    0.000 
#    0.000    0.000    0.000    0.000    0.000    0.000 
#
# Total GULP energy -155896.401878 kJ/mol
# GULP energy per Si atom -5567.728638 kJ/mol
# Density = 2.094740 g / cm^3
# Si number density = 20.995190 Si / 1000 Ang^3
#
#
#
# Elastic Constant Matrix: (Units=GPa)
#
#
# Indices 1 2 3 4 5 6 
#
# 1 80.5246 28.7967 29.9918 0.0000 -21.2039 0.0000
# 2 28.7967 171.0209 39.4130 0.0000 -15.6590 0.0000
# 3 29.9918 39.4130 79.2350 0.0000 -18.8584 0.0000
# 4 0.0000 0.0000 0.0000 35.6789 0.0000 -7.8301
# 5 -21.2039 -15.6590 -18.8584 0.0000 35.7898 0.0000
# 6 0.0000 0.0000 0.0000 -7.8301 0.0000 25.7977
#
#
#
# Elastic Compliance Matrix: (Units=1/GPa)
#
#
# Indices 1 2 3 4 5 6 
#
# 1 0.016119 -0.001187 -0.003844 0.000000 0.007005 0.000000
# 2 -0.001187 0.006747 -0.002712 0.000000 0.000820 0.000000
# 3 -0.003844 -0.002712 0.016694 0.000000 0.005333 0.000000
# 4 0.000000 0.000000 0.000000 0.030028 0.000000 0.009114
# 5 0.007005 0.000820 0.005333 0.000000 0.035260 0.000000
# 6 0.000000 0.000000 0.000000 0.009114 0.000000 0.041530
#
#
# Mechanical properties :
#
#
# Convention : Reuss Voigt Hill
#
# Bulk Modulus (GPa) = 41.53632 58.57593 50.05613
# Shear Modulus (GPa) = 29.43130 34.95854 32.19492
#
# Velocity S-wave (km/s) = 3.74814 4.08496 3.92017
# Velocity P-wave (km/s) = 6.20951 7.08586 6.66211
#
# Compressibility (1/GPa) = 0.02407532
#
# Stress axis : x y z
#
# Youngs Moduli (GPa) = 62.03739 148.21164 59.90319
#
# Poissons Ratio (x) = 0.17592 0.23025
# Poissons Ratio (y) = 0.07364 0.16244
# Poissons Ratio (z) = 0.23845 0.40190
#
# Static dielectric constant tensor:
#      x y z
#    x 1.502310 0.000000 0.593570 
#    y 0.000000 1.900320 0.000000 
#    z 0.593570 0.000000 0.980130 
# 
# From -- ./inp_files/259849.got.cif
#   From: 2010.05.17/outbox.cif.g08.bks.cpg/sg12_130_cif.got.tgz:259849.got - 2010.06.03 13:09:07.
