data_PCOD9212726
_publ_section_title
;
Structure prediction by ZEFSAII (Michael W. Deem and Ramdas Pophale) SiO2 
 PCOD9212726
Probable space group: C 2/M
;
_chemical_formula_sum "Si O2"
_cell_formula_units_Z 56
_cell_length_a 11.165999
_cell_length_b 29.873201
_cell_length_c 13.947212
_cell_angle_alpha 90.000000
_cell_angle_beta 29.868040
_cell_angle_gamma 90.000000
_cell_volume 2316.859335
_symmetry_space_group_name_H-M "C 2/M"
_symmetry_group_IT_number 12
_symmetry_cell_setting 'monoclinic'
loop_
_space_group_symop_operation_xyz
x,y,z
-x,y,-z
-x,-y,-z
x,-y,z
1/2+x,1/2+y,z
1/2-x,1/2+y,-z
1/2-x,1/2-y,-z
1/2+x,1/2-y,z
loop_
_atom_site_type_symbol
_atom_site_label
_atom_site_fract_x
_atom_site_fract_y
_atom_site_fract_z
Si Si1 0.229931 0.647248 0.725692
Si Si2 0.410374 0.049465 0.672991
Si Si3 0.520834 0.359545 0.249171
Si Si4 0.846151 0.549150 0.205697
Si Si5 0.534076 0.849984 0.362846
Si Si6 0.554695 0.453042 0.661135
Si Si7 0.808217 0.700710 0.922699
O O1 0.500000 0.652115 0.500000
O O2 0.283428 0.648406 0.802904
O O3 0.123336 0.598265 0.771706
O O4 0.049441 0.683617 0.809238
O O5 0.500000 0.049189 0.500000
O O6 0.332374 0.101375 0.743085
O O7 0.664007 0.047945 0.551587
O O8 0.290483 0.000000 0.772210
O O9 0.527226 0.411811 0.218758
O O10 0.247625 0.352893 0.474473
O O11 0.589805 0.329440 0.112872
O O12 0.890479 0.500000 0.218825
O O13 0.577150 0.549991 0.348341
O O14 0.000000 0.549405 0.000000
O O15 0.500000 0.841651 0.500000
O O16 0.652247 0.811283 0.216432
O O17 0.489617 0.500000 0.753111
O O18 0.750000 0.750000 0.000000
#
# Coordination Sequence:
#
# PCOD9212726 Si02
#       7
#     8   8   8   8   8   8   8
#     4  11  21  42  70  98 137 179 225 285 348 415
#     4   8  14  28  56  91 130 176 220 263 318 387
#     4  10  21  43  69  97 138 177 220 280 343 416
#     4   9  17  30  54  92 137 179 217 262 329 414
#     4  10  22  44  69 101 141 179 224 283 341 408
#     4   8  14  27  54  89 128 173 211 257 322 395
#     4  12  27  47  69  98 129 175 233 289 354 416
#
# _framework density 24.170652
#
# number of rings (size 3 to 8) (size 9 to 14) (size 15 to 20)
#    0.000    2.286    1.429    2.143    0.000    1.429 
#    5.143    1.429    0.000    0.000    0.000   10.000 
#    0.000    0.000    0.000    0.000    0.000    0.000 
#
# Total GULP energy -156219.608646 kJ/mol
# GULP energy per Si atom -5579.271737 kJ/mol
# Density = 2.411564 g / cm^3
# Si number density = 24.170652 Si / 1000 Ang^3
#
#
#
# Elastic Constant Matrix: (Units=GPa)
#
#
# Indices 1 2 3 4 5 6 
#
# 1 86.5903 40.7648 25.7073 0.0000 14.0065 0.0000
# 2 40.7648 223.6620 68.4021 0.0000 24.5556 0.0000
# 3 25.7073 68.4021 83.9704 0.0000 11.1555 0.0000
# 4 0.0000 0.0000 0.0000 29.5703 0.0000 3.7664
# 5 14.0065 24.5556 11.1555 0.0000 27.7951 0.0000
# 6 0.0000 0.0000 0.0000 3.7664 0.0000 24.1563
#
#
#
# Elastic Compliance Matrix: (Units=1/GPa)
#
#
# Indices 1 2 3 4 5 6 
#
# 1 0.013644 -0.001168 -0.002587 0.000000 -0.004805 0.000000
# 2 -0.001168 0.006395 -0.004415 0.000000 -0.003289 0.000000
# 3 -0.002587 -0.004415 0.016485 0.000000 -0.001412 0.000000
# 4 0.000000 0.000000 0.000000 0.034503 0.000000 -0.005380
# 5 -0.004805 -0.003289 -0.001412 0.000000 0.041872 0.000000
# 6 0.000000 0.000000 0.000000 -0.005380 0.000000 0.042236
#
#
# Mechanical properties :
#
#
# Convention : Reuss Voigt Hill
#
# Bulk Modulus (GPa) = 49.54466 73.77456 61.65961
# Shear Modulus (GPa) = 28.05786 33.59424 30.82605
#
# Velocity S-wave (km/s) = 3.41078 3.73215 3.57508
# Velocity P-wave (km/s) = 6.00447 7.01146 6.52741
#
# Compressibility (1/GPa) = 0.02018381
#
# Stress axis : x y z
#
# Youngs Moduli (GPa) = 73.29301 156.36539 60.66090
#
# Poissons Ratio (x) = 0.18262 0.15695
# Poissons Ratio (y) = 0.08560 0.26782
# Poissons Ratio (z) = 0.18963 0.69036
#
# Static dielectric constant tensor:
#      x y z
#    x 2.102820 0.000000 -0.003560 
#    y 0.000000 1.950640 0.000000 
#    z -0.003560 0.000000 1.998220 
# 
# From -- ./inp_files/210012.got.cif
#   From: 2010.05.17/outbox.cif.g08.bks.cpg/sg12_106_cif.got.tgz:210012.got - 2010.06.03 13:09:07.
