data_PCOD9212593
_publ_section_title
;
Structure prediction by ZEFSAII (Michael W. Deem and Ramdas Pophale) SiO2 
 PCOD9212593
Probable space group: C 2/M
;
_chemical_formula_sum "Si O2"
_cell_formula_units_Z 40
_cell_length_a 8.813908
_cell_length_b 27.383987
_cell_length_c 11.118298
_cell_angle_alpha 90.000000
_cell_angle_beta 45.918792
_cell_angle_gamma 90.000000
_cell_volume 1927.712766
_symmetry_space_group_name_H-M "C 2/M"
_symmetry_group_IT_number 12
_symmetry_cell_setting 'monoclinic'
loop_
_space_group_symop_operation_xyz
x,y,z
-x,y,-z
-x,-y,-z
x,-y,z
1/2+x,1/2+y,z
1/2-x,1/2+y,-z
1/2-x,1/2-y,-z
1/2+x,1/2-y,z
loop_
_atom_site_type_symbol
_atom_site_label
_atom_site_fract_x
_atom_site_fract_y
_atom_site_fract_z
Si Si1 0.162678 0.054361 0.298879
Si Si2 0.392857 0.305993 0.188251
Si Si3 0.549529 0.591670 0.104989
Si Si4 0.504908 0.142082 0.863861
Si Si5 0.029686 0.731500 0.674393
O O1 0.062231 0.060635 0.220430
O O2 0.329919 0.097650 0.222265
O O3 0.000000 0.057869 0.500000
O O4 0.259693 0.000000 0.250526
O O5 0.388370 0.363475 0.217873
O O6 0.533124 0.276637 0.205610
O O7 0.162243 0.282164 0.306632
O O8 0.500000 0.300864 0.000000
O O9 0.500000 0.569397 0.000000
O O10 0.776455 0.618455 0.965382
O O11 0.561908 0.183121 0.736663
O O12 0.500000 0.164433 0.000000
O O13 0.250000 0.750000 0.500000
#
# Coordination Sequence:
#
# PCOD9212593 Si02
#       5
#     8   8   8   8   8
#     4  10  24  44  70 100 132 170 216 274 344 404
#     4  11  23  40  60  86 129 174 224 263 321 391
#     4  10  21  42  68  96 127 174 222 278 323 387
#     4  10  22  41  67  91 129 175 225 268 326 397
#     4  12  25  38  59  96 130 174 221 274 329 389
#
# _framework density 20.749979
#
# number of rings (size 3 to 8) (size 9 to 14) (size 15 to 20)
#    0.000    1.400    4.000    1.800    8.400    4.000 
#    0.000    1.000    0.000    2.400    0.000    0.000 
#    0.000    0.000    0.000    0.000    0.000    0.000 
#
# Total GULP energy -111673.046537 kJ/mol
# GULP energy per Si atom -5583.652327 kJ/mol
# Density = 2.070275 g / cm^3
# Si number density = 20.749979 Si / 1000 Ang^3
#
#
#
# Elastic Constant Matrix: (Units=GPa)
#
#
# Indices 1 2 3 4 5 6 
#
# 1 107.2011 26.8592 37.0123 0.0000 11.5544 0.0000
# 2 26.8592 87.8269 33.0020 0.0000 12.3330 0.0000
# 3 37.0123 33.0020 89.1970 0.0000 7.5785 0.0000
# 4 0.0000 0.0000 0.0000 97.6792 0.0000 -31.4191
# 5 11.5544 12.3330 7.5785 0.0000 33.8082 0.0000
# 6 0.0000 0.0000 0.0000 -31.4191 0.0000 48.5593
#
#
#
# Elastic Compliance Matrix: (Units=1/GPa)
#
#
# Indices 1 2 3 4 5 6 
#
# 1 0.011348 -0.001674 -0.003886 0.000000 -0.002397 0.000000
# 2 -0.001674 0.013968 -0.004169 0.000000 -0.003589 0.000000
# 3 -0.003886 -0.004169 0.014398 0.000000 -0.000379 0.000000
# 4 0.000000 0.000000 0.000000 0.012928 0.000000 0.008365
# 5 -0.002397 -0.003589 -0.000379 0.000000 0.031792 0.000000
# 6 0.000000 0.000000 0.000000 0.008365 0.000000 0.026006
#
#
# Mechanical properties :
#
#
# Convention : Reuss Voigt Hill
#
# Bulk Modulus (GPa) = 49.36409 53.10800 51.23604
# Shear Modulus (GPa) = 36.59021 48.49942 42.54481
#
# Velocity S-wave (km/s) = 4.20382 4.83983 4.53300
# Velocity P-wave (km/s) = 6.88509 7.54200 7.22102
#
# Compressibility (1/GPa) = 0.02025764
#
# Stress axis : x y z
#
# Youngs Moduli (GPa) = 88.12503 71.59063 69.45347
#
# Poissons Ratio (x) = 0.11982 0.26988
# Poissons Ratio (y) = 0.14749 0.28953
# Poissons Ratio (z) = 0.34244 0.29844
#
# Static dielectric constant tensor:
#      x y z
#    x 1.779730 0.000000 0.033160 
#    y 0.000000 1.738450 0.000000 
#    z 0.033160 0.000000 1.766370 
# 
# From -- ./inp_files/123414.got.cif
#   From: 2010.05.17/outbox.cif.g08.bks.cpg/sg12_62_cif.got.tgz:123414.got - 2010.06.03 13:09:07.
