data_PCOD9212148
_publ_section_title
;
Structure prediction by ZEFSAII (Michael W. Deem and Ramdas Pophale) SiO2 
 PCOD9212148
Probable space group: C 2/M
;
_chemical_formula_sum "Si O2"
_cell_formula_units_Z 44
_cell_length_a 25.762746
_cell_length_b 10.693734
_cell_length_c 16.318777
_cell_angle_alpha 90.000000
_cell_angle_beta 154.264084
_cell_angle_gamma 90.000000
_cell_volume 1952.193228
_symmetry_space_group_name_H-M "C 2/M"
_symmetry_group_IT_number 12
_symmetry_cell_setting 'monoclinic'
loop_
_space_group_symop_operation_xyz
x,y,z
-x,y,-z
-x,-y,-z
x,-y,z
1/2+x,1/2+y,z
1/2-x,1/2+y,-z
1/2-x,1/2-y,-z
1/2+x,1/2-y,z
loop_
_atom_site_type_symbol
_atom_site_label
_atom_site_fract_x
_atom_site_fract_y
_atom_site_fract_z
Si Si1 0.093861 0.768524 0.754335
Si Si2 0.126651 0.769757 0.370525
Si Si3 0.315166 0.852902 0.971198
Si Si4 0.461684 0.000000 0.352846
Si Si5 0.912967 0.000000 0.797734
Si Si6 0.666248 0.648081 0.611574
Si Si7 0.623521 0.000000 0.421663
O O1 0.189153 0.849233 0.842118
O O2 0.115395 0.623488 0.766506
O O3 0.959769 0.797000 0.537758
O O4 0.110066 0.756849 0.876026
O O5 0.250000 0.750000 0.500000
O O6 0.165115 0.816629 0.515217
O O7 0.078474 0.627807 0.314204
O O8 0.065234 0.877805 0.228946
O O9 0.277572 0.813282 0.825987
O O10 0.354331 0.000000 0.028020
O O11 0.500000 0.000000 0.500000
O O12 0.569273 0.000000 0.437763
O O13 0.770346 0.000000 0.623798
O O14 0.000000 0.000000 0.000000
O O15 0.659254 0.500000 0.609447
#
# Coordination Sequence:
#
# PCOD9212148 Si02
#       7
#     8   8   8   4   4   8   4
#     4  11  22  38  59  88 126 164 213 269 315 383
#     4  10  21  41  64  92 124 164 207 262 324 393
#     4  10  22  40  60  88 122 164 218 269 315 379
#     4  12  22  36  59  91 131 176 216 260 322 391
#     4  10  22  46  71 101 129 160 222 288 336 398
#     4  11  21  39  65  86 117 167 212 258 327 384
#     4  10  22  42  69  92 130 176 219 264 340 393
#
# _framework density 22.538753
#
# number of rings (size 3 to 8) (size 9 to 14) (size 15 to 20)
#    0.000    1.455    3.636    2.182    0.000    1.455 
#    6.545    0.455    0.000    0.000    0.000    0.000 
#    0.000    0.000    0.000    0.000    0.000    0.000 
#
# Total GULP energy -122689.234414 kJ/mol
# GULP energy per Si atom -5576.783382 kJ/mol
# Density = 2.248745 g / cm^3
# Si number density = 22.538753 Si / 1000 Ang^3
#
#
#
# Elastic Constant Matrix: (Units=GPa)
#
#
# Indices 1 2 3 4 5 6 
#
# 1 95.9151 33.3122 23.5656 0.0000 -16.5568 0.0000
# 2 33.3122 140.9913 43.3688 0.0000 -19.0293 0.0000
# 3 23.5656 43.3688 105.9018 0.0000 -40.6610 0.0000
# 4 0.0000 0.0000 0.0000 32.8408 0.0000 7.1098
# 5 -16.5568 -19.0293 -40.6610 0.0000 43.9181 0.0000
# 6 0.0000 0.0000 0.0000 7.1098 0.0000 33.6013
#
#
#
# Elastic Compliance Matrix: (Units=1/GPa)
#
#
# Indices 1 2 3 4 5 6 
#
# 1 0.011853 -0.002219 -0.000593 0.000000 0.002958 0.000000
# 2 -0.002219 0.008543 -0.002955 0.000000 0.000129 0.000000
# 3 -0.000593 -0.002955 0.015837 0.000000 0.013158 0.000000
# 4 0.000000 0.000000 0.000000 0.031912 0.000000 -0.006752
# 5 0.002958 0.000129 0.013158 0.000000 0.036123 0.000000
# 6 0.000000 0.000000 0.000000 -0.006752 0.000000 0.031190
#
#
# Mechanical properties :
#
#
# Convention : Reuss Voigt Hill
#
# Bulk Modulus (GPa) = 40.48817 60.36683 50.42750
# Shear Modulus (GPa) = 32.21119 38.24281 35.22700
#
# Velocity S-wave (km/s) = 3.78451 4.12364 3.95771
# Velocity P-wave (km/s) = 6.09093 7.03664 6.58079
#
# Compressibility (1/GPa) = 0.02469857
#
# Stress axis : x y z
#
# Youngs Moduli (GPa) = 84.36809 117.04988 63.14250
#
# Poissons Ratio (x) = 0.25971 0.03746
# Poissons Ratio (y) = 0.18720 0.18661
# Poissons Ratio (z) = 0.05005 0.34593
#
# Static dielectric constant tensor:
#      x y z
#    x 1.845620 0.000000 0.086560 
#    y 0.000000 1.854070 0.000000 
#    z 0.086560 0.000000 1.673310 
# 
# From -- ./inp_files/222995.got.cif
#   From: 2010.05.17/outbox.cif.g08.bks.cpg/sg12_112_cif.got.tgz:222995.got - 2010.06.03 13:09:07.
