data_PCOD9212037
_publ_section_title
;
Structure prediction by ZEFSAII (Michael W. Deem and Ramdas Pophale) SiO2 
 PCOD9212037
Probable space group: C 2/M
;
_chemical_formula_sum "Si O2"
_cell_formula_units_Z 52
_cell_length_a 29.527686
_cell_length_b 14.346586
_cell_length_c 4.820044
_cell_angle_alpha 90.000000
_cell_angle_beta 93.008350
_cell_angle_gamma 90.000000
_cell_volume 2039.060292
_symmetry_space_group_name_H-M "C 2/M"
_symmetry_group_IT_number 12
_symmetry_cell_setting 'monoclinic'
loop_
_space_group_symop_operation_xyz
x,y,z
-x,y,-z
-x,-y,-z
x,-y,z
1/2+x,1/2+y,z
1/2-x,1/2+y,-z
1/2-x,1/2-y,-z
1/2+x,1/2-y,z
loop_
_atom_site_type_symbol
_atom_site_label
_atom_site_fract_x
_atom_site_fract_y
_atom_site_fract_z
Si Si1 0.784547 0.136297 0.221844
Si Si2 0.365973 0.599608 0.840381
Si Si3 0.263769 0.000000 0.459588
Si Si4 0.696650 0.850917 0.845766
Si Si5 0.950986 0.300509 0.376883
Si Si6 0.389191 0.804325 0.825285
Si Si7 0.040873 0.102391 0.793909
O O1 0.826823 0.101921 0.059535
O O2 0.789561 0.246809 0.238697
O O3 0.775539 0.082034 0.500506
O O4 0.738316 0.109144 0.044052
O O5 0.365347 0.500000 0.685061
O O6 0.413208 0.601152 0.018179
O O7 0.367393 0.704103 0.716485
O O8 0.301951 0.918836 0.411212
O O9 0.651485 0.848646 0.012628
O O10 0.911704 0.343157 0.555486
O O11 0.954348 0.187813 0.415988
O O12 0.000000 0.336155 0.500000
O O13 0.932316 0.304219 0.054971
O O14 0.037707 0.000000 0.663274
O O15 0.000000 0.115954 0.000000
#
# Coordination Sequence:
#
# PCOD9212037 Si02
#       7
#     8   8   4   8   8   8   8
#     4  10  21  41  60  87 133 169 219 273 326 387
#     4   9  17  35  53  83 121 167 219 259 315 374
#     4  12  22  38  68  92 122 174 220 272 328 402
#     4  10  24  42  60  96 129 170 217 274 332 395
#     4  11  21  38  61  89 121 163 213 263 323 394
#     4  10  23  39  61  90 126 165 209 269 326 384
#     4   9  18  33  55  83 125 172 221 270 318 374
#
# _framework density 25.501944000000002
#
# number of rings (size 3 to 8) (size 9 to 14) (size 15 to 20)
#    0.000    2.000    0.769    3.231    2.154    0.923 
#   16.615    0.000    0.000    0.000    0.000    3.231 
#    0.000    0.000    0.000    0.000    0.000    0.000 
#
# Total GULP energy -144778.329526 kJ/mol
# GULP energy per Si atom -5568.397289 kJ/mol
# Density = 2.544390 g / cm^3
# Si number density = 25.501944 Si / 1000 Ang^3
#
#
#
# Elastic Constant Matrix: (Units=GPa)
#
#
# Indices 1 2 3 4 5 6 
#
# 1 151.1378 13.5270 30.3616 0.0000 -25.0429 0.0000
# 2 13.5270 59.4411 10.9068 0.0000 -16.9971 0.0000
# 3 30.3616 10.9068 84.8185 0.0000 -16.0637 0.0000
# 4 0.0000 0.0000 0.0000 701.2937 0.0000 -69.9930
# 5 -25.0429 -16.9971 -16.0637 0.0000 62.2362 0.0000
# 6 0.0000 0.0000 0.0000 -69.9930 0.0000 20.8025
#
#
#
# Elastic Compliance Matrix: (Units=1/GPa)
#
#
# Indices 1 2 3 4 5 6 
#
# 1 0.007487 -0.000656 -0.002165 0.000000 0.002275 0.000000
# 2 -0.000656 0.018483 -0.001299 0.000000 0.004448 0.000000
# 3 -0.002165 -0.001299 0.013142 0.000000 0.002166 0.000000
# 4 0.000000 0.000000 0.000000 0.002147 0.000000 0.007223
# 5 0.002275 0.004448 0.002166 0.000000 0.018757 0.000000
# 6 0.000000 0.000000 0.000000 0.007223 0.000000 0.072376
#
#
# Mechanical properties :
#
#
# Convention : Reuss Voigt Hill
#
# Bulk Modulus (GPa) = 32.39235 44.99868 38.69552
# Shear Modulus (GPa) = 33.12944 172.90662 103.01803
#
# Velocity S-wave (km/s) = 3.60821 8.24309 6.36269
# Velocity P-wave (km/s) = 5.48528 10.40584 8.31775
#
# Compressibility (1/GPa) = 0.03087149
#
# Stress axis : x y z
#
# Youngs Moduli (GPa) = 133.56475 54.10334 76.09108
#
# Poissons Ratio (x) = 0.03550 0.16473
# Poissons Ratio (y) = 0.08764 0.09887
# Poissons Ratio (z) = 0.28915 0.07030
#
# Static dielectric constant tensor:
#      x y z
#    x 2.079200 0.000000 0.094390 
#    y 0.000000 2.044830 0.000000 
#    z 0.094390 0.000000 2.154580 
# 
# From -- ./inp_files/31445.got.cif
#   From: 2010.05.17/outbox.cif.g08.bks.cpg/sg12_16_cif.got.tgz:31445.got - 2010.06.03 13:09:07.
