data_PCOD9212070
_publ_section_title
;
Structure prediction by ZEFSAII (Michael W. Deem and Ramdas Pophale) SiO2 
 PCOD9212070
Probable space group: C 2/M
;
_chemical_formula_sum "Si O2"
_cell_formula_units_Z 44
_cell_length_a 21.777824
_cell_length_b 10.586445
_cell_length_c 8.305014
_cell_angle_alpha 90.000000
_cell_angle_beta 101.463975
_cell_angle_gamma 90.000000
_cell_volume 1876.519886
_symmetry_space_group_name_H-M "C 2/M"
_symmetry_group_IT_number 12
_symmetry_cell_setting 'monoclinic'
loop_
_space_group_symop_operation_xyz
x,y,z
-x,y,-z
-x,-y,-z
x,-y,z
1/2+x,1/2+y,z
1/2-x,1/2+y,-z
1/2-x,1/2-y,-z
1/2+x,1/2-y,z
loop_
_atom_site_type_symbol
_atom_site_label
_atom_site_fract_x
_atom_site_fract_y
_atom_site_fract_z
Si Si1 0.385056 0.500000 0.751791
Si Si2 0.050423 0.254651 0.670566
Si Si3 0.349855 0.000000 0.725534
Si Si4 0.019951 0.000000 0.820274
Si Si5 0.008628 0.500000 0.310517
Si Si6 0.311339 0.752352 0.250696
Si Si7 0.717745 0.500000 0.571780
Si Si8 0.674829 0.729463 0.123888
O O1 0.451589 0.500000 0.701408
O O2 0.330344 0.500000 0.595731
O O3 0.375785 0.627095 0.848785
O O4 0.120441 0.293954 0.648915
O O5 0.000000 0.236880 0.500000
O O6 0.053389 0.125802 0.773909
O O7 0.024429 0.371397 0.762484
O O8 0.340370 0.869849 0.819955
O O9 0.418828 0.000000 0.691546
O O10 0.291555 0.000000 0.570942
O O11 0.000000 0.000000 0.000000
O O12 0.000000 0.500000 0.500000
O O13 0.297494 0.620920 0.329104
O O14 0.242999 0.817692 0.226774
O O15 0.320618 0.736990 0.064951
#
# Coordination Sequence:
#
# PCOD9212070 Si02
#       8
#     4   8   4   4   4   8   4   8
#     4  12  23  37  60  97 120 159 209 257 318 358
#     4  11  23  40  63  88 122 163 203 251 302 372
#     4  10  22  43  62  93 127 166 212 254 313 367
#     4  12  24  39  61  88 121 159 202 254 304 362
#     4  10  24  41  61  89 128 168 202 251 311 377
#     4  10  21  41  62  91 123 166 210 250 318 368
#     4  10  22  38  67  93 129 162 203 270 310 370
#     4  10  23  40  67  90 126 163 206 265 306 373
#
# _framework density 23.447659999999999
#
# number of rings (size 3 to 8) (size 9 to 14) (size 15 to 20)
#    0.000    1.455    0.000    4.636    0.000   10.909 
#    0.000    1.364    0.000    1.091    0.000    0.000 
#    0.000    0.000    0.000    0.000    0.000    0.000 
#
# Total GULP energy -122941.715731 kJ/mol
# GULP energy per Si atom -5588.259806 kJ/mol
# Density = 2.339429 g / cm^3
# Si number density = 23.447660 Si / 1000 Ang^3
#
#
#
# Elastic Constant Matrix: (Units=GPa)
#
#
# Indices 1 2 3 4 5 6 
#
# 1 191.6040 39.3253 4.2915 0.0000 15.8910 0.0000
# 2 39.3253 125.0482 21.6567 0.0000 -4.0495 0.0000
# 3 4.2915 21.6567 44.7341 0.0000 8.9223 0.0000
# 4 0.0000 0.0000 0.0000 -19.8650 0.0000 -22.0055
# 5 15.8910 -4.0495 8.9223 0.0000 34.4311 0.0000
# 6 0.0000 0.0000 0.0000 -22.0055 0.0000 21.8573
#
#
#
# Elastic Compliance Matrix: (Units=1/GPa)
#
#
# Indices 1 2 3 4 5 6 
#
# 1 0.005909 -0.002160 0.001132 0.000000 -0.003274 0.000000
# 2 -0.002160 0.009685 -0.005175 0.000000 0.003477 0.000000
# 3 0.001132 -0.005175 0.026338 0.000000 -0.007956 0.000000
# 4 0.000000 0.000000 0.000000 -0.023798 0.000000 -0.023960
# 5 -0.003274 0.003477 -0.007956 0.000000 0.033026 0.000000
# 6 0.000000 0.000000 0.000000 -0.023960 0.000000 0.021629
#
#
# Mechanical properties :
#
#
# Convention : Reuss Voigt Hill
#
# Bulk Modulus (GPa) = 33.86926 54.65926 44.26426
# Shear Modulus (GPa) = 52.61148 27.02553 39.81850
#
# Velocity S-wave (km/s) = 4.74200 3.39866 4.12538
# Velocity P-wave (km/s) = 6.66769 6.22599 6.45062
#
# Compressibility (1/GPa) = 0.02952529
#
# Stress axis : x y z
#
# Youngs Moduli (GPa) = 169.24202 103.25102 37.96804
#
# Poissons Ratio (x) = 0.22305 -0.04298
# Poissons Ratio (y) = 0.36561 0.19649
# Poissons Ratio (z) = -0.19160 0.53433
#
# Static dielectric constant tensor:
#      x y z
#    x 1.953480 0.000000 0.109050 
#    y 0.000000 1.826670 0.000000 
#    z 0.109050 0.000000 1.929760 
# 
# From -- ./inp_files/84231.got.cif
#   From: 2010.05.17/outbox.cif.g08.bks.cpg/sg12_43_cif.got.tgz:84231.got - 2010.06.03 13:09:07.
