data_PCOD9212723
_publ_section_title
;
Structure prediction by ZEFSAII (Michael W. Deem and Ramdas Pophale) SiO2 
 PCOD9212723
Probable space group: C 2/M
;
_chemical_formula_sum "Si O2"
_cell_formula_units_Z 40
_cell_length_a 10.684610
_cell_length_b 23.602769
_cell_length_c 9.155080
_cell_angle_alpha 90.000000
_cell_angle_beta 120.655986
_cell_angle_gamma 90.000000
_cell_volume 1986.120221
_symmetry_space_group_name_H-M "C 2/M"
_symmetry_group_IT_number 12
_symmetry_cell_setting 'monoclinic'
loop_
_space_group_symop_operation_xyz
x,y,z
-x,y,-z
-x,-y,-z
x,-y,z
1/2+x,1/2+y,z
1/2-x,1/2+y,-z
1/2-x,1/2-y,-z
1/2+x,1/2-y,z
loop_
_atom_site_type_symbol
_atom_site_label
_atom_site_fract_x
_atom_site_fract_y
_atom_site_fract_z
Si Si1 0.828366 0.096910 0.253970
Si Si2 0.339006 0.592356 0.595346
Si Si3 0.339680 0.000000 0.340043
Si Si4 0.148871 0.500000 0.999689
Si Si5 0.108104 0.796082 0.191838
Si Si6 0.397101 0.271379 0.294402
O O1 0.781273 0.090947 0.395311
O O2 0.840412 0.164300 0.233590
O O3 0.992716 0.074986 0.324823
O O4 0.729638 0.057520 0.096864
O O5 0.249102 0.553184 0.649512
O O6 0.344400 0.654567 0.668849
O O7 0.500000 0.000000 0.500000
O O8 0.356262 0.000000 0.177059
O O9 0.000000 0.500000 0.000000
O O10 0.254823 0.766990 0.223842
O O11 0.004144 0.755054 0.225484
O O12 0.000000 0.817771 0.000000
O O13 0.500000 0.271472 0.500000
#
# Coordination Sequence:
#
# PCOD9212723 Si02
#       6
#     8   8   4   4   8   8
#     4  10  21  43  69  94 128 176 218 261 327 400
#     4  10  22  42  68  94 130 171 219 265 325 396
#     4  12  27  44  65  99 133 166 216 276 333 388
#     4  12  27  44  67  95 132 169 215 277 335 388
#     4  11  24  41  66 100 138 175 227 276 329 393
#     4  11  22  43  67  99 133 182 223 269 334 397
#
# _framework density 20.139768
#
# number of rings (size 3 to 8) (size 9 to 14) (size 15 to 20)
#    0.000    1.200    4.000    3.600    5.600    4.000 
#    3.600    0.000    0.000    0.000    0.000    0.000 
#    0.000    0.000    0.000    0.000    0.000    0.000 
#
# Total GULP energy -111680.542499 kJ/mol
# GULP energy per Si atom -5584.027125 kJ/mol
# Density = 2.009393 g / cm^3
# Si number density = 20.139768 Si / 1000 Ang^3
#
#
#
# Elastic Constant Matrix: (Units=GPa)
#
#
# Indices 1 2 3 4 5 6 
#
# 1 143.4326 42.8087 44.4762 0.0000 -15.6216 0.0000
# 2 42.8087 57.5332 32.6194 0.0000 6.6497 0.0000
# 3 44.4762 32.6194 124.2361 0.0000 -12.3380 0.0000
# 4 0.0000 0.0000 0.0000 16.5195 0.0000 -12.5303
# 5 -15.6216 6.6497 -12.3380 0.0000 33.9282 0.0000
# 6 0.0000 0.0000 0.0000 -12.5303 0.0000 -163.5516
#
#
#
# Elastic Compliance Matrix: (Units=1/GPa)
#
#
# Indices 1 2 3 4 5 6 
#
# 1 0.010230 -0.007680 -0.001067 0.000000 0.005827 0.000000
# 2 -0.007680 0.027515 -0.005563 0.000000 -0.010952 0.000000
# 3 -0.001067 -0.005563 0.010324 0.000000 0.004353 0.000000
# 4 0.000000 0.000000 0.000000 0.057210 0.000000 -0.004383
# 5 0.005827 -0.010952 0.004353 0.000000 0.035887 0.000000
# 6 0.000000 0.000000 0.000000 -0.004383 0.000000 -0.005778
#
#
# Mechanical properties :
#
#
# Convention : Reuss Voigt Hill
#
# Bulk Modulus (GPa) = 51.41482 62.77894 57.09688
# Shear Modulus (GPa) = 29.32725 -8.93427 10.19649
#
# Velocity S-wave (km/s) = 3.82014 -2.10850 2.25252
# Velocity P-wave (km/s) = 6.71136 5.03107 5.93102
#
# Compressibility (1/GPa) = 0.01944964
#
# Stress axis : x y z
#
# Youngs Moduli (GPa) = 97.75528 36.34319 96.86155
#
# Poissons Ratio (x) = 0.27912 0.10335
# Poissons Ratio (y) = 0.75077 0.53881
# Poissons Ratio (z) = 0.10430 0.20216
#
# Static dielectric constant tensor:
#      x y z
#    x 1.725460 0.000000 -0.015390 
#    y 0.000000 1.715660 0.000000 
#    z -0.015390 0.000000 1.737230 
# 
# From -- ./inp_files/50980.got.cif
#   From: 2010.05.17/outbox.cif.g08.bks.cpg/sg12_26_cif.got.tgz:50980.got - 2010.06.03 13:09:07.
