data_PCOD9212107
_publ_section_title
;
Structure prediction by ZEFSAII (Michael W. Deem and Ramdas Pophale) SiO2 
 PCOD9212107
Probable space group: C 2/M
;
_chemical_formula_sum "Si O2"
_cell_formula_units_Z 40
_cell_length_a 9.521033
_cell_length_b 24.803413
_cell_length_c 18.052427
_cell_angle_alpha 90.000000
_cell_angle_beta 149.449298
_cell_angle_gamma 90.000000
_cell_volume 2166.964339
_symmetry_space_group_name_H-M "C 2/M"
_symmetry_group_IT_number 12
_symmetry_cell_setting 'monoclinic'
loop_
_space_group_symop_operation_xyz
x,y,z
-x,y,-z
-x,-y,-z
x,-y,z
1/2+x,1/2+y,z
1/2-x,1/2+y,-z
1/2-x,1/2-y,-z
1/2+x,1/2-y,z
loop_
_atom_site_type_symbol
_atom_site_label
_atom_site_fract_x
_atom_site_fract_y
_atom_site_fract_z
Si Si1 0.276017 0.000000 0.673684
Si Si2 0.505203 0.310126 0.589890
Si Si3 0.323642 0.902055 0.810687
Si Si4 0.842650 0.000000 0.848450
Si Si5 0.944241 0.099647 0.152723
Si Si6 0.425125 0.813480 0.379515
O O1 0.299739 0.949198 0.739653
O O2 0.000000 0.000000 0.500000
O O3 0.526192 0.000000 0.729158
O O4 0.500000 0.308277 0.500000
O O5 0.727564 0.347871 0.727816
O O6 0.568995 0.248822 0.645160
O O7 0.206791 0.335691 0.472914
O O8 0.128254 0.912773 0.793850
O O9 0.638980 0.893995 0.979649
O O10 0.919989 0.051456 0.832991
O O11 0.000000 0.000000 0.000000
O O12 0.151058 0.151184 0.242637
O O13 0.500000 0.812259 0.500000
#
# Coordination Sequence:
#
# PCOD9212107 Si02
#       6
#     4   8   8   4   8   8
#     4  12  27  43  65  95 127 162 211 264 315 375
#     4  10  22  39  65  92 131 168 209 266 309 361
#     4  11  23  43  63  94 128 169 211 254 317 377
#     4  12  25  45  63  93 128 160 204 259 322 375
#     4  11  24  41  68  89 129 169 205 260 316 379
#     4  10  21  41  63  94 127 168 213 257 314 373
#
# _framework density 18.459002999999999
#
# number of rings (size 3 to 8) (size 9 to 14) (size 15 to 20)
#    0.000    1.200    4.000    1.200    5.600    2.400 
#    0.000    1.500    4.400    0.000    0.000    0.000 
#    0.000    0.000    0.000    0.000    0.000    0.000 
#
# Total GULP energy -111491.695861 kJ/mol
# GULP energy per Si atom -5574.584793 kJ/mol
# Density = 1.841699 g / cm^3
# Si number density = 18.459003 Si / 1000 Ang^3
#
#
#
# Elastic Constant Matrix: (Units=GPa)
#
#
# Indices 1 2 3 4 5 6 
#
# 1 92.5374 37.3775 53.8979 -0.0122 23.4577 0.0024
# 2 37.3775 111.5066 69.0346 -0.0056 4.2588 0.0007
# 3 53.8979 69.0346 130.9116 0.0133 13.0641 -0.0154
# 4 -0.0122 -0.0056 0.0133 38.7239 -0.0062 -6.1995
# 5 23.4577 4.2588 13.0641 -0.0062 35.7484 -0.0005
# 6 0.0024 0.0007 -0.0154 -6.1995 -0.0005 36.3523
#
#
#
# Elastic Compliance Matrix: (Units=1/GPa)
#
#
# Indices 1 2 3 4 5 6 
#
# 1 0.016826 -0.002322 -0.004804 0.000005 -0.009009 -0.000002
# 2 -0.002322 0.013671 -0.006479 0.000003 0.002263 -0.000002
# 3 -0.004804 -0.006479 0.013120 -0.000006 -0.000870 0.000005
# 4 0.000005 0.000003 -0.000006 0.026549 0.000003 0.004528
# 5 -0.009009 0.002263 -0.000870 0.000003 0.033933 0.000001
# 6 -0.000002 -0.000002 0.000005 0.004528 0.000001 0.028281
#
#
# Mechanical properties :
#
#
# Convention : Reuss Voigt Hill
#
# Bulk Modulus (GPa) = 60.94859 72.84174 66.89516
# Shear Modulus (GPa) = 30.29205 33.80797 32.05001
#
# Velocity S-wave (km/s) = 4.05538 4.28427 4.17139
# Velocity P-wave (km/s) = 7.41742 8.00127 7.71487
#
# Compressibility (1/GPa) = 0.01640727
#
# Stress axis : x y z
#
# Youngs Moduli (GPa) = 59.43158 73.14585 76.21801
#
# Poissons Ratio (x) = 0.16983 0.36616
# Poissons Ratio (y) = 0.13799 0.49384
# Poissons Ratio (z) = 0.28551 0.47393
#
# Static dielectric constant tensor:
#      x y z
#    x 1.646510 0.000000 0.013150 
#    y 0.000000 1.643560 0.000010 
#    z 0.013150 0.000010 1.631700 
# 
# From -- ./inp_files/259368.got.cif
#   From: 2010.05.17/outbox.cif.g08.bks.cpg/sg12_130_cif.got.tgz:259368.got - 2010.06.03 13:09:07.
