data_PCOD9212143
_publ_section_title
;
Structure prediction by ZEFSAII (Michael W. Deem and Ramdas Pophale) SiO2 
 PCOD9212143
Probable space group: C 2/M
;
_chemical_formula_sum "Si O2"
_cell_formula_units_Z 56
_cell_length_a 10.948654
_cell_length_b 30.146600
_cell_length_c 7.945571
_cell_angle_alpha 90.000000
_cell_angle_beta 71.006145
_cell_angle_gamma 90.000000
_cell_volume 2479.763615
_symmetry_space_group_name_H-M "C 2/M"
_symmetry_group_IT_number 12
_symmetry_cell_setting 'monoclinic'
loop_
_space_group_symop_operation_xyz
x,y,z
-x,y,-z
-x,-y,-z
x,-y,z
1/2+x,1/2+y,z
1/2-x,1/2+y,-z
1/2-x,1/2-y,-z
1/2+x,1/2-y,z
loop_
_atom_site_type_symbol
_atom_site_label
_atom_site_fract_x
_atom_site_fract_y
_atom_site_fract_z
Si Si1 0.483350 0.096336 0.812190
Si Si2 0.583757 0.600985 0.313390
Si Si3 0.538427 0.000000 0.285219
Si Si4 0.182070 0.909997 0.912596
Si Si5 0.144812 0.264214 0.899311
Si Si6 0.355697 0.500000 0.151543
Si Si7 0.696646 0.843483 0.631015
Si Si8 0.611337 0.670818 0.745023
O O1 0.333082 0.096403 0.843124
O O2 0.557542 0.134156 0.677510
O O3 0.522080 0.045277 0.759889
O O4 0.500000 0.106393 0.000000
O O5 0.500000 0.578295 0.500000
O O6 0.717966 0.616836 0.330695
O O7 0.503547 0.646219 0.304540
O O8 0.625485 0.577127 0.120914
O O9 0.500000 0.000000 0.500000
O O10 0.696079 0.000000 0.173244
O O11 0.146256 0.948138 0.793098
O O12 0.129948 0.862143 0.891433
O O13 0.205029 0.301832 0.752835
O O14 0.104491 0.220284 0.813645
O O15 0.250000 0.250000 0.000000
O O16 0.000000 0.283055 0.000000
O O17 0.500000 0.500000 0.000000
O O18 0.762472 0.831132 0.427642
#
# Coordination Sequence:
#
# PCOD9212143 Si02
#       8
#     8   8   4   8   8   4   8   8
#     4  11  23  42  68  94 137 181 226 278 341 406
#     4  10  21  41  64  91 128 173 217 275 339 408
#     4  10  25  43  68 101 144 182 230 291 353 411
#     4  11  22  41  66  96 132 177 226 275 341 400
#     4  12  26  44  68  97 132 178 226 284 351 422
#     4  10  22  39  65  97 135 175 229 274 332 408
#     4  11  24  41  66  98 130 168 231 280 336 413
#     4  11  24  41  66  94 133 174 219 280 348 405
#
# _framework density 22.582798
#
# number of rings (size 3 to 8) (size 9 to 14) (size 15 to 20)
#    0.000    1.143    1.429    4.929    6.000    0.000 
#    0.000    1.786    0.000    1.714    0.000    0.000 
#    0.000    0.000    0.000    0.000    0.000    0.000 
#
# Total GULP energy -155909.437590 kJ/mol
# GULP energy per Si atom -5568.194200 kJ/mol
# Density = 2.253140 g / cm^3
# Si number density = 22.582798 Si / 1000 Ang^3
#
#
#
# Elastic Constant Matrix: (Units=GPa)
#
#
# Indices 1 2 3 4 5 6 
#
# 1 84.6179 0.8618 20.2180 0.0000 -24.8403 0.0000
# 2 0.8618 80.4444 16.9943 0.0000 -11.5839 0.0000
# 3 20.2180 16.9943 117.2209 0.0000 -15.7995 0.0000
# 4 0.0000 0.0000 0.0000 84.4189 0.0000 -16.9513
# 5 -24.8403 -11.5839 -15.7995 0.0000 29.6301 0.0000
# 6 0.0000 0.0000 0.0000 -16.9513 0.0000 25.5392
#
#
#
# Elastic Compliance Matrix: (Units=1/GPa)
#
#
# Indices 1 2 3 4 5 6 
#
# 1 0.016095 0.002052 -0.001236 0.000000 0.013637 0.000000
# 2 0.002052 0.013624 -0.001486 0.000000 0.006254 0.000000
# 3 -0.001236 -0.001486 0.009418 0.000000 0.003405 0.000000
# 4 0.000000 0.000000 0.000000 0.013667 0.000000 0.009071
# 5 0.013637 0.006254 0.003405 0.000000 0.049443 0.000000
# 6 0.000000 0.000000 0.000000 0.009071 0.000000 0.045177
#
#
# Mechanical properties :
#
#
# Convention : Reuss Voigt Hill
#
# Bulk Modulus (GPa) = 26.45600 39.82572 33.14086
# Shear Modulus (GPa) = 30.98613 44.19822 37.59218
#
# Velocity S-wave (km/s) = 3.70822 4.42878 4.08442
# Velocity P-wave (km/s) = 5.48408 6.62011 6.07869
#
# Compressibility (1/GPa) = 0.03779861
#
# Stress axis : x y z
#
# Youngs Moduli (GPa) = 62.12950 73.40250 106.17467
#
# Poissons Ratio (x) = -0.15064 0.13119
# Poissons Ratio (y) = -0.12751 0.15779
# Poissons Ratio (z) = 0.07677 0.10908
#
# Static dielectric constant tensor:
#      x y z
#    x 2.127380 0.000000 -0.025510 
#    y 0.000000 1.856210 0.000000 
#    z -0.025510 0.000000 1.933320 
# 
# From -- ./inp_files/54628.got.cif
#   From: 2010.05.17/outbox.cif.g08.bks.cpg/sg12_28_cif.got.tgz:54628.got - 2010.06.03 13:09:07.
