data_PCOD9212259
_publ_section_title
;
Structure prediction by ZEFSAII (Michael W. Deem and Ramdas Pophale) SiO2 
 PCOD9212259
Probable space group: C 2/M
;
_chemical_formula_sum "Si O2"
_cell_formula_units_Z 48
_cell_length_a 19.907732
_cell_length_b 20.708378
_cell_length_c 5.599359
_cell_angle_alpha 90.000000
_cell_angle_beta 56.789928
_cell_angle_gamma 90.000000
_cell_volume 1931.342798
_symmetry_space_group_name_H-M "C 2/M"
_symmetry_group_IT_number 12
_symmetry_cell_setting 'monoclinic'
loop_
_space_group_symop_operation_xyz
x,y,z
-x,y,-z
-x,-y,-z
x,-y,z
1/2+x,1/2+y,z
1/2-x,1/2+y,-z
1/2-x,1/2-y,-z
1/2+x,1/2-y,z
loop_
_atom_site_type_symbol
_atom_site_label
_atom_site_fract_x
_atom_site_fract_y
_atom_site_fract_z
Si Si1 0.316438 0.825252 0.703693
Si Si2 0.414959 0.109379 0.130009
Si Si3 0.251763 0.925585 0.207889
Si Si4 0.425319 0.238443 0.815906
Si Si5 0.541428 0.423185 0.173923
Si Si6 0.662221 0.339846 0.739343
O O1 0.391957 0.853454 0.416129
O O2 0.346860 0.764786 0.797251
O O3 0.247407 0.810707 0.648956
O O4 0.282834 0.883434 0.927989
O O5 0.332864 0.073456 0.216326
O O6 0.500000 0.074353 0.000000
O O7 0.430543 0.166073 0.906908
O O8 0.182121 0.882601 0.468331
O O9 0.227348 0.000000 0.212601
O O10 0.500000 0.255375 0.500000
O O11 0.403874 0.284225 0.082851
O O12 0.500000 0.401664 0.500000
O O13 0.544164 0.500000 0.172674
O O14 0.500000 0.405065 0.000000
O O15 0.629245 0.393315 0.988264
#
# Coordination Sequence:
#
# PCOD9212259 Si02
#       6
#     8   8   8   8   8   8
#     4  10  23  41  64  93 133 169 219 270 339 395
#     4  10  21  41  66  94 127 167 213 270 332 400
#     4  10  24  42  63  93 130 171 219 272 331 393
#     4  11  22  40  67  96 132 171 213 272 335 403
#     4  10  23  43  66  95 135 181 233 288 341 401
#     4  11  24  40  65  98 130 172 223 270 335 408
#
# _framework density 24.853176000000001
#
# number of rings (size 3 to 8) (size 9 to 14) (size 15 to 20)
#    0.000    1.667    1.667    1.500    2.333   11.667 
#    0.000    0.833    0.000    0.000    0.000    0.000 
#    0.000    0.000    0.000    0.000    0.000    0.000 
#
# Total GULP energy -134056.746312 kJ/mol
# GULP energy per Si atom -5585.697763 kJ/mol
# Density = 2.479661 g / cm^3
# Si number density = 24.853176 Si / 1000 Ang^3
#
#
#
# Elastic Constant Matrix: (Units=GPa)
#
#
# Indices 1 2 3 4 5 6 
#
# 1 75.7129 22.0970 32.4887 0.0000 -15.0466 0.0000
# 2 22.0970 131.8711 42.6057 0.0000 2.4534 0.0000
# 3 32.4887 42.6057 155.0730 0.0000 -17.3484 0.0000
# 4 0.0000 0.0000 0.0000 26.0199 0.0000 -4.9669
# 5 -15.0466 2.4534 -17.3484 0.0000 33.0447 0.0000
# 6 0.0000 0.0000 0.0000 -4.9669 0.0000 1.8287
#
#
#
# Elastic Compliance Matrix: (Units=1/GPa)
#
#
# Indices 1 2 3 4 5 6 
#
# 1 0.015973 -0.002133 -0.002049 0.000000 0.006355 0.000000
# 2 -0.002133 0.008724 -0.002264 0.000000 -0.002807 0.000000
# 3 -0.002049 -0.002264 0.007877 0.000000 0.003370 0.000000
# 4 0.000000 0.000000 0.000000 0.079810 0.000000 0.216768
# 5 0.006355 -0.002807 0.003370 0.000000 0.035134 0.000000
# 6 0.000000 0.000000 0.000000 0.216768 0.000000 1.135582
#
#
# Mechanical properties :
#
#
# Convention : Reuss Voigt Hill
#
# Bulk Modulus (GPa) = 50.80916 61.89328 56.35122
# Shear Modulus (GPa) = 3.83861 29.87636 16.85749
#
# Velocity S-wave (km/s) = 1.24413 3.47091 2.60721
# Velocity P-wave (km/s) = 4.74889 6.40473 5.63793
#
# Compressibility (1/GPa) = 0.01968149
#
# Stress axis : x y z
#
# Youngs Moduli (GPa) = 62.60710 114.62260 126.95032
#
# Poissons Ratio (x) = 0.24444 0.26018
# Poissons Ratio (y) = 0.13351 0.28745
# Poissons Ratio (z) = 0.12831 0.25954
#
# Static dielectric constant tensor:
#      x y z
#    x 2.138160 0.000000 0.031460 
#    y 0.000000 1.934720 0.000000 
#    z 0.031460 0.000000 1.919510 
# 
# From -- ./inp_files/25533.got.cif
#   From: 2010.05.17/outbox.cif.g08.bks.cpg/sg12_13_cif.got.tgz:25533.got - 2010.06.03 13:09:07.
