data_PCOD9212767
_publ_section_title
;
Structure prediction by ZEFSAII (Michael W. Deem and Ramdas Pophale) SiO2 
 PCOD9212767
Probable space group: C 2/M
;
_chemical_formula_sum "Si O2"
_cell_formula_units_Z 44
_cell_length_a 17.343193
_cell_length_b 11.009579
_cell_length_c 27.795541
_cell_angle_alpha 90.000000
_cell_angle_beta 158.483952
_cell_angle_gamma 90.000000
_cell_volume 1946.520635
_symmetry_space_group_name_H-M "C 2/M"
_symmetry_group_IT_number 12
_symmetry_cell_setting 'monoclinic'
loop_
_space_group_symop_operation_xyz
x,y,z
-x,y,-z
-x,-y,-z
x,-y,z
1/2+x,1/2+y,z
1/2-x,1/2+y,-z
1/2-x,1/2-y,-z
1/2+x,1/2-y,z
loop_
_atom_site_type_symbol
_atom_site_label
_atom_site_fract_x
_atom_site_fract_y
_atom_site_fract_z
Si Si1 0.491862 0.500000 0.177929
Si Si2 0.251335 0.268673 0.647385
Si Si3 0.436210 0.750764 0.646358
Si Si4 0.570708 0.000000 0.757794
Si Si5 0.616072 0.238002 0.119059
Si Si6 0.246886 0.000000 0.654606
Si Si7 0.041659 0.000000 0.944578
Si Si8 0.087441 0.500000 0.995899
O O1 0.636249 0.381277 0.262664
O O2 0.361989 0.500000 0.052938
O O3 0.336818 0.500000 0.133319
O O4 0.344344 0.270995 0.646509
O O5 0.291881 0.138640 0.697527
O O6 0.000000 0.285056 0.500000
O O7 0.250000 0.750000 0.500000
O O8 0.648085 0.683651 0.752200
O O9 0.540793 0.882766 0.709214
O O10 0.375081 0.000000 0.679837
O O11 0.779958 0.000000 0.910905
O O12 0.581865 0.371687 0.122209
O O13 0.491981 0.127176 0.072151
O O14 0.500000 0.252352 0.000000
O O15 0.000000 0.000000 0.500000
O O16 0.000000 0.500000 0.000000
#
# Coordination Sequence:
#
# PCOD9212767 Si02
#       8
#     4   8   8   4   8   4   4   4
#     4  12  27  43  66 105 140 187 234 293 361 420
#     4  10  22  44  66  99 143 183 232 295 355 419
#     4  11  24  41  73 105 136 188 238 291 354 425
#     4  10  21  44  65 103 138 178 242 291 341 417
#     4  11  22  45  71 101 141 185 235 296 352 418
#     4   8  18  39  68  88 127 179 223 275 340 411
#     4  12  26  43  74 102 141 191 243 284 349 428
#     4  10  24  44  68  97 137 176 228 296 359 405
#
# _framework density 22.604434000000001
#
# number of rings (size 3 to 8) (size 9 to 14) (size 15 to 20)
#    0.000    1.455    1.818    3.273    5.091    2.182 
#    0.000    0.000    0.000    0.000    0.000    0.000 
#    0.000    0.000    0.000    0.000    0.000    0.000 
#
# Total GULP energy -122586.309080 kJ/mol
# GULP energy per Si atom -5572.104958 kJ/mol
# Density = 2.255299 g / cm^3
# Si number density = 22.604434 Si / 1000 Ang^3
#
#
#
# Elastic Constant Matrix: (Units=GPa)
#
#
# Indices 1 2 3 4 5 6 
#
# 1 63.5261 32.9726 48.6118 -0.0021 -2.3530 0.0014
# 2 32.9726 180.4694 39.2715 0.0034 2.9439 -0.0008
# 3 48.6118 39.2715 92.6065 0.0148 -5.0910 0.0085
# 4 -0.0021 0.0034 0.0148 15.8776 -0.0024 35.7227
# 5 -2.3530 2.9439 -5.0910 -0.0024 46.8504 0.0007
# 6 0.0014 -0.0008 0.0085 35.7227 0.0007 -7.9734
#
#
#
# Elastic Compliance Matrix: (Units=1/GPa)
#
#
# Indices 1 2 3 4 5 6 
#
# 1 0.026972 -0.002036 -0.013293 0.000003 0.000038 0.000006
# 2 -0.002036 0.006279 -0.001631 0.000001 -0.000674 0.000000
# 3 -0.013293 -0.001631 0.018548 -0.000005 0.001450 -0.000006
# 4 0.000003 0.000001 -0.000005 0.005684 -0.000001 0.025467
# 5 0.000038 -0.000674 0.001450 -0.000001 0.021546 0.000001
# 6 0.000006 0.000000 -0.000006 0.025467 0.000001 -0.011319
#
#
# Mechanical properties :
#
#
# Convention : Reuss Voigt Hill
#
# Bulk Modulus (GPa) = 55.93228 64.25710 60.09469
# Shear Modulus (GPa) = 46.47328 25.33400 35.90364
#
# Velocity S-wave (km/s) = 4.53916 3.35140 3.98973
# Velocity P-wave (km/s) = 7.22978 6.59275 6.91860
#
# Compressibility (1/GPa) = 0.01787876
#
# Stress axis : x y z
#
# Youngs Moduli (GPa) = 37.07597 159.26099 53.91541
#
# Poissons Ratio (x) = 0.32423 0.71668
# Poissons Ratio (y) = 0.07548 0.08794
# Poissons Ratio (z) = 0.49284 0.25977
#
# Static dielectric constant tensor:
#      x y z
#    x 1.931290 -0.000010 0.083960 
#    y -0.000010 1.907210 -0.000010 
#    z 0.083960 -0.000010 1.850520 
# 
# From -- ./inp_files/379172.got.cif
#   From: 2010.05.17/outbox.cif.g08.bks.cpg/sg12_190_cif.got.tgz:379172.got - 2010.06.03 13:09:07.
