data_PCOD9212513
_publ_section_title
;
Structure prediction by ZEFSAII (Michael W. Deem and Ramdas Pophale) SiO2 
 PCOD9212513
Probable space group: C 2/M
;
_chemical_formula_sum "Si O2"
_cell_formula_units_Z 40
_cell_length_a 16.874347
_cell_length_b 22.187348
_cell_length_c 5.020105
_cell_angle_alpha 90.000000
_cell_angle_beta 61.541929
_cell_angle_gamma 90.000000
_cell_volume 1652.403425
_symmetry_space_group_name_H-M "C 2/M"
_symmetry_group_IT_number 12
_symmetry_cell_setting 'monoclinic'
loop_
_space_group_symop_operation_xyz
x,y,z
-x,y,-z
-x,-y,-z
x,-y,z
1/2+x,1/2+y,z
1/2-x,1/2+y,-z
1/2-x,1/2-y,-z
1/2+x,1/2-y,z
loop_
_atom_site_type_symbol
_atom_site_label
_atom_site_fract_x
_atom_site_fract_y
_atom_site_fract_z
Si Si1 0.065865 0.067876 0.147310
Si Si2 0.829779 0.158126 0.361812
Si Si3 0.701943 0.931846 0.778712
Si Si4 0.902616 0.393024 0.562612
Si Si5 0.674214 0.230220 0.335803
O O1 0.000000 0.080040 0.500000
O O2 0.107744 0.000000 0.116139
O O3 0.125992 0.125411 0.961348
O O4 0.000000 0.063019 0.000000
O O5 0.795024 0.103983 0.599125
O O6 0.736820 0.191906 0.436260
O O7 0.875404 0.212590 0.451028
O O8 0.625000 0.907440 0.696858
O O9 0.717783 0.000000 0.678732
O O10 0.669033 0.924924 0.131268
O O11 0.893206 0.321831 0.648465
O O12 0.000000 0.414390 0.500000
O O13 0.750000 0.250000 0.000000
#
# Coordination Sequence:
#
# PCOD9212513 Si02
#       5
#     8   8   8   8   8
#     4  10  23  42  64  96 134 170 214 272 330 385
#     4  10  22  41  65  92 129 168 219 268 319 388
#     4  11  23  40  67  96 124 172 216 257 325 391
#     4  11  24  42  63  93 134 165 212 269 323 381
#     4  10  21  42  65  89 125 170 214 269 317 378
#
# _framework density 24.207163999999999
#
# number of rings (size 3 to 8) (size 9 to 14) (size 15 to 20)
#    0.000    1.600    2.000    1.800    2.800    2.400 
#    3.600    4.000    0.000    0.000    0.000    0.000 
#    0.000    0.000    0.000    0.000    0.000    0.000 
#
# Total GULP energy -111658.229886 kJ/mol
# GULP energy per Si atom -5582.911494 kJ/mol
# Density = 2.415207 g / cm^3
# Si number density = 24.207164 Si / 1000 Ang^3
#
#
#
# Elastic Constant Matrix: (Units=GPa)
#
#
# Indices 1 2 3 4 5 6 
#
# 1 39.8853 4.1133 -0.0590 0.0000 5.0132 0.0000
# 2 4.1133 183.4844 46.8836 0.0000 -12.2700 0.0000
# 3 -0.0590 46.8836 123.2406 0.0000 5.9989 0.0000
# 4 0.0000 0.0000 0.0000 48.6876 0.0000 9.3527
# 5 5.0132 -12.2700 5.9989 0.0000 27.3142 0.0000
# 6 0.0000 0.0000 0.0000 9.3527 0.0000 2.2305
#
#
#
# Elastic Compliance Matrix: (Units=1/GPa)
#
#
# Indices 1 2 3 4 5 6 
#
# 1 0.025868 -0.001121 0.000702 0.000000 -0.005405 0.000000
# 2 -0.001121 0.006385 -0.002607 0.000000 0.003647 0.000000
# 3 0.000702 -0.002607 0.009269 0.000000 -0.003336 0.000000
# 4 0.000000 0.000000 0.000000 0.105595 0.000000 -0.442780
# 5 -0.005405 0.003647 -0.003336 0.000000 0.039974 0.000000
# 6 0.000000 0.000000 0.000000 -0.442780 0.000000 2.304989
#
#
# Mechanical properties :
#
#
# Convention : Reuss Voigt Hill
#
# Bulk Modulus (GPa) = 28.19298 49.83180 39.01239
# Shear Modulus (GPa) = 1.99207 35.35794 18.67501
#
# Velocity S-wave (km/s) = 0.90814 3.82598 2.78054
# Velocity P-wave (km/s) = 3.57372 6.33622 5.14389
#
# Compressibility (1/GPa) = 0.03546982
#
# Stress axis : x y z
#
# Youngs Moduli (GPa) = 38.65799 156.61208 107.88977
#
# Poissons Ratio (x) = 0.17551 -0.07572
# Poissons Ratio (y) = 0.04332 0.28128
# Poissons Ratio (z) = -0.02713 0.40831
#
# Static dielectric constant tensor:
#      x y z
#    x 2.197010 0.000000 0.092320 
#    y 0.000000 2.082650 0.000000 
#    z 0.092320 0.000000 1.915920 
# 
# From -- ./inp_files/21129.got.cif
#   From: 2010.05.17/outbox.cif.g08.bks.cpg/sg12_11_cif.got.tgz:21129.got - 2010.06.03 13:09:07.
