data_PCOD9212782
_publ_section_title
;
Structure prediction by ZEFSAII (Michael W. Deem and Ramdas Pophale) SiO2 
 PCOD9212782
Probable space group: C 2/M
;
_chemical_formula_sum "Si O2"
_cell_formula_units_Z 48
_cell_length_a 13.401108
_cell_length_b 22.548450
_cell_length_c 9.477257
_cell_angle_alpha 90.000000
_cell_angle_beta 57.373546
_cell_angle_gamma 90.000000
_cell_volume 2411.887946
_symmetry_space_group_name_H-M "C 2/M"
_symmetry_group_IT_number 12
_symmetry_cell_setting 'monoclinic'
loop_
_space_group_symop_operation_xyz
x,y,z
-x,y,-z
-x,-y,-z
x,-y,z
1/2+x,1/2+y,z
1/2-x,1/2+y,-z
1/2-x,1/2-y,-z
1/2+x,1/2-y,z
loop_
_atom_site_type_symbol
_atom_site_label
_atom_site_fract_x
_atom_site_fract_y
_atom_site_fract_z
Si Si1 0.478736 0.739614 0.854969
Si Si2 0.817816 0.140927 0.316947
Si Si3 0.996520 0.930141 0.341509
Si Si4 0.695502 0.364270 0.008861
Si Si5 0.432472 0.068998 0.903451
Si Si6 0.943570 0.348503 0.390509
O O1 0.583878 0.692406 0.747784
O O2 0.496795 0.793985 0.737525
O O3 0.500000 0.759599 0.000000
O O4 0.355991 0.702751 0.933194
O O5 0.802765 0.126459 0.162090
O O6 0.695662 0.160042 0.480721
O O7 0.873487 0.086733 0.361092
O O8 0.000000 0.906370 0.500000
O O9 0.013008 0.000000 0.335414
O O10 0.098110 0.903181 0.164879
O O11 0.820175 0.386702 0.975572
O O12 0.524915 0.091695 0.716417
O O13 0.396806 0.000000 0.910601
O O14 0.500000 0.074083 0.000000
O O15 0.000000 0.352105 0.500000
#
# Coordination Sequence:
#
# PCOD9212782 Si02
#       6
#     8   8   8   8   8   8
#     4   9  21  42  68  94 125 165 211 269 322 379
#     4  10  22  42  63  93 133 165 211 264 320 387
#     4  10  22  38  63  96 125 164 219 274 320 369
#     4  10  21  44  67  93 126 167 216 266 319 381
#     4  11  26  45  65  91 130 177 219 263 317 382
#     4  12  24  43  63  98 131 171 213 260 321 388
#
# _framework density 19.901423000000001
#
# number of rings (size 3 to 8) (size 9 to 14) (size 15 to 20)
#    0.000    1.667    1.667    3.000    2.333    6.333 
#    3.000    0.000    0.000    0.000    0.000    0.000 
#    0.000    0.000    0.000    0.000    0.000    0.000 
#
# Total GULP energy -133994.680403 kJ/mol
# GULP energy per Si atom -5583.111683 kJ/mol
# Density = 1.985613 g / cm^3
# Si number density = 19.901423 Si / 1000 Ang^3
#
#
#
# Elastic Constant Matrix: (Units=GPa)
#
#
# Indices 1 2 3 4 5 6 
#
# 1 103.9616 44.7790 52.2326 0.0000 -2.9181 0.0000
# 2 44.7790 66.8932 72.2821 0.0000 13.1830 0.0000
# 3 52.2326 72.2821 121.5020 0.0000 3.6026 0.0000
# 4 0.0000 0.0000 0.0000 59.3776 0.0000 28.1948
# 5 -2.9181 13.1830 3.6026 0.0000 26.0000 0.0000
# 6 0.0000 0.0000 0.0000 28.1948 0.0000 48.5585
#
#
#
# Elastic Compliance Matrix: (Units=1/GPa)
#
#
# Indices 1 2 3 4 5 6 
#
# 1 0.014698 -0.011959 0.000570 0.000000 0.007634 0.000000
# 2 -0.011959 0.061853 -0.030813 0.000000 -0.028435 0.000000
# 3 0.000570 -0.030813 0.025958 0.000000 0.012090 0.000000
# 4 0.000000 0.000000 0.000000 0.023252 0.000000 -0.013501
# 5 0.007634 -0.028435 0.012090 0.000000 0.052061 0.000000
# 6 0.000000 0.000000 0.000000 -0.013501 0.000000 0.028433
#
#
# Mechanical properties :
#
#
# Convention : Reuss Voigt Hill
#
# Bulk Modulus (GPa) = 55.23414 70.10493 62.66954
# Shear Modulus (GPa) = 16.85237 34.99141 25.92189
#
# Velocity S-wave (km/s) = 2.91313 4.19768 3.61295
# Velocity P-wave (km/s) = 6.25533 7.66789 6.99735
#
# Compressibility (1/GPa) = 0.01810474
#
# Stress axis : x y z
#
# Youngs Moduli (GPa) = 68.03567 16.16728 38.52440
#
# Poissons Ratio (x) = 0.19335 -0.02194
# Poissons Ratio (y) = 0.81364 1.18704
# Poissons Ratio (z) = -0.03875 0.49816
#
# Static dielectric constant tensor:
#      x y z
#    x 1.721040 0.000000 -0.021140 
#    y 0.000000 1.692230 0.000000 
#    z -0.021140 0.000000 1.695870 
# 
# From -- ./inp_files/51320.got.cif
#   From: 2010.05.17/outbox.cif.g08.bks.cpg/sg12_26_cif.got.tgz:51320.got - 2010.06.03 13:09:07.
