data_PCOD9212162
_publ_section_title
;
Structure prediction by ZEFSAII (Michael W. Deem and Ramdas Pophale) SiO2 
 PCOD9212162
Probable space group: C 2/M
;
_chemical_formula_sum "Si O2"
_cell_formula_units_Z 42
_cell_length_a 17.527370
_cell_length_b 18.383146
_cell_length_c 9.472015
_cell_angle_alpha 90.000000
_cell_angle_beta 45.284828
_cell_angle_gamma 90.000000
_cell_volume 2168.763682
_symmetry_space_group_name_H-M "C 2/M"
_symmetry_group_IT_number 12
_symmetry_cell_setting 'monoclinic'
loop_
_space_group_symop_operation_xyz
x,y,z
-x,y,-z
-x,-y,-z
x,-y,z
1/2+x,1/2+y,z
1/2-x,1/2+y,-z
1/2-x,1/2-y,-z
1/2+x,1/2-y,z
loop_
_atom_site_type_symbol
_atom_site_label
_atom_site_fract_x
_atom_site_fract_y
_atom_site_fract_z
Si Si1 0.251859 0.721872 0.739363
Si Si2 0.667637 0.500000 0.028048
Si Si3 0.244480 0.500000 0.375033
Si Si4 0.411891 0.364018 0.720440
Si Si5 0.000000 0.000000 0.000000
Si Si6 0.023572 0.754118 0.128784
Si Si7 0.817315 0.656638 0.459725
O O1 0.345704 0.695279 0.717286
O O2 0.246582 0.676263 0.600583
O O3 0.264951 0.803663 0.663426
O O4 0.139554 0.716755 0.966709
O O5 0.664726 0.426944 0.122604
O O6 0.759837 0.500000 0.790172
O O7 0.556433 0.500000 0.082598
O O8 0.188868 0.571641 0.507908
O O9 0.374020 0.500000 0.231725
O O10 0.500000 0.395939 0.500000
O O11 0.468071 0.321101 0.775665
O O12 0.932003 0.696528 0.290112
O O13 0.000000 0.781121 0.000000
#
# Coordination Sequence:
#
# PCOD9212162 Si02
#       7
#     8   4   4   8   2   8   8
#     4  10  22  38  64  90 129 166 209 264 314 380
#     4  10  25  37  59  95 128 165 206 256 326 372
#     4  10  22  40  65  90 128 161 211 256 316 378
#     4  12  23  38  62  94 130 162 210 268 319 373
#     4   8  24  38  62  88 120 174 190 254 312 380
#     4  10  22  40  63  90 124 168 215 256 314 379
#     4  10  21  41  64  95 120 168 216 257 314 382
#
# _framework density 19.365872
#
# number of rings (size 3 to 8) (size 9 to 14) (size 15 to 20)
#    0.571    1.143    1.905    2.000    4.000    0.762 
#    0.000    5.238    0.000    3.429    0.000    0.000 
#    0.000    0.000    0.000    0.000    0.000    0.000 
#
# Total GULP energy -116922.231585 kJ/mol
# GULP energy per Si atom -5567.725314 kJ/mol
# Density = 1.932179 g / cm^3
# Si number density = 19.365872 Si / 1000 Ang^3
#
#
#
# Elastic Constant Matrix: (Units=GPa)
#
#
# Indices 1 2 3 4 5 6 
#
# 1 35.8871 19.7911 20.5742 0.0000 -0.8254 0.0000
# 2 19.7911 136.4841 32.1387 0.0000 15.9543 0.0000
# 3 20.5742 32.1387 72.9668 0.0000 -2.1767 0.0000
# 4 0.0000 0.0000 0.0000 15.8351 0.0000 4.6760
# 5 -0.8254 15.9543 -2.1767 0.0000 26.5227 0.0000
# 6 0.0000 0.0000 0.0000 4.6760 0.0000 5.4081
#
#
#
# Elastic Compliance Matrix: (Units=1/GPa)
#
#
# Indices 1 2 3 4 5 6 
#
# 1 0.034452 -0.003356 -0.008164 0.000000 0.002421 0.000000
# 2 -0.003356 0.009294 -0.003325 0.000000 -0.005968 0.000000
# 3 -0.008164 -0.003325 0.017567 0.000000 0.003188 0.000000
# 4 0.000000 0.000000 0.000000 0.084802 0.000000 -0.073322
# 5 0.002421 -0.005968 0.003188 0.000000 0.041631 0.000000
# 6 0.000000 0.000000 0.000000 -0.073322 0.000000 0.248305
#
#
# Mechanical properties :
#
#
# Convention : Reuss Voigt Hill
#
# Bulk Modulus (GPa) = 31.62372 43.37179 37.49775
# Shear Modulus (GPa) = 10.49798 21.07544 15.78671
#
# Velocity S-wave (km/s) = 2.33080 3.30248 2.85824
# Velocity P-wave (km/s) = 4.85887 6.08165 5.50432
#
# Compressibility (1/GPa) = 0.03162183
#
# Stress axis : x y z
#
# Youngs Moduli (GPa) = 29.02576 107.59335 56.92639
#
# Poissons Ratio (x) = 0.36113 0.46473
# Poissons Ratio (y) = 0.09742 0.18930
# Poissons Ratio (z) = 0.23696 0.35779
#
# Static dielectric constant tensor:
#      x y z
#    x 1.675990 0.000000 0.002710 
#    y 0.000000 1.639980 0.000000 
#    z 0.002710 0.000000 1.709670 
# 
# From -- ./inp_files/76678.got.cif
#   From: 2010.05.17/outbox.cif.g08.bks.cpg/sg12_39_cif.got.tgz:76678.got - 2010.06.03 13:09:07.
