data_PCOD9212791
_publ_section_title
;
Structure prediction by ZEFSAII (Michael W. Deem and Ramdas Pophale) SiO2 
 PCOD9212791
Probable space group: C 2/M
;
_chemical_formula_sum "Si O2"
_cell_formula_units_Z 32
_cell_length_a 9.961740
_cell_length_b 20.288251
_cell_length_c 7.253231
_cell_angle_alpha 90.000000
_cell_angle_beta 72.994048
_cell_angle_gamma 90.000000
_cell_volume 1401.825128
_symmetry_space_group_name_H-M "C 2/M"
_symmetry_group_IT_number 12
_symmetry_cell_setting 'monoclinic'
loop_
_space_group_symop_operation_xyz
x,y,z
-x,y,-z
-x,-y,-z
x,-y,z
1/2+x,1/2+y,z
1/2-x,1/2+y,-z
1/2-x,1/2-y,-z
1/2+x,1/2-y,z
loop_
_atom_site_type_symbol
_atom_site_label
_atom_site_fract_x
_atom_site_fract_y
_atom_site_fract_z
Si Si1 0.644156 0.864407 0.370966
Si Si2 0.092309 0.249390 0.131242
Si Si3 0.636480 0.602700 0.038631
Si Si4 0.832064 0.927412 0.575671
O O1 0.500000 0.898153 0.500000
O O2 0.592173 0.793935 0.311536
O O3 0.749509 0.870478 0.501201
O O4 0.740966 0.890269 0.162662
O O5 0.067141 0.171281 0.147720
O O6 0.250000 0.250000 0.000000
O O7 0.000000 0.277415 0.000000
O O8 0.701725 0.572303 0.194836
O O9 0.500000 0.570408 0.000000
O O10 0.000000 0.920475 0.500000
O O11 0.796786 0.000000 0.508921
#
# Coordination Sequence:
#
# PCOD9212791 Si02
#       4
#     8   8   8   8
#     4  11  25  41  66 100 136 168 212 273 335 387
#     4   9  21  40  64  95 133 168 211 256 321 397
#     4  10  21  44  68  96 131 172 217 271 319 387
#     4  11  25  44  69  96 124 174 233 268 318 391
#
# _framework density 22.827383999999999
#
# number of rings (size 3 to 8) (size 9 to 14) (size 15 to 20)
#    0.000    1.750    2.500    0.000    7.000    4.000 
#    0.000    1.250    0.000    0.000    0.000    0.000 
#    0.000    0.000    0.000    0.000    0.000    0.000 
#
# Total GULP energy -89112.527995 kJ/mol
# GULP energy per Si atom -5569.533000 kJ/mol
# Density = 2.277543 g / cm^3
# Si number density = 22.827384 Si / 1000 Ang^3
#
#
#
# Elastic Constant Matrix: (Units=GPa)
#
#
# Indices 1 2 3 4 5 6 
#
# 1 139.7087 22.9648 67.2051 0.0000 -2.1316 0.0000
# 2 22.9648 85.5724 42.1859 0.0000 27.9616 0.0000
# 3 67.2051 42.1859 168.0815 0.0000 -6.7465 0.0000
# 4 0.0000 0.0000 0.0000 12.4306 0.0000 11.1982
# 5 -2.1316 27.9616 -6.7465 0.0000 58.8357 0.0000
# 6 0.0000 0.0000 0.0000 11.1982 0.0000 -24.6066
#
#
#
# Elastic Compliance Matrix: (Units=1/GPa)
#
#
# Indices 1 2 3 4 5 6 
#
# 1 0.008907 -0.000863 -0.003331 0.000000 0.000351 0.000000
# 2 -0.000863 0.016759 -0.004201 0.000000 -0.008478 0.000000
# 3 -0.003331 -0.004201 0.008450 0.000000 0.002845 0.000000
# 4 0.000000 0.000000 0.000000 0.057056 0.000000 0.025965
# 5 0.000351 -0.008478 0.002845 0.000000 0.021364 0.000000
# 6 0.000000 0.000000 0.000000 0.025965 0.000000 -0.028823
#
#
# Mechanical properties :
#
#
# Convention : Reuss Voigt Hill
#
# Bulk Modulus (GPa) = 57.71780 73.11937 65.41858
# Shear Modulus (GPa) = 47.04595 26.73240 36.88918
#
# Velocity S-wave (km/s) = 4.54469 3.42580 4.02432
# Velocity P-wave (km/s) = 7.27174 6.91007 7.09321
#
# Compressibility (1/GPa) = 0.01732568
#
# Stress axis : x y z
#
# Youngs Moduli (GPa) = 112.26912 59.66909 118.34425
#
# Poissons Ratio (x) = 0.05150 0.39417
# Poissons Ratio (y) = 0.09690 0.49722
# Poissons Ratio (z) = 0.37393 0.25070
#
# Static dielectric constant tensor:
#      x y z
#    x 1.817280 0.000000 0.028780 
#    y 0.000000 2.048000 0.000000 
#    z 0.028780 0.000000 1.880800 
# 
# From -- ./inp_files/3534.got.cif
#   From: 2010.05.17/outbox.cif.g08.bks.cpg/sg12_2_cif.got.tgz:3534.got - 2010.06.03 13:09:07.
