data_PCOD9212457
_publ_section_title
;
Structure prediction by ZEFSAII (Michael W. Deem and Ramdas Pophale) SiO2 
 PCOD9212457
Probable space group: C 2/M
;
_chemical_formula_sum "Si O2"
_cell_formula_units_Z 44
_cell_length_a 24.968838
_cell_length_b 15.055201
_cell_length_c 6.652955
_cell_angle_alpha 90.000000
_cell_angle_beta 50.111335
_cell_angle_gamma 90.000000
_cell_volume 1918.934569
_symmetry_space_group_name_H-M "C 2/M"
_symmetry_group_IT_number 12
_symmetry_cell_setting 'monoclinic'
loop_
_space_group_symop_operation_xyz
x,y,z
-x,y,-z
-x,-y,-z
x,-y,z
1/2+x,1/2+y,z
1/2-x,1/2+y,-z
1/2-x,1/2-y,-z
1/2+x,1/2-y,z
loop_
_atom_site_type_symbol
_atom_site_label
_atom_site_fract_x
_atom_site_fract_y
_atom_site_fract_z
Si Si1 0.609962 0.309106 0.524797
Si Si2 0.807709 0.500000 0.809397
Si Si3 0.785225 0.000000 0.363574
Si Si4 0.080741 0.000000 0.758044
Si Si5 0.582326 0.000000 0.763443
Si Si6 0.500000 0.775435 0.500000
Si Si7 0.761439 0.346490 0.217438
Si Si8 0.102478 0.684639 0.916177
O O1 0.599123 0.412822 0.588583
O O2 0.561324 0.279394 0.460231
O O3 0.693250 0.295003 0.303732
O O4 0.587031 0.255242 0.779386
O O5 0.754132 0.500000 0.751735
O O6 0.886669 0.500000 0.535557
O O7 0.792760 0.412769 0.975726
O O8 0.764092 0.087165 0.542868
O O9 0.869494 0.000000 0.164872
O O10 0.000000 0.000000 0.000000
O O11 0.611812 0.088788 0.793173
O O12 0.500000 0.000000 0.000000
O O13 0.459868 0.825532 0.774482
O O14 0.825049 0.289434 0.151019
#
# Coordination Sequence:
#
# PCOD9212457 Si02
#       8
#     8   4   4   4   4   4   8   8
#     4  11  26  48  70 105 144 183 239 298 363 424
#     4  11  22  42  70 111 140 180 251 285 339 441
#     4   9  19  41  64 100 141 178 230 296 338 419
#     4  10  21  41  74  97 133 185 230 290 366 416
#     4  12  26  44  74 100 150 196 225 295 357 411
#     4  12  28  44  70 106 144 184 246 300 338 446
#     4  10  23  42  71 102 137 190 236 290 354 420
#     4  12  26  48  70 105 147 189 242 287 357 427
#
# _framework density 22.929392
#
# number of rings (size 3 to 8) (size 9 to 14) (size 15 to 20)
#    0.000    1.091    1.818    4.364    5.091    5.818 
#    0.000    0.909    0.000    0.000    0.000    0.000 
#    0.000    0.000    0.000    0.000    0.000    0.000 
#
# Total GULP energy -123156.445010 kJ/mol
# GULP energy per Si atom -5598.020228 kJ/mol
# Density = 2.287720 g / cm^3
# Si number density = 22.929392 Si / 1000 Ang^3
#
#
#
# Elastic Constant Matrix: (Units=GPa)
#
#
# Indices 1 2 3 4 5 6 
#
# 1 154.7880 3.5638 30.2078 0.0000 -11.6838 0.0000
# 2 3.5638 79.2670 22.6834 0.0000 16.3327 0.0000
# 3 30.2078 22.6834 111.5922 0.0000 -9.9664 0.0000
# 4 0.0000 0.0000 0.0000 19.8204 0.0000 -7.7255
# 5 -11.6838 16.3327 -9.9664 0.0000 48.3909 0.0000
# 6 0.0000 0.0000 0.0000 -7.7255 0.0000 19.4458
#
#
#
# Elastic Compliance Matrix: (Units=1/GPa)
#
#
# Indices 1 2 3 4 5 6 
#
# 1 0.006901 -0.000092 -0.001730 0.000000 0.001341 0.000000
# 2 -0.000092 0.014803 -0.003497 0.000000 -0.005738 0.000000
# 3 -0.001730 -0.003497 0.010400 0.000000 0.002904 0.000000
# 4 0.000000 0.000000 0.000000 0.059697 0.000000 0.023717
# 5 0.001341 -0.005738 0.002904 0.000000 0.023524 0.000000
# 6 0.000000 0.000000 0.000000 0.023717 0.000000 0.060847
#
#
# Mechanical properties :
#
#
# Convention : Reuss Voigt Hill
#
# Bulk Modulus (GPa) = 46.58185 50.95081 48.76633
# Shear Modulus (GPa) = 25.77795 36.81089 31.29442
#
# Velocity S-wave (km/s) = 3.35659 4.01109 3.69835
# Velocity P-wave (km/s) = 5.94826 6.61217 6.28898
#
# Compressibility (1/GPa) = 0.02146759
#
# Stress axis : x y z
#
# Youngs Moduli (GPa) = 144.89902 67.55513 96.15733
#
# Poissons Ratio (x) = 0.00619 0.16633
# Poissons Ratio (y) = 0.01327 0.33623
# Poissons Ratio (z) = 0.25065 0.23622
#
# Static dielectric constant tensor:
#      x y z
#    x 1.891440 0.000000 -0.021110 
#    y 0.000000 1.788090 0.000000 
#    z -0.021110 0.000000 1.874350 
# 
# From -- ./inp_files/28702.got.cif
#   From: 2010.05.17/outbox.cif.g08.bks.cpg/sg12_15_cif.got.tgz:28702.got - 2010.06.03 13:09:07.
