data_PCOD9212409
_publ_section_title
;
Structure prediction by ZEFSAII (Michael W. Deem and Ramdas Pophale) SiO2 
 PCOD9212409
Probable space group: C 2/M
;
_chemical_formula_sum "Si O2"
_cell_formula_units_Z 56
_cell_length_a 18.738940
_cell_length_b 24.551419
_cell_length_c 9.922056
_cell_angle_alpha 90.000000
_cell_angle_beta 34.482289
_cell_angle_gamma 90.000000
_cell_volume 2584.377338
_symmetry_space_group_name_H-M "C 2/M"
_symmetry_group_IT_number 12
_symmetry_cell_setting 'monoclinic'
loop_
_space_group_symop_operation_xyz
x,y,z
-x,y,-z
-x,-y,-z
x,-y,z
1/2+x,1/2+y,z
1/2-x,1/2+y,-z
1/2-x,1/2-y,-z
1/2+x,1/2-y,z
loop_
_atom_site_type_symbol
_atom_site_label
_atom_site_fract_x
_atom_site_fract_y
_atom_site_fract_z
Si Si1 0.603729 0.688204 0.744688
Si Si2 0.499436 0.645086 0.347768
Si Si3 0.897542 0.390088 0.942087
Si Si4 0.341074 0.061099 0.492260
Si Si5 0.789841 0.938850 0.574987
Si Si6 0.232125 0.936638 0.960902
Si Si7 0.357816 0.806048 0.195265
O O1 0.527049 0.691643 0.722399
O O2 0.632910 0.741986 0.787839
O O3 0.744529 0.674284 0.469106
O O4 0.500000 0.656513 0.000000
O O5 0.500000 0.665043 0.500000
O O6 0.387958 0.601890 0.490014
O O7 0.621671 0.607716 0.138281
O O8 0.844669 0.426115 0.148355
O O9 0.835243 0.415900 0.906973
O O10 0.842993 0.330214 0.067698
O O11 0.046612 0.396115 0.697337
O O12 0.231049 0.065620 0.552492
O O13 0.395784 0.000000 0.388227
O O14 0.285992 0.064276 0.726706
O O15 0.829737 0.000000 0.543951
O O16 0.196184 0.000000 0.047428
O O17 0.500000 0.826391 0.000000
#
# Coordination Sequence:
#
# PCOD9212409 Si02
#       7
#     8   8   8   8   8   8   8
#     4  10  23  42  69  97 128 169 223 289 353 399
#     4  12  24  40  63  93 130 179 225 273 337 410
#     4  12  21  37  67  94 129 178 225 269 335 398
#     4  10  23  39  58  95 139 179 224 273 325 395
#     4  11  22  36  59  93 129 174 223 266 312 393
#     4  11  24  40  61  95 145 186 218 268 331 405
#     4  10  21  41  69  99 124 164 228 288 344 404
#
# _framework density 21.668662999999999
#
# number of rings (size 3 to 8) (size 9 to 14) (size 15 to 20)
#    0.000    1.143    2.857    3.429    2.000    2.857 
#    0.000    2.143    0.000   31.714    0.000    0.000 
#    0.000    0.000    0.000    0.000    0.000    0.000 
#
# Total GULP energy -155962.090808 kJ/mol
# GULP energy per Si atom -5570.074672 kJ/mol
# Density = 2.161934 g / cm^3
# Si number density = 21.668663 Si / 1000 Ang^3
#
#
#
# Elastic Constant Matrix: (Units=GPa)
#
#
# Indices 1 2 3 4 5 6 
#
# 1 104.1164 11.7981 32.6423 0.0003 18.6214 -0.0002
# 2 11.7981 59.3716 -8.5514 0.0001 13.2664 -0.0001
# 3 32.6423 -8.5514 104.3866 0.0003 1.1702 -0.0001
# 4 0.0003 0.0001 0.0003 25.8849 -0.0002 1.7513
# 5 18.6214 13.2664 1.1702 -0.0002 48.2747 0.0001
# 6 -0.0002 -0.0001 -0.0001 1.7513 0.0001 31.2743
#
#
#
# Elastic Compliance Matrix: (Units=1/GPa)
#
#
# Indices 1 2 3 4 5 6 
#
# 1 0.011711 -0.002006 -0.003783 0.000000 -0.003874 0.000000
# 2 -0.002006 0.018535 0.002195 0.000000 -0.004373 0.000000
# 3 -0.003783 0.002195 0.010936 0.000000 0.000591 0.000000
# 4 0.000000 0.000000 0.000000 0.038780 0.000000 -0.002172
# 5 -0.003874 -0.004373 0.000591 0.000000 0.023397 0.000000
# 6 0.000000 0.000000 0.000000 -0.002172 0.000000 0.032097
#
#
# Mechanical properties :
#
#
# Convention : Reuss Voigt Hill
#
# Bulk Modulus (GPa) = 29.41799 37.73918 33.57858
# Shear Modulus (GPa) = 32.47285 36.55248 34.51267
#
# Velocity S-wave (km/s) = 3.87539 4.11162 3.99525
# Velocity P-wave (km/s) = 5.79919 6.32415 6.06735
#
# Compressibility (1/GPa) = 0.03399281
#
# Stress axis : x y z
#
# Youngs Moduli (GPa) = 85.39014 53.95199 91.44175
#
# Poissons Ratio (x) = 0.10825 0.34593
# Poissons Ratio (y) = 0.17132 -0.20070
# Poissons Ratio (z) = 0.32303 -0.11841
#
# Static dielectric constant tensor:
#      x y z
#    x 1.811300 0.000000 -0.019390 
#    y 0.000000 1.895000 0.000000 
#    z -0.019390 0.000000 1.831710 
# 
# From -- ./inp_files/80030.got.cif
#   From: 2010.05.17/outbox.cif.g08.bks.cpg/sg12_41_cif.got.tgz:80030.got - 2010.06.03 13:09:07.
