data_PCOD9212042
_publ_section_title
;
Structure prediction by ZEFSAII (Michael W. Deem and Ramdas Pophale) SiO2 
 PCOD9212042
Probable space group: C 2/M
;
_chemical_formula_sum "Si O2"
_cell_formula_units_Z 56
_cell_length_a 20.923977
_cell_length_b 8.740720
_cell_length_c 18.115538
_cell_angle_alpha 90.000000
_cell_angle_beta 71.297560
_cell_angle_gamma 90.000000
_cell_volume 3138.215909
_symmetry_space_group_name_H-M "C 2/M"
_symmetry_group_IT_number 12
_symmetry_cell_setting 'monoclinic'
loop_
_space_group_symop_operation_xyz
x,y,z
-x,y,-z
-x,-y,-z
x,-y,z
1/2+x,1/2+y,z
1/2-x,1/2+y,-z
1/2-x,1/2-y,-z
1/2+x,1/2-y,z
loop_
_atom_site_type_symbol
_atom_site_label
_atom_site_fract_x
_atom_site_fract_y
_atom_site_fract_z
Si Si1 0.326776 0.317351 0.157057
Si Si2 0.585239 0.184034 0.175403
Si Si3 0.808944 0.816231 0.574650
Si Si4 0.182870 0.816295 0.261416
Si Si5 0.571308 0.814884 0.760405
Si Si6 0.677829 0.816362 0.001922
Si Si7 0.156331 0.316278 0.588618
O O1 0.324892 0.500000 0.155992
O O2 0.253845 0.254531 0.209330
O O3 0.382396 0.258489 0.193929
O O4 0.340493 0.252524 0.070435
O O5 0.625188 0.261259 0.227512
O O6 0.506833 0.227331 0.202887
O O7 0.589252 0.000000 0.183079
O O8 0.623513 0.222186 0.085154
O O9 0.830315 0.769582 0.648803
O O10 0.850435 0.749920 0.490781
O O11 0.730593 0.769354 0.591044
O O12 0.811255 0.000000 0.569925
O O13 0.189079 0.000000 0.256830
O O14 0.601337 0.769788 0.669434
O O15 0.577038 0.000000 0.764211
O O16 0.682664 0.000000 0.994607
O O17 0.750000 0.750000 0.000000
O O18 0.155951 0.500000 0.584088
#
# Coordination Sequence:
#
# PCOD9212042 Si02
#       7
#     8   8   8   8   8   8   8
#     4  12  24  37  59  88 116 151 196 240 285 342
#     4  10  23  40  61  86 115 151 193 238 288 347
#     4   9  18  32  53  84 113 144 188 234 284 336
#     4  11  21  37  60  85 116 153 192 240 289 339
#     4  10  21  41  61  83 118 155 191 236 290 342
#     4  11  22  38  60  88 117 150 192 241 291 337
#     4   9  17  32  55  82 112 148 187 231 285 337
#
# _framework density 17.844532999999998
#
# number of rings (size 3 to 8) (size 9 to 14) (size 15 to 20)
#    0.000    1.714    2.857    2.143    0.000    3.429 
#    0.000    3.571    0.000    4.286    0.000    0.000 
#    0.000    0.000    0.000    0.000    0.000    0.000 
#
# Total GULP energy -156379.318644 kJ/mol
# GULP energy per Si atom -5584.975666 kJ/mol
# Density = 1.780392 g / cm^3
# Si number density = 17.844533 Si / 1000 Ang^3
#
#
#
# Elastic Constant Matrix: (Units=GPa)
#
#
# Indices 1 2 3 4 5 6 
#
# 1 121.6079 44.8561 86.6537 0.0000 -0.8867 0.0000
# 2 44.8561 40.5936 53.6339 0.0000 2.2711 0.0000
# 3 86.6537 53.6339 189.4802 0.0000 8.7170 0.0000
# 4 0.0000 0.0000 0.0000 30.8199 0.0000 6.5189
# 5 -0.8867 2.2711 8.7170 0.0000 31.6446 0.0000
# 6 0.0000 0.0000 0.0000 6.5189 0.0000 27.6101
#
#
#
# Elastic Compliance Matrix: (Units=1/GPa)
#
#
# Indices 1 2 3 4 5 6 
#
# 1 0.015383 -0.012288 -0.003664 0.000000 0.002322 0.000000
# 2 -0.012288 0.049168 -0.008224 0.000000 -0.001608 0.000000
# 3 -0.003664 -0.008224 0.009377 0.000000 -0.002096 0.000000
# 4 0.000000 0.000000 0.000000 0.034152 0.000000 -0.008064
# 5 0.002322 -0.001608 -0.002096 0.000000 0.032359 0.000000
# 6 0.000000 0.000000 0.000000 -0.008064 0.000000 0.038122
#
#
# Mechanical properties :
#
#
# Convention : Reuss Voigt Hill
#
# Bulk Modulus (GPa) = 39.09636 80.21880 59.65758
# Shear Modulus (GPa) = 21.23689 29.11746 25.17718
#
# Velocity S-wave (km/s) = 3.45353 4.04385 3.76029
# Velocity P-wave (km/s) = 6.15301 8.17652 7.23585
#
# Compressibility (1/GPa) = 0.02557783
#
# Stress axis : x y z
#
# Youngs Moduli (GPa) = 65.00594 20.33830 106.63887
#
# Poissons Ratio (x) = 0.24991 0.39070
# Poissons Ratio (y) = 0.79877 0.87701
# Poissons Ratio (z) = 0.23817 0.16726
#
# Static dielectric constant tensor:
#      x y z
#    x 1.577110 0.000000 -0.001480 
#    y 0.000000 1.603250 0.000000 
#    z -0.001480 0.000000 1.608410 
# 
# From -- ./inp_files/274998.got.cif
#   From: 2010.05.17/outbox.cif.g08.bks.cpg/sg12_138_cif.got.tgz:274998.got - 2010.06.03 13:09:07.
