data_PCOD9212600
_publ_section_title
;
Structure prediction by ZEFSAII (Michael W. Deem and Ramdas Pophale) SiO2 
 PCOD9212600
Probable space group: C 2/M
;
_chemical_formula_sum "Si O2"
_cell_formula_units_Z 40
_cell_length_a 12.131436
_cell_length_b 16.754168
_cell_length_c 8.951039
_cell_angle_alpha 90.000000
_cell_angle_beta 109.475898
_cell_angle_gamma 90.000000
_cell_volume 1715.219593
_symmetry_space_group_name_H-M "C 2/M"
_symmetry_group_IT_number 12
_symmetry_cell_setting 'monoclinic'
loop_
_space_group_symop_operation_xyz
x,y,z
-x,y,-z
-x,-y,-z
x,-y,z
1/2+x,1/2+y,z
1/2-x,1/2+y,-z
1/2-x,1/2-y,-z
1/2+x,1/2-y,z
loop_
_atom_site_type_symbol
_atom_site_label
_atom_site_fract_x
_atom_site_fract_y
_atom_site_fract_z
Si Si1 0.083589 0.813112 0.171318
Si Si2 0.532218 0.124359 0.180786
Si Si3 0.220689 0.913842 0.750721
Si Si4 0.378013 0.285239 0.498770
Si Si5 0.280539 0.909851 0.129735
O O1 0.055738 0.719098 0.176413
O O2 0.081329 0.839759 0.341837
O O3 0.210770 0.838432 0.173601
O O4 0.000000 0.844176 0.000000
O O5 0.654743 0.087023 0.278991
O O6 0.417501 0.103045 0.219472
O O7 0.500000 0.094932 0.000000
O O8 0.154739 0.839005 0.656325
O O9 0.163290 0.000000 0.705536
O O10 0.251315 0.903678 0.939563
O O11 0.500000 0.240621 0.500000
O O12 0.250000 0.250000 0.500000
O O13 0.246234 0.000000 0.160857
#
# Coordination Sequence:
#
# PCOD9212600 Si02
#       5
#     8   8   8   8   8
#     4  11  24  40  68  98 132 175 229 284 337 406
#     4   9  19  36  63  99 133 175 227 281 336 408
#     4  10  21  42  68  97 137 182 224 281 351 411
#     4  12  27  45  67 100 140 180 228 283 346 411
#     4  10  22  41  68 101 138 179 230 285 346 414
#
# _framework density 23.320629
#
# number of rings (size 3 to 8) (size 9 to 14) (size 15 to 20)
#    0.000    1.600    2.000    1.800    2.800   11.200 
#    0.000    0.000    0.000    3.000    0.000    0.000 
#    0.000    0.000    0.000    0.000    0.000    0.000 
#
# Total GULP energy -111393.245587 kJ/mol
# GULP energy per Si atom -5569.662279 kJ/mol
# Density = 2.326755 g / cm^3
# Si number density = 23.320629 Si / 1000 Ang^3
#
#
#
# Elastic Constant Matrix: (Units=GPa)
#
#
# Indices 1 2 3 4 5 6 
#
# 1 146.9892 22.6143 8.9098 0.0000 -5.9177 0.0000
# 2 22.6143 83.4452 6.4276 0.0000 4.9814 0.0000
# 3 8.9098 6.4276 44.2742 0.0000 7.0044 0.0000
# 4 0.0000 0.0000 0.0000 4.8005 0.0000 2.0086
# 5 -5.9177 4.9814 7.0044 0.0000 23.2930 0.0000
# 6 0.0000 0.0000 0.0000 2.0086 0.0000 19.5498
#
#
#
# Elastic Compliance Matrix: (Units=1/GPa)
#
#
# Indices 1 2 3 4 5 6 
#
# 1 0.007325 -0.002026 -0.001620 0.000000 0.002782 0.000000
# 2 -0.002026 0.012785 -0.000981 0.000000 -0.002954 0.000000
# 3 -0.001620 -0.000981 0.024240 0.000000 -0.007491 0.000000
# 4 0.000000 0.000000 0.000000 0.217670 0.000000 -0.022364
# 5 0.002782 -0.002954 -0.007491 0.000000 0.046522 0.000000
# 6 0.000000 0.000000 0.000000 -0.022364 0.000000 0.053449
#
#
# Mechanical properties :
#
#
# Convention : Reuss Voigt Hill
#
# Bulk Modulus (GPa) = 28.49368 38.95688 33.72528
# Shear Modulus (GPa) = 13.05672 25.31245 19.18459
#
# Velocity S-wave (km/s) = 2.36874 3.29813 2.87129
# Velocity P-wave (km/s) = 4.44140 5.58970 5.04830
#
# Compressibility (1/GPa) = 0.03509550
#
# Stress axis : x y z
#
# Youngs Moduli (GPa) = 136.51565 78.21663 41.25401
#
# Poissons Ratio (x) = 0.15850 0.06683
# Poissons Ratio (y) = 0.27664 0.04047
# Poissons Ratio (z) = 0.22115 0.07673
#
# Static dielectric constant tensor:
#      x y z
#    x 1.995190 0.000000 -0.000250 
#    y 0.000000 1.871310 0.000000 
#    z -0.000250 0.000000 1.912860 
# 
# From -- ./inp_files/47154.got.cif
#   From: 2010.05.17/outbox.cif.g08.bks.cpg/sg12_24_cif.got.tgz:47154.got - 2010.06.03 13:09:07.
