data_PCOD9212707
_publ_section_title
;
Structure prediction by ZEFSAII (Michael W. Deem and Ramdas Pophale) SiO2 
 PCOD9212707
Probable space group: C 2/M
;
_chemical_formula_sum "Si O2"
_cell_formula_units_Z 42
_cell_length_a 14.824786
_cell_length_b 8.835588
_cell_length_c 22.497312
_cell_angle_alpha 90.000000
_cell_angle_beta 140.452468
_cell_angle_gamma 90.000000
_cell_volume 1876.297670
_symmetry_space_group_name_H-M "C 2/M"
_symmetry_group_IT_number 12
_symmetry_cell_setting 'monoclinic'
loop_
_space_group_symop_operation_xyz
x,y,z
-x,y,-z
-x,-y,-z
x,-y,z
1/2+x,1/2+y,z
1/2-x,1/2+y,-z
1/2-x,1/2-y,-z
1/2+x,1/2-y,z
loop_
_atom_site_type_symbol
_atom_site_label
_atom_site_fract_x
_atom_site_fract_y
_atom_site_fract_z
Si Si1 0.000000 0.000000 0.000000
Si Si2 0.799235 0.180653 0.614700
Si Si3 0.490090 0.679651 0.826081
Si Si4 0.218712 0.666521 0.876337
Si Si5 0.458599 0.681481 0.572649
Si Si6 0.751969 0.178943 0.229522
O O1 0.115387 0.129002 0.035297
O O2 0.893335 0.220749 0.719295
O O3 0.644320 0.253309 0.529691
O O4 0.885282 0.222418 0.598594
O O5 0.782779 0.000000 0.606620
O O6 0.513259 0.500000 0.840022
O O7 0.635342 0.768487 0.889982
O O8 0.390037 0.729939 0.828851
O O9 0.156339 0.500000 0.828611
O O10 0.199747 0.782697 0.812567
O O11 0.459133 0.500000 0.567923
O O12 0.621087 0.730821 0.662255
O O13 0.730520 0.000000 0.225818
#
# Coordination Sequence:
#
# PCOD9212707 Si02
#       6
#     2   8   8   8   8   8
#     4   8  24  44  74  92 124 142 202 248 316 384
#     4   9  18  33  52  80 120 164 213 255 297 346
#     4  11  22  38  62  93 126 166 208 252 302 364
#     4  10  21  43  68  90 122 151 196 251 310 375
#     4   9  18  33  52  80 120 164 213 255 297 346
#     4  11  22  38  62  93 126 166 208 252 302 364
#
# _framework density 22.384506999999999
#
# number of rings (size 3 to 8) (size 9 to 14) (size 15 to 20)
#    0.571    1.524    1.905    1.714    0.000    3.810 
#    0.000    6.667    0.000    0.000    0.000    0.000 
#    0.000    0.000    0.000    0.000    0.000    0.000 
#
# Total GULP energy -117010.857474 kJ/mol
# GULP energy per Si atom -5571.945594 kJ/mol
# Density = 2.233356 g / cm^3
# Si number density = 22.384507 Si / 1000 Ang^3
#
#
#
# Elastic Constant Matrix: (Units=GPa)
#
#
# Indices 1 2 3 4 5 6 
#
# 1 79.5322 7.1015 25.5370 0.0000 31.1626 0.0000
# 2 7.1015 27.3245 20.7735 0.0000 18.8232 0.0000
# 3 25.5370 20.7735 103.5477 0.0000 23.4341 0.0000
# 4 0.0000 0.0000 0.0000 28.2201 0.0000 13.4002
# 5 31.1626 18.8232 23.4341 0.0000 46.0251 0.0000
# 6 0.0000 0.0000 0.0000 13.4002 0.0000 28.0864
#
#
#
# Elastic Compliance Matrix: (Units=1/GPa)
#
#
# Indices 1 2 3 4 5 6 
#
# 1 0.018228 0.006812 -0.002756 0.000000 -0.013725 0.000000
# 2 0.006812 0.057312 -0.007719 0.000000 -0.024122 0.000000
# 3 -0.002756 -0.007719 0.012149 0.000000 -0.001163 0.000000
# 4 0.000000 0.000000 0.000000 0.045815 0.000000 -0.021859
# 5 -0.013725 -0.024122 -0.001163 0.000000 0.041477 0.000000
# 6 0.000000 0.000000 0.000000 -0.021859 0.000000 0.046033
#
#
# Mechanical properties :
#
#
# Convention : Reuss Voigt Hill
#
# Bulk Modulus (GPa) = 12.44347 35.24760 23.84554
# Shear Modulus (GPa) = 19.59811 30.93247 25.26529
#
# Velocity S-wave (km/s) = 2.96213 3.72138 3.36325
# Velocity P-wave (km/s) = 4.15572 5.85197 5.07521
#
# Compressibility (1/GPa) = 0.08036341
#
# Stress axis : x y z
#
# Youngs Moduli (GPa) = 54.86137 17.44846 82.31293
#
# Poissons Ratio (x) = -0.11887 0.22686
# Poissons Ratio (y) = -0.37374 0.63536
# Poissons Ratio (z) = 0.15120 0.13468
#
# Static dielectric constant tensor:
#      x y z
#    x 1.844160 0.000000 -0.020540 
#    y 0.000000 1.743860 0.000000 
#    z -0.020540 0.000000 1.878460 
# 
# From -- ./inp_files/267042.got.cif
#   From: 2010.05.17/outbox.cif.g08.bks.cpg/sg12_134_cif.got.tgz:267042.got - 2010.06.03 13:09:07.
