data_PCOD9212272
_publ_section_title
;
Structure prediction by ZEFSAII (Michael W. Deem and Ramdas Pophale) SiO2 
 PCOD9212272
Probable space group: C 2/M
;
_chemical_formula_sum "Si O2"
_cell_formula_units_Z 56
_cell_length_a 32.740470
_cell_length_b 11.041026
_cell_length_c 9.866416
_cell_angle_alpha 90.000000
_cell_angle_beta 46.153132
_cell_angle_gamma 90.000000
_cell_volume 2572.206061
_symmetry_space_group_name_H-M "C 2/M"
_symmetry_group_IT_number 12
_symmetry_cell_setting 'monoclinic'
loop_
_space_group_symop_operation_xyz
x,y,z
-x,y,-z
-x,-y,-z
x,-y,z
1/2+x,1/2+y,z
1/2-x,1/2+y,-z
1/2-x,1/2-y,-z
1/2+x,1/2-y,z
loop_
_atom_site_type_symbol
_atom_site_label
_atom_site_fract_x
_atom_site_fract_y
_atom_site_fract_z
Si Si1 0.482227 0.633659 0.883268
Si Si2 0.199709 0.780755 0.787292
Si Si3 0.603846 0.684972 0.505097
Si Si4 0.809747 0.864396 0.483452
Si Si5 0.057347 0.634401 0.418896
Si Si6 0.707772 0.635817 0.066669
Si Si7 0.593290 0.135997 0.035051
O O1 0.454115 0.500000 0.930956
O O2 0.541036 0.630733 0.663123
O O3 0.445828 0.751718 0.924165
O O4 0.500000 0.645188 0.000000
O O5 0.192641 0.863516 0.672462
O O6 0.262669 0.727593 0.644753
O O7 0.187718 0.843224 0.957831
O O8 0.157294 0.670214 0.853104
O O9 0.630889 0.677957 0.591153
O O10 0.590392 0.812638 0.468241
O O11 0.653062 0.636426 0.291709
O O12 0.798799 0.000000 0.558380
O O13 0.039796 0.500000 0.500934
O O14 0.092702 0.633046 0.200208
O O15 0.000000 0.700191 0.500000
O O16 0.734040 0.500000 0.016826
O O17 0.750000 0.750000 0.000000
O O18 0.577009 0.000000 0.025814
#
# Coordination Sequence:
#
# PCOD9212272 Si02
#       7
#     8   8   8   8   8   8   8
#     4  11  25  44  67  98 140 186 232 285 351 419
#     4  11  24  44  68  99 135 185 235 286 345 418
#     4  12  23  43  71 105 133 181 236 286 345 421
#     4  11  24  44  67  94 137 184 229 285 350 414
#     4  10  21  41  66  96 136 176 217 277 348 409
#     4  12  26  44  69 103 139 180 233 292 349 412
#     4  11  23  42  68  98 133 177 230 284 346 412
#
# _framework density 21.771194999999999
#
# number of rings (size 3 to 8) (size 9 to 14) (size 15 to 20)
#    0.000    0.857    4.286    3.000    0.000    3.714 
#    0.000    3.571    0.000    0.000    0.000    0.000 
#    0.000    0.000    0.000    0.000    0.000    0.000 
#
# Total GULP energy -156148.534560 kJ/mol
# GULP energy per Si atom -5576.733377 kJ/mol
# Density = 2.172164 g / cm^3
# Si number density = 21.771195 Si / 1000 Ang^3
#
#
#
# Elastic Constant Matrix: (Units=GPa)
#
#
# Indices 1 2 3 4 5 6 
#
# 1 69.4380 51.1341 -5.3435 0.0000 9.9318 0.0000
# 2 51.1341 157.0139 8.2142 0.0000 3.7115 0.0000
# 3 -5.3435 8.2142 68.9975 0.0000 8.7469 0.0000
# 4 0.0000 0.0000 0.0000 15.2515 0.0000 5.7387
# 5 9.9318 3.7115 8.7469 0.0000 39.2895 0.0000
# 6 0.0000 0.0000 0.0000 5.7387 0.0000 24.3430
#
#
#
# Elastic Compliance Matrix: (Units=1/GPa)
#
#
# Indices 1 2 3 4 5 6 
#
# 1 0.020256 -0.006632 0.003013 0.000000 -0.005165 0.000000
# 2 -0.006632 0.008588 -0.001694 0.000000 0.001242 0.000000
# 3 0.003013 -0.001694 0.015440 0.000000 -0.004039 0.000000
# 4 0.000000 0.000000 0.000000 0.071949 0.000000 -0.016961
# 5 -0.005165 0.001242 -0.004039 0.000000 0.027539 0.000000
# 6 0.000000 0.000000 0.000000 -0.016961 0.000000 0.045078
#
#
# Mechanical properties :
#
#
# Convention : Reuss Voigt Hill
#
# Bulk Modulus (GPa) = 29.71001 44.82877 37.26939
# Shear Modulus (GPa) = 23.73091 31.87313 27.80202
#
# Velocity S-wave (km/s) = 3.30512 3.83038 3.57740
# Velocity P-wave (km/s) = 5.31424 6.34019 5.84975
#
# Compressibility (1/GPa) = 0.03365869
#
# Stress axis : x y z
#
# Youngs Moduli (GPa) = 49.36846 116.44185 64.76573
#
# Poissons Ratio (x) = 0.77226 -0.19514
# Poissons Ratio (y) = 0.32742 0.10968
# Poissons Ratio (z) = -0.14875 0.19720
#
# Static dielectric constant tensor:
#      x y z
#    x 1.780730 0.000000 -0.018650 
#    y 0.000000 1.828770 0.000000 
#    z -0.018650 0.000000 1.843780 
# 
# From -- ./inp_files/110367.got.cif
#   From: 2010.05.17/outbox.cif.g08.bks.cpg/sg12_56_cif.got.tgz:110367.got - 2010.06.03 13:09:07.
