data_PCOD9212469
_publ_section_title
;
Structure prediction by ZEFSAII (Michael W. Deem and Ramdas Pophale) SiO2 
 PCOD9212469
Probable space group: C 2/M
;
_chemical_formula_sum "Si O2"
_cell_formula_units_Z 48
_cell_length_a 34.349436
_cell_length_b 17.104221
_cell_length_c 9.796024
_cell_angle_alpha 90.000000
_cell_angle_beta 154.646800
_cell_angle_gamma 90.000000
_cell_volume 2464.430108
_symmetry_space_group_name_H-M "C 2/M"
_symmetry_group_IT_number 12
_symmetry_cell_setting 'monoclinic'
loop_
_space_group_symop_operation_xyz
x,y,z
-x,y,-z
-x,-y,-z
x,-y,z
1/2+x,1/2+y,z
1/2-x,1/2+y,-z
1/2-x,1/2-y,-z
1/2+x,1/2-y,z
loop_
_atom_site_type_symbol
_atom_site_label
_atom_site_fract_x
_atom_site_fract_y
_atom_site_fract_z
Si Si1 0.413981 0.000000 0.624940
Si Si2 0.284632 0.141519 0.835170
Si Si3 0.248663 0.095058 0.415580
Si Si4 0.894044 0.806528 0.209221
Si Si5 0.607338 0.153318 0.330811
Si Si6 0.665635 0.699479 0.678862
Si Si7 0.413880 0.000000 0.318669
O O1 0.357457 0.079240 0.468728
O O2 0.447939 0.000000 0.580585
O O3 0.500000 0.000000 0.000000
O O4 0.244332 0.122765 0.558643
O O5 0.207716 0.137275 0.708824
O O6 0.338348 0.224915 0.007533
O O7 0.356306 0.075941 0.101967
O O8 0.339572 0.136643 0.640785
O O9 0.255781 0.000000 0.430481
O O10 0.164018 0.128948 0.059368
O O11 0.887811 0.823061 0.353311
O O12 0.000000 0.801270 0.500000
O O13 0.620486 0.237595 0.436005
O O14 0.500000 0.145310 0.000000
O O15 0.750000 0.750000 0.000000
O O16 0.500000 0.000000 0.500000
#
# Coordination Sequence:
#
# PCOD9212469 Si02
#       7
#     4   8   8   8   8   8   4
#     4  10  22  36  58  92 131 172 205 251 334 394
#     4  11  24  42  66  96 135 171 216 273 343 398
#     4  12  25  43  64  95 137 178 222 271 334 401
#     4  11  25  44  71  95 128 174 229 279 328 390
#     4  11  23  35  64  94 133 169 217 266 329 401
#     4  10  21  42  61  94 123 168 217 266 329 386
#     4  12  26  38  62 100 139 167 215 280 337 411
#
# _framework density 19.477118999999998
#
# number of rings (size 3 to 8) (size 9 to 14) (size 15 to 20)
#    0.000    1.000    5.000    3.000    7.000    0.333 
#    0.000    0.000    0.000    1.000    0.000    0.000 
#    0.000    0.000    0.000    0.000    0.000    0.000 
#
# Total GULP energy -133717.048605 kJ/mol
# GULP energy per Si atom -5571.543692 kJ/mol
# Density = 1.943279 g / cm^3
# Si number density = 19.477119 Si / 1000 Ang^3
#
#
#
# Elastic Constant Matrix: (Units=GPa)
#
#
# Indices 1 2 3 4 5 6 
#
# 1 198.1630 45.1969 42.3453 0.0000 -2.8887 0.0000
# 2 45.1969 88.3325 41.9289 0.0000 -6.4795 0.0000
# 3 42.3453 41.9289 52.9289 0.0000 9.6161 0.0000
# 4 0.0000 0.0000 0.0000 10.4031 0.0000 0.5092
# 5 -2.8887 -6.4795 9.6161 0.0000 34.0614 0.0000
# 6 0.0000 0.0000 0.0000 0.5092 0.0000 27.8953
#
#
#
# Elastic Compliance Matrix: (Units=1/GPa)
#
#
# Indices 1 2 3 4 5 6 
#
# 1 0.006257 -0.000899 -0.004595 0.000000 0.001657 0.000000
# 2 -0.000899 0.020551 -0.017136 0.000000 0.008671 0.000000
# 3 -0.004595 -0.017136 0.038797 0.000000 -0.014603 0.000000
# 4 0.000000 0.000000 0.000000 0.096211 0.000000 -0.001756
# 5 0.001657 0.008671 -0.014603 0.000000 0.035271 0.000000
# 6 0.000000 0.000000 0.000000 -0.001756 0.000000 0.035880
#
#
# Mechanical properties :
#
#
# Convention : Reuss Voigt Hill
#
# Bulk Modulus (GPa) = 49.15114 66.48518 57.81816
# Shear Modulus (GPa) = 17.54322 28.46884 23.00603
#
# Velocity S-wave (km/s) = 3.00444 3.82731 3.44056
# Velocity P-wave (km/s) = 6.10947 7.33077 6.74781
#
# Compressibility (1/GPa) = 0.02034541
#
# Stress axis : x y z
#
# Youngs Moduli (GPa) = 159.80890 48.65977 25.77513
#
# Poissons Ratio (x) = 0.04375 0.11844
# Poissons Ratio (y) = 0.14368 0.44168
# Poissons Ratio (z) = 0.73433 0.83383
#
# Static dielectric constant tensor:
#      x y z
#    x 3.261690 0.000000 -0.925270 
#    y 0.000000 1.526410 0.000000 
#    z -0.925270 0.000000 2.207800 
# 
# From -- ./inp_files/112964.got.cif
#   From: 2010.05.17/outbox.cif.g08.bks.cpg/sg12_57_cif.got.tgz:112964.got - 2010.06.03 13:09:07.
