data_PCOD9212866
_publ_section_title
;
Structure prediction by ZEFSAII (Michael W. Deem and Ramdas Pophale) SiO2 
 PCOD9212866
Probable space group: C 2/M
;
_chemical_formula_sum "Si O2"
_cell_formula_units_Z 48
_cell_length_a 22.985083
_cell_length_b 27.854558
_cell_length_c 11.888562
_cell_angle_alpha 90.000000
_cell_angle_beta 158.220625
_cell_angle_gamma 90.000000
_cell_volume 2824.131352
_symmetry_space_group_name_H-M "C 2/M"
_symmetry_group_IT_number 12
_symmetry_cell_setting 'monoclinic'
loop_
_space_group_symop_operation_xyz
x,y,z
-x,y,-z
-x,-y,-z
x,-y,z
1/2+x,1/2+y,z
1/2-x,1/2+y,-z
1/2-x,1/2-y,-z
1/2+x,1/2-y,z
loop_
_atom_site_type_symbol
_atom_site_label
_atom_site_fract_x
_atom_site_fract_y
_atom_site_fract_z
Si Si1 0.512204 0.500000 0.833953
Si Si2 0.733472 0.000000 0.505959
Si Si3 0.526693 0.312625 0.418662
Si Si4 0.518853 0.603416 0.840468
Si Si5 0.330488 0.247155 0.916379
Si Si6 0.739972 0.894452 0.522304
Si Si7 0.652482 0.211113 0.399119
O O1 0.344960 0.500000 0.596846
O O2 0.527726 0.550621 0.801340
O O3 0.643406 0.500000 0.168612
O O4 0.655269 0.946930 0.368798
O O5 0.500000 0.324808 0.500000
O O6 0.494177 0.355898 0.275197
O O7 0.702707 0.293061 0.715266
O O8 0.407387 0.270866 0.164048
O O9 0.367617 0.605207 0.651109
O O10 0.662968 0.607860 0.186287
O O11 0.239398 0.285638 0.675931
O O12 0.476076 0.228411 0.103537
O O13 0.654125 0.843444 0.359334
O O14 0.750000 0.250000 0.500000
#
# Coordination Sequence:
#
# PCOD9212866 Si02
#       7
#     4   4   8   8   8   8   8
#     4   7  12  24  41  69  98 116 154 195 240 285
#     4   7  12  22  42  69  94 128 153 188 233 287
#     4  11  21  36  51  67  93 131 172 205 239 282
#     4   9  16  27  48  72  95 126 155 200 242 287
#     4  10  22  34  46  70  98 130 167 197 243 286
#     4   9  15  27  47  72 101 122 157 196 241 295
#     4  11  20  30  49  75 105 131 155 196 248 302
#
# _framework density 16.996376999999999
#
# number of rings (size 3 to 8) (size 9 to 14) (size 15 to 20)
#    0.000    2.500    1.667    5.000    2.333    0.000 
#    0.000    0.417    0.000    1.000    0.000    5.833 
#    0.000    4.000    0.000    0.000    0.000    0.000 
#
# Total GULP energy -133609.915003 kJ/mol
# GULP energy per Si atom -5567.079792 kJ/mol
# Density = 1.695769 g / cm^3
# Si number density = 16.996377 Si / 1000 Ang^3
#
#
#
# Elastic Constant Matrix: (Units=GPa)
#
#
# Indices 1 2 3 4 5 6 
#
# 1 68.3420 39.6639 26.3511 0.0000 -9.5284 0.0000
# 2 39.6639 147.7373 30.1259 0.0000 -2.5827 0.0000
# 3 26.3511 30.1259 69.9292 0.0000 -1.4185 0.0000
# 4 0.0000 0.0000 0.0000 14.1898 0.0000 -0.2520
# 5 -9.5284 -2.5827 -1.4185 0.0000 19.9121 0.0000
# 6 0.0000 0.0000 0.0000 -0.2520 0.0000 10.5048
#
#
#
# Elastic Compliance Matrix: (Units=1/GPa)
#
#
# Indices 1 2 3 4 5 6 
#
# 1 0.020510 -0.004179 -0.005748 0.000000 0.008863 0.000000
# 2 -0.004179 0.008283 -0.002015 0.000000 -0.001069 0.000000
# 3 -0.005748 -0.002015 0.017298 0.000000 -0.001780 0.000000
# 4 0.000000 0.000000 0.000000 0.070503 0.000000 0.001691
# 5 0.008863 -0.001069 -0.001780 0.000000 0.054196 0.000000
# 6 0.000000 0.000000 0.000000 0.001691 0.000000 0.095236
#
#
# Mechanical properties :
#
#
# Convention : Reuss Voigt Hill
#
# Bulk Modulus (GPa) = 45.03377 53.14335 49.08856
# Shear Modulus (GPa) = 16.81721 21.57916 19.19818
#
# Velocity S-wave (km/s) = 3.14898 3.56706 3.36452
# Velocity P-wave (km/s) = 6.30675 6.94986 6.63610
#
# Compressibility (1/GPa) = 0.02220556
#
# Stress axis : x y z
#
# Youngs Moduli (GPa) = 48.75666 120.72834 57.80884
#
# Poissons Ratio (x) = 0.50456 0.33231
# Poissons Ratio (y) = 0.20377 0.11650
# Poissons Ratio (z) = 0.28027 0.24329
#
# Static dielectric constant tensor:
#      x y z
#    x 1.543500 0.000000 -0.013080 
#    y 0.000000 1.636110 0.000000 
#    z -0.013080 0.000000 1.600470 
# 
# From -- ./inp_files/124780.got.cif
#   From: 2010.05.17/outbox.cif.g08.bks.cpg/sg12_63_cif.got.tgz:124780.got - 2010.06.03 13:09:07.
