data_PCOD9212002
_publ_section_title
;
Structure prediction by ZEFSAII (Michael W. Deem and Ramdas Pophale) SiO2 
 PCOD9212002
Probable space group: C 2/M
;
_chemical_formula_sum "Si O2"
_cell_formula_units_Z 48
_cell_length_a 26.785599
_cell_length_b 19.837515
_cell_length_c 9.458621
_cell_angle_alpha 90.000000
_cell_angle_beta 25.598611
_cell_angle_gamma 90.000000
_cell_volume 2171.522943
_symmetry_space_group_name_H-M "C 2/M"
_symmetry_group_IT_number 12
_symmetry_cell_setting 'monoclinic'
loop_
_space_group_symop_operation_xyz
x,y,z
-x,y,-z
-x,-y,-z
x,-y,z
1/2+x,1/2+y,z
1/2-x,1/2+y,-z
1/2-x,1/2-y,-z
1/2+x,1/2-y,z
loop_
_atom_site_type_symbol
_atom_site_label
_atom_site_fract_x
_atom_site_fract_y
_atom_site_fract_z
Si Si1 0.922340 0.310928 0.330824
Si Si2 0.044405 0.577355 0.544708
Si Si3 0.785453 0.180179 0.334961
Si Si4 0.366201 0.422692 0.346669
Si Si5 0.682384 0.424920 0.197763
Si Si6 0.967157 0.203561 0.436853
O O1 0.987574 0.369117 0.252897
O O2 0.804512 0.334843 0.559650
O O3 0.899991 0.251419 0.499468
O O4 0.000000 0.287658 0.000000
O O5 0.008630 0.500000 0.667581
O O6 0.000000 0.592923 0.500000
O O7 0.183851 0.580426 0.184165
O O8 0.750000 0.250000 0.500000
O O9 0.789596 0.123273 0.443121
O O10 0.913302 0.185862 0.944954
O O11 0.364414 0.500000 0.301289
O O12 0.325591 0.420864 0.611602
O O13 0.500000 0.399738 0.000000
O O14 0.640521 0.500000 0.262611
O O15 0.605517 0.363120 0.341572
O O16 0.000000 0.239011 0.500000
#
# Coordination Sequence:
#
# PCOD9212002 Si02
#       6
#     8   8   8   8   8   8
#     4  12  27  44  66  97 135 182 230 280 336 406
#     4  10  24  46  70  99 137 179 226 280 340 413
#     4  12  25  41  67  98 138 179 222 288 341 398
#     4  10  21  40  70 103 134 173 224 281 343 407
#     4  10  22  42  71 102 134 175 227 286 348 412
#     4  12  26  44  69  99 137 181 228 285 344 408
#
# _framework density 22.104303999999999
#
# number of rings (size 3 to 8) (size 9 to 14) (size 15 to 20)
#    0.000    1.000    3.333    2.500    2.333    6.667 
#    0.000    0.000    0.000    0.000    0.000    0.000 
#    0.000    0.000    0.000    0.000    0.000    0.000 
#
# Total GULP energy -134312.799099 kJ/mol
# GULP energy per Si atom -5596.366629 kJ/mol
# Density = 2.205399 g / cm^3
# Si number density = 22.104304 Si / 1000 Ang^3
#
#
#
# Elastic Constant Matrix: (Units=GPa)
#
#
# Indices 1 2 3 4 5 6 
#
# 1 126.2777 61.0688 -2.7156 0.0000 -0.7213 0.0000
# 2 61.0688 110.5186 3.0723 0.0000 -0.5581 0.0000
# 3 -2.7156 3.0723 37.3141 0.0000 4.1115 0.0000
# 4 0.0000 0.0000 0.0000 18.9993 0.0000 -2.1757
# 5 -0.7213 -0.5581 4.1115 0.0000 34.3332 0.0000
# 6 0.0000 0.0000 0.0000 -2.1757 0.0000 35.3666
#
#
#
# Elastic Compliance Matrix: (Units=1/GPa)
#
#
# Indices 1 2 3 4 5 6 
#
# 1 0.010868 -0.006042 0.001291 0.000000 -0.000024 0.000000
# 2 -0.006042 0.012429 -0.001491 0.000000 0.000254 0.000000
# 3 0.001291 -0.001491 0.027377 0.000000 -0.003276 0.000000
# 4 0.000000 0.000000 0.000000 0.053007 0.000000 0.003261
# 5 -0.000024 0.000254 -0.003276 0.000000 0.029522 0.000000
# 6 0.000000 0.000000 0.000000 0.003261 0.000000 0.028476
#
#
# Mechanical properties :
#
#
# Convention : Reuss Voigt Hill
#
# Bulk Modulus (GPa) = 26.18346 44.10683 35.14514
# Shear Modulus (GPa) = 26.75319 31.91880 29.33600
#
# Velocity S-wave (km/s) = 3.48273 3.80413 3.64698
# Velocity P-wave (km/s) = 5.29563 6.26837 5.80242
#
# Compressibility (1/GPa) = 0.03819205
#
# Stress axis : x y z
#
# Youngs Moduli (GPa) = 92.00987 80.45496 36.52674
#
# Poissons Ratio (x) = 0.48607 -0.04716
# Poissons Ratio (y) = 0.55588 0.05446
# Poissons Ratio (z) = -0.11879 0.11996
#
# Static dielectric constant tensor:
#      x y z
#    x 1.784010 0.000000 -0.004610 
#    y 0.000000 1.846780 0.000000 
#    z -0.004610 0.000000 1.838610 
# 
# From -- ./inp_files/106508.got.cif
#   From: 2010.05.17/outbox.cif.g08.bks.cpg/sg12_54_cif.got.tgz:106508.got - 2010.06.03 13:09:07.
