data_PCOD9212930
_publ_section_title
;
Structure prediction by ZEFSAII (Michael W. Deem and Ramdas Pophale) SiO2 
 PCOD9212930
Probable space group: C 2/M
;
_chemical_formula_sum "Si O2"
_cell_formula_units_Z 44
_cell_length_a 8.813554
_cell_length_b 33.838347
_cell_length_c 10.370432
_cell_angle_alpha 90.000000
_cell_angle_beta 52.204754
_cell_angle_gamma 90.000000
_cell_volume 2443.978077
_symmetry_space_group_name_H-M "C 2/M"
_symmetry_group_IT_number 12
_symmetry_cell_setting 'monoclinic'
loop_
_space_group_symop_operation_xyz
x,y,z
-x,y,-z
-x,-y,-z
x,-y,z
1/2+x,1/2+y,z
1/2-x,1/2+y,-z
1/2-x,1/2-y,-z
1/2+x,1/2-y,z
loop_
_atom_site_type_symbol
_atom_site_label
_atom_site_fract_x
_atom_site_fract_y
_atom_site_fract_z
Si Si1 0.192554 0.781913 0.211249
Si Si2 0.731239 0.500000 0.036098
Si Si3 0.412747 0.202021 0.842999
Si Si4 0.500000 0.067121 0.500000
Si Si5 0.777824 0.000000 0.266394
Si Si6 0.000000 0.838834 0.500000
Si Si7 0.910675 0.380079 0.299444
Si Si8 0.000000 0.568302 0.000000
O O1 0.388005 0.786169 0.190763
O O2 0.132047 0.736306 0.235278
O O3 0.037701 0.810022 0.358753
O O4 0.247511 0.795967 0.038270
O O5 0.503762 0.500000 0.172642
O O6 0.829277 0.461274 0.046450
O O7 0.764877 0.500000 0.864558
O O8 0.450383 0.158218 0.772999
O O9 0.543246 0.093221 0.602171
O O10 0.678471 0.038380 0.378257
O O11 0.191662 0.864535 0.416864
O O12 0.944187 0.404326 0.150018
#
# Coordination Sequence:
#
# PCOD9212930 Si02
#       8
#     8   4   8   4   4   4   8   4
#     4   9  18  35  55  79 110 157 201 244 284 349
#     4  10  22  41  72  87 112 165 201 226 292 380
#     4   9  19  36  57  77 114 157 198 244 287 347
#     4  11  24  41  60  89 130 152 184 257 306 349
#     4  10  22  45  62  91 120 157 191 242 296 368
#     4  10  22  35  56  86 118 156 202 252 294 343
#     4  11  23  38  58  89 126 153 193 253 303 341
#     4  11  22  42  64  94 114 160 200 240 286 372
#
# _framework density 18.003435
#
# number of rings (size 3 to 8) (size 9 to 14) (size 15 to 20)
#    0.000    2.000    1.818    2.182    2.545    5.091 
#    0.000    0.909    0.000    0.000    0.000    0.000 
#    0.000    0.000    0.000    0.000    0.000    0.000 
#
# Total GULP energy -122810.892110 kJ/mol
# GULP energy per Si atom -5582.313278 kJ/mol
# Density = 1.796246 g / cm^3
# Si number density = 18.003435 Si / 1000 Ang^3
#
#
#
# Elastic Constant Matrix: (Units=GPa)
#
#
# Indices 1 2 3 4 5 6 
#
# 1 64.3414 67.4581 55.3166 0.0000 14.6335 0.0000
# 2 67.4581 176.9121 96.0793 0.0000 9.5847 0.0000
# 3 55.3166 96.0793 125.3568 0.0000 6.8799 0.0000
# 4 0.0000 0.0000 0.0000 17.7117 0.0000 18.6255
# 5 14.6335 9.5847 6.8799 0.0000 22.6321 0.0000
# 6 0.0000 0.0000 0.0000 18.6255 0.0000 2.2753
#
#
#
# Elastic Compliance Matrix: (Units=1/GPa)
#
#
# Indices 1 2 3 4 5 6 
#
# 1 0.034714 -0.007731 -0.008482 0.000000 -0.016593 0.000000
# 2 -0.007731 0.011484 -0.005489 0.000000 0.001804 0.000000
# 3 -0.008482 -0.005489 0.015762 0.000000 0.003018 0.000000
# 4 0.000000 0.000000 0.000000 -0.007421 0.000000 0.060747
# 5 -0.016593 0.001804 0.003018 0.000000 0.053232 0.000000
# 6 0.000000 0.000000 0.000000 0.060747 0.000000 -0.057766
#
#
# Mechanical properties :
#
#
# Convention : Reuss Voigt Hill
#
# Bulk Modulus (GPa) = 53.89529 89.36868 71.63198
# Shear Modulus (GPa) = 50.20339 18.37424 34.28881
#
# Velocity S-wave (km/s) = 5.28640 3.19814 4.36887
# Velocity P-wave (km/s) = 8.20137 7.96147 8.08231
#
# Compressibility (1/GPa) = 0.01855450
#
# Stress axis : x y z
#
# Youngs Moduli (GPa) = 28.80683 87.07824 63.44472
#
# Poissons Ratio (x) = 0.67322 0.53815
# Poissons Ratio (y) = 0.22271 0.34826
# Poissons Ratio (z) = 0.24434 0.47799
#
# Static dielectric constant tensor:
#      x y z
#    x 1.594050 0.000000 0.004090 
#    y 0.000000 1.605490 0.000000 
#    z 0.004090 0.000000 1.618310 
# 
# From -- ./inp_files/41765.got.cif
#   From: 2010.05.17/outbox.cif.g08.bks.cpg/sg12_21_cif.got.tgz:41765.got - 2010.06.03 13:09:07.
