data_PCOD9212858
_publ_section_title
;
Structure prediction by ZEFSAII (Michael W. Deem and Ramdas Pophale) SiO2 
 PCOD9212858
Probable space group: C 2/M
;
_chemical_formula_sum "Si O2"
_cell_formula_units_Z 34
_cell_length_a 16.238802
_cell_length_b 20.012676
_cell_length_c 4.883860
_cell_angle_alpha 90.000000
_cell_angle_beta 75.925844
_cell_angle_gamma 90.000000
_cell_volume 1539.522156
_symmetry_space_group_name_H-M "C 2/M"
_symmetry_group_IT_number 12
_symmetry_cell_setting 'monoclinic'
loop_
_space_group_symop_operation_xyz
x,y,z
-x,y,-z
-x,-y,-z
x,-y,z
1/2+x,1/2+y,z
1/2-x,1/2+y,-z
1/2-x,1/2-y,-z
1/2+x,1/2-y,z
loop_
_atom_site_type_symbol
_atom_site_label
_atom_site_fract_x
_atom_site_fract_y
_atom_site_fract_z
Si Si1 0.848361 0.421604 0.839068
Si Si2 0.000000 0.000000 0.000000
Si Si3 0.500000 0.739520 0.000000
Si Si4 0.762523 0.921600 0.564229
Si Si5 0.000000 0.668656 0.500000
Si Si6 0.419266 0.624505 0.768072
O O1 0.867018 0.500000 0.773262
O O2 0.766930 0.404333 0.716007
O O3 0.926221 0.376727 0.686058
O O4 0.819987 0.414375 0.174988
O O5 0.934783 0.941102 0.939784
O O6 0.530634 0.784481 0.723457
O O7 0.427044 0.690490 0.944296
O O8 0.837788 0.881292 0.642319
O O9 0.788022 0.000000 0.549970
O O10 0.500000 0.625056 0.500000
#
# Coordination Sequence:
#
# PCOD9212858 Si02
#       6
#     8   2   4   8   4   8
#     4  10  23  41  68  97 120 157 208 276 323 372
#     4  10  22  32  68  98 118 184 200 254 306 374
#     4  11  26  41  65  90 127 178 214 252 289 388
#     4  10  22  38  63 100 131 151 202 266 322 370
#     4  12  23  48  66  85 124 172 216 260 322 365
#     4  11  23  40  63  95 135 171 211 246 308 375
#
# _framework density 22.084772999999998
#
# number of rings (size 3 to 8) (size 9 to 14) (size 15 to 20)
#    0.000    1.412    2.353    2.118    6.588    0.000 
#    0.000   11.765    0.000    0.000    0.000    0.000 
#    0.000    0.000    0.000    0.000    0.000    0.000 
#
# Total GULP energy -94879.490979 kJ/mol
# GULP energy per Si atom -5581.146528 kJ/mol
# Density = 2.203451 g / cm^3
# Si number density = 22.084773 Si / 1000 Ang^3
#
#
#
# Elastic Constant Matrix: (Units=GPa)
#
#
# Indices 1 2 3 4 5 6 
#
# 1 48.5776 24.7855 -7.0344 0.0000 -4.9492 0.0000
# 2 24.7855 85.4611 20.8719 0.0000 -5.5732 0.0000
# 3 -7.0344 20.8719 82.5634 0.0000 -0.1109 0.0000
# 4 0.0000 0.0000 0.0000 17.3476 0.0000 11.7523
# 5 -4.9492 -5.5732 -0.1109 0.0000 27.2247 0.0000
# 6 0.0000 0.0000 0.0000 11.7523 0.0000 14.2835
#
#
#
# Elastic Compliance Matrix: (Units=1/GPa)
#
#
# Indices 1 2 3 4 5 6 
#
# 1 0.025763 -0.008328 0.004304 0.000000 0.002996 0.000000
# 2 -0.008328 0.015341 -0.004586 0.000000 0.001608 0.000000
# 3 0.004304 -0.004586 0.013638 0.000000 -0.000101 0.000000
# 4 0.000000 0.000000 0.000000 0.130244 0.000000 -0.107163
# 5 0.002996 0.001608 -0.000101 0.000000 0.037605 0.000000
# 6 0.000000 0.000000 0.000000 -0.107163 0.000000 0.158183
#
#
# Mechanical properties :
#
#
# Convention : Reuss Voigt Hill
#
# Bulk Modulus (GPa) = 26.64954 32.64980 29.64967
# Shear Modulus (GPa) = 12.18026 23.63643 17.90834
#
# Velocity S-wave (km/s) = 2.35100 3.27503 2.85070
# Velocity P-wave (km/s) = 4.41166 5.39602 4.92848
#
# Compressibility (1/GPa) = 0.03752410
#
# Stress axis : x y z
#
# Youngs Moduli (GPa) = 38.81509 65.18387 73.32601
#
# Poissons Ratio (x) = 0.54283 -0.31562
# Poissons Ratio (y) = 0.32324 0.33624
# Poissons Ratio (z) = -0.16707 0.29891
#
# Static dielectric constant tensor:
#      x y z
#    x 1.801490 0.000000 0.000090 
#    y 0.000000 1.783080 0.000000 
#    z 0.000090 0.000000 1.840020 
# 
# From -- ./inp_files/10768.got.cif
#   From: 2010.05.17/outbox.cif.g08.bks.cpg/sg12_6_cif.got.tgz:10768.got - 2010.06.03 13:09:07.
