data_PCOD9212097
_publ_section_title
;
Structure prediction by ZEFSAII (Michael W. Deem and Ramdas Pophale) SiO2 
 PCOD9212097
Probable space group: C 2/M
;
_chemical_formula_sum "Si O2"
_cell_formula_units_Z 40
_cell_length_a 12.013225
_cell_length_b 9.818236
_cell_length_c 19.428745
_cell_angle_alpha 90.000000
_cell_angle_beta 135.398004
_cell_angle_gamma 90.000000
_cell_volume 1609.107120
_symmetry_space_group_name_H-M "C 2/M"
_symmetry_group_IT_number 12
_symmetry_cell_setting 'monoclinic'
loop_
_space_group_symop_operation_xyz
x,y,z
-x,y,-z
-x,-y,-z
x,-y,z
1/2+x,1/2+y,z
1/2-x,1/2+y,-z
1/2-x,1/2-y,-z
1/2+x,1/2-y,z
loop_
_atom_site_type_symbol
_atom_site_label
_atom_site_fract_x
_atom_site_fract_y
_atom_site_fract_z
Si Si1 0.624818 0.701802 0.303720
Si Si2 0.853641 0.500000 0.630545
Si Si3 0.725221 0.297154 0.864133
Si Si4 0.783310 0.500000 0.768283
Si Si5 0.684522 0.500000 0.076751
Si Si6 0.105959 0.500000 0.616880
Si Si7 0.434634 0.500000 0.597775
Si Si8 0.871804 0.500000 0.029526
O O1 0.456218 0.674682 0.193043
O O2 0.775067 0.629669 0.334975
O O3 0.604125 0.628802 0.369301
O O4 0.639766 0.863282 0.320852
O O5 0.689125 0.500000 0.517590
O O6 0.991421 0.500000 0.632652
O O7 0.752928 0.370135 0.804395
O O8 0.846771 0.367535 0.970735
O O9 0.746203 0.138274 0.863502
O O10 0.616642 0.500000 0.653034
O O11 0.975485 0.500000 0.854189
O O12 0.500000 0.500000 0.000000
O O13 0.725313 0.500000 0.015076
O O14 0.000000 0.500000 0.500000
#
# Coordination Sequence:
#
# PCOD9212097 Si02
#       8
#     8   4   8   4   4   4   4   4
#     4  10  22  43  63 101 137 174 234 283 331 417
#     4  12  22  42  73  97 140 187 225 288 351 389
#     4  10  21  41  63  90 130 165 214 277 328 394
#     4   9  19  39  66  87 120 176 216 262 332 398
#     4  12  24  39  59  96 132 164 220 278 323 392
#     4  11  23  42  70  97 137 185 233 277 351 413
#     4   9  19  37  67  93 131 176 222 275 342 402
#     4  11  21  40  65  88 124 181 211 258 341 401
#
# _framework density 24.858505000000001
#
# number of rings (size 3 to 8) (size 9 to 14) (size 15 to 20)
#    0.000    1.600    2.000    6.000    0.000    0.000 
#   14.400    2.500    0.000    0.000    0.000    0.000 
#    0.000    0.000    0.000    0.000    0.000    0.000 
#
# Total GULP energy -111942.494428 kJ/mol
# GULP energy per Si atom -5597.124721 kJ/mol
# Density = 2.480193 g / cm^3
# Si number density = 24.858505 Si / 1000 Ang^3
#
#
#
# Elastic Constant Matrix: (Units=GPa)
#
#
# Indices 1 2 3 4 5 6 
#
# 1 91.8893 19.7547 59.3173 0.0000 38.1112 0.0000
# 2 19.7547 195.5201 49.5666 0.0000 6.5897 0.0000
# 3 59.3173 49.5666 203.2503 0.0000 28.2799 0.0000
# 4 0.0000 0.0000 0.0000 -260.0296 0.0000 -9.2862
# 5 38.1112 6.5897 28.2799 0.0000 43.8509 0.0000
# 6 0.0000 0.0000 0.0000 -9.2862 0.0000 17.0646
#
#
#
# Elastic Compliance Matrix: (Units=1/GPa)
#
#
# Indices 1 2 3 4 5 6 
#
# 1 0.019202 -0.000578 -0.003464 0.000000 -0.014368 0.000000
# 2 -0.000578 0.005469 -0.001231 0.000000 0.000474 0.000000
# 3 -0.003464 -0.001231 0.006357 0.000000 -0.000904 0.000000
# 4 0.000000 0.000000 0.000000 -0.003772 0.000000 -0.002053
# 5 -0.014368 0.000474 -0.000904 0.000000 0.035804 0.000000
# 6 0.000000 0.000000 0.000000 -0.002053 0.000000 0.057484
#
#
# Mechanical properties :
#
#
# Convention : Reuss Voigt Hill
#
# Bulk Modulus (GPa) = 48.82215 83.10411 65.96313
# Shear Modulus (GPa) = 36.25389 -15.68809 10.28290
#
# Velocity S-wave (km/s) = 3.82306 -2.51489 2.03606
# Velocity P-wave (km/s) = 6.25862 5.00705 5.66749
#
# Compressibility (1/GPa) = 0.02048251
#
# Stress axis : x y z
#
# Youngs Moduli (GPa) = 52.07774 182.84701 157.30659
#
# Poissons Ratio (x) = 0.10563 0.54491
# Poissons Ratio (y) = 0.03009 0.19366
# Poissons Ratio (z) = 0.18040 0.22511
#
# Static dielectric constant tensor:
#      x y z
#    x 2.006680 0.000000 0.010470 
#    y 0.000000 1.957580 0.000000 
#    z 0.010470 0.000000 1.937940 
# 
# From -- ./inp_files/375791.got.cif
#   From: 2010.05.17/outbox.cif.g08.bks.cpg/sg12_188_cif.got.tgz:375791.got - 2010.06.03 13:09:07.
