data_PCOD9212399
_publ_section_title
;
Structure prediction by ZEFSAII (Michael W. Deem and Ramdas Pophale) SiO2 
 PCOD9212399
Probable space group: C 2/M
;
_chemical_formula_sum "Si O2"
_cell_formula_units_Z 64
_cell_length_a 9.409547
_cell_length_b 27.998198
_cell_length_c 18.498551
_cell_angle_alpha 90.000000
_cell_angle_beta 38.340765
_cell_angle_gamma 90.000000
_cell_volume 3023.182426
_symmetry_space_group_name_H-M "C 2/M"
_symmetry_group_IT_number 12
_symmetry_cell_setting 'monoclinic'
loop_
_space_group_symop_operation_xyz
x,y,z
-x,y,-z
-x,-y,-z
x,-y,z
1/2+x,1/2+y,z
1/2-x,1/2+y,-z
1/2-x,1/2-y,-z
1/2+x,1/2-y,z
loop_
_atom_site_type_symbol
_atom_site_label
_atom_site_fract_x
_atom_site_fract_y
_atom_site_fract_z
Si Si1 0.050365 0.711357 0.719037
Si Si2 0.768490 0.389713 0.044145
Si Si3 0.501289 0.770032 0.421000
Si Si4 0.544369 0.942584 0.640407
Si Si5 0.633849 0.444086 0.715128
Si Si6 0.755700 0.218013 0.926932
Si Si7 0.500828 0.893362 0.199145
Si Si8 0.987975 0.056606 0.609472
O O1 0.311681 0.728459 0.634494
O O2 0.961845 0.703984 0.671162
O O3 0.002857 0.662783 0.781193
O O4 0.908590 0.756018 0.806464
O O5 0.572635 0.420759 0.158691
O O6 0.674724 0.335631 0.082683
O O7 0.000000 0.392482 0.000000
O O8 0.847540 0.402613 0.931770
O O9 0.500000 0.796705 0.500000
O O10 0.250000 0.750000 0.500000
O O11 0.382042 0.926269 0.640485
O O12 0.426639 0.922480 0.759033
O O13 0.808104 0.926834 0.525220
O O14 0.557199 0.000000 0.636669
O O15 0.628212 0.500000 0.734879
O O16 0.598333 0.439941 0.644469
O O17 0.500000 0.215155 0.000000
O O18 0.750000 0.250000 0.000000
O O19 0.240936 0.912429 0.293852
O O20 0.933738 0.000000 0.617334
#
# Coordination Sequence:
#
# PCOD9212399 Si02
#       8
#     8   8   8   8   8   8   8   8
#     4  11  23  41  65  93 124 164 216 266 317 379
#     4  11  24  43  63  93 130 166 218 265 321 389
#     4   9  21  41  62  87 124 162 199 256 324 382
#     4  10  23  42  63  95 132 167 211 264 323 384
#     4  10  22  41  67  97 131 170 210 263 325 384
#     4  11  23  41  64  89 120 165 214 268 316 370
#     4  12  24  40  63  96 128 166 213 268 318 383
#     4  10  21  41  69  95 127 172 218 261 314 387
#
# _framework density 21.169743
#
# number of rings (size 3 to 8) (size 9 to 14) (size 15 to 20)
#    0.000    1.500    2.500    1.875    1.750    9.250 
#    0.000    5.000    0.000    0.000    0.000    0.000 
#    0.000    0.000    0.000    0.000    0.000    0.000 
#
# Total GULP energy -178540.546267 kJ/mol
# GULP energy per Si atom -5579.392071 kJ/mol
# Density = 2.112156 g / cm^3
# Si number density = 21.169743 Si / 1000 Ang^3
#
#
#
# Elastic Constant Matrix: (Units=GPa)
#
#
# Indices 1 2 3 4 5 6 
#
# 1 105.1587 8.9100 16.9283 0.0000 6.9770 0.0000
# 2 8.9100 21.7520 21.6489 0.0000 1.4355 0.0000
# 3 16.9283 21.6489 103.0607 0.0000 13.0542 0.0000
# 4 0.0000 0.0000 0.0000 20.1674 0.0000 -6.3505
# 5 6.9770 1.4355 13.0542 0.0000 33.0442 0.0000
# 6 0.0000 0.0000 0.0000 -6.3505 0.0000 35.1304
#
#
#
# Elastic Compliance Matrix: (Units=1/GPa)
#
#
# Indices 1 2 3 4 5 6 
#
# 1 0.010017 -0.003245 -0.000751 0.000000 -0.001677 0.000000
# 2 -0.003245 0.059360 -0.012312 0.000000 0.002971 0.000000
# 3 -0.000751 -0.012312 0.012974 0.000000 -0.004432 0.000000
# 4 0.000000 0.000000 0.000000 0.052578 0.000000 0.009505
# 5 -0.001677 0.002971 -0.004432 0.000000 0.032238 0.000000
# 6 0.000000 0.000000 0.000000 0.009505 0.000000 0.030183
#
#
# Mechanical properties :
#
#
# Convention : Reuss Voigt Hill
#
# Bulk Modulus (GPa) = 20.10697 36.10509 28.10603
# Shear Modulus (GPa) = 20.28029 29.83403 25.05716
#
# Velocity S-wave (km/s) = 3.09849 3.75811 3.44413
# Velocity P-wave (km/s) = 4.72435 5.99360 5.39642
#
# Compressibility (1/GPa) = 0.04973400
#
# Stress axis : x y z
#
# Youngs Moduli (GPa) = 99.83471 16.84641 77.07632
#
# Poissons Ratio (x) = 0.05466 0.05791
# Poissons Ratio (y) = 0.32392 0.94900
# Poissons Ratio (z) = 0.07500 0.20742
#
# Static dielectric constant tensor:
#      x y z
#    x 1.824320 0.000000 0.011650 
#    y 0.000000 1.784960 0.000000 
#    z 0.011650 0.000000 1.797670 
# 
# From -- ./inp_files/260293.got.cif
#   From: 2010.05.17/outbox.cif.g08.bks.cpg/sg12_131_cif.got.tgz:260293.got - 2010.06.03 13:09:07.
