data_PCOD9212119
_publ_section_title
;
Structure prediction by ZEFSAII (Michael W. Deem and Ramdas Pophale) SiO2 
 PCOD9212119
Probable space group: C 2/M
;
_chemical_formula_sum "Si O2"
_cell_formula_units_Z 48
_cell_length_a 11.792055
_cell_length_b 22.793807
_cell_length_c 16.894097
_cell_angle_alpha 90.000000
_cell_angle_beta 146.525345
_cell_angle_gamma 90.000000
_cell_volume 2504.611986
_symmetry_space_group_name_H-M "C 2/M"
_symmetry_group_IT_number 12
_symmetry_cell_setting 'monoclinic'
loop_
_space_group_symop_operation_xyz
x,y,z
-x,y,-z
-x,-y,-z
x,-y,z
1/2+x,1/2+y,z
1/2-x,1/2+y,-z
1/2-x,1/2-y,-z
1/2+x,1/2-y,z
loop_
_atom_site_type_symbol
_atom_site_label
_atom_site_fract_x
_atom_site_fract_y
_atom_site_fract_z
Si Si1 0.519481 0.343119 0.224555
Si Si2 0.002471 0.353573 0.753289
Si Si3 0.780157 0.718034 0.261783
Si Si4 0.861958 0.068882 0.996957
Si Si5 0.582832 0.202383 0.969633
Si Si6 0.120054 0.191409 0.450422
O O1 0.731843 0.319632 0.310974
O O2 0.567549 0.349874 0.344960
O O3 0.438002 0.393805 0.117957
O O4 0.328842 0.296562 0.117462
O O5 0.764651 0.346329 0.591656
O O6 0.120173 0.318418 0.751335
O O7 0.129254 0.413654 0.837263
O O8 0.029925 0.325632 0.855367
O O9 0.550459 0.738643 0.105993
O O10 0.912384 0.776112 0.356984
O O11 0.881246 0.000000 0.024114
O O12 0.000000 0.083587 0.000000
O O13 0.500000 0.169120 0.000000
O O14 0.250000 0.250000 0.500000
#
# Coordination Sequence:
#
# PCOD9212119 Si02
#       6
#     8   8   8   8   8   8
#     4  11  22  36  57  85 121 156 201 244 297 345
#     4  10  23  37  56  84 116 159 195 241 297 349
#     4  11  20  34  54  84 124 160 190 235 283 373
#     4  10  21  41  64  86 111 152 208 265 303 333
#     4  11  23  32  52  82 120 157 201 234 285 360
#     4  10  22  36  51  87 125 165 187 224 291 366
#
# _framework density 19.164646000000001
#
# number of rings (size 3 to 8) (size 9 to 14) (size 15 to 20)
#    0.000    1.500    3.333    2.500    4.667    6.000 
#    0.000    0.833    0.000   10.000    0.000    4.667 
#    0.000    0.000    0.000    0.000    0.000    0.000 
#
# Total GULP energy -133689.248080 kJ/mol
# GULP energy per Si atom -5570.385337 kJ/mol
# Density = 1.912103 g / cm^3
# Si number density = 19.164646 Si / 1000 Ang^3
#
#
#
# Elastic Constant Matrix: (Units=GPa)
#
#
# Indices 1 2 3 4 5 6 
#
# 1 95.9999 17.1707 39.4620 -0.0002 4.3446 -0.0001
# 2 17.1707 63.8948 23.4273 -0.0015 -0.1957 -0.0005
# 3 39.4620 23.4273 100.7334 -0.0030 -19.2415 -0.0016
# 4 -0.0002 -0.0015 -0.0030 22.7095 -0.0001 0.3791
# 5 4.3446 -0.1957 -19.2415 -0.0001 32.2485 -0.0001
# 6 -0.0001 -0.0005 -0.0016 0.3791 -0.0001 19.1347
#
#
#
# Elastic Compliance Matrix: (Units=1/GPa)
#
#
# Indices 1 2 3 4 5 6 
#
# 1 0.013346 -0.001435 -0.005914 -0.000001 -0.005335 0.000000
# 2 -0.001435 0.017454 -0.003883 0.000001 -0.002017 0.000000
# 3 -0.005914 -0.003883 0.015005 0.000002 0.009726 0.000001
# 4 -0.000001 0.000001 0.000002 0.044049 0.000001 -0.000873
# 5 -0.005335 -0.002017 0.009726 0.000001 0.037519 0.000001
# 6 0.000000 0.000000 0.000001 -0.000873 0.000001 0.052278
#
#
# Mechanical properties :
#
#
# Convention : Reuss Voigt Hill
#
# Bulk Modulus (GPa) = 42.84027 46.74980 44.79504
# Shear Modulus (GPa) = 23.82179 26.85639 25.33909
#
# Velocity S-wave (km/s) = 3.52946 3.74752 3.64012
# Velocity P-wave (km/s) = 6.24594 6.57054 6.41029
#
# Compressibility (1/GPa) = 0.02334252
#
# Stress axis : x y z
#
# Youngs Moduli (GPa) = 74.93142 57.29474 66.64655
#
# Poissons Ratio (x) = 0.08219 0.39412
# Poissons Ratio (y) = 0.10749 0.25876
# Poissons Ratio (z) = 0.44311 0.22245
#
# Static dielectric constant tensor:
#      x y z
#    x 1.790570 0.000000 -0.002860 
#    y 0.000000 1.673760 0.000000 
#    z -0.002860 0.000000 1.730760 
# 
# From -- ./inp_files/265904.got.cif
#   From: 2010.05.17/outbox.cif.g08.bks.cpg/sg12_133_cif.got.tgz:265904.got - 2010.06.03 13:09:07.
