data_PCOD9212929
_publ_section_title
;
Structure prediction by ZEFSAII (Michael W. Deem and Ramdas Pophale) SiO2 
 PCOD9212929
Probable space group: C 2/M
;
_chemical_formula_sum "Si O2"
_cell_formula_units_Z 38
_cell_length_a 14.357517
_cell_length_b 27.007442
_cell_length_c 13.374884
_cell_angle_alpha 90.000000
_cell_angle_beta 158.909348
_cell_angle_gamma 90.000000
_cell_volume 1866.241281
_symmetry_space_group_name_H-M "C 2/M"
_symmetry_group_IT_number 12
_symmetry_cell_setting 'monoclinic'
loop_
_space_group_symop_operation_xyz
x,y,z
-x,y,-z
-x,-y,-z
x,-y,z
1/2+x,1/2+y,z
1/2-x,1/2+y,-z
1/2-x,1/2-y,-z
1/2+x,1/2-y,z
loop_
_atom_site_type_symbol
_atom_site_label
_atom_site_fract_x
_atom_site_fract_y
_atom_site_fract_z
Si Si1 0.557605 0.160373 0.443992
Si Si2 0.000000 0.679602 0.000000
Si Si3 0.542897 0.635525 0.808911
Si Si4 0.111338 0.768148 0.760312
Si Si5 0.298082 0.592021 0.389035
Si Si6 0.000000 0.500000 0.000000
O O1 0.500000 0.146730 0.500000
O O2 0.833230 0.140502 0.685752
O O3 0.557275 0.220624 0.437672
O O4 0.328652 0.140363 0.141724
O O5 0.796726 0.714070 0.855633
O O6 0.885057 0.640335 0.805210
O O7 0.490785 0.681944 0.682372
O O8 0.464378 0.590865 0.657361
O O9 0.250000 0.750000 0.000000
O O10 0.500000 0.596324 0.500000
O O11 0.131266 0.543584 0.201735
#
# Coordination Sequence:
#
# PCOD9212929 Si02
#       6
#     8   4   8   8   8   2
#     4  11  25  39  61  87 128 171 231 266 299 352
#     4  11  22  37  58  88 126 180 210 261 314 369
#     4  11  23  42  60  90 124 172 212 268 323 366
#     4  10  22  35  56  83 124 172 225 262 300 358
#     4  11  22  41  64  92 130 159 205 255 330 404
#     4  10  26  40  68  98 130 154 202 256 334 414
#
# _framework density 20.361782999999999
#
# number of rings (size 3 to 8) (size 9 to 14) (size 15 to 20)
#    0.000    1.263    2.105    4.105   11.789    0.000 
#    0.000    0.000    0.000    0.000    0.000    4.421 
#    0.000    0.000    0.000    0.000    0.000    0.000 
#
# Total GULP energy -105793.598863 kJ/mol
# GULP energy per Si atom -5568.084151 kJ/mol
# Density = 2.031544 g / cm^3
# Si number density = 20.361783 Si / 1000 Ang^3
#
#
#
# Elastic Constant Matrix: (Units=GPa)
#
#
# Indices 1 2 3 4 5 6 
#
# 1 85.3317 -7.8284 -16.9419 -0.0004 7.1249 0.0001
# 2 -7.8284 55.1711 18.0990 0.0007 -15.9091 0.0001
# 3 -16.9419 18.0990 62.6950 0.0033 -18.9207 0.0009
# 4 -0.0004 0.0007 0.0033 19.3457 -0.0002 -20.3324
# 5 7.1249 -15.9091 -18.9207 -0.0002 37.2358 0.0010
# 6 0.0001 0.0001 0.0009 -20.3324 0.0010 4.8884
#
#
#
# Elastic Compliance Matrix: (Units=1/GPa)
#
#
# Indices 1 2 3 4 5 6 
#
# 1 0.012420 0.000607 0.003003 0.000000 -0.000592 0.000001
# 2 0.000607 0.021542 -0.003912 0.000000 0.007100 0.000000
# 3 0.003003 -0.003912 0.020331 0.000003 0.008085 0.000005
# 4 0.000000 0.000000 0.000003 -0.015332 0.000003 -0.063770
# 5 -0.000592 0.007100 0.008085 0.000003 0.034111 0.000004
# 6 0.000001 0.000000 0.000005 -0.063770 0.000004 -0.060676
#
#
# Mechanical properties :
#
#
# Convention : Reuss Voigt Hill
#
# Bulk Modulus (GPa) = 18.62632 21.09503 19.86068
# Shear Modulus (GPa) = 161.82061 26.28525 94.05293
#
# Velocity S-wave (km/s) = 8.92442 3.59682 6.80376
# Velocity P-wave (km/s) = 10.74063 5.25663 8.45557
#
# Compressibility (1/GPa) = 0.05368747
#
# Stress axis : x y z
#
# Youngs Moduli (GPa) = 80.51423 46.42032 49.18621
#
# Poissons Ratio (x) = -0.02817 -0.14768
# Poissons Ratio (y) = -0.04885 0.19243
# Poissons Ratio (z) = -0.24175 0.18161
#
# Static dielectric constant tensor:
#      x y z
#    x 1.739370 0.000000 0.023840 
#    y 0.000000 1.767940 0.000000 
#    z 0.023840 0.000000 1.759930 
# 
# From -- ./inp_files/12258.got.cif
#   From: 2010.05.17/outbox.cif.g08.bks.cpg/sg12_7_cif.got.tgz:12258.got - 2010.06.03 13:09:07.
