data_PCOD9212012
_publ_section_title
;
Structure prediction by ZEFSAII (Michael W. Deem and Ramdas Pophale) SiO2 
 PCOD9212012
Probable space group: C 2/M
;
_chemical_formula_sum "Si O2"
_cell_formula_units_Z 48
_cell_length_a 28.898128
_cell_length_b 13.688698
_cell_length_c 11.519813
_cell_angle_alpha 90.000000
_cell_angle_beta 23.116097
_cell_angle_gamma 90.000000
_cell_volume 1789.050594
_symmetry_space_group_name_H-M "C 2/M"
_symmetry_group_IT_number 12
_symmetry_cell_setting 'monoclinic'
loop_
_space_group_symop_operation_xyz
x,y,z
-x,y,-z
-x,-y,-z
x,-y,z
1/2+x,1/2+y,z
1/2-x,1/2+y,-z
1/2-x,1/2-y,-z
1/2+x,1/2-y,z
loop_
_atom_site_type_symbol
_atom_site_label
_atom_site_fract_x
_atom_site_fract_y
_atom_site_fract_z
Si Si1 0.359234 0.718127 0.330351
Si Si2 0.423231 0.607428 0.970090
Si Si3 0.641288 0.607914 0.291694
Si Si4 0.684933 0.112296 0.901908
Si Si5 0.447473 0.184727 0.510234
Si Si6 0.827360 0.611737 0.565549
O O1 0.250000 0.750000 0.500000
O O2 0.441832 0.673999 0.039165
O O3 0.292365 0.642965 0.570585
O O4 0.390052 0.813691 0.334257
O O5 0.401992 0.500000 0.070366
O O6 0.309619 0.624519 0.151086
O O7 0.535379 0.603907 0.629445
O O8 0.641836 0.500000 0.229826
O O9 0.758042 0.617197 0.100625
O O10 0.607007 0.712879 0.317237
O O11 0.650282 0.000000 0.958495
O O12 0.570691 0.182012 0.151812
O O13 0.500000 0.128213 0.500000
O O14 0.354004 0.139961 0.636999
O O15 0.861585 0.500000 0.468176
#
# Coordination Sequence:
#
# PCOD9212012 Si02
#       6
#     8   8   8   8   8   8
#     4  12  22  41  71 103 142 193 229 285 347 434
#     4  10  21  40  71 104 144 190 234 282 353 427
#     4  10  22  45  72 107 147 184 237 300 352 418
#     4  11  24  44  73 108 143 183 241 296 346 425
#     4  12  27  49  77 100 139 193 244 299 365 426
#     4  11  25  44  65 103 147 189 240 301 354 421
#
# _framework density 26.829872000000002
#
# number of rings (size 3 to 8) (size 9 to 14) (size 15 to 20)
#    0.000    1.000    3.333    2.500    0.000    4.667 
#    0.000    1.667    0.000    0.000    0.000    0.000 
#    0.000    0.000    0.000    0.000    0.000    0.000 
#
# Total GULP energy -134238.825868 kJ/mol
# GULP energy per Si atom -5593.284411 kJ/mol
# Density = 2.676881 g / cm^3
# Si number density = 26.829872 Si / 1000 Ang^3
#
#
#
# Elastic Constant Matrix: (Units=GPa)
#
#
# Indices 1 2 3 4 5 6 
#
# 1 165.5695 54.3663 6.1720 0.0000 -7.9955 0.0000
# 2 54.3663 191.5192 36.7974 0.0000 -3.7735 0.0000
# 3 6.1720 36.7974 103.8298 0.0000 -15.7765 0.0000
# 4 0.0000 0.0000 0.0000 27.2333 0.0000 -0.3781
# 5 -7.9955 -3.7735 -15.7765 0.0000 43.7151 0.0000
# 6 0.0000 0.0000 0.0000 -0.3781 0.0000 32.9371
#
#
#
# Elastic Compliance Matrix: (Units=1/GPa)
#
#
# Indices 1 2 3 4 5 6 
#
# 1 0.006732 -0.001981 0.000490 0.000000 0.001237 0.000000
# 2 -0.001981 0.006188 -0.002168 0.000000 -0.000611 0.000000
# 3 0.000490 -0.002168 0.010956 0.000000 0.003857 0.000000
# 4 0.000000 0.000000 0.000000 0.036726 0.000000 0.000422
# 5 0.001237 -0.000611 0.003857 0.000000 0.024441 0.000000
# 6 0.000000 0.000000 0.000000 0.000422 0.000000 0.030366
#
#
# Mechanical properties :
#
#
# Convention : Reuss Voigt Hill
#
# Bulk Modulus (GPa) = 60.39319 72.84331 66.61825
# Shear Modulus (GPa) = 38.98767 45.01594 42.00181
#
# Velocity S-wave (km/s) = 3.81615 4.10058 3.96092
# Velocity P-wave (km/s) = 6.47888 7.04476 6.76774
#
# Compressibility (1/GPa) = 0.01655816
#
# Stress axis : x y z
#
# Youngs Moduli (GPa) = 148.55327 161.59824 91.27079
#
# Poissons Ratio (x) = 0.32006 -0.04470
# Poissons Ratio (y) = 0.29423 0.19789
# Poissons Ratio (z) = -0.07275 0.35037
#
# Static dielectric constant tensor:
#      x y z
#    x 2.039470 0.000000 -0.024270 
#    y 0.000000 2.189630 0.000000 
#    z -0.024270 0.000000 2.406710 
# 
# From -- ./inp_files/183690.got.cif
#   From: 2010.05.17/outbox.cif.g08.bks.cpg/sg12_92_cif.got.tgz:183690.got - 2010.06.03 13:09:07.
