data_PCOD9212344
_publ_section_title
;
Structure prediction by ZEFSAII (Michael W. Deem and Ramdas Pophale) SiO2 
 PCOD9212344
Probable space group: C 2/M
;
_chemical_formula_sum "Si O2"
_cell_formula_units_Z 42
_cell_length_a 18.333079
_cell_length_b 16.302301
_cell_length_c 15.240361
_cell_angle_alpha 90.000000
_cell_angle_beta 21.513502
_cell_angle_gamma 90.000000
_cell_volume 1670.377873
_symmetry_space_group_name_H-M "C 2/M"
_symmetry_group_IT_number 12
_symmetry_cell_setting 'monoclinic'
loop_
_space_group_symop_operation_xyz
x,y,z
-x,y,-z
-x,-y,-z
x,-y,z
1/2+x,1/2+y,z
1/2-x,1/2+y,-z
1/2-x,1/2-y,-z
1/2+x,1/2-y,z
loop_
_atom_site_type_symbol
_atom_site_label
_atom_site_fract_x
_atom_site_fract_y
_atom_site_fract_z
Si Si1 0.741729 0.828261 0.732041
Si Si2 0.000000 0.500000 0.500000
Si Si3 0.658465 0.674271 0.047900
Si Si4 0.183291 0.592458 0.972196
Si Si5 0.222239 0.095522 0.486124
Si Si6 0.769167 0.149498 0.235044
O O1 0.810703 0.891536 0.581358
O O2 0.799550 0.735104 0.645048
O O3 0.500000 0.829247 0.000000
O O4 0.787054 0.853409 0.781080
O O5 0.131145 0.571965 0.403531
O O6 0.421539 0.661092 0.307495
O O7 0.750000 0.750000 0.000000
O O8 0.720478 0.598539 0.040399
O O9 0.734722 0.667829 0.864818
O O10 0.182870 0.500000 0.938646
O O11 0.953019 0.616803 0.242277
O O12 0.190971 0.000000 0.546190
O O13 0.000000 0.133080 0.000000
#
# Coordination Sequence:
#
# PCOD9212344 Si02
#       6
#     8   2   8   8   8   8
#     4   9  19  42  71 103 138 179 222 269 353 431
#     4  12  30  48  76  94 126 198 246 290 338 392
#     4  12  26  44  68 102 138 176 236 287 334 405
#     4  10  21  41  68 106 143 178 220 280 345 422
#     4  10  23  42  72 107 142 178 213 285 358 413
#     4  11  27  51  71  98 138 183 238 291 338 409
#
# _framework density 25.144010999999999
#
# number of rings (size 3 to 8) (size 9 to 14) (size 15 to 20)
#    0.000    1.524    1.905    1.429    5.333    5.333 
#    3.429    1.905    0.000    0.000    0.000    0.000 
#    0.000    0.000    0.000    0.000    0.000    0.000 
#
# Total GULP energy -117269.803793 kJ/mol
# GULP energy per Si atom -5584.276371 kJ/mol
# Density = 2.508678 g / cm^3
# Si number density = 25.144011 Si / 1000 Ang^3
#
#
#
# Elastic Constant Matrix: (Units=GPa)
#
#
# Indices 1 2 3 4 5 6 
#
# 1 79.7972 -13.6867 -1.4490 -0.0013 -8.8766 0.0097
# 2 -13.6867 116.1067 36.3747 -0.0075 -0.7162 0.0194
# 3 -1.4490 36.3747 69.3347 -0.0282 -16.0139 0.0105
# 4 -0.0013 -0.0075 -0.0282 27.9073 0.0120 -10.2727
# 5 -8.8766 -0.7162 -16.0139 0.0120 41.8070 -0.0021
# 6 0.0097 0.0194 0.0105 -10.2727 -0.0021 24.1431
#
#
#
# Elastic Compliance Matrix: (Units=1/GPa)
#
#
# Indices 1 2 3 4 5 6 
#
# 1 0.013114 0.001520 0.000138 -0.000003 0.002863 -0.000007
# 2 0.001520 0.010650 -0.005967 -0.000006 -0.001780 -0.000009
# 3 0.000138 -0.005967 0.019241 0.000016 0.007297 0.000004
# 4 -0.000003 -0.000006 0.000016 0.042488 -0.000006 0.018078
# 5 0.002863 -0.001780 0.007297 -0.000006 0.027292 -0.000003
# 6 -0.000007 -0.000009 0.000004 0.018078 -0.000003 0.049112
#
#
# Mechanical properties :
#
#
# Convention : Reuss Voigt Hill
#
# Bulk Modulus (GPa) = 29.08010 34.19071 31.63541
# Shear Modulus (GPa) = 27.47600 35.03812 31.25706
#
# Velocity S-wave (km/s) = 3.30926 3.73701 3.52962
# Velocity P-wave (km/s) = 5.11782 5.67871 5.40555
#
# Compressibility (1/GPa) = 0.03438778
#
# Stress axis : x y z
#
# Youngs Moduli (GPa) = 76.25713 93.89374 51.97114
#
# Poissons Ratio (x) = -0.14275 -0.00716
# Poissons Ratio (y) = -0.11594 0.31010
# Poissons Ratio (z) = -0.01050 0.56025
#
# Static dielectric constant tensor:
#      x y z
#    x 1.973770 -0.000010 -0.037000 
#    y -0.000010 1.965290 0.000010 
#    z -0.037000 0.000010 2.043330 
# 
# From -- ./inp_files/285127.got.cif
#   From: 2010.05.17/outbox.cif.g08.bks.cpg/sg12_143_cif.got.tgz:285127.got - 2010.06.03 13:09:07.
