data_PCOD9212630
_publ_section_title
;
Structure prediction by ZEFSAII (Michael W. Deem and Ramdas Pophale) SiO2 
 PCOD9212630
Probable space group: C 2/M
;
_chemical_formula_sum "Si O2"
_cell_formula_units_Z 48
_cell_length_a 10.902021
_cell_length_b 23.708838
_cell_length_c 8.435167
_cell_angle_alpha 90.000000
_cell_angle_beta 88.800898
_cell_angle_gamma 90.000000
_cell_volume 2179.796007
_symmetry_space_group_name_H-M "C 2/M"
_symmetry_group_IT_number 12
_symmetry_cell_setting 'monoclinic'
loop_
_space_group_symop_operation_xyz
x,y,z
-x,y,-z
-x,-y,-z
x,-y,z
1/2+x,1/2+y,z
1/2-x,1/2+y,-z
1/2-x,1/2-y,-z
1/2+x,1/2-y,z
loop_
_atom_site_type_symbol
_atom_site_label
_atom_site_fract_x
_atom_site_fract_y
_atom_site_fract_z
Si Si1 0.543750 0.740997 0.677072
Si Si2 0.267330 0.657772 0.215718
Si Si3 0.115768 0.842402 0.105210
Si Si4 0.616579 0.435542 0.597161
Si Si5 0.729304 0.935239 0.713881
Si Si6 0.510811 0.859825 0.811233
O O1 0.500000 0.749780 0.500000
O O2 0.668400 0.704856 0.678995
O O3 0.439770 0.705657 0.777893
O O4 0.568092 0.799719 0.763611
O O5 0.344395 0.601865 0.257000
O O6 0.126759 0.644682 0.251200
O O7 0.287158 0.676073 0.032651
O O8 0.177394 0.893848 0.196299
O O9 0.000000 0.859199 0.000000
O O10 0.500000 0.412948 0.500000
O O11 0.587185 0.500000 0.642137
O O12 0.727608 0.434781 0.469128
O O13 0.595165 0.909124 0.740737
O O14 0.736483 0.000000 0.769875
O O15 0.500000 0.866851 0.000000
#
# Coordination Sequence:
#
# PCOD9212630 Si02
#       6
#     8   8   8   8   8   8
#     4  11  26  44  72 104 134 175 234 297 347 410
#     4  11  23  42  68 101 136 182 224 284 344 413
#     4  10  21  42  70 101 136 177 230 286 345 400
#     4  10  22  43  71 102 139 179 228 288 342 400
#     4  11  25  44  69 101 144 184 229 285 336 409
#     4  12  27  45  67  98 142 190 229 280 342 413
#
# _framework density 22.020409000000001
#
# number of rings (size 3 to 8) (size 9 to 14) (size 15 to 20)
#    0.000    1.167    1.667    5.000    4.667    4.000 
#    0.000    1.667    0.000    0.000    0.000    0.000 
#    0.000    0.000    0.000    0.000    0.000    0.000 
#
# Total GULP energy -134223.237898 kJ/mol
# GULP energy per Si atom -5592.634912 kJ/mol
# Density = 2.197029 g / cm^3
# Si number density = 22.020409 Si / 1000 Ang^3
#
#
#
# Elastic Constant Matrix: (Units=GPa)
#
#
# Indices 1 2 3 4 5 6 
#
# 1 82.3781 6.4758 11.4567 0.0000 -7.3388 0.0000
# 2 6.4758 79.2603 17.3280 0.0000 -3.3602 0.0000
# 3 11.4567 17.3280 76.1620 0.0000 -12.6706 0.0000
# 4 0.0000 0.0000 0.0000 30.4872 0.0000 3.1427
# 5 -7.3388 -3.3602 -12.6706 0.0000 21.2602 0.0000
# 6 0.0000 0.0000 0.0000 3.1427 0.0000 39.4370
#
#
#
# Elastic Compliance Matrix: (Units=1/GPa)
#
#
# Indices 1 2 3 4 5 6 
#
# 1 0.012670 -0.000628 -0.001168 0.000000 0.003578 0.000000
# 2 -0.000628 0.013310 -0.002908 0.000000 0.000154 0.000000
# 3 -0.001168 -0.002908 0.015345 0.000000 0.008283 0.000000
# 4 0.000000 0.000000 0.000000 0.033072 0.000000 -0.002636
# 5 0.003578 0.000154 0.008283 0.000000 0.053232 0.000000
# 6 0.000000 0.000000 0.000000 -0.002636 0.000000 0.025567
#
#
# Mechanical properties :
#
#
# Convention : Reuss Voigt Hill
#
# Bulk Modulus (GPa) = 31.33122 34.25793 32.79458
# Shear Modulus (GPa) = 28.86109 31.73953 30.30031
#
# Velocity S-wave (km/s) = 3.62422 3.80066 3.71349
# Velocity P-wave (km/s) = 5.63671 5.90348 5.77164
#
# Compressibility (1/GPa) = 0.03191704
#
# Stress axis : x y z
#
# Youngs Moduli (GPa) = 78.92847 75.12978 65.16713
#
# Poissons Ratio (x) = 0.04719 0.07609
# Poissons Ratio (y) = 0.04958 0.18952
# Poissons Ratio (z) = 0.09216 0.21850
#
# Static dielectric constant tensor:
#      x y z
#    x 1.865850 0.000000 -0.036030 
#    y 0.000000 1.783010 0.000000 
#    z -0.036030 0.000000 1.801460 
# 
# From -- ./inp_files/50688.got.cif
#   From: 2010.05.17/outbox.cif.g08.bks.cpg/sg12_26_cif.got.tgz:50688.got - 2010.06.03 13:09:07.
