data_PCOD9212254
_publ_section_title
;
Structure prediction by ZEFSAII (Michael W. Deem and Ramdas Pophale) SiO2 
 PCOD9212254
Probable space group: C 2/M
;
_chemical_formula_sum "Si O2"
_cell_formula_units_Z 48
_cell_length_a 18.251257
_cell_length_b 31.088582
_cell_length_c 9.230785
_cell_angle_alpha 90.000000
_cell_angle_beta 26.800149
_cell_angle_gamma 90.000000
_cell_volume 2361.528375
_symmetry_space_group_name_H-M "C 2/M"
_symmetry_group_IT_number 12
_symmetry_cell_setting 'monoclinic'
loop_
_space_group_symop_operation_xyz
x,y,z
-x,y,-z
-x,-y,-z
x,-y,z
1/2+x,1/2+y,z
1/2-x,1/2+y,-z
1/2-x,1/2-y,-z
1/2+x,1/2-y,z
loop_
_atom_site_type_symbol
_atom_site_label
_atom_site_fract_x
_atom_site_fract_y
_atom_site_fract_z
Si Si1 0.652027 0.128898 0.622828
Si Si2 0.333765 0.453085 0.382059
Si Si3 0.195743 0.794968 0.167382
Si Si4 0.829281 0.375222 0.741315
Si Si5 0.439529 0.450117 0.769597
Si Si6 0.693561 0.790610 0.691830
O O1 0.726796 0.082056 0.496006
O O2 0.631659 0.140817 0.490988
O O3 0.762898 0.165734 0.498267
O O4 0.500000 0.125659 0.000000
O O5 0.256317 0.500000 0.526894
O O6 0.399763 0.439180 0.421385
O O7 0.500000 0.456021 0.000000
O O8 0.257990 0.792121 0.224714
O O9 0.000000 0.798402 0.500000
O O10 0.250000 0.750000 0.000000
O O11 0.270059 0.835637 0.947673
O O12 0.000000 0.392322 0.500000
O O13 0.696636 0.413557 0.971153
O O14 0.500000 0.450655 0.500000
O O15 0.390654 0.500000 0.895263
O O16 0.750000 0.750000 0.500000
O O17 0.500000 0.791317 0.000000
#
# Coordination Sequence:
#
# PCOD9212254 Si02
#       6
#     8   8   8   8   8   8
#     4  11  25  41  64  95 130 173 222 276 331 395
#     4  10  21  41  66  93 128 171 223 276 328 396
#     4  12  26  45  71 102 137 177 221 276 337 401
#     4  12  25  42  65  95 135 175 221 275 334 399
#     4  10  23  42  66  96 131 173 223 275 333 401
#     4  11  24  44  67  95 132 171 218 269 324 394
#
# _framework density 20.32582
#
# number of rings (size 3 to 8) (size 9 to 14) (size 15 to 20)
#    0.000    1.000    1.667    5.000    7.000    1.333 
#    0.000    0.000    0.000    0.000    0.000    0.000 
#    0.000    0.000    0.000    0.000    0.000    0.000 
#
# Total GULP energy -133870.622649 kJ/mol
# GULP energy per Si atom -5577.942610 kJ/mol
# Density = 2.027956 g / cm^3
# Si number density = 20.325820 Si / 1000 Ang^3
#
#
#
# Elastic Constant Matrix: (Units=GPa)
#
#
# Indices 1 2 3 4 5 6 
#
# 1 166.9236 33.9402 34.5866 -0.0001 32.5129 0.0001
# 2 33.9402 123.9152 36.1733 0.0001 -1.2999 0.0000
# 3 34.5866 36.1733 76.5046 -0.0002 8.5017 0.0003
# 4 -0.0001 0.0001 -0.0002 28.3640 0.0002 2.5550
# 5 32.5129 -1.2999 8.5017 0.0002 36.9835 -0.0001
# 6 0.0001 0.0000 0.0003 2.5550 -0.0001 33.0332
#
#
#
# Elastic Compliance Matrix: (Units=1/GPa)
#
#
# Indices 1 2 3 4 5 6 
#
# 1 0.008065 -0.001660 -0.002121 0.000000 -0.006661 0.000000
# 2 -0.001660 0.009773 -0.004178 0.000000 0.002763 0.000000
# 3 -0.002121 -0.004178 0.016229 0.000000 -0.002013 0.000000
# 4 0.000000 0.000000 0.000000 0.035503 0.000000 -0.002746
# 5 -0.006661 0.002763 -0.002013 0.000000 0.033455 0.000000
# 6 0.000000 0.000000 0.000000 -0.002746 0.000000 0.030485
#
#
# Mechanical properties :
#
#
# Convention : Reuss Voigt Hill
#
# Bulk Modulus (GPa) = 55.09581 64.08263 59.58922
# Shear Modulus (GPa) = 32.15899 37.18569 34.67234
#
# Velocity S-wave (km/s) = 3.98197 4.28188 4.13465
# Velocity P-wave (km/s) = 6.95030 7.48613 7.22318
#
# Compressibility (1/GPa) = 0.01815020
#
# Stress axis : x y z
#
# Youngs Moduli (GPa) = 123.99043 102.32106 61.61787
#
# Poissons Ratio (x) = 0.16982 0.13070
# Poissons Ratio (y) = 0.20579 0.25742
# Poissons Ratio (z) = 0.26301 0.42747
#
# Static dielectric constant tensor:
#      x y z
#    x 1.699460 0.000000 -0.069300 
#    y 0.000000 1.804240 -0.000010 
#    z -0.069300 -0.000010 1.578430 
# 
# From -- ./inp_files/80625.got.cif
#   From: 2010.05.17/outbox.cif.g08.bks.cpg/sg12_41_cif.got.tgz:80625.got - 2010.06.03 13:09:07.
