data_PCOD9212464
_publ_section_title
;
Structure prediction by ZEFSAII (Michael W. Deem and Ramdas Pophale) SiO2 
 PCOD9212464
Probable space group: C 2/M
;
_chemical_formula_sum "Si O2"
_cell_formula_units_Z 56
_cell_length_a 11.396218
_cell_length_b 18.783500
_cell_length_c 23.762525
_cell_angle_alpha 90.000000
_cell_angle_beta 37.204268
_cell_angle_gamma 90.000000
_cell_volume 3075.671715
_symmetry_space_group_name_H-M "C 2/M"
_symmetry_group_IT_number 12
_symmetry_cell_setting 'monoclinic'
loop_
_space_group_symop_operation_xyz
x,y,z
-x,y,-z
-x,-y,-z
x,-y,z
1/2+x,1/2+y,z
1/2-x,1/2+y,-z
1/2-x,1/2-y,-z
1/2+x,1/2-y,z
loop_
_atom_site_type_symbol
_atom_site_label
_atom_site_fract_x
_atom_site_fract_y
_atom_site_fract_z
Si Si1 0.301366 0.210190 0.393115
Si Si2 0.478749 0.313044 0.601438
Si Si3 0.273591 0.080604 0.911884
Si Si4 0.695738 0.819942 0.195364
Si Si5 0.110684 0.182534 0.065243
Si Si6 0.783941 0.324795 0.107843
Si Si7 0.776087 0.416098 0.224946
O O1 0.406712 0.271178 0.391744
O O2 0.152831 0.169994 0.491357
O O3 0.491893 0.168105 0.302226
O O4 0.176755 0.226010 0.382779
O O5 0.360346 0.375449 0.677852
O O6 0.256006 0.108904 0.855932
O O7 0.500493 0.088025 0.840916
O O8 0.215215 0.000000 0.941859
O O9 0.151222 0.132283 0.997584
O O10 0.683638 0.751458 0.158631
O O11 0.885872 0.797450 0.157555
O O12 0.173229 0.142364 0.097496
O O13 0.250000 0.250000 0.000000
O O14 0.772379 0.373362 0.167219
O O15 0.000000 0.312709 0.000000
O O16 0.725998 0.500000 0.238166
#
# Coordination Sequence:
#
# PCOD9212464 Si02
#       7
#     8   8   8   8   8   8   8
#     4  10  22  36  66  91 121 149 199 259 301 363
#     4  10  21  42  60  95 120 151 200 253 316 353
#     4  11  23  39  57  83 121 162 197 239 298 356
#     4  12  22  36  60  87 119 155 198 247 301 356
#     4  12  23  36  56  87 119 162 203 243 293 354
#     4  12  22  36  58  86 120 157 204 247 291 350
#     4  11  23  39  61  85 121 161 198 247 302 358
#
# _framework density 18.207405000000001
#
# number of rings (size 3 to 8) (size 9 to 14) (size 15 to 20)
#    0.000    0.857    7.143    0.429    2.000    2.000 
#    0.000    2.143    0.000    0.000    0.000   13.000 
#    0.000    0.000    0.000    0.000    0.000    0.000 
#
# Total GULP energy -155884.459704 kJ/mol
# GULP energy per Si atom -5567.302132 kJ/mol
# Density = 1.816596 g / cm^3
# Si number density = 18.207405 Si / 1000 Ang^3
#
#
#
# Elastic Constant Matrix: (Units=GPa)
#
#
# Indices 1 2 3 4 5 6 
#
# 1 94.6749 16.0817 46.8975 0.0004 -5.7367 -0.0008
# 2 16.0817 68.7611 37.8720 0.0000 2.8853 0.0003
# 3 46.8975 37.8720 120.4656 -0.0015 -15.0173 -0.0028
# 4 0.0004 0.0000 -0.0015 19.9484 0.0006 0.2381
# 5 -5.7367 2.8853 -15.0173 0.0006 31.5059 0.0020
# 6 -0.0008 0.0003 -0.0028 0.2381 0.0020 18.5345
#
#
#
# Elastic Compliance Matrix: (Units=1/GPa)
#
#
# Indices 1 2 3 4 5 6 
#
# 1 0.013091 -0.000312 -0.004994 -0.000001 0.000032 0.000000
# 2 -0.000312 0.018222 -0.006190 0.000000 -0.004676 -0.000001
# 3 -0.004994 -0.006190 0.012916 0.000001 0.005814 0.000001
# 4 -0.000001 0.000000 0.000001 0.050137 -0.000001 -0.000644
# 5 0.000032 -0.004676 0.005814 -0.000001 0.034945 -0.000003
# 6 0.000000 -0.000001 0.000001 -0.000644 -0.000003 0.053962
#
#
# Mechanical properties :
#
#
# Convention : Reuss Voigt Hill
#
# Bulk Modulus (GPa) = 47.08960 53.95599 50.52279
# Shear Modulus (GPa) = 23.43621 26.20112 24.81867
#
# Velocity S-wave (km/s) = 3.59162 3.79758 3.69603
# Velocity P-wave (km/s) = 6.56648 6.99480 6.78402
#
# Compressibility (1/GPa) = 0.02123611
#
# Stress axis : x y z
#
# Youngs Moduli (GPa) = 76.38594 54.88005 77.42243
#
# Poissons Ratio (x) = 0.01714 0.38667
# Poissons Ratio (y) = 0.02386 0.47923
# Poissons Ratio (z) = 0.38150 0.33970
#
# Static dielectric constant tensor:
#      x y z
#    x 1.729050 0.000000 -0.007750 
#    y 0.000000 1.612400 0.000000 
#    z -0.007750 0.000000 1.653000 
# 
# From -- ./inp_files/336256.got.cif
#   From: 2010.05.17/outbox.cif.g08.bks.cpg/sg12_169_cif.got.tgz:336256.got - 2010.06.03 13:09:07.
