data_PCOD9212868
_publ_section_title
;
Structure prediction by ZEFSAII (Michael W. Deem and Ramdas Pophale) SiO2 
 PCOD9212868
Probable space group: C 2/M
;
_chemical_formula_sum "Si O2"
_cell_formula_units_Z 44
_cell_length_a 25.008684
_cell_length_b 13.726399
_cell_length_c 17.123091
_cell_angle_alpha 90.000000
_cell_angle_beta 158.312107
_cell_angle_gamma 90.000000
_cell_volume 2172.217554
_symmetry_space_group_name_H-M "C 2/M"
_symmetry_group_IT_number 12
_symmetry_cell_setting 'monoclinic'
loop_
_space_group_symop_operation_xyz
x,y,z
-x,y,-z
-x,-y,-z
x,-y,z
1/2+x,1/2+y,z
1/2-x,1/2+y,-z
1/2-x,1/2-y,-z
1/2+x,1/2-y,z
loop_
_atom_site_type_symbol
_atom_site_label
_atom_site_fract_x
_atom_site_fract_y
_atom_site_fract_z
Si Si1 0.905966 0.000000 0.294675
Si Si2 0.167864 0.115981 0.205607
Si Si3 0.071488 0.500000 0.840974
Si Si4 0.563974 0.801239 0.354293
Si Si5 0.924066 0.787634 0.312801
Si Si6 0.633910 0.000000 0.743794
Si Si7 0.833577 0.817808 0.972712
O O1 0.938372 0.102966 0.298932
O O2 0.000000 0.000000 0.500000
O O3 0.738655 0.000000 0.090677
O O4 0.268344 0.176230 0.401677
O O5 0.182190 0.167698 0.140976
O O6 0.211769 0.000000 0.260892
O O7 0.000000 0.117154 0.000000
O O8 0.071686 0.500000 0.746486
O O9 0.995006 0.401121 0.762984
O O10 0.495031 0.784294 0.347239
O O11 0.498925 0.709739 0.218093
O O12 0.757827 0.767190 0.108223
O O13 0.000000 0.778780 0.500000
O O14 0.500000 0.000000 0.500000
O O15 0.743129 0.090203 0.881586
#
# Coordination Sequence:
#
# PCOD9212868 Si02
#       7
#     4   8   4   8   8   4   8
#     4  10  22  34  48  80 130 164 192 230 284 369
#     4  11  25  45  66  88 117 161 216 270 317 360
#     4  12  20  34  54  89 129 160 192 236 305 369
#     4  12  23  36  63  94 124 160 206 254 309 372
#     4  11  20  35  57  89 124 165 195 233 302 377
#     4  12  22  34  56  93 136 160 195 248 301 363
#     4  12  22  37  62  93 122 165 207 248 310 374
#
# _framework density 20.255797999999999
#
# number of rings (size 3 to 8) (size 9 to 14) (size 15 to 20)
#    0.000    0.545    7.273    3.273    0.000    0.727 
#    0.000    0.000    0.000    0.000    0.000    5.091 
#    0.000    0.000    0.000    0.000    0.000    0.000 
#
# Total GULP energy -122702.126596 kJ/mol
# GULP energy per Si atom -5577.369391 kJ/mol
# Density = 2.020969 g / cm^3
# Si number density = 20.255798 Si / 1000 Ang^3
#
#
#
# Elastic Constant Matrix: (Units=GPa)
#
#
# Indices 1 2 3 4 5 6 
#
# 1 15.6908 0.0674 10.0142 0.0000 -0.7018 0.0000
# 2 0.0674 114.8410 33.0813 0.0000 2.0692 0.0000
# 3 10.0142 33.0813 161.9104 0.0000 -8.9873 0.0000
# 4 0.0000 0.0000 0.0000 34.7579 0.0000 -0.1091
# 5 -0.7018 2.0692 -8.9873 0.0000 27.9156 0.0000
# 6 0.0000 0.0000 0.0000 -0.1091 0.0000 7.5836
#
#
#
# Elastic Compliance Matrix: (Units=1/GPa)
#
#
# Indices 1 2 3 4 5 6 
#
# 1 0.066511 0.001211 -0.004351 0.000000 0.000182 0.000000
# 2 0.001211 0.009322 -0.002053 0.000000 -0.001321 0.000000
# 3 -0.004351 -0.002053 0.006992 0.000000 0.002294 0.000000
# 4 0.000000 0.000000 0.000000 0.028772 0.000000 0.000414
# 5 0.000182 -0.001321 0.002294 0.000000 0.036663 0.000000
# 6 0.000000 0.000000 0.000000 0.000414 0.000000 0.131870
#
#
# Mechanical properties :
#
#
# Convention : Reuss Voigt Hill
#
# Bulk Modulus (GPa) = 13.80456 42.08532 27.94494
# Shear Modulus (GPa) = 15.88998 30.67003 23.28001
#
# Velocity S-wave (km/s) = 2.80387 3.89541 3.39381
# Velocity P-wave (km/s) = 4.16079 6.40737 5.40215
#
# Compressibility (1/GPa) = 0.07243981
#
# Stress axis : x y z
#
# Youngs Moduli (GPa) = 15.03501 107.27117 143.01744
#
# Poissons Ratio (x) = -0.12992 0.62229
# Poissons Ratio (y) = -0.01821 0.29361
# Poissons Ratio (z) = 0.06542 0.22022
#
# Static dielectric constant tensor:
#      x y z
#    x 1.704020 0.000000 -0.049890 
#    y 0.000000 1.822630 0.000000 
#    z -0.049890 0.000000 1.854090 
# 
# From -- ./inp_files/142043.got.cif
#   From: 2010.05.17/outbox.cif.g08.bks.cpg/sg12_72_cif.got.tgz:142043.got - 2010.06.03 13:09:07.
