data_PCOD9212670
_publ_section_title
;
Structure prediction by ZEFSAII (Michael W. Deem and Ramdas Pophale) SiO2 
 PCOD9212670
Probable space group: C 2/M
;
_chemical_formula_sum "Si O2"
_cell_formula_units_Z 36
_cell_length_a 9.352035
_cell_length_b 23.549644
_cell_length_c 8.927535
_cell_angle_alpha 90.000000
_cell_angle_beta 117.227328
_cell_angle_gamma 90.000000
_cell_volume 1748.318818
_symmetry_space_group_name_H-M "C 2/M"
_symmetry_group_IT_number 12
_symmetry_cell_setting 'monoclinic'
loop_
_space_group_symop_operation_xyz
x,y,z
-x,y,-z
-x,-y,-z
x,-y,z
1/2+x,1/2+y,z
1/2-x,1/2+y,-z
1/2-x,1/2-y,-z
1/2+x,1/2-y,z
loop_
_atom_site_type_symbol
_atom_site_label
_atom_site_fract_x
_atom_site_fract_y
_atom_site_fract_z
Si Si1 0.789443 0.273603 0.769474
Si Si2 0.500000 0.342923 0.500000
Si Si3 0.978930 0.063764 0.742552
Si Si4 0.872541 0.683355 0.138214
Si Si5 0.724477 0.937265 0.889010
O O1 0.651637 0.303514 0.609380
O O2 0.745502 0.209397 0.793749
O O3 0.961084 0.282316 0.775052
O O4 0.803006 0.304067 0.939226
O O5 0.533154 0.385245 0.378329
O O6 0.835400 0.066217 0.794550
O O7 0.974037 0.000000 0.673278
O O8 0.146566 0.068150 0.914369
O O9 0.892824 0.616240 0.163865
O O10 0.649542 0.000000 0.860291
#
# Coordination Sequence:
#
# PCOD9212670 Si02
#       5
#     8   4   8   8   8
#     4  10  24  37  64  87 125 163 202 246 319 348
#     4  12  21  38  58  96 125 158 196 262 312 356
#     4   9  19  34  60  92 124 163 203 248 302 365
#     4  10  21  43  59  91 120 165 207 251 289 377
#     4   9  18  37  65  89 118 167 210 243 294 369
#
# _framework density 20.591211000000001
#
# number of rings (size 3 to 8) (size 9 to 14) (size 15 to 20)
#    0.000    2.222    2.222    1.667    3.111    2.667 
#    0.000    4.444    0.000    2.667    0.000    0.000 
#    0.000    0.000    0.000    0.000    0.000    0.000 
#
# Total GULP energy -100531.672827 kJ/mol
# GULP energy per Si atom -5585.092935 kJ/mol
# Density = 2.054434 g / cm^3
# Si number density = 20.591211 Si / 1000 Ang^3
#
#
#
# Elastic Constant Matrix: (Units=GPa)
#
#
# Indices 1 2 3 4 5 6 
#
# 1 48.1037 22.7397 13.6707 0.0000 11.5872 0.0000
# 2 22.7397 117.2117 12.1590 0.0000 -4.7605 0.0000
# 3 13.6707 12.1590 61.6752 0.0000 2.9273 0.0000
# 4 0.0000 0.0000 0.0000 31.2721 0.0000 -2.6206
# 5 11.5872 -4.7605 2.9273 0.0000 21.8420 0.0000
# 6 0.0000 0.0000 0.0000 -2.6206 0.0000 26.3332
#
#
#
# Elastic Compliance Matrix: (Units=1/GPa)
#
#
# Indices 1 2 3 4 5 6 
#
# 1 0.028566 -0.005722 -0.004454 0.000000 -0.015804 0.000000
# 2 -0.005722 0.009957 -0.000948 0.000000 0.005333 0.000000
# 3 -0.004454 -0.000948 0.017396 0.000000 -0.000175 0.000000
# 4 0.000000 0.000000 0.000000 0.032246 0.000000 0.003209
# 5 -0.015804 0.005333 -0.000175 0.000000 0.055353 0.000000
# 6 0.000000 0.000000 0.000000 0.003209 0.000000 0.038294
#
#
# Mechanical properties :
#
#
# Convention : Reuss Voigt Hill
#
# Bulk Modulus (GPa) = 29.69793 36.01437 32.85615
# Shear Modulus (GPa) = 23.22522 27.78420 25.50471
#
# Velocity S-wave (km/s) = 3.36209 3.67730 3.52322
# Velocity P-wave (km/s) = 5.43374 5.96307 5.70455
#
# Compressibility (1/GPa) = 0.03367238
#
# Stress axis : x y z
#
# Youngs Moduli (GPa) = 35.00673 100.43667 57.48346
#
# Poissons Ratio (x) = 0.57468 0.25601
# Poissons Ratio (y) = 0.20030 0.05448
# Poissons Ratio (z) = 0.15591 0.09518
#
# Static dielectric constant tensor:
#      x y z
#    x 1.727810 0.000000 -0.017130 
#    y 0.000000 1.739930 0.000000 
#    z -0.017130 0.000000 1.713810 
# 
# From -- ./inp_files/51058.got.cif
#   From: 2010.05.17/outbox.cif.g08.bks.cpg/sg12_26_cif.got.tgz:51058.got - 2010.06.03 13:09:07.
