data_PCOD9212243
_publ_section_title
;
Structure prediction by ZEFSAII (Michael W. Deem and Ramdas Pophale) SiO2 
 PCOD9212243
Probable space group: C 2/M
;
_chemical_formula_sum "Si O2"
_cell_formula_units_Z 64
_cell_length_a 30.848023
_cell_length_b 9.026580
_cell_length_c 14.655636
_cell_angle_alpha 90.000000
_cell_angle_beta 49.816398
_cell_angle_gamma 90.000000
_cell_volume 3117.723842
_symmetry_space_group_name_H-M "C 2/M"
_symmetry_group_IT_number 12
_symmetry_cell_setting 'monoclinic'
loop_
_space_group_symop_operation_xyz
x,y,z
-x,y,-z
-x,-y,-z
x,-y,z
1/2+x,1/2+y,z
1/2-x,1/2+y,-z
1/2-x,1/2-y,-z
1/2+x,1/2-y,z
loop_
_atom_site_type_symbol
_atom_site_label
_atom_site_fract_x
_atom_site_fract_y
_atom_site_fract_z
Si Si1 0.137975 0.673160 0.296846
Si Si2 0.237749 0.825804 0.920709
Si Si3 0.163594 0.820415 0.856570
Si Si4 0.582624 0.326536 0.731506
Si Si5 0.541959 0.320188 0.071109
Si Si6 0.565608 0.322084 0.247139
Si Si7 0.800205 0.677228 0.372627
Si Si8 0.940759 0.829066 0.453983
O O1 0.127317 0.500000 0.300518
O O2 0.204979 0.695119 0.215736
O O3 0.116314 0.753460 0.234915
O O4 0.102785 0.734593 0.429229
O O5 0.186186 0.777464 0.926282
O O6 0.229788 0.000000 0.949422
O O7 0.250000 0.750000 0.000000
O O8 0.199995 0.740965 0.729845
O O9 0.168720 0.000000 0.842297
O O10 0.096991 0.779662 0.937450
O O11 0.592464 0.500000 0.744389
O O12 0.523015 0.273634 0.857563
O O13 0.638335 0.231926 0.674897
O O14 0.571307 0.324741 0.637863
O O15 0.539221 0.500000 0.073300
O O16 0.558269 0.275490 0.152365
O O17 0.570669 0.500000 0.239948
O O18 0.506186 0.282998 0.376888
O O19 0.795634 0.500000 0.380733
O O20 0.750000 0.750000 0.500000
O O21 0.935754 0.000000 0.490823
#
# Coordination Sequence:
#
# PCOD9212243 Si02
#       8
#     8   8   8   8   8   8   8   8
#     4  11  22  32  47  78 117 154 196 249 304 355
#     4  10  23  40  59  86 120 159 202 249 300 355
#     4  10  21  41  66  92 122 163 209 253 303 360
#     4   9  19  39  64  92 120 152 198 250 302 359
#     4   8  16  34  64  92 117 153 201 250 297 357
#     4   9  17  33  55  81 113 154 201 244 289 349
#     4  12  27  45  65  91 123 161 202 252 307 366
#     4   9  19  34  55  82 112 150 199 246 290 352
#
# _framework density 20.527795999999999
#
# number of rings (size 3 to 8) (size 9 to 14) (size 15 to 20)
#    0.000    2.250    0.000    4.125    1.750    5.500 
#    0.000    5.625    0.000    0.000    0.000    0.000 
#    0.000    0.000    0.000    0.000    0.000    0.000 
#
# Total GULP energy -178697.243774 kJ/mol
# GULP energy per Si atom -5584.288868 kJ/mol
# Density = 2.048107 g / cm^3
# Si number density = 20.527796 Si / 1000 Ang^3
#
#
#
# Elastic Constant Matrix: (Units=GPa)
#
#
# Indices 1 2 3 4 5 6 
#
# 1 112.9488 34.3149 39.3259 0.0000 -10.9356 0.0000
# 2 34.3149 51.9561 49.6011 0.0000 -15.3646 -0.0002
# 3 39.3259 49.6011 126.9371 0.0000 -13.7028 0.0000
# 4 0.0000 0.0000 0.0000 24.4040 0.0000 -1.3285
# 5 -10.9356 -15.3646 -13.7028 0.0000 23.9600 0.0000
# 6 0.0000 -0.0002 0.0000 -1.3285 0.0000 25.4968
#
#
#
# Elastic Compliance Matrix: (Units=1/GPa)
#
#
# Indices 1 2 3 4 5 6 
#
# 1 0.011148 -0.006331 -0.000926 0.000000 0.000498 0.000000
# 2 -0.006331 0.039162 -0.011662 0.000000 0.015554 0.000000
# 3 -0.000926 -0.011662 0.012650 0.000000 -0.000667 0.000000
# 4 0.000000 0.000000 0.000000 0.041093 0.000000 0.002141
# 5 0.000498 0.015554 -0.000667 0.000000 0.051557 0.000000
# 6 0.000000 0.000000 0.000000 0.002141 0.000000 0.039332
#
#
# Mechanical properties :
#
#
# Convention : Reuss Voigt Hill
#
# Bulk Modulus (GPa) = 39.80788 59.81397 49.81093
# Shear Modulus (GPa) = 20.73371 26.01216 23.37294
#
# Velocity S-wave (km/s) = 3.18155 3.56359 3.37797
# Velocity P-wave (km/s) = 5.73852 6.79217 6.28745
#
# Compressibility (1/GPa) = 0.02512065
#
# Stress axis : x y z
#
# Youngs Moduli (GPa) = 89.70465 25.53524 79.05283
#
# Poissons Ratio (x) = 0.16167 0.07319
# Poissons Ratio (y) = 0.56795 0.92192
# Poissons Ratio (z) = 0.08305 0.29779
#
# Static dielectric constant tensor:
#      x y z
#    x 1.749690 0.000000 0.009270 
#    y 0.000000 1.682330 0.000000 
#    z 0.009270 0.000000 1.761190 
# 
# From -- ./inp_files/249848.got.cif
#   From: 2010.05.17/outbox.cif.g08.bks.cpg/sg12_125_cif.got.tgz:249848.got - 2010.06.03 13:09:07.
