data_PCOD9212182
_publ_section_title
;
Structure prediction by ZEFSAII (Michael W. Deem and Ramdas Pophale) SiO2 
 PCOD9212182
Probable space group: C 2/M
;
_chemical_formula_sum "Si O2"
_cell_formula_units_Z 48
_cell_length_a 11.586018
_cell_length_b 25.997380
_cell_length_c 12.957621
_cell_angle_alpha 90.000000
_cell_angle_beta 33.240129
_cell_angle_gamma 90.000000
_cell_volume 2139.379328
_symmetry_space_group_name_H-M "C 2/M"
_symmetry_group_IT_number 12
_symmetry_cell_setting 'monoclinic'
loop_
_space_group_symop_operation_xyz
x,y,z
-x,y,-z
-x,-y,-z
x,-y,z
1/2+x,1/2+y,z
1/2-x,1/2+y,-z
1/2-x,1/2-y,-z
1/2+x,1/2-y,z
loop_
_atom_site_type_symbol
_atom_site_label
_atom_site_fract_x
_atom_site_fract_y
_atom_site_fract_z
Si Si1 0.103875 0.085973 0.681778
Si Si2 0.377295 0.500000 0.984504
Si Si3 0.309969 0.338370 0.204571
Si Si4 0.754906 0.771513 0.687895
Si Si5 0.718350 0.134234 0.874225
Si Si6 0.382374 0.199743 0.855847
Si Si7 0.437442 0.000000 0.422510
O O1 0.211265 0.128061 0.677420
O O2 0.294356 0.049485 0.505984
O O3 0.947354 0.107597 0.710421
O O4 0.951361 0.049165 0.863690
O O5 0.137719 0.500000 0.199331
O O6 0.500000 0.500000 0.000000
O O7 0.366945 0.280836 0.196233
O O8 0.149895 0.323102 0.233749
O O9 0.500000 0.363791 0.000000
O O10 0.731341 0.815578 0.791276
O O11 0.631662 0.790664 0.680365
O O12 0.000000 0.759868 0.500000
O O13 0.500000 0.106925 0.000000
O O14 0.681603 0.155268 0.016685
O O15 0.250000 0.250000 0.000000
O O16 0.500000 0.000000 0.500000
#
# Coordination Sequence:
#
# PCOD9212182 Si02
#       7
#     8   4   8   8   8   8   4
#     4  11  24  44  72 102 128 173 225 275 342 405
#     4  11  23  48  69  96 134 163 211 281 361 393
#     4  12  21  37  65  93 124 172 229 261 320 395
#     4  11  24  40  53  90 141 180 213 275 316 372
#     4  10  21  41  65  89 129 180 224 258 319 401
#     4  11  19  37  61  81 120 179 228 262 305 380
#     4  11  25  44  69 100 139 158 212 295 346 398
#
# _framework density 22.436415
#
# number of rings (size 3 to 8) (size 9 to 14) (size 15 to 20)
#    0.000    1.000    6.667    1.000    0.000    1.333 
#    9.000    1.667    0.000    1.000    0.000    0.000 
#    0.000    0.000    0.000    0.000    0.000    0.000 
#
# Total GULP energy -133824.947149 kJ/mol
# GULP energy per Si atom -5576.039465 kJ/mol
# Density = 2.238535 g / cm^3
# Si number density = 22.436415 Si / 1000 Ang^3
#
#
#
# Elastic Constant Matrix: (Units=GPa)
#
#
# Indices 1 2 3 4 5 6 
#
# 1 138.7027 52.8702 22.6548 0.0000 -33.2619 0.0000
# 2 52.8702 96.2522 27.4719 0.0000 -14.2588 0.0000
# 3 22.6548 27.4719 115.2096 0.0000 -22.8665 0.0000
# 4 0.0000 0.0000 0.0000 6.2032 0.0000 -36.3539
# 5 -33.2619 -14.2588 -22.8665 0.0000 28.4353 0.0000
# 6 0.0000 0.0000 0.0000 -36.3539 0.0000 -32.2708
#
#
#
# Elastic Compliance Matrix: (Units=1/GPa)
#
#
# Indices 1 2 3 4 5 6 
#
# 1 0.011919 -0.005083 0.001344 0.000000 0.012474 0.000000
# 2 -0.005083 0.013734 -0.002485 0.000000 -0.001057 0.000000
# 3 0.001344 -0.002485 0.010796 0.000000 0.009008 0.000000
# 4 0.000000 0.000000 0.000000 0.021206 0.000000 -0.023889
# 5 0.012474 -0.001057 0.009008 0.000000 0.056473 0.000000
# 6 0.000000 0.000000 0.000000 -0.023889 0.000000 -0.004076
#
#
# Mechanical properties :
#
#
# Convention : Reuss Voigt Hill
#
# Bulk Modulus (GPa) = 41.66442 61.79537 51.72989
# Shear Modulus (GPa) = 38.31446 16.95137 27.63292
#
# Velocity S-wave (km/s) = 4.13690 2.75167 3.51324
# Velocity P-wave (km/s) = 6.43653 6.13986 6.28994
#
# Compressibility (1/GPa) = 0.02400129
#
# Stress axis : x y z
#
# Youngs Moduli (GPa) = 83.90034 72.81242 92.62725
#
# Poissons Ratio (x) = 0.37008 -0.12450
# Poissons Ratio (y) = 0.42643 0.23020
# Poissons Ratio (z) = -0.11277 0.18095
#
# Static dielectric constant tensor:
#      x y z
#    x 1.502430 0.000000 0.141380 
#    y 0.000000 1.868190 0.000000 
#    z 0.141380 0.000000 1.855150 
# 
# From -- ./inp_files/209339.got.cif
#   From: 2010.05.17/outbox.cif.g08.bks.cpg/sg12_105_cif.got.tgz:209339.got - 2010.06.03 13:09:07.
