data_PCOD9212445
_publ_section_title
;
Structure prediction by ZEFSAII (Michael W. Deem and Ramdas Pophale) SiO2 
 PCOD9212445
Probable space group: C 2/M
;
_chemical_formula_sum "Si O2"
_cell_formula_units_Z 48
_cell_length_a 6.477143
_cell_length_b 17.605533
_cell_length_c 21.571102
_cell_angle_alpha 90.000000
_cell_angle_beta 52.765204
_cell_angle_gamma 90.000000
_cell_volume 1958.424193
_symmetry_space_group_name_H-M "C 2/M"
_symmetry_group_IT_number 12
_symmetry_cell_setting 'monoclinic'
loop_
_space_group_symop_operation_xyz
x,y,z
-x,y,-z
-x,-y,-z
x,-y,z
1/2+x,1/2+y,z
1/2-x,1/2+y,-z
1/2-x,1/2-y,-z
1/2+x,1/2-y,z
loop_
_atom_site_type_symbol
_atom_site_label
_atom_site_fract_x
_atom_site_fract_y
_atom_site_fract_z
Si Si1 0.431021 0.580362 0.196850
Si Si2 0.136834 0.414027 0.655448
Si Si3 0.184249 0.737060 0.711414
Si Si4 0.076147 0.321704 0.551027
Si Si5 0.116130 0.688481 0.911132
Si Si6 0.331340 0.633580 0.086423
O O1 0.571568 0.500000 0.182703
O O2 0.607529 0.654877 0.158860
O O3 0.325865 0.581353 0.145968
O O4 0.179718 0.583875 0.284915
O O5 0.227971 0.500000 0.648525
O O6 0.219315 0.352850 0.692174
O O7 0.205423 0.378185 0.576670
O O8 0.334229 0.784655 0.631663
O O9 0.371719 0.753068 0.740744
O O10 0.250000 0.250000 0.500000
O O11 0.000000 0.359960 0.500000
O O12 0.073863 0.779115 0.917982
O O13 0.944713 0.649973 0.890624
O O14 0.000000 0.664218 0.000000
O O15 0.500000 0.601588 0.000000
#
# Coordination Sequence:
#
# PCOD9212445 Si02
#       6
#     8   8   8   8   8   8
#     4  11  25  43  60  93 136 172 216 272 331 397
#     4  10  24  44  63  94 141 178 217 277 348 408
#     4  10  21  41  71  99 133 174 227 276 334 401
#     4  11  20  41  74 102 133 171 225 285 331 406
#     4  11  20  40  67  93 124 167 223 280 326 384
#     4  11  20  39  66  93 124 165 224 278 326 387
#
# _framework density 24.509502000000001
#
# number of rings (size 3 to 8) (size 9 to 14) (size 15 to 20)
#    0.000    1.333    6.667    1.000    0.000    4.333 
#    6.000    5.000    0.000    0.000    0.000    0.000 
#    0.000    0.000    0.000    0.000    0.000    0.000 
#
# Total GULP energy -133699.211824 kJ/mol
# GULP energy per Si atom -5570.800493 kJ/mol
# Density = 2.445372 g / cm^3
# Si number density = 24.509502 Si / 1000 Ang^3
#
#
#
# Elastic Constant Matrix: (Units=GPa)
#
#
# Indices 1 2 3 4 5 6 
#
# 1 97.9949 19.8918 17.3804 0.0000 0.9677 0.0000
# 2 19.8918 140.9792 21.1791 0.0000 18.0867 0.0000
# 3 17.3804 21.1791 95.1745 0.0000 2.6314 0.0000
# 4 0.0000 0.0000 0.0000 25.7240 0.0000 12.0705
# 5 0.9677 18.0867 2.6314 0.0000 37.9932 0.0000
# 6 0.0000 0.0000 0.0000 12.0705 0.0000 23.2825
#
#
#
# Elastic Compliance Matrix: (Units=1/GPa)
#
#
# Indices 1 2 3 4 5 6 
#
# 1 0.010768 -0.001327 -0.001684 0.000000 0.000474 0.000000
# 2 -0.001327 0.007965 -0.001429 0.000000 -0.003659 0.000000
# 3 -0.001684 -0.001429 0.011134 0.000000 -0.000048 0.000000
# 4 0.000000 0.000000 0.000000 0.051371 0.000000 -0.026633
# 5 0.000474 -0.003659 -0.000048 0.000000 0.028054 0.000000
# 6 0.000000 0.000000 0.000000 -0.026633 0.000000 0.056758
#
#
# Mechanical properties :
#
#
# Convention : Reuss Voigt Hill
#
# Bulk Modulus (GPa) = 47.65062 50.11680 48.88371
# Shear Modulus (GPa) = 27.48390 35.77975 31.63183
#
# Velocity S-wave (km/s) = 3.35230 3.82492 3.59638
# Velocity P-wave (km/s) = 5.87093 6.32447 6.10192
#
# Compressibility (1/GPa) = 0.02098608
#
# Stress axis : x y z
#
# Youngs Moduli (GPa) = 92.86741 125.55630 89.81608
#
# Poissons Ratio (x) = 0.16663 0.15127
# Poissons Ratio (y) = 0.12325 0.12833
# Poissons Ratio (z) = 0.15641 0.17940
#
# Static dielectric constant tensor:
#      x y z
#    x 2.133740 0.000000 -0.015780 
#    y 0.000000 1.920820 0.000000 
#    z -0.015780 0.000000 1.894740 
# 
# From -- ./inp_files/300624.got.cif
#   From: 2010.05.17/outbox.cif.g08.bks.cpg/sg12_151_cif.got.tgz:300624.got - 2010.06.03 13:09:07.
