data_PCOD9212083
_publ_section_title
;
Structure prediction by ZEFSAII (Michael W. Deem and Ramdas Pophale) SiO2 
 PCOD9212083
Probable space group: C 2/M
;
_chemical_formula_sum "Si O2"
_cell_formula_units_Z 64
_cell_length_a 19.394578
_cell_length_b 9.005962
_cell_length_c 29.907867
_cell_angle_alpha 90.000000
_cell_angle_beta 35.077516
_cell_angle_gamma 90.000000
_cell_volume 3002.099652
_symmetry_space_group_name_H-M "C 2/M"
_symmetry_group_IT_number 12
_symmetry_cell_setting 'monoclinic'
loop_
_space_group_symop_operation_xyz
x,y,z
-x,y,-z
-x,-y,-z
x,-y,z
1/2+x,1/2+y,z
1/2-x,1/2+y,-z
1/2-x,1/2-y,-z
1/2+x,1/2-y,z
loop_
_atom_site_type_symbol
_atom_site_label
_atom_site_fract_x
_atom_site_fract_y
_atom_site_fract_z
Si Si1 0.271294 0.323039 0.694171
Si Si2 0.032721 0.321787 0.555251
Si Si3 0.145262 0.322676 0.855519
Si Si4 0.596507 0.676881 0.039758
Si Si5 0.353855 0.323981 0.885705
Si Si6 0.259393 0.675956 0.379778
Si Si7 0.851882 0.328693 0.798881
Si Si8 0.405011 0.171880 0.380345
O O1 0.274518 0.500000 0.689032
O O2 0.406159 0.259308 0.622689
O O3 0.204558 0.285099 0.775804
O O4 0.210051 0.255485 0.682661
O O5 0.011999 0.500000 0.567191
O O6 0.121699 0.289625 0.467128
O O7 0.102723 0.282108 0.563994
O O8 0.132086 0.500000 0.865727
O O9 0.237058 0.263052 0.843818
O O10 0.017070 0.243370 0.925293
O O11 0.608179 0.500000 0.026761
O O12 0.582323 0.703534 0.100760
O O13 0.719114 0.759464 0.961905
O O14 0.351235 0.500000 0.879519
O O15 0.405718 0.240363 0.815466
O O16 0.270343 0.500000 0.368402
O O17 0.337739 0.729811 0.379873
O O18 0.819180 0.500000 0.823608
O O19 0.954185 0.322637 0.707011
O O20 0.365473 0.000000 0.396911
#
# Coordination Sequence:
#
# PCOD9212083 Si02
#       8
#     8   8   8   8   8   8   8   8
#     4  11  24  40  60  88 121 159 202 251 304 360
#     4  10  21  41  63  86 118 158 201 250 307 361
#     4  11  24  41  62  89 122 160 203 251 301 355
#     4  10  22  41  66  95 125 161 201 242 294 353
#     4  10  22  41  65  95 129 161 197 245 294 350
#     4  11  24  38  60  89 119 157 203 252 303 363
#     4  11  23  40  64  90 121 162 203 249 300 358
#     4  10  22  40  61  87 121 158 200 251 304 357
#
# _framework density 21.318411000000001
#
# number of rings (size 3 to 8) (size 9 to 14) (size 15 to 20)
#    0.000    1.500    1.250    3.000    1.750    7.500 
#    0.000    2.500    0.000    0.000    0.000    0.000 
#    0.000    0.000    0.000    0.000    0.000    0.000 
#
# Total GULP energy -179028.750645 kJ/mol
# GULP energy per Si atom -5594.648458 kJ/mol
# Density = 2.126989 g / cm^3
# Si number density = 21.318411 Si / 1000 Ang^3
#
#
#
# Elastic Constant Matrix: (Units=GPa)
#
#
# Indices 1 2 3 4 5 6 
#
# 1 67.3541 14.2608 2.9100 0.0000 1.1558 -0.0002
# 2 14.2608 32.2115 7.0376 -0.0001 4.6949 -0.0006
# 3 2.9100 7.0376 23.0446 0.0000 3.9300 0.0000
# 4 0.0000 -0.0001 0.0000 26.0856 0.0000 -0.5737
# 5 1.1558 4.6949 3.9300 0.0000 41.6022 0.0000
# 6 -0.0002 -0.0006 0.0000 -0.5737 0.0000 38.8359
#
#
#
# Elastic Compliance Matrix: (Units=1/GPa)
#
#
# Indices 1 2 3 4 5 6 
#
# 1 0.016388 -0.007332 0.000108 0.000000 0.000362 0.000000
# 2 -0.007332 0.036878 -0.009820 0.000000 -0.003030 0.000001
# 3 0.000108 -0.009820 0.046947 0.000000 -0.003330 0.000000
# 4 0.000000 0.000000 0.000000 0.038348 0.000000 0.000566
# 5 0.000362 -0.003030 -0.003330 0.000000 0.024684 0.000000
# 6 0.000000 0.000001 0.000000 0.000566 0.000000 0.025758
#
#
# Mechanical properties :
#
#
# Convention : Reuss Voigt Hill
#
# Bulk Modulus (GPa) = 15.12255 19.00299 17.06277
# Shear Modulus (GPa) = 20.39718 27.86486 24.13102
#
# Velocity S-wave (km/s) = 3.09655 3.61928 3.36807
# Velocity P-wave (km/s) = 4.46026 5.13798 4.81107
#
# Compressibility (1/GPa) = 0.06612644
#
# Stress axis : x y z
#
# Youngs Moduli (GPa) = 61.01873 27.11647 21.30055
#
# Poissons Ratio (x) = 0.19881 -0.00230
# Poissons Ratio (y) = 0.44738 0.20916
# Poissons Ratio (z) = -0.00659 0.26627
#
# Static dielectric constant tensor:
#      x y z
#    x 1.758030 0.000000 0.010520 
#    y 0.000000 1.706300 0.000000 
#    z 0.010520 0.000000 1.781570 
# 
# From -- ./inp_files/378178.got.cif
#   From: 2010.05.17/outbox.cif.g08.bks.cpg/sg12_190_cif.got.tgz:378178.got - 2010.06.03 13:09:07.
