data_PCOD9212766
_publ_section_title
;
Structure prediction by ZEFSAII (Michael W. Deem and Ramdas Pophale) SiO2 
 PCOD9212766
Probable space group: C 2/M
;
_chemical_formula_sum "Si O2"
_cell_formula_units_Z 36
_cell_length_a 11.484678
_cell_length_b 25.068464
_cell_length_c 6.638097
_cell_angle_alpha 90.000000
_cell_angle_beta 113.354078
_cell_angle_gamma 90.000000
_cell_volume 1754.555812
_symmetry_space_group_name_H-M "C 2/M"
_symmetry_group_IT_number 12
_symmetry_cell_setting 'monoclinic'
loop_
_space_group_symop_operation_xyz
x,y,z
-x,y,-z
-x,-y,-z
x,-y,z
1/2+x,1/2+y,z
1/2-x,1/2+y,-z
1/2-x,1/2-y,-z
1/2+x,1/2-y,z
loop_
_atom_site_type_symbol
_atom_site_label
_atom_site_fract_x
_atom_site_fract_y
_atom_site_fract_z
Si Si1 0.296182 0.882515 0.659189
Si Si2 0.344896 0.500000 0.879549
Si Si3 0.307889 0.191705 0.056546
Si Si4 0.154979 0.500000 0.131061
Si Si5 0.366796 0.382858 0.791089
Si Si6 0.500000 0.161602 0.500000
O O1 0.310180 0.943300 0.742819
O O2 0.160280 0.868450 0.460943
O O3 0.399171 0.873430 0.553875
O O4 0.323449 0.841179 0.859777
O O5 0.318694 0.443855 0.758637
O O6 0.500000 0.500000 0.000000
O O7 0.250718 0.500000 0.005562
O O8 0.215564 0.155437 0.126969
O O9 0.433300 0.195236 0.279017
O O10 0.250000 0.250000 0.000000
O O11 0.000000 0.500000 0.000000
O O12 0.500000 0.382584 0.000000
#
# Coordination Sequence:
#
# PCOD9212766 Si02
#       6
#     8   4   8   4   8   4
#     4  11  24  42  66 100 132 174 222 279 341 399
#     4  10  21  44  64  97 143 176 222 282 344 403
#     4  11  24  42  66  95 129 172 225 273 337 398
#     4  12  23  39  74 100 136 180 232 279 339 415
#     4  10  23  42  64  93 134 174 220 275 331 407
#     4  10  24  43  66  94 138 169 212 288 340 396
#
# _framework density 20.518014999999998
#
# number of rings (size 3 to 8) (size 9 to 14) (size 15 to 20)
#    0.000    1.333    2.222    2.667    3.111    8.444 
#    0.000    2.222    0.000    0.000    0.000    0.000 
#    0.000    0.000    0.000    0.000    0.000    0.000 
#
# Total GULP energy -100217.937925 kJ/mol
# GULP energy per Si atom -5567.663218 kJ/mol
# Density = 2.047132 g / cm^3
# Si number density = 20.518015 Si / 1000 Ang^3
#
#
#
# Elastic Constant Matrix: (Units=GPa)
#
#
# Indices 1 2 3 4 5 6 
#
# 1 77.0676 27.5795 56.4215 0.0000 10.4522 0.0000
# 2 27.5795 112.4370 50.6859 0.0000 -0.3231 0.0000
# 3 56.4215 50.6859 182.0089 0.0000 19.1514 0.0000
# 4 0.0000 0.0000 0.0000 658.6004 0.0000 -170.8521
# 5 10.4522 -0.3231 19.1514 0.0000 33.5647 0.0000
# 6 0.0000 0.0000 0.0000 -170.8521 0.0000 74.3721
#
#
#
# Elastic Compliance Matrix: (Units=1/GPa)
#
#
# Indices 1 2 3 4 5 6 
#
# 1 0.017458 -0.002274 -0.004473 0.000000 -0.002906 0.000000
# 2 -0.002274 0.010573 -0.002473 0.000000 0.002221 0.000000
# 3 -0.004473 -0.002473 0.007900 0.000000 -0.003138 0.000000
# 4 0.000000 0.000000 0.000000 0.003758 0.000000 0.008633
# 5 -0.002906 0.002221 -0.003138 0.000000 0.032510 0.000000
# 6 0.000000 0.000000 0.000000 0.008633 0.000000 0.033278
#
#
# Mechanical properties :
#
#
# Convention : Reuss Voigt Hill
#
# Bulk Modulus (GPa) = 57.17365 71.20970 64.19168
# Shear Modulus (GPa) = 38.53650 169.09590 103.81620
#
# Velocity S-wave (km/s) = 4.33850 9.08803 7.12091
# Velocity P-wave (km/s) = 7.28164 12.03762 9.94803
#
# Compressibility (1/GPa) = 0.01749057
#
# Stress axis : x y z
#
# Youngs Moduli (GPa) = 57.27962 94.58096 126.58751
#
# Poissons Ratio (x) = 0.21511 0.56619
# Poissons Ratio (y) = 0.13027 0.31306
# Poissons Ratio (z) = 0.25620 0.23390
#
# Static dielectric constant tensor:
#      x y z
#    x 1.155130 0.000000 0.075790 
#    y 0.000000 1.670720 0.000000 
#    z 0.075790 0.000000 1.832440 
# 
# From -- ./inp_files/7520.got.cif
#   From: 2010.05.17/outbox.cif.g08.bks.cpg/sg12_4_cif.got.tgz:7520.got - 2010.06.03 13:09:07.
