data_PCOD9212009
_publ_section_title
;
Structure prediction by ZEFSAII (Michael W. Deem and Ramdas Pophale) SiO2 
 PCOD9212009
Probable space group: C 2/M
;
_chemical_formula_sum "Si O2"
_cell_formula_units_Z 34
_cell_length_a 23.803275
_cell_length_b 7.706049
_cell_length_c 20.026134
_cell_angle_alpha 90.000000
_cell_angle_beta 154.598609
_cell_angle_gamma 90.000000
_cell_volume 1575.721360
_symmetry_space_group_name_H-M "C 2/M"
_symmetry_group_IT_number 12
_symmetry_cell_setting 'monoclinic'
loop_
_space_group_symop_operation_xyz
x,y,z
-x,y,-z
-x,-y,-z
x,-y,z
1/2+x,1/2+y,z
1/2-x,1/2+y,-z
1/2-x,1/2-y,-z
1/2+x,1/2-y,z
loop_
_atom_site_type_symbol
_atom_site_label
_atom_site_fract_x
_atom_site_fract_y
_atom_site_fract_z
Si Si1 0.129696 0.206330 0.322812
Si Si2 0.663131 0.707587 0.970876
Si Si3 0.663996 0.702102 0.718983
Si Si4 0.500000 0.000000 0.500000
Si Si5 0.363335 0.205487 0.824203
O O1 0.250000 0.250000 0.500000
O O2 0.148595 0.268850 0.267219
O O3 0.987499 0.269328 0.195675
O O4 0.122681 0.000000 0.312022
O O5 0.661525 0.500000 0.977770
O O6 0.750000 0.750000 0.000000
O O7 0.732132 0.787579 0.109648
O O8 0.624000 0.500000 0.670052
O O9 0.551234 0.843520 0.606260
O O10 0.741143 0.771092 0.735925
O O11 0.364195 0.000000 0.839018
O O12 0.500000 0.277974 0.000000
#
# Coordination Sequence:
#
# PCOD9212009 Si02
#       5
#     8   8   8   2   8
#     4  11  25  42  68 101 139 179 232 290 348 415
#     4  11  24  44  69  99 138 189 236 286 353 427
#     4  11  24  44  71 103 137 183 232 286 347 417
#     4  12  26  44  66  98 148 176 238 282 342 404
#     4  10  21  40  71 100 131 172 223 281 346 414
#
# _framework density 21.57742
#
# number of rings (size 3 to 8) (size 9 to 14) (size 15 to 20)
#    0.000    1.176    3.529    1.765    1.647    5.176 
#    0.000    2.353    0.000    0.000    0.000    0.000 
#    0.000    0.000    0.000    0.000    0.000    0.000 
#
# Total GULP energy -94745.460476 kJ/mol
# GULP energy per Si atom -5573.262381 kJ/mol
# Density = 2.152831 g / cm^3
# Si number density = 21.577420 Si / 1000 Ang^3
#
#
#
# Elastic Constant Matrix: (Units=GPa)
#
#
# Indices 1 2 3 4 5 6 
#
# 1 130.9084 -9.5167 49.5190 0.0000 -1.2044 0.0000
# 2 -9.5167 104.0950 11.1504 0.0000 8.9964 0.0000
# 3 49.5190 11.1504 160.0906 0.0000 -6.4980 0.0000
# 4 0.0000 0.0000 0.0000 27.1685 0.0000 -14.8785
# 5 -1.2044 8.9964 -6.4980 0.0000 23.3750 0.0000
# 6 0.0000 0.0000 0.0000 -14.8785 0.0000 23.1744
#
#
#
# Elastic Compliance Matrix: (Units=1/GPa)
#
#
# Indices 1 2 3 4 5 6 
#
# 1 0.008788 0.001175 -0.002832 0.000000 -0.000787 0.000000
# 2 0.001175 0.010212 -0.001246 0.000000 -0.004216 0.000000
# 3 -0.002832 -0.001246 0.007305 0.000000 0.002364 0.000000
# 4 0.000000 0.000000 0.000000 0.056766 0.000000 0.036446
# 5 -0.000787 -0.004216 0.002364 0.000000 0.045020 0.000000
# 6 0.000000 0.000000 0.000000 0.036446 0.000000 0.066550
#
#
# Mechanical properties :
#
#
# Convention : Reuss Voigt Hill
#
# Bulk Modulus (GPa) = 48.78232 55.26662 52.02447
# Shear Modulus (GPa) = 24.12178 37.67298 30.89738
#
# Velocity S-wave (km/s) = 3.34715 4.18298 3.78819
# Velocity P-wave (km/s) = 6.13148 6.99990 6.58003
#
# Compressibility (1/GPa) = 0.02049923
#
# Stress axis : x y z
#
# Youngs Moduli (GPa) = 113.78591 97.92565 136.88788
#
# Poissons Ratio (x) = -0.11505 0.38769
# Poissons Ratio (y) = -0.13368 0.17053
# Poissons Ratio (z) = 0.32226 0.12199
#
# Static dielectric constant tensor:
#      x y z
#    x 1.773490 0.000000 0.076320 
#    y 0.000000 1.793750 0.000000 
#    z 0.076320 0.000000 1.855780 
# 
# From -- ./inp_files/282336.got.cif
#   From: 2010.05.17/outbox.cif.g08.bks.cpg/sg12_142_cif.got.tgz:282336.got - 2010.06.03 13:09:07.
