data_PCOD9212217
_publ_section_title
;
Structure prediction by ZEFSAII (Michael W. Deem and Ramdas Pophale) SiO2 
 PCOD9212217
Probable space group: C 2/M
;
_chemical_formula_sum "Si O2"
_cell_formula_units_Z 48
_cell_length_a 9.311053
_cell_length_b 22.732475
_cell_length_c 11.387647
_cell_angle_alpha 90.000000
_cell_angle_beta 110.644939
_cell_angle_gamma 90.000000
_cell_volume 2255.562167
_symmetry_space_group_name_H-M "C 2/M"
_symmetry_group_IT_number 12
_symmetry_cell_setting 'monoclinic'
loop_
_space_group_symop_operation_xyz
x,y,z
-x,y,-z
-x,-y,-z
x,-y,z
1/2+x,1/2+y,z
1/2-x,1/2+y,-z
1/2-x,1/2-y,-z
1/2+x,1/2-y,z
loop_
_atom_site_type_symbol
_atom_site_label
_atom_site_fract_x
_atom_site_fract_y
_atom_site_fract_z
Si Si1 0.382652 0.430836 0.170099
Si Si2 0.602585 0.085643 0.921077
Si Si3 0.176508 0.342503 0.244975
Si Si4 0.171396 0.771038 0.094430
Si Si5 0.668311 0.812368 0.505986
Si Si6 0.731298 0.390030 0.243056
O O1 0.362638 0.500000 0.191338
O O2 0.311696 0.386840 0.246363
O O3 0.561807 0.418143 0.200599
O O4 0.271187 0.415197 0.028453
O O5 0.482580 0.138410 0.862263
O O6 0.647907 0.069774 0.797337
O O7 0.500000 0.057465 0.000000
O O8 0.203600 0.277355 0.203401
O O9 0.158655 0.343771 0.377926
O O10 0.224761 0.832613 0.158984
O O11 0.250000 0.750000 0.000000
O O12 0.000000 0.777227 0.000000
O O13 0.500000 0.795687 0.500000
O O14 0.750000 0.750000 0.500000
O O15 0.730568 0.859783 0.619792
#
# Coordination Sequence:
#
# PCOD9212217 Si02
#       6
#     8   8   8   8   8   8
#     4  11  26  46  72 104 141 189 238 298 363 424
#     4  10  21  41  65  96 134 177 231 290 353 413
#     4  11  23  43  67 101 142 182 242 284 357 427
#     4  12  22  34  60  96 136 173 216 283 353 410
#     4  12  27  45  70 103 146 193 233 291 356 431
#     4  12  24  42  67 101 144 181 243 291 354 428
#
# _framework density 21.280726000000001
#
# number of rings (size 3 to 8) (size 9 to 14) (size 15 to 20)
#    0.000    0.667    3.333    7.000    2.333    4.333 
#    0.000    1.667    0.000    1.000    0.000    0.000 
#    0.000    0.000    0.000    0.000    0.000    0.000 
#
# Total GULP energy -133624.799240 kJ/mol
# GULP energy per Si atom -5567.699968 kJ/mol
# Density = 2.123229 g / cm^3
# Si number density = 21.280726 Si / 1000 Ang^3
#
#
#
# Elastic Constant Matrix: (Units=GPa)
#
#
# Indices 1 2 3 4 5 6 
#
# 1 115.8780 22.7581 25.8447 0.0000 -7.7401 0.0000
# 2 22.7581 110.4316 25.3196 0.0000 -6.7161 0.0000
# 3 25.8447 25.3196 133.7573 0.0000 -27.1647 0.0000
# 4 0.0000 0.0000 0.0000 78.4080 0.0000 12.2984
# 5 -7.7401 -6.7161 -27.1647 0.0000 37.8826 0.0000
# 6 0.0000 0.0000 0.0000 12.2984 0.0000 -19.5030
#
#
#
# Elastic Compliance Matrix: (Units=1/GPa)
#
#
# Indices 1 2 3 4 5 6 
#
# 1 0.009284 -0.001561 -0.001369 0.000000 0.000639 0.000000
# 2 -0.001561 0.009735 -0.001470 0.000000 0.000353 0.000000
# 3 -0.001369 -0.001470 0.009257 0.000000 0.006098 0.000000
# 4 0.000000 0.000000 0.000000 0.011606 0.000000 0.007319
# 5 0.000639 0.000353 0.006098 0.000000 0.030963 0.000000
# 6 0.000000 0.000000 0.000000 0.007319 0.000000 -0.046659
#
#
# Mechanical properties :
#
#
# Convention : Reuss Voigt Hill
#
# Bulk Modulus (GPa) = 51.33732 56.43465 53.88598
# Shear Modulus (GPa) = 126.65363 38.43382 82.54372
#
# Velocity S-wave (km/s) = 7.72301 4.25436 6.23476
# Velocity P-wave (km/s) = 10.18345 7.12106 8.78670
#
# Compressibility (1/GPa) = 0.01947901
#
# Stress axis : x y z
#
# Youngs Moduli (GPa) = 107.70964 102.71762 108.02259
#
# Poissons Ratio (x) = 0.16031 0.14786
# Poissons Ratio (y) = 0.16810 0.15875
# Poissons Ratio (z) = 0.14743 0.15095
#
# Static dielectric constant tensor:
#      x y z
#    x 1.790720 0.000000 -0.025260 
#    y 0.000000 2.101430 0.000000 
#    z -0.025260 0.000000 1.792700 
# 
# From -- ./inp_files/122571.got.cif
#   From: 2010.05.17/outbox.cif.g08.bks.cpg/sg12_62_cif.got.tgz:122571.got - 2010.06.03 13:09:07.
