data_PCOD9212563
_publ_section_title
;
Structure prediction by ZEFSAII (Michael W. Deem and Ramdas Pophale) SiO2 
 PCOD9212563
Probable space group: C 2/M
;
_chemical_formula_sum "Si O2"
_cell_formula_units_Z 50
_cell_length_a 27.729440
_cell_length_b 19.411372
_cell_length_c 4.952618
_cell_angle_alpha 90.000000
_cell_angle_beta 63.940078
_cell_angle_gamma 90.000000
_cell_volume 2394.807048
_symmetry_space_group_name_H-M "C 2/M"
_symmetry_group_IT_number 12
_symmetry_cell_setting 'monoclinic'
loop_
_space_group_symop_operation_xyz
x,y,z
-x,y,-z
-x,-y,-z
x,-y,z
1/2+x,1/2+y,z
1/2-x,1/2+y,-z
1/2-x,1/2-y,-z
1/2+x,1/2-y,z
loop_
_atom_site_type_symbol
_atom_site_label
_atom_site_fract_x
_atom_site_fract_y
_atom_site_fract_z
Si Si1 0.536817 0.798876 0.667528
Si Si2 0.891397 0.420288 0.307442
Si Si3 0.889234 0.825110 0.446521
Si Si4 0.236263 0.798475 0.283065
Si Si5 0.948340 0.875324 0.772809
Si Si6 0.000000 0.000000 0.000000
Si Si7 0.180922 0.419654 0.010647
O O1 0.500000 0.811521 0.500000
O O2 0.562805 0.868887 0.713915
O O3 0.585774 0.745887 0.499833
O O4 0.500000 0.770192 0.000000
O O5 0.907980 0.500000 0.287442
O O6 0.869758 0.406315 0.061085
O O7 0.840614 0.410751 0.632993
O O8 0.825966 0.819351 0.571291
O O9 0.907957 0.883160 0.617407
O O10 0.915913 0.837785 0.089545
O O11 0.250000 0.750000 0.500000
O O12 0.272803 0.866519 0.177263
O O13 0.250000 0.750000 0.000000
O O14 0.000000 0.840157 0.500000
O O15 0.974080 0.940324 0.861897
O O16 0.196452 0.500000 0.933562
#
# Coordination Sequence:
#
# PCOD9212563 Si02
#       7
#     8   8   8   8   8   2   8
#     4  12  24  37  60  92 128 167 208 258 314 371
#     4  10  22  41  66  92 124 167 207 252 317 388
#     4  12  25  41  66  98 132 175 221 277 329 393
#     4  12  25  44  70  99 134 172 223 277 332 398
#     4  12  24  44  67  94 131 175 225 267 333 404
#     4  12  26  44  74  92 130 192 216 276 346 408
#     4  10  21  42  67  92 126 166 210 260 322 383
#
# _framework density 20.878506999999999
#
# number of rings (size 3 to 8) (size 9 to 14) (size 15 to 20)
#    0.000    0.640    1.600    7.440    0.000    0.640 
#    2.880    0.000    0.000    0.000    0.000    0.000 
#    0.000    0.000    0.000    0.000    0.000    0.000 
#
# Total GULP energy -139521.313307 kJ/mol
# GULP energy per Si atom -5580.852532 kJ/mol
# Density = 2.083099 g / cm^3
# Si number density = 20.878507 Si / 1000 Ang^3
#
#
#
# Elastic Constant Matrix: (Units=GPa)
#
#
# Indices 1 2 3 4 5 6 
#
# 1 98.2909 31.8231 31.3122 0.0000 3.4583 0.0000
# 2 31.8231 66.0243 13.1008 0.0000 -11.4644 0.0000
# 3 31.3122 13.1008 98.3471 0.0000 16.1427 0.0000
# 4 0.0000 0.0000 0.0000 21.9260 0.0000 5.2217
# 5 3.4583 -11.4644 16.1427 0.0000 39.1399 0.0000
# 6 0.0000 0.0000 0.0000 5.2217 0.0000 39.5178
#
#
#
# Elastic Compliance Matrix: (Units=1/GPa)
#
#
# Indices 1 2 3 4 5 6 
#
# 1 0.013174 -0.006014 -0.003125 0.000000 -0.001637 0.000000
# 2 -0.006014 0.019637 -0.001858 0.000000 0.007050 0.000000
# 3 -0.003125 -0.001858 0.012286 0.000000 -0.005335 0.000000
# 4 0.000000 0.000000 0.000000 0.047090 0.000000 -0.006222
# 5 -0.001637 0.007050 -0.005335 0.000000 0.029959 0.000000
# 6 0.000000 0.000000 0.000000 -0.006222 0.000000 0.026127
#
#
# Mechanical properties :
#
#
# Convention : Reuss Voigt Hill
#
# Bulk Modulus (GPa) = 43.28271 46.12606 44.70439
# Shear Modulus (GPa) = 28.09477 32.54517 30.31997
#
# Velocity S-wave (km/s) = 3.67226 3.95243 3.81492
# Velocity P-wave (km/s) = 6.22547 6.55511 6.39242
#
# Compressibility (1/GPa) = 0.02310391
#
# Stress axis : x y z
#
# Youngs Moduli (GPa) = 75.90716 50.92305 81.39210
#
# Poissons Ratio (x) = 0.30625 0.25432
# Poissons Ratio (y) = 0.45650 0.15125
# Poissons Ratio (z) = 0.23718 0.09463
#
# Static dielectric constant tensor:
#      x y z
#    x 1.727630 0.000000 0.009610 
#    y 0.000000 1.741890 0.000000 
#    z 0.009610 0.000000 1.747060 
# 
# From -- ./inp_files/28729.got.cif
#   From: 2010.05.17/outbox.cif.g08.bks.cpg/sg12_15_cif.got.tgz:28729.got - 2010.06.03 13:09:07.
