data_PCOD9212499
_publ_section_title
;
Structure prediction by ZEFSAII (Michael W. Deem and Ramdas Pophale) SiO2 
 PCOD9212499
Probable space group: C 2/M
;
_chemical_formula_sum "Si O2"
_cell_formula_units_Z 44
_cell_length_a 19.476119
_cell_length_b 14.350047
_cell_length_c 9.801495
_cell_angle_alpha 90.000000
_cell_angle_beta 42.849371
_cell_angle_gamma 90.000000
_cell_volume 1862.961107
_symmetry_space_group_name_H-M "C 2/M"
_symmetry_group_IT_number 12
_symmetry_cell_setting 'monoclinic'
loop_
_space_group_symop_operation_xyz
x,y,z
-x,y,-z
-x,-y,-z
x,-y,z
1/2+x,1/2+y,z
1/2-x,1/2+y,-z
1/2-x,1/2-y,-z
1/2+x,1/2-y,z
loop_
_atom_site_type_symbol
_atom_site_label
_atom_site_fract_x
_atom_site_fract_y
_atom_site_fract_z
Si Si1 0.600009 0.105263 0.912581
Si Si2 0.000000 0.742042 0.500000
Si Si3 0.229572 0.858375 0.549725
Si Si4 0.560319 0.392839 0.592810
Si Si5 0.690414 0.108726 0.269719
Si Si6 0.757538 0.111778 0.885104
O O1 0.683571 0.097591 0.672297
O O2 0.658125 0.150808 0.954057
O O3 0.569141 0.000000 0.000497
O O4 0.500000 0.152797 0.000000
O O5 0.013417 0.810922 0.348445
O O6 0.907013 0.674753 0.596945
O O7 0.250000 0.750000 0.500000
O O8 0.119952 0.883099 0.648217
O O9 0.249719 0.882253 0.676438
O O10 0.522635 0.500000 0.633873
O O11 0.648982 0.374588 0.351456
O O12 0.660370 0.000000 0.299809
O O13 0.757992 0.137543 0.041539
O O14 0.746395 0.000000 0.899642
#
# Coordination Sequence:
#
# PCOD9212499 Si02
#       6
#     8   4   8   8   8   8
#     4   9  18  33  55  81 113 152 192 234 287 344
#     4  12  24  36  58  94 122 148 198 238 292 348
#     4  11  21  39  58  86 119 154 199 236 282 354
#     4  10  21  42  64  83 115 158 202 240 281 340
#     4  11  23  39  60  88 123 152 184 244 305 346
#     4   8  18  36  58  82 111 154 195 233 289 348
#
# _framework density 23.618314000000002
#
# number of rings (size 3 to 8) (size 9 to 14) (size 15 to 20)
#    0.000    2.000    1.818    3.273    2.545    0.727 
#    0.000    0.000    0.000    0.000    0.000    5.091 
#    0.000    0.000    0.000    0.000    0.000    0.000 
#
# Total GULP energy -122831.380803 kJ/mol
# GULP energy per Si atom -5583.244582 kJ/mol
# Density = 2.356456 g / cm^3
# Si number density = 23.618314 Si / 1000 Ang^3
#
#
#
# Elastic Constant Matrix: (Units=GPa)
#
#
# Indices 1 2 3 4 5 6 
#
# 1 154.5256 29.9361 49.2084 0.0000 39.6774 0.0000
# 2 29.9361 146.1335 8.3365 0.0000 2.2358 0.0000
# 3 49.2084 8.3365 58.3288 0.0000 33.4838 0.0000
# 4 0.0000 0.0000 0.0000 -5.5844 0.0000 -5.6307
# 5 39.6774 2.2358 33.4838 0.0000 37.3288 0.0000
# 6 0.0000 0.0000 0.0000 -5.6307 0.0000 27.9591
#
#
#
# Elastic Compliance Matrix: (Units=1/GPa)
#
#
# Indices 1 2 3 4 5 6 
#
# 1 0.009838 -0.001668 -0.004362 0.000000 -0.006445 0.000000
# 2 -0.001668 0.007199 -0.000808 0.000000 0.002067 0.000000
# 3 -0.004362 -0.000808 0.037623 0.000000 -0.029063 0.000000
# 4 0.000000 0.000000 0.000000 -0.148844 0.000000 -0.029976
# 5 -0.006445 0.002067 -0.029063 0.000000 0.059585 0.000000
# 6 0.000000 0.000000 0.000000 -0.029976 0.000000 0.029730
#
#
# Mechanical properties :
#
#
# Convention : Reuss Voigt Hill
#
# Bulk Modulus (GPa) = 24.39929 59.32778 41.86353
# Shear Modulus (GPa) = 222.52905 30.04116 126.28511
#
# Velocity S-wave (km/s) = 9.71717 3.57030 7.32019
# Velocity P-wave (km/s) = 11.67266 6.49384 9.44513
#
# Compressibility (1/GPa) = 0.04098480
#
# Stress axis : x y z
#
# Youngs Moduli (GPa) = 101.64160 138.90363 26.57923
#
# Poissons Ratio (x) = 0.23169 0.11594
# Poissons Ratio (y) = 0.16954 0.02148
# Poissons Ratio (z) = 0.44337 0.11224
#
# Static dielectric constant tensor:
#      x y z
#    x 2.019780 0.000000 -0.032930 
#    y 0.000000 1.890310 0.000000 
#    z -0.032930 0.000000 1.914010 
# 
# From -- ./inp_files/73529.got.cif
#   From: 2010.05.17/outbox.cif.g08.bks.cpg/sg12_37_cif.got.tgz:73529.got - 2010.06.03 13:09:07.
