data_PCOD9212432
_publ_section_title
;
Structure prediction by ZEFSAII (Michael W. Deem and Ramdas Pophale) SiO2 
 PCOD9212432
Probable space group: C 2/M
;
_chemical_formula_sum "Si O2"
_cell_formula_units_Z 64
_cell_length_a 21.214793
_cell_length_b 14.497575
_cell_length_c 15.958361
_cell_angle_alpha 90.000000
_cell_angle_beta 35.844794
_cell_angle_gamma 90.000000
_cell_volume 2874.201935
_symmetry_space_group_name_H-M "C 2/M"
_symmetry_group_IT_number 12
_symmetry_cell_setting 'monoclinic'
loop_
_space_group_symop_operation_xyz
x,y,z
-x,y,-z
-x,-y,-z
x,-y,z
1/2+x,1/2+y,z
1/2-x,1/2+y,-z
1/2-x,1/2-y,-z
1/2+x,1/2-y,z
loop_
_atom_site_type_symbol
_atom_site_label
_atom_site_fract_x
_atom_site_fract_y
_atom_site_fract_z
Si Si1 0.484179 0.893039 0.727419
Si Si2 0.392156 0.733939 0.931465
Si Si3 0.411818 0.389520 0.756574
Si Si4 0.881036 0.401705 0.663016
Si Si5 0.444551 0.606204 0.149851
Si Si6 0.272459 0.111594 0.541481
Si Si7 0.211855 0.208861 0.258281
Si Si8 0.330121 0.610808 0.526033
O O1 0.439906 0.828168 0.845855
O O2 0.401110 0.888107 0.739921
O O3 0.604935 0.859599 0.574510
O O4 0.491149 0.000000 0.744592
O O5 0.355573 0.671266 0.890936
O O6 0.485895 0.671435 0.867749
O O7 0.312054 0.762704 0.091695
O O8 0.395431 0.500000 0.784730
O O9 0.364222 0.353519 0.719908
O O10 0.540918 0.370614 0.617771
O O11 0.822328 0.500000 0.710601
O O12 0.838156 0.308777 0.671746
O O13 0.000000 0.412167 0.500000
O O14 0.451685 0.500000 0.172587
O O15 0.320414 0.635337 0.291843
O O16 0.500000 0.609369 0.000000
O O17 0.228642 0.140173 0.496849
O O18 0.277017 0.000000 0.536997
O O19 0.221596 0.157173 0.336152
O O20 0.319226 0.500000 0.544303
#
# Coordination Sequence:
#
# PCOD9212432 Si02
#       8
#     8   8   8   8   8   8   8   8
#     4  10  23  42  65  90 124 170 218 265 319 384
#     4  12  25  41  60  95 131 167 217 261 323 391
#     4  11  22  41  67  94 126 168 215 270 326 383
#     4  10  22  40  62  90 127 169 215 265 316 380
#     4  10  22  42  65  94 132 166 208 268 324 383
#     4   9  19  41  70  96 123 165 216 265 325 384
#     4  12  25  39  61  96 133 167 214 265 325 388
#     4  10  21  41  70  99 125 162 217 274 325 380
#
# _framework density 22.267050000000001
#
# number of rings (size 3 to 8) (size 9 to 14) (size 15 to 20)
#    0.000    1.500    2.500    2.250    0.000    5.500 
#    0.000    2.500    0.000    2.625    0.000    0.000 
#    0.000    0.000    0.000    0.000    0.000    0.000 
#
# Total GULP energy -178929.181502 kJ/mol
# GULP energy per Si atom -5591.536922 kJ/mol
# Density = 2.221637 g / cm^3
# Si number density = 22.267050 Si / 1000 Ang^3
#
#
#
# Elastic Constant Matrix: (Units=GPa)
#
#
# Indices 1 2 3 4 5 6 
#
# 1 65.9696 44.9149 16.1521 0.0000 7.7455 0.0000
# 2 44.9149 116.0786 50.0528 0.0000 10.5768 0.0000
# 3 16.1521 50.0528 103.6402 0.0000 27.5533 0.0000
# 4 0.0000 0.0000 0.0000 30.3004 0.0000 7.7905
# 5 7.7455 10.5768 27.5533 0.0000 23.0272 0.0000
# 6 0.0000 0.0000 0.0000 7.7905 0.0000 43.6819
#
#
#
# Elastic Compliance Matrix: (Units=1/GPa)
#
#
# Indices 1 2 3 4 5 6 
#
# 1 0.021215 -0.008751 0.002564 0.000000 -0.006185 0.000000
# 2 -0.008751 0.014547 -0.006845 0.000000 0.004453 0.000000
# 3 0.002564 -0.006845 0.017523 0.000000 -0.018685 0.000000
# 4 0.000000 0.000000 0.000000 0.034589 0.000000 -0.006169
# 5 -0.006185 0.004453 -0.018685 0.000000 0.065820 0.000000
# 6 0.000000 0.000000 0.000000 -0.006169 0.000000 0.023993
#
#
# Mechanical properties :
#
#
# Convention : Reuss Voigt Hill
#
# Bulk Modulus (GPa) = 36.73751 56.43646 46.58698
# Shear Modulus (GPa) = 23.49365 31.03980 27.26673
#
# Velocity S-wave (km/s) = 3.25173 3.73765 3.50313
# Velocity P-wave (km/s) = 5.53469 6.63529 6.10982
#
# Compressibility (1/GPa) = 0.02722013
#
# Stress axis : x y z
#
# Youngs Moduli (GPa) = 47.13691 68.74341 57.06906
#
# Poissons Ratio (x) = 0.60157 -0.14633
# Poissons Ratio (y) = 0.41249 0.39066
# Poissons Ratio (z) = -0.12087 0.47057
#
# Static dielectric constant tensor:
#      x y z
#    x 1.924770 0.000000 0.004230 
#    y 0.000000 1.807440 0.000000 
#    z 0.004230 0.000000 1.833010 
# 
# From -- ./inp_files/290104.got.cif
#   From: 2010.05.17/outbox.cif.g08.bks.cpg/sg12_146_cif.got.tgz:290104.got - 2010.06.03 13:09:07.
