data_PCOD9212452
_publ_section_title
;
Structure prediction by ZEFSAII (Michael W. Deem and Ramdas Pophale) SiO2 
 PCOD9212452
Probable space group: C 2/M
;
_chemical_formula_sum "Si O2"
_cell_formula_units_Z 56
_cell_length_a 13.828987
_cell_length_b 25.403011
_cell_length_c 8.683498
_cell_angle_alpha 90.000000
_cell_angle_beta 132.495390
_cell_angle_gamma 90.000000
_cell_volume 2249.226411
_symmetry_space_group_name_H-M "C 2/M"
_symmetry_group_IT_number 12
_symmetry_cell_setting 'monoclinic'
loop_
_space_group_symop_operation_xyz
x,y,z
-x,y,-z
-x,-y,-z
x,-y,z
1/2+x,1/2+y,z
1/2-x,1/2+y,-z
1/2-x,1/2-y,-z
1/2+x,1/2-y,z
loop_
_atom_site_type_symbol
_atom_site_label
_atom_site_fract_x
_atom_site_fract_y
_atom_site_fract_z
Si Si1 0.387971 0.092736 0.509733
Si Si2 0.218425 0.441931 0.314672
Si Si3 0.481320 0.319359 0.302961
Si Si4 0.759863 0.443036 0.100938
Si Si5 0.474002 0.574837 0.794166
Si Si6 0.192887 0.347421 0.045451
Si Si7 0.458823 0.204967 0.636643
O O1 0.500000 0.084494 0.500000
O O2 0.395571 0.062842 0.678816
O O3 0.262673 0.069707 0.285318
O O4 0.366315 0.153871 0.531331
O O5 0.206676 0.500000 0.225671
O O6 0.355327 0.442236 0.556816
O O7 0.209595 0.386977 0.208913
O O8 0.500000 0.338001 0.500000
O O9 0.520682 0.362236 0.220807
O O10 0.322377 0.314558 0.136763
O O11 0.564764 0.266580 0.363390
O O12 0.820323 0.500000 0.146408
O O13 0.614648 0.442524 0.873909
O O14 0.827589 0.392350 0.103762
O O15 0.500000 0.559170 0.000000
O O16 0.067569 0.310716 0.882427
O O17 0.500000 0.205878 0.500000
#
# Coordination Sequence:
#
# PCOD9212452 Si02
#       7
#     8   8   8   8   8   8   8
#     4  11  23  45  65  92 128 173 230 269 308 392
#     4  12  26  43  66  99 138 175 216 279 335 383
#     4  10  21  41  72  97 130 171 212 270 344 395
#     4  11  22  38  66  94 125 172 215 263 327 387
#     4  11  23  42  64  99 134 165 221 274 324 402
#     4  11  22  43  64 100 133 168 214 274 326 400
#     4  10  21  43  68  92 128 177 221 264 322 390
#
# _framework density 24.897451
#
# number of rings (size 3 to 8) (size 9 to 14) (size 15 to 20)
#    0.000    1.143    5.714    1.714    0.000    2.286 
#    2.571    3.571    0.000    0.000    0.000    0.000 
#    0.000    0.000    0.000    0.000    0.000    0.000 
#
# Total GULP energy -155885.234148 kJ/mol
# GULP energy per Si atom -5567.329791 kJ/mol
# Density = 2.484078 g / cm^3
# Si number density = 24.897451 Si / 1000 Ang^3
#
#
#
# Elastic Constant Matrix: (Units=GPa)
#
#
# Indices 1 2 3 4 5 6 
#
# 1 26.6563 6.2528 11.9420 0.0000 2.0189 0.0000
# 2 6.2528 124.4364 2.8270 0.0000 -23.6429 0.0000
# 3 11.9420 2.8270 102.4715 0.0000 -3.6420 0.0000
# 4 0.0000 0.0000 0.0000 -45.5915 0.0000 103.3648
# 5 2.0189 -23.6429 -3.6420 0.0000 31.9365 0.0000
# 6 0.0000 0.0000 0.0000 103.3648 0.0000 -184.3219
#
#
#
# Elastic Compliance Matrix: (Units=1/GPa)
#
#
# Indices 1 2 3 4 5 6 
#
# 1 0.040787 -0.002949 -0.004861 0.000000 -0.005316 0.000000
# 2 -0.002949 0.009565 0.000339 0.000000 0.007306 0.000000
# 3 -0.004861 0.000339 0.010378 0.000000 0.001742 0.000000
# 4 0.000000 0.000000 0.000000 0.080816 0.000000 0.045320
# 5 -0.005316 0.007306 0.001742 0.000000 0.037256 0.000000
# 6 0.000000 0.000000 0.000000 0.045320 0.000000 0.019989
#
#
# Mechanical properties :
#
#
# Convention : Reuss Voigt Hill
#
# Bulk Modulus (GPa) = 21.83959 32.84534 27.34246
# Shear Modulus (GPa) = 21.83467 -24.09255 -1.12894
#
# Velocity S-wave (km/s) = 2.96460 -3.11412 -0.67411
# Velocity P-wave (km/s) = 4.52873 0.53907 3.22490
#
# Compressibility (1/GPa) = 0.04578841
#
# Stress axis : x y z
#
# Youngs Moduli (GPa) = 24.51787 104.54932 96.35917
#
# Poissons Ratio (x) = 0.30832 0.46839
# Poissons Ratio (y) = 0.07230 -0.03271
# Poissons Ratio (z) = 0.11918 -0.03549
#
# Static dielectric constant tensor:
#      x y z
#    x 2.117920 0.000000 0.095890 
#    y 0.000000 2.036620 0.000000 
#    z 0.095890 0.000000 2.086790 
# 
# From -- ./inp_files/80107.got.cif
#   From: 2010.05.17/outbox.cif.g08.bks.cpg/sg12_41_cif.got.tgz:80107.got - 2010.06.03 13:09:07.
