data_PCOD9212597
_publ_section_title
;
Structure prediction by ZEFSAII (Michael W. Deem and Ramdas Pophale) SiO2 
 PCOD9212597
Probable space group: C 2/M
;
_chemical_formula_sum "Si O2"
_cell_formula_units_Z 40
_cell_length_a 10.352551
_cell_length_b 18.839707
_cell_length_c 15.141466
_cell_angle_alpha 90.000000
_cell_angle_beta 41.445977
_cell_angle_gamma 90.000000
_cell_volume 1954.747828
_symmetry_space_group_name_H-M "C 2/M"
_symmetry_group_IT_number 12
_symmetry_cell_setting 'monoclinic'
loop_
_space_group_symop_operation_xyz
x,y,z
-x,y,-z
-x,-y,-z
x,-y,z
1/2+x,1/2+y,z
1/2-x,1/2+y,-z
1/2-x,1/2-y,-z
1/2+x,1/2-y,z
loop_
_atom_site_type_symbol
_atom_site_label
_atom_site_fract_x
_atom_site_fract_y
_atom_site_fract_z
Si Si1 0.835139 0.417376 0.511284
Si Si2 0.122912 0.581670 0.714014
Si Si3 0.333089 0.720905 0.657085
Si Si4 0.996194 0.814215 0.252907
Si Si5 0.174892 0.581776 0.981542
O O1 0.779703 0.500000 0.547627
O O2 0.907415 0.405980 0.374350
O O3 0.652252 0.368027 0.623307
O O4 0.000000 0.403577 0.500000
O O5 0.189683 0.500000 0.692380
O O6 0.276774 0.638391 0.671524
O O7 0.926591 0.589736 0.871394
O O8 0.500000 0.738957 0.500000
O O9 0.138018 0.765178 0.739013
O O10 0.408900 0.730985 0.716907
O O11 0.159052 0.860787 0.120893
O O12 0.245454 0.500000 0.936007
O O13 0.000000 0.591128 0.000000
#
# Coordination Sequence:
#
# PCOD9212597 Si02
#       5
#     8   8   8   8   8
#     4  10  22  41  68  98 129 168 219 273 327 388
#     4  10  22  41  67  96 128 164 215 273 325 380
#     4  12  25  41  65  98 133 174 219 272 325 386
#     4  12  25  41  66  95 135 176 219 264 328 388
#     4  10  21  42  68  97 130 165 218 277 325 383
#
# _framework density 20.462997000000001
#
# number of rings (size 3 to 8) (size 9 to 14) (size 15 to 20)
#    0.000    1.200    4.000    1.800    2.800    2.000 
#    0.000    1.000    0.000    4.800    0.000    0.000 
#    0.000    0.000    0.000    0.000    0.000    0.000 
#
# Total GULP energy -111885.226048 kJ/mol
# GULP energy per Si atom -5594.261302 kJ/mol
# Density = 2.041642 g / cm^3
# Si number density = 20.462997 Si / 1000 Ang^3
#
#
#
# Elastic Constant Matrix: (Units=GPa)
#
#
# Indices 1 2 3 4 5 6 
#
# 1 112.2193 39.2981 19.7326 0.0005 -4.6840 0.0004
# 2 39.2981 97.1069 33.7156 0.0007 -17.1551 0.0010
# 3 19.7326 33.7156 66.6886 0.0020 -2.6686 0.0015
# 4 0.0005 0.0007 0.0020 5.1938 -0.0005 -11.0962
# 5 -4.6840 -17.1551 -2.6686 -0.0005 23.4568 -0.0003
# 6 0.0004 0.0010 0.0015 -11.0962 -0.0003 10.7549
#
#
#
# Elastic Compliance Matrix: (Units=1/GPa)
#
#
# Indices 1 2 3 4 5 6 
#
# 1 0.010475 -0.004030 -0.001101 0.000000 -0.000981 0.000000
# 2 -0.004030 0.015968 -0.006475 -0.000001 0.010136 -0.000001
# 3 -0.001101 -0.006475 0.018480 0.000009 -0.002853 0.000007
# 4 0.000000 -0.000001 0.000009 -0.159886 -0.000006 -0.164960
# 5 -0.000981 0.010136 -0.002853 -0.000006 0.049524 -0.000005
# 6 0.000000 -0.000001 0.000007 -0.164960 -0.000005 -0.077214
#
#
# Mechanical properties :
#
#
# Convention : Reuss Voigt Hill
#
# Bulk Modulus (GPa) = 46.05983 51.27859 48.66921
# Shear Modulus (GPa) = -44.56204 20.09901 -12.23152
#
# Velocity S-wave (km/s) = -4.67163 3.13743 -2.44752
# Velocity P-wave (km/s) = 2.55757 6.18370 3.98102
#
# Compressibility (1/GPa) = 0.02171089
#
# Stress axis : x y z
#
# Youngs Moduli (GPa) = 95.46417 62.62689 54.11222
#
# Poissons Ratio (x) = 0.25239 0.05959
# Poissons Ratio (y) = 0.38473 0.35035
# Poissons Ratio (z) = 0.10513 0.40548
#
# Static dielectric constant tensor:
#      x y z
#    x 1.717070 0.000000 0.018800 
#    y 0.000000 1.754800 0.000000 
#    z 0.018800 0.000000 1.700920 
# 
# From -- ./inp_files/205913.got.cif
#   From: 2010.05.17/outbox.cif.g08.bks.cpg/sg12_103_cif.got.tgz:205913.got - 2010.06.03 13:09:07.
