data_PCOD9212405
_publ_section_title
;
Structure prediction by ZEFSAII (Michael W. Deem and Ramdas Pophale) SiO2 
 PCOD9212405
Probable space group: C 2/M
;
_chemical_formula_sum "Si O2"
_cell_formula_units_Z 32
_cell_length_a 6.775066
_cell_length_b 13.045356
_cell_length_c 16.962391
_cell_angle_alpha 90.000000
_cell_angle_beta 127.546992
_cell_angle_gamma 90.000000
_cell_volume 1188.638085
_symmetry_space_group_name_H-M "C 2/M"
_symmetry_group_IT_number 12
_symmetry_cell_setting 'monoclinic'
loop_
_space_group_symop_operation_xyz
x,y,z
-x,y,-z
-x,-y,-z
x,-y,z
1/2+x,1/2+y,z
1/2-x,1/2+y,-z
1/2-x,1/2-y,-z
1/2+x,1/2-y,z
loop_
_atom_site_type_symbol
_atom_site_label
_atom_site_fract_x
_atom_site_fract_y
_atom_site_fract_z
Si Si1 0.159400 0.656477 0.373561
Si Si2 0.000000 0.000000 0.500000
Si Si3 0.500000 0.500000 0.000000
Si Si4 0.500000 0.160945 0.500000
Si Si5 0.726028 0.613879 0.894764
Si Si6 0.559059 0.159818 0.844890
O O1 0.397365 0.588270 0.414568
O O2 0.265720 0.767968 0.418365
O O3 0.062213 0.608825 0.432348
O O4 0.970344 0.654448 0.256284
O O5 0.713303 0.590941 0.070463
O O6 0.619667 0.500000 0.893852
O O7 0.587619 0.720389 0.876875
O O8 0.804789 0.617919 0.822484
O O9 0.000000 0.619753 0.000000
#
# Coordination Sequence:
#
# PCOD9212405 Si02
#       6
#     8   2   2   4   8   8
#     4  10  21  41  69  97 134 180 224 290 356 414
#     4  10  22  38  66  92 134 172 228 284 344 414
#     4  12  26  40  70 100 150 186 228 290 342 416
#     4   9  20  42  66  97 132 168 231 292 344 413
#     4  11  25  44  68 100 140 186 236 290 344 415
#     4  12  24  44  70 101 144 189 233 288 355 422
#
# _framework density 26.921569000000002
#
# number of rings (size 3 to 8) (size 9 to 14) (size 15 to 20)
#    0.000    1.250    2.500    3.000    0.000    0.500 
#    0.000    0.000    2.750    0.000    0.000    0.000 
#    0.000    0.000    0.000    0.000    0.000    0.000 
#
# Total GULP energy -89075.245484 kJ/mol
# GULP energy per Si atom -5567.202843 kJ/mol
# Density = 2.686029 g / cm^3
# Si number density = 26.921569 Si / 1000 Ang^3
#
#
#
# Elastic Constant Matrix: (Units=GPa)
#
#
# Indices 1 2 3 4 5 6 
#
# 1 63.2848 36.8225 18.2815 0.0000 -8.0136 0.0000
# 2 36.8225 242.3514 52.6680 0.0000 11.0763 0.0000
# 3 18.2815 52.6680 151.4838 0.0000 -11.1307 0.0000
# 4 0.0000 0.0000 0.0000 69.8757 0.0000 27.9784
# 5 -8.0136 11.0763 -11.1307 0.0000 39.9374 0.0000
# 6 0.0000 0.0000 0.0000 27.9784 0.0000 28.2199
#
#
#
# Elastic Compliance Matrix: (Units=1/GPa)
#
#
# Indices 1 2 3 4 5 6 
#
# 1 0.018199 -0.002752 -0.000934 0.000000 0.004155 0.000000
# 2 -0.002752 0.004996 -0.001580 0.000000 -0.002378 0.000000
# 3 -0.000934 -0.001580 0.007434 0.000000 0.002323 0.000000
# 4 0.000000 0.000000 0.000000 0.023732 0.000000 -0.023529
# 5 0.004155 -0.002378 0.002323 0.000000 0.027180 0.000000
# 6 0.000000 0.000000 0.000000 -0.023529 0.000000 0.058764
#
#
# Mechanical properties :
#
#
# Convention : Reuss Voigt Hill
#
# Bulk Modulus (GPa) = 49.75795 74.74046 62.24920
# Shear Modulus (GPa) = 31.73877 50.89645 41.31761
#
# Velocity S-wave (km/s) = 3.43729 4.35276 3.92183
# Velocity P-wave (km/s) = 5.85457 7.28592 6.60910
#
# Compressibility (1/GPa) = 0.02009729
#
# Stress axis : x y z
#
# Youngs Moduli (GPa) = 54.94876 200.14511 134.51660
#
# Poissons Ratio (x) = 0.55079 0.12567
# Poissons Ratio (y) = 0.15122 0.21251
# Poissons Ratio (z) = 0.05133 0.31618
#
# Static dielectric constant tensor:
#      x y z
#    x 2.467740 0.000000 0.133520 
#    y 0.000000 2.122840 0.000000 
#    z 0.133520 0.000000 2.130290 
# 
# From -- ./inp_files/300025.got.cif
#   From: 2010.05.17/outbox.cif.g08.bks.cpg/sg12_151_cif.got.tgz:300025.got - 2010.06.03 13:09:07.
