data_PCOD9212623
_publ_section_title
;
Structure prediction by ZEFSAII (Michael W. Deem and Ramdas Pophale) SiO2 
 PCOD9212623
Probable space group: C 2/M
;
_chemical_formula_sum "Si O2"
_cell_formula_units_Z 48
_cell_length_a 9.592484
_cell_length_b 26.192129
_cell_length_c 14.180203
_cell_angle_alpha 90.000000
_cell_angle_beta 40.090463
_cell_angle_gamma 90.000000
_cell_volume 2294.392443
_symmetry_space_group_name_H-M "C 2/M"
_symmetry_group_IT_number 12
_symmetry_cell_setting 'monoclinic'
loop_
_space_group_symop_operation_xyz
x,y,z
-x,y,-z
-x,-y,-z
x,-y,z
1/2+x,1/2+y,z
1/2-x,1/2+y,-z
1/2-x,1/2-y,-z
1/2+x,1/2-y,z
loop_
_atom_site_type_symbol
_atom_site_label
_atom_site_fract_x
_atom_site_fract_y
_atom_site_fract_z
Si Si1 0.978400 0.055474 0.623689
Si Si2 0.981498 0.559036 0.120275
Si Si3 0.257632 0.875876 0.874893
Si Si4 0.883129 0.611956 0.462136
Si Si5 0.746988 0.254244 0.889221
Si Si6 0.076213 0.793371 0.570178
O O1 0.754764 0.086089 0.746669
O O2 0.000000 0.053344 0.500000
O O3 0.205727 0.067320 0.554378
O O4 0.914423 0.000000 0.694743
O O5 0.999142 0.500000 0.151330
O O6 0.157285 0.596493 0.075101
O O7 0.000000 0.554848 0.000000
O O8 0.421457 0.897795 0.711266
O O9 0.290445 0.814573 0.848198
O O10 0.000000 0.884887 0.000000
O O11 0.715856 0.655898 0.515637
O O12 0.000000 0.623778 0.500000
O O13 0.893374 0.219351 0.744114
O O14 0.500000 0.241364 0.000000
O O15 0.750000 0.250000 0.000000
O O16 0.250000 0.750000 0.500000
O O17 0.000000 0.791980 0.500000
#
# Coordination Sequence:
#
# PCOD9212623 Si02
#       6
#     8   8   8   8   8   8
#     4  10  21  42  69  97 131 170 223 281 336 403
#     4  10  23  44  71 100 133 176 224 275 337 410
#     4  11  26  44  65  98 139 172 221 277 341 404
#     4  12  27  43  68  99 135 180 229 282 339 405
#     4  11  26  43  65  96 132 174 221 280 337 394
#     4  12  25  44  70  96 133 180 232 282 336 409
#
# _framework density 20.920572
#
# number of rings (size 3 to 8) (size 9 to 14) (size 15 to 20)
#    0.000    1.000    3.333    2.000    7.000    1.333 
#    0.000    0.000    0.000    0.000    0.000    0.000 
#    0.000    0.000    0.000    0.000    0.000    0.000 
#
# Total GULP energy -133635.227542 kJ/mol
# GULP energy per Si atom -5568.134481 kJ/mol
# Density = 2.087296 g / cm^3
# Si number density = 20.920572 Si / 1000 Ang^3
#
#
#
# Elastic Constant Matrix: (Units=GPa)
#
#
# Indices 1 2 3 4 5 6 
#
# 1 180.9598 22.2222 67.5628 0.0000 -8.9737 0.0000
# 2 22.2222 31.5768 26.7272 0.0000 -12.5790 0.0000
# 3 67.5628 26.7272 131.1312 0.0000 -16.3507 0.0000
# 4 0.0000 0.0000 0.0000 27.3235 0.0000 9.0803
# 5 -8.9737 -12.5790 -16.3507 0.0000 40.8585 0.0000
# 6 0.0000 0.0000 0.0000 9.0803 0.0000 82.3879
#
#
#
# Elastic Compliance Matrix: (Units=1/GPa)
#
#
# Indices 1 2 3 4 5 6 
#
# 1 0.006981 -0.002428 -0.003162 0.000000 -0.000479 0.000000
# 2 -0.002428 0.042638 -0.006178 0.000000 0.010122 0.000000
# 3 -0.003162 -0.006178 0.010726 0.000000 0.001696 0.000000
# 4 0.000000 0.000000 0.000000 0.037990 0.000000 -0.004187
# 5 -0.000479 0.010122 0.001696 0.000000 0.028164 0.000000
# 6 0.000000 0.000000 0.000000 -0.004187 0.000000 0.012599
#
#
# Mechanical properties :
#
#
# Convention : Reuss Voigt Hill
#
# Bulk Modulus (GPa) = 27.16614 64.07692 45.62153
# Shear Modulus (GPa) = 28.58738 45.25768 36.92253
#
# Velocity S-wave (km/s) = 3.70059 4.65619 4.20562
# Velocity P-wave (km/s) = 5.59220 7.72023 6.74072
#
# Compressibility (1/GPa) = 0.03681053
#
# Stress axis : x y z
#
# Youngs Moduli (GPa) = 143.24802 23.45314 93.23509
#
# Poissons Ratio (x) = 0.05694 0.29479
# Poissons Ratio (y) = 0.34775 0.57598
# Poissons Ratio (z) = 0.45292 0.14489
#
# Static dielectric constant tensor:
#      x y z
#    x 1.804960 0.000000 0.107900 
#    y 0.000000 2.496830 0.000000 
#    z 0.107900 0.000000 1.692550 
# 
# From -- ./inp_files/170668.got.cif
#   From: 2010.05.17/outbox.cif.g08.bks.cpg/sg12_86_cif.got.tgz:170668.got - 2010.06.03 13:09:07.
