data_PCOD9212555
_publ_section_title
;
Structure prediction by ZEFSAII (Michael W. Deem and Ramdas Pophale) SiO2 
 PCOD9212555
Probable space group: C 2/M
;
_chemical_formula_sum "Si O2"
_cell_formula_units_Z 44
_cell_length_a 17.267010
_cell_length_b 15.639943
_cell_length_c 24.245208
_cell_angle_alpha 90.000000
_cell_angle_beta 162.343430
_cell_angle_gamma 90.000000
_cell_volume 1985.940262
_symmetry_space_group_name_H-M "C 2/M"
_symmetry_group_IT_number 12
_symmetry_cell_setting 'monoclinic'
loop_
_space_group_symop_operation_xyz
x,y,z
-x,y,-z
-x,-y,-z
x,-y,z
1/2+x,1/2+y,z
1/2-x,1/2+y,-z
1/2-x,1/2-y,-z
1/2+x,1/2-y,z
loop_
_atom_site_type_symbol
_atom_site_label
_atom_site_fract_x
_atom_site_fract_y
_atom_site_fract_z
Si Si1 0.751238 0.183367 0.624881
Si Si2 0.000000 0.191897 0.000000
Si Si3 0.645882 0.672222 0.799593
Si Si4 0.285944 0.500000 0.214006
Si Si5 0.696315 0.000000 0.282917
Si Si6 0.463362 0.179120 0.124227
Si Si7 0.298442 0.598704 0.760764
O O1 0.884647 0.112356 0.755751
O O2 0.472741 0.147438 0.422813
O O3 0.902089 0.194829 0.670729
O O4 0.787782 0.267682 0.687254
O O5 0.750655 0.251712 0.833236
O O6 0.981499 0.137602 0.931370
O O7 0.596020 0.586428 0.731354
O O8 0.875420 0.664526 0.001181
O O9 0.235223 0.500000 0.243789
O O10 0.000000 0.500000 0.000000
O O11 0.535690 0.916369 0.193140
O O12 0.000000 0.000000 0.500000
O O13 0.250000 0.250000 0.000000
O O14 0.257850 0.500000 0.744397
#
# Coordination Sequence:
#
# PCOD9212555 Si02
#       7
#     8   4   8   4   4   8   8
#     4  10  23  42  72  93 133 175 236 284 346 415
#     4  12  23  41  66  94 142 170 228 279 359 406
#     4  11  22  40  69 101 130 177 232 283 345 425
#     4  12  22  40  72  99 136 185 226 286 349 431
#     4  12  26  42  72 112 149 182 242 305 362 426
#     4  10  21  42  67 104 136 186 229 292 354 420
#     4  11  25  44  67  97 130 186 229 284 343 424
#
# _framework density 22.155753000000001
#
# number of rings (size 3 to 8) (size 9 to 14) (size 15 to 20)
#    0.000    1.091    4.545    1.364    5.091    0.727 
#    3.273    1.818    2.000    0.000    0.000    0.000 
#    0.000    0.000    0.000    0.000    0.000    0.000 
#
# Total GULP energy -122513.276968 kJ/mol
# GULP energy per Si atom -5568.785317 kJ/mol
# Density = 2.210533 g / cm^3
# Si number density = 22.155753 Si / 1000 Ang^3
#
#
#
# Elastic Constant Matrix: (Units=GPa)
#
#
# Indices 1 2 3 4 5 6 
#
# 1 82.2578 25.1259 7.4191 -0.0289 3.9371 0.0263
# 2 25.1259 181.1180 40.7064 -0.2815 5.5535 0.0293
# 3 7.4191 40.7064 60.4414 -0.5932 0.4297 0.0909
# 4 -0.0289 -0.2815 -0.5932 14.6682 0.0577 1.9076
# 5 3.9371 5.5535 0.4297 0.0577 36.9577 0.0307
# 6 0.0263 0.0293 0.0909 1.9076 0.0307 27.4877
#
#
#
# Elastic Compliance Matrix: (Units=1/GPa)
#
#
# Indices 1 2 3 4 5 6 
#
# 1 0.012750 -0.001632 -0.000458 -0.000020 -0.001108 -0.000006
# 2 -0.001632 0.006747 -0.004338 -0.000048 -0.000789 0.000013
# 3 -0.000458 -0.004338 0.019527 0.000718 0.000473 -0.000110
# 4 -0.000020 -0.000048 0.000718 0.068824 -0.000103 -0.004778
# 5 -0.001108 -0.000789 0.000473 -0.000103 0.027289 -0.000023
# 6 -0.000006 0.000013 -0.000110 -0.004778 -0.000023 0.036712
#
#
# Mechanical properties :
#
#
# Convention : Reuss Voigt Hill
#
# Bulk Modulus (GPa) = 38.21710 52.25779 45.23744
# Shear Modulus (GPa) = 25.84937 32.52712 29.18825
#
# Velocity S-wave (km/s) = 3.41942 3.83575 3.63355
# Velocity P-wave (km/s) = 5.73382 6.57686 6.16975
#
# Compressibility (1/GPa) = 0.02616630
#
# Stress axis : x y z
#
# Youngs Moduli (GPa) = 78.43332 148.21755 51.21123
#
# Poissons Ratio (x) = 0.24186 0.02347
# Poissons Ratio (y) = 0.12799 0.22218
# Poissons Ratio (z) = 0.03595 0.64304
#
# Static dielectric constant tensor:
#      x y z
#    x 1.855740 0.000600 0.064330 
#    y 0.000600 1.868710 0.000020 
#    z 0.064330 0.000020 1.836420 
# 
# From -- ./inp_files/344146.got.cif
#   From: 2010.05.17/outbox.cif.g08.bks.cpg/sg12_173_cif.got.tgz:344146.got - 2010.06.03 13:09:07.
