data_PCOD9212040
_publ_section_title
;
Structure prediction by ZEFSAII (Michael W. Deem and Ramdas Pophale) SiO2 
 PCOD9212040
Probable space group: C 2/M
;
_chemical_formula_sum "Si O2"
_cell_formula_units_Z 50
_cell_length_a 19.803931
_cell_length_b 17.437555
_cell_length_c 9.786434
_cell_angle_alpha 90.000000
_cell_angle_beta 132.645917
_cell_angle_gamma 90.000000
_cell_volume 2485.857701
_symmetry_space_group_name_H-M "C 2/M"
_symmetry_group_IT_number 12
_symmetry_cell_setting 'monoclinic'
loop_
_space_group_symop_operation_xyz
x,y,z
-x,y,-z
-x,-y,-z
x,-y,z
1/2+x,1/2+y,z
1/2-x,1/2+y,-z
1/2-x,1/2-y,-z
1/2+x,1/2-y,z
loop_
_atom_site_type_symbol
_atom_site_label
_atom_site_fract_x
_atom_site_fract_y
_atom_site_fract_z
Si Si1 0.265264 0.636434 0.889127
Si Si2 0.000000 0.500000 0.500000
Si Si3 0.107470 0.614810 0.472380
Si Si4 0.609888 0.915538 0.163913
Si Si5 0.494121 0.730585 0.651523
Si Si6 0.820994 0.304859 0.967698
Si Si7 0.473771 0.588082 0.123015
O O1 0.188241 0.598107 0.690477
O O2 0.234438 0.640379 0.004734
O O3 0.267830 0.727205 0.857952
O O4 0.364592 0.600732 0.997491
O O5 0.977780 0.566812 0.585248
O O6 0.132736 0.591338 0.354509
O O7 0.081872 0.704121 0.434863
O O8 0.636382 0.000000 0.149824
O O9 0.500000 0.908355 0.000000
O O10 0.652990 0.850463 0.130736
O O11 0.500000 0.710904 0.500000
O O12 0.588293 0.772073 0.831021
O O13 0.480491 0.654509 0.722808
O O14 0.497648 0.500000 0.191263
O O15 0.500000 0.599953 0.000000
#
# Coordination Sequence:
#
# PCOD9212040 Si02
#       7
#     8   2   8   8   8   8   8
#     4  10  23  40  68  91 124 165 218 267 326 390
#     4  12  24  40  66 100 144 172 206 256 334 402
#     4  12  23  39  64 100 130 176 209 261 326 393
#     4  11  24  37  58  94 134 170 214 258 324 393
#     4  11  21  40  68  95 130 169 216 260 322 401
#     4  10  21  41  60  95 128 167 211 265 321 390
#     4  10  25  47  68  93 124 172 224 278 331 382
#
# _framework density 20.113782
#
# number of rings (size 3 to 8) (size 9 to 14) (size 15 to 20)
#    0.000    1.280    4.800    0.000    5.600    1.600 
#    0.000    0.000    0.000    0.000    0.000    0.000 
#    0.000    0.000    0.000    0.000    0.000    0.000 
#
# Total GULP energy -139400.430394 kJ/mol
# GULP energy per Si atom -5576.017216 kJ/mol
# Density = 2.006800 g / cm^3
# Si number density = 20.113782 Si / 1000 Ang^3
#
#
#
# Elastic Constant Matrix: (Units=GPa)
#
#
# Indices 1 2 3 4 5 6 
#
# 1 69.7137 33.9693 17.6204 0.0000 -33.4429 0.0000
# 2 33.9693 108.7815 41.7706 0.0000 -28.9120 0.0000
# 3 17.6204 41.7706 39.9732 0.0000 -20.0336 0.0000
# 4 0.0000 0.0000 0.0000 31.6303 0.0000 -36.6636
# 5 -33.4429 -28.9120 -20.0336 0.0000 37.4069 0.0000
# 6 0.0000 0.0000 0.0000 -36.6636 0.0000 36.0517
#
#
#
# Elastic Compliance Matrix: (Units=1/GPa)
#
#
# Indices 1 2 3 4 5 6 
#
# 1 0.025844 -0.003449 0.003357 0.000000 0.022237 0.000000
# 2 -0.003449 0.016382 -0.014760 0.000000 0.001674 0.000000
# 3 0.003357 -0.014760 0.047495 0.000000 0.017030 0.000000
# 4 0.000000 0.000000 0.000000 -0.176818 0.000000 -0.179819
# 5 0.022237 0.001674 0.017030 0.000000 0.057028 0.000000
# 6 0.000000 0.000000 0.000000 -0.179819 0.000000 -0.155133
#
#
# Mechanical properties :
#
#
# Convention : Reuss Voigt Hill
#
# Bulk Modulus (GPa) = 16.66178 45.02101 30.84140
# Shear Modulus (GPa) = -36.90236 29.35831 -3.77202
#
# Velocity S-wave (km/s) = -4.28796 3.82463 -1.37092
# Velocity P-wave (km/s) = 4.02663 6.47576 3.58621
#
# Compressibility (1/GPa) = 0.06001758
#
# Stress axis : x y z
#
# Youngs Moduli (GPa) = 38.69329 61.04232 21.05479
#
# Poissons Ratio (x) = 0.21054 -0.07067
# Poissons Ratio (y) = 0.13346 0.31076
# Poissons Ratio (z) = -0.12988 0.90096
#
# Static dielectric constant tensor:
#      x y z
#    x 1.729470 0.000000 0.036110 
#    y 0.000000 1.632760 0.000000 
#    z 0.036110 0.000000 1.711700 
# 
# From -- ./inp_files/75360.got.cif
#   From: 2010.05.17/outbox.cif.g08.bks.cpg/sg12_38_cif.got.tgz:75360.got - 2010.06.03 13:09:07.
