data_PCOD9212129
_publ_section_title
;
Structure prediction by ZEFSAII (Michael W. Deem and Ramdas Pophale) SiO2 
 PCOD9212129
Probable space group: C 2/M
;
_chemical_formula_sum "Si O2"
_cell_formula_units_Z 48
_cell_length_a 17.428956
_cell_length_b 15.478923
_cell_length_c 17.040699
_cell_angle_alpha 90.000000
_cell_angle_beta 145.545062
_cell_angle_gamma 90.000000
_cell_volume 2600.938886
_symmetry_space_group_name_H-M "C 2/M"
_symmetry_group_IT_number 12
_symmetry_cell_setting 'monoclinic'
loop_
_space_group_symop_operation_xyz
x,y,z
-x,y,-z
-x,-y,-z
x,-y,z
1/2+x,1/2+y,z
1/2-x,1/2+y,-z
1/2-x,1/2-y,-z
1/2+x,1/2-y,z
loop_
_atom_site_type_symbol
_atom_site_label
_atom_site_fract_x
_atom_site_fract_y
_atom_site_fract_z
Si Si1 0.840070 0.895743 0.377784
Si Si2 0.204215 0.396460 0.624479
Si Si3 0.182735 0.738378 0.358338
Si Si4 0.629041 0.818109 0.894994
Si Si5 0.090792 0.397199 0.694898
Si Si6 0.634546 0.897054 0.069926
O O1 0.767948 0.834955 0.382067
O O2 0.763383 0.874236 0.231856
O O3 0.000000 0.879531 0.500000
O O4 0.822548 0.000000 0.379621
O O5 0.229233 0.500000 0.639146
O O6 0.310956 0.331001 0.679143
O O7 0.179919 0.372472 0.694769
O O8 0.064198 0.375996 0.459754
O O9 0.250000 0.750000 0.500000
O O10 0.025850 0.714235 0.232899
O O11 0.637795 0.863321 0.817799
O O12 0.750000 0.750000 0.000000
O O13 0.644442 0.871993 0.987964
O O14 0.094330 0.500000 0.700797
O O15 0.624121 0.000000 0.063676
O O16 0.500000 0.861090 0.000000
#
# Coordination Sequence:
#
# PCOD9212129 Si02
#       6
#     8   8   8   8   8   8
#     4  10  24  43  68  96 125 162 208 261 318 378
#     4   9  20  39  65  91 118 161 214 258 302 357
#     4  12  25  39  64  93 125 167 202 260 316 367
#     4  12  26  38  58  94 129 163 207 255 313 374
#     4   9  19  39  64  88 117 161 208 257 303 361
#     4  10  21  41  64  88 121 167 210 256 315 380
#
# _framework density 18.454874
#
# number of rings (size 3 to 8) (size 9 to 14) (size 15 to 20)
#    0.000    1.667    3.333    1.500    7.000    1.333 
#    0.000    1.667    0.000    2.000    0.000    0.000 
#    0.000    0.000    0.000    0.000    0.000    0.000 
#
# Total GULP energy -133840.337969 kJ/mol
# GULP energy per Si atom -5576.680749 kJ/mol
# Density = 1.841287 g / cm^3
# Si number density = 18.454874 Si / 1000 Ang^3
#
#
#
# Elastic Constant Matrix: (Units=GPa)
#
#
# Indices 1 2 3 4 5 6 
#
# 1 100.8901 34.5361 68.7802 0.0000 -25.9885 0.0000
# 2 34.5361 34.5913 27.4423 0.0000 -3.6186 0.0000
# 3 68.7802 27.4423 138.8083 -0.0001 -15.0024 0.0000
# 4 0.0000 0.0000 -0.0001 7.1957 0.0000 -13.1062
# 5 -25.9885 -3.6186 -15.0024 0.0000 44.4223 0.0000
# 6 0.0000 0.0000 0.0000 -13.1062 0.0000 37.9624
#
#
#
# Elastic Compliance Matrix: (Units=1/GPa)
#
#
# Indices 1 2 3 4 5 6 
#
# 1 0.022659 -0.016053 -0.007019 0.000000 0.009578 0.000000
# 2 -0.016053 0.045671 -0.001752 0.000000 -0.006263 0.000000
# 3 -0.007019 -0.001752 0.010970 0.000000 -0.000544 0.000000
# 4 0.000000 0.000000 0.000000 0.374407 0.000000 0.129261
# 5 0.009578 -0.006263 -0.000544 0.000000 0.027421 0.000000
# 6 0.000000 0.000000 0.000000 0.129261 0.000000 0.070968
#
#
# Mechanical properties :
#
#
# Convention : Reuss Voigt Hill
#
# Bulk Modulus (GPa) = 33.72375 59.53410 46.62892
# Shear Modulus (GPa) = 8.17492 27.48481 17.82986
#
# Velocity S-wave (km/s) = 2.10696 3.86333 3.11164
# Velocity P-wave (km/s) = 4.92264 7.22701 6.18313
#
# Compressibility (1/GPa) = 0.02965270
#
# Stress axis : x y z
#
# Youngs Moduli (GPa) = 44.13220 21.89585 91.16136
#
# Poissons Ratio (x) = 0.35149 0.63985
# Poissons Ratio (y) = 0.70844 0.15969
# Poissons Ratio (z) = 0.30976 0.03836
#
# Static dielectric constant tensor:
#      x y z
#    x 1.675470 0.000000 -0.034550 
#    y 0.000000 1.638770 0.000000 
#    z -0.034550 0.000000 1.693920 
# 
# From -- ./inp_files/278249.got.cif
#   From: 2010.05.17/outbox.cif.g08.bks.cpg/sg12_140_cif.got.tgz:278249.got - 2010.06.03 13:09:07.
