data_PCOD9212621
_publ_section_title
;
Structure prediction by ZEFSAII (Michael W. Deem and Ramdas Pophale) SiO2 
 PCOD9212621
Probable space group: C 2/M
;
_chemical_formula_sum "Si O2"
_cell_formula_units_Z 48
_cell_length_a 9.105913
_cell_length_b 25.357621
_cell_length_c 11.656104
_cell_angle_alpha 90.000000
_cell_angle_beta 118.075842
_cell_angle_gamma 90.000000
_cell_volume 2374.729736
_symmetry_space_group_name_H-M "C 2/M"
_symmetry_group_IT_number 12
_symmetry_cell_setting 'monoclinic'
loop_
_space_group_symop_operation_xyz
x,y,z
-x,y,-z
-x,-y,-z
x,-y,z
1/2+x,1/2+y,z
1/2-x,1/2+y,-z
1/2-x,1/2-y,-z
1/2+x,1/2-y,z
loop_
_atom_site_type_symbol
_atom_site_label
_atom_site_fract_x
_atom_site_fract_y
_atom_site_fract_z
Si Si1 0.501638 0.645852 0.190659
Si Si2 0.043506 0.560289 0.151942
Si Si3 0.227599 0.357544 0.908660
Si Si4 0.828733 0.771603 0.410402
Si Si5 0.023461 0.730963 0.756290
Si Si6 0.064985 0.060706 0.653861
O O1 0.646164 0.640519 0.150607
O O2 0.492842 0.706894 0.225321
O O3 0.522000 0.604914 0.300664
O O4 0.331574 0.632133 0.061288
O O5 0.003653 0.500000 0.169960
O O6 0.236026 0.569003 0.256546
O O7 0.920148 0.601558 0.164348
O O8 0.000000 0.564876 0.000000
O O9 0.148369 0.299468 0.883770
O O10 0.750000 0.750000 0.500000
O O11 0.898571 0.728977 0.344053
O O12 0.659910 0.794807 0.295796
O O13 0.000000 0.802692 0.500000
O O14 0.000000 0.064589 0.500000
O O15 0.032427 0.000000 0.680551
#
# Coordination Sequence:
#
# PCOD9212621 Si02
#       6
#     8   8   8   8   8   8
#     4  11  24  41  61  94 130 176 217 263 333 389
#     4  10  21  42  69  97 126 167 221 271 328 390
#     4  11  24  40  62  95 132 167 220 270 324 389
#     4   9  20  37  58  81 121 173 219 263 316 380
#     4  11  21  40  56  90 132 169 220 268 315 390
#     4  10  23  45  70  98 130 169 220 274 331 395
#
# _framework density 20.212826
#
# number of rings (size 3 to 8) (size 9 to 14) (size 15 to 20)
#    0.000    1.667    3.333    0.500    2.333    2.667 
#    6.000    2.500    0.000    3.000    0.000    0.000 
#    0.000    0.000    0.000    0.000    0.000    0.000 
#
# Total GULP energy -133814.955075 kJ/mol
# GULP energy per Si atom -5575.623128 kJ/mol
# Density = 2.016682 g / cm^3
# Si number density = 20.212826 Si / 1000 Ang^3
#
#
#
# Elastic Constant Matrix: (Units=GPa)
#
#
# Indices 1 2 3 4 5 6 
#
# 1 92.3770 45.5967 37.5975 0.0000 14.1989 0.0000
# 2 45.5967 110.6445 30.5958 0.0000 -4.2065 0.0000
# 3 37.5975 30.5958 93.0243 0.0000 10.8301 0.0000
# 4 0.0000 0.0000 0.0000 21.0152 0.0000 0.3410
# 5 14.1989 -4.2065 10.8301 0.0000 30.9621 0.0000
# 6 0.0000 0.0000 0.0000 0.3410 0.0000 26.4675
#
#
#
# Elastic Compliance Matrix: (Units=1/GPa)
#
#
# Indices 1 2 3 4 5 6 
#
# 1 0.016413 -0.005962 -0.003859 0.000000 -0.006987 0.000000
# 2 -0.005962 0.012313 -0.002245 0.000000 0.005192 0.000000
# 3 -0.003859 -0.002245 0.013424 0.000000 -0.003231 0.000000
# 4 0.000000 0.000000 0.000000 0.047595 0.000000 -0.000613
# 5 -0.006987 0.005192 -0.003231 0.000000 0.037337 0.000000
# 6 0.000000 0.000000 0.000000 -0.000613 0.000000 0.037790
#
#
# Mechanical properties :
#
#
# Convention : Reuss Voigt Hill
#
# Bulk Modulus (GPa) = 55.49986 58.18065 56.84026
# Shear Modulus (GPa) = 25.63982 27.83934 26.73958
#
# Velocity S-wave (km/s) = 3.56545 3.71524 3.64112
# Velocity P-wave (km/s) = 6.66838 6.87390 6.77192
#
# Compressibility (1/GPa) = 0.01801806
#
# Stress axis : x y z
#
# Youngs Moduli (GPa) = 60.92849 81.21476 74.49369
#
# Poissons Ratio (x) = 0.48422 0.28748
# Poissons Ratio (y) = 0.36327 0.16720
# Poissons Ratio (z) = 0.23513 0.18229
#
# Static dielectric constant tensor:
#      x y z
#    x 1.719990 0.000000 0.027250 
#    y 0.000000 1.723310 0.000000 
#    z 0.027250 0.000000 1.802510 
# 
# From -- ./inp_files/123884.got.cif
#   From: 2010.05.17/outbox.cif.g08.bks.cpg/sg12_62_cif.got.tgz:123884.got - 2010.06.03 13:09:07.
