data_PCOD9212141
_publ_section_title
;
Structure prediction by ZEFSAII (Michael W. Deem and Ramdas Pophale) SiO2 
 PCOD9212141
Probable space group: C 2/M
;
_chemical_formula_sum "Si O2"
_cell_formula_units_Z 56
_cell_length_a 27.929054
_cell_length_b 17.859065
_cell_length_c 18.734679
_cell_angle_alpha 90.000000
_cell_angle_beta 18.728043
_cell_angle_gamma 90.000000
_cell_volume 3000.335341
_symmetry_space_group_name_H-M "C 2/M"
_symmetry_group_IT_number 12
_symmetry_cell_setting 'monoclinic'
loop_
_space_group_symop_operation_xyz
x,y,z
-x,y,-z
-x,-y,-z
x,-y,z
1/2+x,1/2+y,z
1/2-x,1/2+y,-z
1/2-x,1/2-y,-z
1/2+x,1/2-y,z
loop_
_atom_site_type_symbol
_atom_site_label
_atom_site_fract_x
_atom_site_fract_y
_atom_site_fract_z
Si Si1 0.864392 0.265444 0.634496
Si Si2 0.398365 0.412314 0.315597
Si Si3 0.526002 0.676314 0.653995
Si Si4 0.149864 0.587196 0.546844
Si Si5 0.363590 0.193950 0.949199
Si Si6 0.774149 0.085621 0.212695
Si Si7 0.602834 0.584907 0.283961
O O1 0.900575 0.233892 0.505324
O O2 0.825161 0.352542 0.685934
O O3 0.000000 0.254695 0.500000
O O4 0.718546 0.218809 0.862897
O O5 0.394853 0.500000 0.343647
O O6 0.394938 0.355630 0.387162
O O7 0.262696 0.400485 0.452845
O O8 0.554358 0.402129 0.052567
O O9 0.388810 0.727031 0.874617
O O10 0.488190 0.605510 0.658072
O O11 0.096417 0.500000 0.625505
O O12 0.240998 0.594247 0.343880
O O13 0.015320 0.646663 0.740273
O O14 0.241823 0.140428 0.085799
O O15 0.736060 0.000000 0.247260
O O16 0.500000 0.594533 0.500000
O O17 0.654794 0.500000 0.210643
#
# Coordination Sequence:
#
# PCOD9212141 Si02
#       7
#     8   8   8   8   8   8   8
#     4  12  24  42  59  91 131 159 199 253 311 362
#     4  10  22  41  64  91 124 161 205 253 303 364
#     4  12  22  39  63  88 123 159 203 254 306 360
#     4  10  22  41  64  91 124 161 205 253 303 364
#     4  12  22  39  63  88 123 159 203 254 306 360
#     4  10  21  41  64  91 124 163 201 245 308 371
#     4  11  23  40  62  87 120 166 208 248 305 373
#
# _framework density 18.664580000000001
#
# number of rings (size 3 to 8) (size 9 to 14) (size 15 to 20)
#    0.000    1.000    5.714    1.714    0.000    2.571 
#    0.000    0.714    0.000    1.714    0.000    0.000 
#    0.000    0.000    0.000    0.000    0.000    0.000 
#
# Total GULP energy -156103.453164 kJ/mol
# GULP energy per Si atom -5575.123327 kJ/mol
# Density = 1.862210 g / cm^3
# Si number density = 18.664580 Si / 1000 Ang^3
#
#
#
# Elastic Constant Matrix: (Units=GPa)
#
#
# Indices 1 2 3 4 5 6 
#
# 1 85.0854 49.1991 38.0240 0.0002 0.0374 0.0001
# 2 49.1991 82.9716 18.1850 -0.0010 -9.0972 0.0004
# 3 38.0240 18.1850 69.1564 0.0001 5.3586 0.0002
# 4 0.0002 -0.0010 0.0001 26.0188 -0.0004 -7.2734
# 5 0.0374 -9.0972 5.3586 -0.0004 14.1756 -0.0001
# 6 0.0001 0.0004 0.0002 -7.2734 -0.0001 27.9080
#
#
#
# Elastic Compliance Matrix: (Units=1/GPa)
#
#
# Indices 1 2 3 4 5 6 
#
# 1 0.022689 -0.011957 -0.008995 -0.000001 -0.004333 0.000000
# 2 -0.011957 0.020553 0.000150 0.000001 0.013165 0.000000
# 3 -0.008995 0.000150 0.019941 0.000000 -0.007418 0.000000
# 4 -0.000001 0.000001 0.000000 0.041454 0.000002 0.010804
# 5 -0.004333 0.013165 -0.007418 0.000002 0.081808 0.000001
# 6 0.000000 0.000000 0.000000 0.010804 0.000001 0.038648
#
#
# Mechanical properties :
#
#
# Convention : Reuss Voigt Hill
#
# Bulk Modulus (GPa) = 46.34316 49.78107 48.06211
# Shear Modulus (GPa) = 18.25556 22.40750 20.33153
#
# Velocity S-wave (km/s) = 3.13083 3.46863 3.30405
# Velocity P-wave (km/s) = 6.16059 6.53997 6.35311
#
# Compressibility (1/GPa) = 0.02157816
#
# Stress axis : x y z
#
# Youngs Moduli (GPa) = 44.07512 48.65450 50.14805
#
# Poissons Ratio (x) = 0.58177 0.45107
# Poissons Ratio (y) = 0.52701 -0.00751
# Poissons Ratio (z) = 0.39645 -0.00729
#
# Static dielectric constant tensor:
#      x y z
#    x 1.656580 0.000000 0.033640 
#    y 0.000000 1.661460 0.000000 
#    z 0.033640 0.000000 1.650020 
# 
# From -- ./inp_files/293873.got.cif
#   From: 2010.05.17/outbox.cif.g08.bks.cpg/sg12_147_cif.got.tgz:293873.got - 2010.06.03 13:09:07.
