data_PCOD9212534
_publ_section_title
;
Structure prediction by ZEFSAII (Michael W. Deem and Ramdas Pophale) SiO2 
 PCOD9212534
Probable space group: C 2/M
;
_chemical_formula_sum "Si O2"
_cell_formula_units_Z 32
_cell_length_a 7.431681
_cell_length_b 26.988591
_cell_length_c 10.340097
_cell_angle_alpha 90.000000
_cell_angle_beta 42.940541
_cell_angle_gamma 90.000000
_cell_volume 1412.834867
_symmetry_space_group_name_H-M "C 2/M"
_symmetry_group_IT_number 12
_symmetry_cell_setting 'monoclinic'
loop_
_space_group_symop_operation_xyz
x,y,z
-x,y,-z
-x,-y,-z
x,-y,z
1/2+x,1/2+y,z
1/2-x,1/2+y,-z
1/2-x,1/2-y,-z
1/2+x,1/2-y,z
loop_
_atom_site_type_symbol
_atom_site_label
_atom_site_fract_x
_atom_site_fract_y
_atom_site_fract_z
Si Si1 0.356537 0.895066 0.291023
Si Si2 0.751980 0.192999 0.460803
Si Si3 0.082061 0.138785 0.094539
Si Si4 0.897439 0.942460 0.353806
O O1 0.274666 0.843251 0.402552
O O2 0.149012 0.919809 0.300959
O O3 0.343438 0.932224 0.421162
O O4 0.627361 0.882982 0.077265
O O5 0.500000 0.183646 0.500000
O O6 0.750000 0.250000 0.500000
O O7 0.013675 0.177854 0.242448
O O8 0.896394 0.092093 0.229081
O O9 0.000000 0.160671 0.000000
O O10 0.928243 0.000000 0.311786
#
# Coordination Sequence:
#
# PCOD9212534 Si02
#       4
#     8   8   8   8
#     4  10  21  42  66  91 132 167 215 268 319 381
#     4  11  25  43  66  94 127 168 218 271 329 387
#     4  11  23  42  64  94 134 170 210 269 326 387
#     4  10  23  41  68  99 130 174 221 266 319 379
#
# _framework density 22.649495999999999
#
# number of rings (size 3 to 8) (size 9 to 14) (size 15 to 20)
#    0.000    1.500    2.500    2.250    7.000    4.500 
#    0.000    1.250    0.000    0.000    0.000    0.000 
#    0.000    0.000    0.000    0.000    0.000    0.000 
#
# Total GULP energy -89373.585387 kJ/mol
# GULP energy per Si atom -5585.849087 kJ/mol
# Density = 2.259794 g / cm^3
# Si number density = 22.649496 Si / 1000 Ang^3
#
#
#
# Elastic Constant Matrix: (Units=GPa)
#
#
# Indices 1 2 3 4 5 6 
#
# 1 53.9646 -1.4168 24.7616 0.0000 -7.3895 0.0000
# 2 -1.4168 172.3731 33.0543 0.0000 17.9145 0.0000
# 3 24.7616 33.0543 166.2296 0.0000 3.7517 0.0000
# 4 0.0000 0.0000 0.0000 22.1329 0.0000 -0.8848
# 5 -7.3895 17.9145 3.7517 0.0000 41.3733 0.0000
# 6 0.0000 0.0000 0.0000 -0.8848 0.0000 26.0439
#
#
#
# Elastic Compliance Matrix: (Units=1/GPa)
#
#
# Indices 1 2 3 4 5 6 
#
# 1 0.020539 0.000393 -0.003223 0.000000 0.003791 0.000000
# 2 0.000393 0.006310 -0.001256 0.000000 -0.002548 0.000000
# 3 -0.003223 -0.001256 0.006760 0.000000 -0.000645 0.000000
# 4 0.000000 0.000000 0.000000 0.045243 0.000000 0.001537
# 5 0.003791 -0.002548 -0.000645 0.000000 0.026009 0.000000
# 6 0.000000 0.000000 0.000000 0.001537 0.000000 0.038449
#
#
# Mechanical properties :
#
#
# Convention : Reuss Voigt Hill
#
# Bulk Modulus (GPa) = 39.31226 56.15173 47.73200
# Shear Modulus (GPa) = 31.25748 40.32122 35.78935
#
# Velocity S-wave (km/s) = 3.71894 4.22385 3.97941
# Velocity P-wave (km/s) = 5.98624 6.97376 6.49879
#
# Compressibility (1/GPa) = 0.02543736
#
# Stress axis : x y z
#
# Youngs Moduli (GPa) = 48.68788 158.47232 147.92527
#
# Poissons Ratio (x) = -0.06227 0.47679
# Poissons Ratio (y) = -0.01913 0.18576
# Poissons Ratio (z) = 0.15693 0.19901
#
# Static dielectric constant tensor:
#      x y z
#    x 1.969840 0.000000 -0.021940 
#    y 0.000000 1.769240 0.000000 
#    z -0.021940 0.000000 1.861640 
# 
# From -- ./inp_files/121553.got.cif
#   From: 2010.05.17/outbox.cif.g08.bks.cpg/sg12_61_cif.got.tgz:121553.got - 2010.06.03 13:09:07.
