data_PCOD9212785
_publ_section_title
;
Structure prediction by ZEFSAII (Michael W. Deem and Ramdas Pophale) SiO2 
 PCOD9212785
Probable space group: C 2/M
;
_chemical_formula_sum "Si O2"
_cell_formula_units_Z 40
_cell_length_a 12.313879
_cell_length_b 23.987255
_cell_length_c 5.401009
_cell_angle_alpha 90.000000
_cell_angle_beta 86.152120
_cell_angle_gamma 90.000000
_cell_volume 1591.732983
_symmetry_space_group_name_H-M "C 2/M"
_symmetry_group_IT_number 12
_symmetry_cell_setting 'monoclinic'
loop_
_space_group_symop_operation_xyz
x,y,z
-x,y,-z
-x,-y,-z
x,-y,z
1/2+x,1/2+y,z
1/2-x,1/2+y,-z
1/2-x,1/2-y,-z
1/2+x,1/2-y,z
loop_
_atom_site_type_symbol
_atom_site_label
_atom_site_fract_x
_atom_site_fract_y
_atom_site_fract_z
Si Si1 0.644630 0.500000 0.312369
Si Si2 0.500000 0.704320 0.500000
Si Si3 0.158237 0.883614 0.287332
Si Si4 0.782526 0.500000 0.792191
Si Si5 0.870872 0.609454 0.550415
Si Si6 0.217901 0.687136 0.067278
Si Si7 0.500000 0.221879 0.000000
O O1 0.589027 0.439935 0.283549
O O2 0.691596 0.500000 0.586102
O O3 0.729548 0.500000 0.069341
O O4 0.397359 0.662588 0.531816
O O5 0.494578 0.740335 0.752908
O O6 0.279240 0.901730 0.356919
O O7 0.184489 0.852573 0.027737
O O8 0.850631 0.556711 0.737693
O O9 0.000000 0.612737 0.500000
O O10 0.825656 0.668209 0.662154
O O11 0.250000 0.750000 0.000000
O O12 0.103914 0.682913 0.938450
#
# Coordination Sequence:
#
# PCOD9212785 Si02
#       7
#     4   4   8   4   8   8   4
#     4  10  22  43  73  99 141 176 235 279 347 413
#     4  12  28  47  72  98 142 185 240 288 340 406
#     4  11  25  45  70 102 140 186 231 290 346 412
#     4  10  21  44  68 104 137 183 217 289 347 418
#     4  11  24  42  70 103 141 182 230 286 351 420
#     4  12  24  41  68  96 139 183 227 284 342 408
#     4  12  28  44  68 106 136 186 232 286 348 416
#
# _framework density 25.129842
#
# number of rings (size 3 to 8) (size 9 to 14) (size 15 to 20)
#    0.000    0.800    4.000    2.700    4.200    2.000 
#    0.000    2.000    0.000    3.600    0.000    0.000 
#    0.000    0.000    0.000    0.000    0.000    0.000 
#
# Total GULP energy -111582.252664 kJ/mol
# GULP energy per Si atom -5579.112633 kJ/mol
# Density = 2.507265 g / cm^3
# Si number density = 25.129842 Si / 1000 Ang^3
#
#
#
# Elastic Constant Matrix: (Units=GPa)
#
#
# Indices 1 2 3 4 5 6 
#
# 1 64.2462 -18.4971 19.9486 0.0000 -16.2748 0.0000
# 2 -18.4971 104.1363 30.8790 0.0000 -5.7690 0.0000
# 3 19.9486 30.8790 132.5428 0.0000 -12.9913 0.0000
# 4 0.0000 0.0000 0.0000 47.6808 0.0000 -5.3270
# 5 -16.2748 -5.7690 -12.9913 0.0000 37.7211 0.0000
# 6 0.0000 0.0000 0.0000 -5.3270 0.0000 23.1634
#
#
#
# Elastic Compliance Matrix: (Units=1/GPa)
#
#
# Indices 1 2 3 4 5 6 
#
# 1 0.020180 0.005053 -0.003400 0.000000 0.008309 0.000000
# 2 0.005053 0.011603 -0.003183 0.000000 0.002858 0.000000
# 3 -0.003400 -0.003183 0.008907 0.000000 0.001114 0.000000
# 4 0.000000 0.000000 0.000000 0.021526 0.000000 0.004950
# 5 0.008309 0.002858 0.001114 0.000000 0.030916 0.000000
# 6 0.000000 0.000000 0.000000 0.004950 0.000000 0.044310
#
#
# Mechanical properties :
#
#
# Convention : Reuss Voigt Hill
#
# Bulk Modulus (GPa) = 26.57507 40.62071 33.59789
# Shear Modulus (GPa) = 32.66980 39.61938 36.14459
#
# Velocity S-wave (km/s) = 3.60952 3.97493 3.79662
# Velocity P-wave (km/s) = 5.28863 6.10461 5.71121
#
# Compressibility (1/GPa) = 0.03762926
#
# Stress axis : x y z
#
# Youngs Moduli (GPa) = 49.55295 86.18707 112.26717
#
# Poissons Ratio (x) = -0.43551 0.38172
# Poissons Ratio (y) = -0.25039 0.35740
# Poissons Ratio (z) = 0.16849 0.27438
#
# Static dielectric constant tensor:
#      x y z
#    x 2.018310 0.000000 0.159920 
#    y 0.000000 2.076380 0.000000 
#    z 0.159920 0.000000 0.934450 
# 
# From -- ./inp_files/11360.got.cif
#   From: 2010.05.17/outbox.cif.g08.bks.cpg/sg12_6_cif.got.tgz:11360.got - 2010.06.03 13:09:07.
