data_PCOD9212397
_publ_section_title
;
Structure prediction by ZEFSAII (Michael W. Deem and Ramdas Pophale) SiO2 
 PCOD9212397
Probable space group: C 2/M
;
_chemical_formula_sum "Si O2"
_cell_formula_units_Z 64
_cell_length_a 17.309531
_cell_length_b 24.779004
_cell_length_c 13.732931
_cell_angle_alpha 90.000000
_cell_angle_beta 148.073980
_cell_angle_gamma 90.000000
_cell_volume 3114.894916
_symmetry_space_group_name_H-M "C 2/M"
_symmetry_group_IT_number 12
_symmetry_cell_setting 'monoclinic'
loop_
_space_group_symop_operation_xyz
x,y,z
-x,y,-z
-x,-y,-z
x,-y,z
1/2+x,1/2+y,z
1/2-x,1/2+y,-z
1/2-x,1/2-y,-z
1/2+x,1/2-y,z
loop_
_atom_site_type_symbol
_atom_site_label
_atom_site_fract_x
_atom_site_fract_y
_atom_site_fract_z
Si Si1 0.837317 0.357939 0.196456
Si Si2 0.808250 0.757572 0.873283
Si Si3 0.135772 0.387939 0.276978
Si Si4 0.672572 0.559454 0.687288
Si Si5 0.818376 0.360243 0.951063
Si Si6 0.601891 0.062854 0.453299
Si Si7 0.845329 0.937985 0.880838
Si Si8 0.637236 0.241730 0.289154
O O1 0.810702 0.300026 0.216854
O O2 0.705881 0.395731 0.093375
O O3 0.979726 0.395520 0.361720
O O4 0.839012 0.346249 0.084374
O O5 0.775748 0.694148 0.850451
O O6 0.817971 0.766559 0.767431
O O7 0.964110 0.760545 0.101172
O O8 0.249644 0.411962 0.321783
O O9 0.151369 0.415947 0.399700
O O10 0.144892 0.323087 0.289895
O O11 0.963198 0.391014 0.067616
O O12 0.500000 0.555476 0.500000
O O13 0.737299 0.500000 0.764490
O O14 0.697907 0.595158 0.809181
O O15 0.730385 0.063864 0.669301
O O16 0.550169 0.000000 0.390825
O O17 0.850682 0.000000 0.922968
O O18 0.000000 0.923648 0.000000
O O19 0.750000 0.250000 0.500000
#
# Coordination Sequence:
#
# PCOD9212397 Si02
#       8
#     8   8   8   8   8   8   8   8
#     4  11  23  38  66  90 131 172 215 267 335 396
#     4  10  22  42  63  97 137 169 217 277 328 396
#     4  10  21  41  69  93 124 168 221 266 330 398
#     4  11  24  40  61  94 131 168 214 272 332 393
#     4  10  22  43  63  90 126 171 210 271 323 385
#     4  10  22  41  65  96 131 169 223 279 331 400
#     4  10  23  41  61  91 129 168 214 275 335 389
#     4  10  22  39  68  99 133 172 219 277 335 396
#
# _framework density 20.546438999999999
#
# number of rings (size 3 to 8) (size 9 to 14) (size 15 to 20)
#    0.000    1.750    1.250    1.875    3.500    6.500 
#    2.250    3.750    0.000    0.000    0.000    0.000 
#    0.000    0.000    0.000    0.000    0.000    0.000 
#
# Total GULP energy -178265.591207 kJ/mol
# GULP energy per Si atom -5570.799725 kJ/mol
# Density = 2.049967 g / cm^3
# Si number density = 20.546439 Si / 1000 Ang^3
#
#
#
# Elastic Constant Matrix: (Units=GPa)
#
#
# Indices 1 2 3 4 5 6 
#
# 1 90.4879 33.6946 23.5056 0.0000 -1.0355 0.0000
# 2 33.6946 66.6779 34.7751 0.0000 14.0742 0.0000
# 3 23.5056 34.7751 70.0341 0.0000 -3.4628 0.0000
# 4 0.0000 0.0000 0.0000 22.2447 0.0000 20.7070
# 5 -1.0355 14.0742 -3.4628 0.0000 26.6100 0.0000
# 6 0.0000 0.0000 0.0000 20.7070 0.0000 34.5361
#
#
#
# Elastic Compliance Matrix: (Units=1/GPa)
#
#
# Indices 1 2 3 4 5 6 
#
# 1 0.014175 -0.007782 -0.000667 0.000000 0.004581 0.000000
# 2 -0.007782 0.029287 -0.012794 0.000000 -0.017458 0.000000
# 3 -0.000667 -0.012794 0.021326 0.000000 0.009516 0.000000
# 4 0.000000 0.000000 0.000000 0.101736 0.000000 -0.060998
# 5 0.004581 -0.017458 0.009516 0.000000 0.048230 0.000000
# 6 0.000000 0.000000 0.000000 -0.060998 0.000000 0.065528
#
#
# Mechanical properties :
#
#
# Convention : Reuss Voigt Hill
#
# Bulk Modulus (GPa) = 44.83810 45.68339 45.26074
# Shear Modulus (GPa) = 15.14226 25.69315 20.41770
#
# Velocity S-wave (km/s) = 2.71768 3.54007 3.15578
# Velocity P-wave (km/s) = 5.63186 6.24435 5.94600
#
# Compressibility (1/GPa) = 0.02230246
#
# Stress axis : x y z
#
# Youngs Moduli (GPa) = 70.54874 34.14426 46.89160
#
# Poissons Ratio (x) = 0.26571 0.03127
# Poissons Ratio (y) = 0.54901 0.59992
# Poissons Ratio (z) = 0.04704 0.43684
#
# Static dielectric constant tensor:
#      x y z
#    x 1.777010 0.000000 0.062650 
#    y 0.000000 1.739520 0.000000 
#    z 0.062650 0.000000 1.895540 
# 
# From -- ./inp_files/228184.got.cif
#   From: 2010.05.17/outbox.cif.g08.bks.cpg/sg12_115_cif.got.tgz:228184.got - 2010.06.03 13:09:07.
