data_PCOD9212124
_publ_section_title
;
Structure prediction by ZEFSAII (Michael W. Deem and Ramdas Pophale) SiO2 
 PCOD9212124
Probable space group: C 2/M
;
_chemical_formula_sum "Si O2"
_cell_formula_units_Z 58
_cell_length_a 7.980847
_cell_length_b 28.458841
_cell_length_c 11.757932
_cell_angle_alpha 90.000000
_cell_angle_beta 97.773842
_cell_angle_gamma 90.000000
_cell_volume 2645.985056
_symmetry_space_group_name_H-M "C 2/M"
_symmetry_group_IT_number 12
_symmetry_cell_setting 'monoclinic'
loop_
_space_group_symop_operation_xyz
x,y,z
-x,y,-z
-x,-y,-z
x,-y,z
1/2+x,1/2+y,z
1/2-x,1/2+y,-z
1/2-x,1/2-y,-z
1/2+x,1/2-y,z
loop_
_atom_site_type_symbol
_atom_site_label
_atom_site_fract_x
_atom_site_fract_y
_atom_site_fract_z
Si Si1 0.072219 0.804023 0.220638
Si Si2 0.335945 0.173788 0.421630
Si Si3 0.251388 0.653234 0.969872
Si Si4 0.164126 0.552353 0.935906
Si Si5 0.421189 0.799936 0.842170
Si Si6 0.497133 0.083276 0.683619
Si Si7 0.287804 0.347379 0.350640
Si Si8 0.000000 0.500000 0.500000
O O1 0.240126 0.797356 0.315299
O O2 0.112730 0.833595 0.111898
O O3 0.022999 0.753590 0.163250
O O4 0.951686 0.833296 0.294027
O O5 0.500000 0.195880 0.500000
O O6 0.401301 0.125703 0.368873
O O7 0.211037 0.160050 0.514403
O O8 0.263181 0.597782 0.992800
O O9 0.073906 0.665915 0.889512
O O10 0.223176 0.685988 0.078367
O O11 0.243312 0.500000 0.941265
O O12 0.096601 0.566587 0.804632
O O13 0.000000 0.549577 0.000000
O O14 0.348589 0.811498 0.713625
O O15 0.306630 0.103462 0.686767
O O16 0.486363 0.040756 0.596642
#
# Coordination Sequence:
#
# PCOD9212124 Si02
#       8
#     8   8   8   8   8   8   8   2
#     4  12  24  37  63  92 128 176 212 266 344 400
#     4  10  21  41  64  86 125 173 215 264 321 383
#     4  11  21  43  63  89 132 166 221 280 318 393
#     4  11  20  35  67  98 118 161 220 277 326 370
#     4  11  23  40  62  89 125 171 229 265 320 396
#     4  11  20  39  66  95 128 168 214 276 311 396
#     4  11  22  38  59  92 132 166 210 268 342 382
#     4  12  20  36  74 106 116 174 244 252 328 392
#
# _framework density 21.920003999999999
#
# number of rings (size 3 to 8) (size 9 to 14) (size 15 to 20)
#    0.000    0.966    6.897    2.483    0.000    2.207 
#    0.000    2.759    1.517    0.828    0.000    2.897 
#    0.000    0.000    0.000    0.000    0.000    0.000 
#
# Total GULP energy -161587.562381 kJ/mol
# GULP energy per Si atom -5571.984910 kJ/mol
# Density = 2.187011 g / cm^3
# Si number density = 21.920004 Si / 1000 Ang^3
#
#
#
# Elastic Constant Matrix: (Units=GPa)
#
#
# Indices 1 2 3 4 5 6 
#
# 1 60.0050 29.0851 32.3183 0.0000 -22.5776 0.0000
# 2 29.0851 158.6149 34.3172 0.0000 -16.3194 0.0000
# 3 32.3183 34.3172 131.0178 0.0000 -27.8984 0.0000
# 4 0.0000 0.0000 0.0000 17.6164 0.0000 -10.9340
# 5 -22.5776 -16.3194 -27.8984 0.0000 47.3112 0.0000
# 6 0.0000 0.0000 0.0000 -10.9340 0.0000 9.1885
#
#
#
# Elastic Compliance Matrix: (Units=1/GPa)
#
#
# Indices 1 2 3 4 5 6 
#
# 1 0.022689 -0.002643 -0.003194 0.000000 0.008032 0.000000
# 2 -0.002643 0.007080 -0.001088 0.000000 0.000540 0.000000
# 3 -0.003194 -0.001088 0.009493 0.000000 0.003698 0.000000
# 4 0.000000 0.000000 0.000000 0.217143 0.000000 0.258394
# 5 0.008032 0.000540 0.003698 0.000000 0.027337 0.000000
# 6 0.000000 0.000000 0.000000 0.258394 0.000000 0.416312
#
#
# Mechanical properties :
#
#
# Convention : Reuss Voigt Hill
#
# Bulk Modulus (GPa) = 39.35075 60.11985 49.73530
# Shear Modulus (GPa) = 6.92162 31.75102 19.33632
#
# Velocity S-wave (km/s) = 1.77891 3.81004 2.97329
# Velocity P-wave (km/s) = 4.71278 6.84410 5.87588
#
# Compressibility (1/GPa) = 0.02541248
#
# Stress axis : x y z
#
# Youngs Moduli (GPa) = 44.07440 141.24205 105.34287
#
# Poissons Ratio (x) = 0.37330 0.33647
# Poissons Ratio (y) = 0.11649 0.11457
# Poissons Ratio (z) = 0.14078 0.15362
#
# Static dielectric constant tensor:
#      x y z
#    x 1.949060 0.000000 0.018560 
#    y 0.000000 1.817140 0.000000 
#    z 0.018560 0.000000 1.839580 
# 
# From -- ./inp_files/124300.got.cif
#   From: 2010.05.17/outbox.cif.g08.bks.cpg/sg12_63_cif.got.tgz:124300.got - 2010.06.03 13:09:07.
