data_PCOD9212426
_publ_section_title
;
Structure prediction by ZEFSAII (Michael W. Deem and Ramdas Pophale) SiO2 
 PCOD9212426
Probable space group: C 2/M
;
_chemical_formula_sum "Si O2"
_cell_formula_units_Z 48
_cell_length_a 10.298408
_cell_length_b 25.748113
_cell_length_c 9.232661
_cell_angle_alpha 90.000000
_cell_angle_beta 101.282181
_cell_angle_gamma 90.000000
_cell_volume 2400.864984
_symmetry_space_group_name_H-M "C 2/M"
_symmetry_group_IT_number 12
_symmetry_cell_setting 'monoclinic'
loop_
_space_group_symop_operation_xyz
x,y,z
-x,y,-z
-x,-y,-z
x,-y,z
1/2+x,1/2+y,z
1/2-x,1/2+y,-z
1/2-x,1/2-y,-z
1/2+x,1/2-y,z
loop_
_atom_site_type_symbol
_atom_site_label
_atom_site_fract_x
_atom_site_fract_y
_atom_site_fract_z
Si Si1 0.401978 0.806097 0.612876
Si Si2 0.616321 0.413157 0.223604
Si Si3 0.564808 0.000000 0.354521
Si Si4 0.929463 0.600813 0.829677
Si Si5 0.614735 0.313888 0.409522
Si Si6 0.183783 0.060685 0.924666
Si Si7 0.648571 0.500000 0.463190
O O1 0.500000 0.814219 0.500000
O O2 0.442605 0.845505 0.747257
O O3 0.406171 0.744923 0.650545
O O4 0.253921 0.816976 0.523942
O O5 0.614152 0.354914 0.280455
O O6 0.468127 0.432330 0.154454
O O7 0.663933 0.449969 0.363503
O O8 0.696596 0.419951 0.092792
O O9 0.500000 0.000000 0.500000
O O10 0.526369 0.948023 0.258880
O O11 0.725595 0.000000 0.403892
O O12 0.775857 0.591689 0.835779
O O13 0.000000 0.600185 0.000000
O O14 0.500000 0.326228 0.500000
O O15 0.219207 0.000000 0.929693
O O16 0.500000 0.500000 0.500000
#
# Coordination Sequence:
#
# PCOD9212426 Si02
#       7
#     8   8   4   8   8   8   4
#     4  10  23  44  67  94 128 170 219 270 320 381
#     4  11  21  37  64  94 124 165 207 264 325 386
#     4  12  27  40  62  93 123 163 219 262 311 385
#     4  12  26  42  63  89 132 175 213 260 322 386
#     4  10  21  41  70  93 128 165 219 273 325 368
#     4  11  22  41  60  91 136 166 207 260 332 385
#     4  12  22  35  64  91 122 155 211 259 311 379
#
# _framework density 19.992792999999999
#
# number of rings (size 3 to 8) (size 9 to 14) (size 15 to 20)
#    0.000    1.000    2.500    4.750    4.667    0.000 
#    3.000    0.833    0.000    0.000    0.000    0.000 
#    0.000    0.000    0.000    0.000    0.000    0.000 
#
# Total GULP energy -134269.313748 kJ/mol
# GULP energy per Si atom -5594.554739 kJ/mol
# Density = 1.994729 g / cm^3
# Si number density = 19.992793 Si / 1000 Ang^3
#
#
#
# Elastic Constant Matrix: (Units=GPa)
#
#
# Indices 1 2 3 4 5 6 
#
# 1 72.8487 15.3260 18.1638 0.0000 -11.0513 0.0000
# 2 15.3260 122.3897 85.7543 0.0000 -18.0894 0.0000
# 3 18.1638 85.7543 122.2718 0.0000 -9.4660 0.0000
# 4 0.0000 0.0000 0.0000 28.2851 0.0000 -20.3973
# 5 -11.0513 -18.0894 -9.4660 0.0000 31.4431 0.0000
# 6 0.0000 0.0000 0.0000 -20.3973 0.0000 7.0921
#
#
#
# Elastic Compliance Matrix: (Units=1/GPa)
#
#
# Indices 1 2 3 4 5 6 
#
# 1 0.014902 0.000259 -0.002026 0.000000 0.004777 0.000000
# 2 0.000259 0.017253 -0.011634 0.000000 0.006514 0.000000
# 3 -0.002026 -0.011634 0.016449 0.000000 -0.002453 0.000000
# 4 0.000000 0.000000 0.000000 -0.032917 0.000000 -0.094672
# 5 0.004777 0.006514 -0.002453 0.000000 0.036492 0.000000
# 6 0.000000 0.000000 0.000000 -0.094672 0.000000 -0.131282
#
#
# Mechanical properties :
#
#
# Convention : Reuss Voigt Hill
#
# Bulk Modulus (GPa) = 45.86593 61.77760 53.82176
# Shear Modulus (GPa) = -111.02484 26.58179 -42.22152
#
# Velocity S-wave (km/s) = -7.46009 3.65028 -4.60046
# Velocity P-wave (km/s) = 7.15632 6.98091 1.11352
#
# Compressibility (1/GPa) = 0.02180267
#
# Stress axis : x y z
#
# Youngs Moduli (GPa) = 67.10364 57.96204 60.79358
#
# Poissons Ratio (x) = -0.01504 0.12316
# Poissons Ratio (y) = -0.01741 0.70729
# Poissons Ratio (z) = 0.13594 0.67434
#
# Static dielectric constant tensor:
#      x y z
#    x 1.736080 0.000000 0.015840 
#    y 0.000000 1.683100 0.000000 
#    z 0.015840 0.000000 1.689630 
# 
# From -- ./inp_files/51495.got.cif
#   From: 2010.05.17/outbox.cif.g08.bks.cpg/sg12_26_cif.got.tgz:51495.got - 2010.06.03 13:09:07.
