data_PCOD9212915
_publ_section_title
;
Structure prediction by ZEFSAII (Michael W. Deem and Ramdas Pophale) SiO2 
 PCOD9212915
Probable space group: C 2/M
;
_chemical_formula_sum "Si O2"
_cell_formula_units_Z 52
_cell_length_a 5.703386
_cell_length_b 28.133003
_cell_length_c 15.995093
_cell_angle_alpha 90.000000
_cell_angle_beta 120.807503
_cell_angle_gamma 90.000000
_cell_volume 2204.319832
_symmetry_space_group_name_H-M "C 2/M"
_symmetry_group_IT_number 12
_symmetry_cell_setting 'monoclinic'
loop_
_space_group_symop_operation_xyz
x,y,z
-x,y,-z
-x,-y,-z
x,-y,z
1/2+x,1/2+y,z
1/2-x,1/2+y,-z
1/2-x,1/2-y,-z
1/2+x,1/2-y,z
loop_
_atom_site_type_symbol
_atom_site_label
_atom_site_fract_x
_atom_site_fract_y
_atom_site_fract_z
Si Si1 0.275413 0.946976 0.597916
Si Si2 0.337592 0.550273 0.226513
Si Si3 0.737259 0.917972 0.919800
Si Si4 0.500000 0.147698 0.000000
Si Si5 0.906637 0.269538 0.869866
Si Si6 0.388796 0.765336 0.345010
Si Si7 0.777114 0.624878 0.269590
O O1 0.203699 0.951615 0.682143
O O2 0.505649 0.907040 0.638696
O O3 0.000000 0.933511 0.500000
O O4 0.362203 0.000000 0.583894
O O5 0.476705 0.500000 0.225023
O O6 0.494161 0.599033 0.239329
O O7 0.042724 0.553045 0.130621
O O8 0.725743 0.881687 0.994690
O O9 0.707466 0.888487 0.826801
O O10 0.000000 0.946643 0.000000
O O11 0.627958 0.180203 0.094069
O O12 0.725365 0.238353 0.903098
O O13 0.752380 0.265179 0.754733
O O14 0.207854 0.749699 0.392687
O O15 0.328311 0.820451 0.306101
#
# Coordination Sequence:
#
# PCOD9212915 Si02
#       7
#     8   8   8   4   8   8   8
#     4   9  20  41  72 109 138 163 209 278 355 425
#     4  10  23  43  67  96 131 172 221 276 343 418
#     4  11  25  38  59  89 126 181 229 281 333 404
#     4  12  24  36  57  80 122 170 227 286 336 388
#     4  10  22  35  53  81 117 162 221 284 343 387
#     4  10  23  38  61  93 134 182 231 284 340 406
#     4  11  23  40  67  95 138 177 225 279 347 409
#
# _framework density 23.590042
#
# number of rings (size 3 to 8) (size 9 to 14) (size 15 to 20)
#    0.000    1.692    0.000    3.692   15.077    1.538 
#    0.000    5.000    0.000    0.923    0.000    0.000 
#    0.000    0.000    0.000    0.000    0.000    0.000 
#
# Total GULP energy -144901.207084 kJ/mol
# GULP energy per Si atom -5573.123349 kJ/mol
# Density = 2.353635 g / cm^3
# Si number density = 23.590042 Si / 1000 Ang^3
#
#
#
# Elastic Constant Matrix: (Units=GPa)
#
#
# Indices 1 2 3 4 5 6 
#
# 1 125.2301 41.5913 31.0695 0.0000 14.0982 0.0000
# 2 41.5913 123.3143 26.8678 0.0000 14.2487 0.0000
# 3 31.0695 26.8678 107.6397 0.0000 36.1694 0.0000
# 4 0.0000 0.0000 0.0000 19.6161 0.0000 -1.3427
# 5 14.0982 14.2487 36.1694 0.0000 36.6570 0.0000
# 6 0.0000 0.0000 0.0000 -1.3427 0.0000 16.6549
#
#
#
# Elastic Compliance Matrix: (Units=1/GPa)
#
#
# Indices 1 2 3 4 5 6 
#
# 1 0.009411 -0.002694 -0.001765 0.000000 -0.000831 0.000000
# 2 -0.002694 0.009429 -0.001036 0.000000 -0.001607 0.000000
# 3 -0.001765 -0.001036 0.014504 0.000000 -0.013229 0.000000
# 4 0.000000 0.000000 0.000000 0.051261 0.000000 0.004133
# 5 -0.000831 -0.001607 -0.013229 0.000000 0.041277 0.000000
# 6 0.000000 0.000000 0.000000 0.004133 0.000000 0.060376
#
#
# Mechanical properties :
#
#
# Convention : Reuss Voigt Hill
#
# Bulk Modulus (GPa) = 44.73322 61.69348 53.21335
# Shear Modulus (GPa) = 24.42602 31.69595 28.06099
#
# Velocity S-wave (km/s) = 3.22131 3.66951 3.45269
# Velocity P-wave (km/s) = 5.73060 6.64552 6.20494
#
# Compressibility (1/GPa) = 0.02235475
#
# Stress axis : x y z
#
# Youngs Moduli (GPa) = 106.25461 106.05223 68.94828
#
# Poissons Ratio (x) = 0.28567 0.12169
# Poissons Ratio (y) = 0.28622 0.07144
# Poissons Ratio (z) = 0.18753 0.10989
#
# Static dielectric constant tensor:
#      x y z
#    x 2.396350 0.000000 0.190620 
#    y 0.000000 1.913070 0.000000 
#    z 0.190620 0.000000 1.936520 
# 
# From -- ./inp_files/253674.got.cif
#   From: 2010.05.17/outbox.cif.g08.bks.cpg/sg12_127_cif.got.tgz:253674.got - 2010.06.03 13:09:07.
