data_PCOD9212358
_publ_section_title
;
Structure prediction by ZEFSAII (Michael W. Deem and Ramdas Pophale) SiO2 
 PCOD9212358
Probable space group: C 2/M
;
_chemical_formula_sum "Si O2"
_cell_formula_units_Z 48
_cell_length_a 10.080905
_cell_length_b 15.083259
_cell_length_c 17.338535
_cell_angle_alpha 90.000000
_cell_angle_beta 91.815219
_cell_angle_gamma 90.000000
_cell_volume 2635.051566
_symmetry_space_group_name_H-M "C 2/M"
_symmetry_group_IT_number 12
_symmetry_cell_setting 'monoclinic'
loop_
_space_group_symop_operation_xyz
x,y,z
-x,y,-z
-x,-y,-z
x,-y,z
1/2+x,1/2+y,z
1/2-x,1/2+y,-z
1/2-x,1/2-y,-z
1/2+x,1/2-y,z
loop_
_atom_site_type_symbol
_atom_site_label
_atom_site_fract_x
_atom_site_fract_y
_atom_site_fract_z
Si Si1 0.206752 0.600558 0.827900
Si Si2 0.395010 0.500000 0.428943
Si Si3 0.649479 0.000000 0.533577
Si Si4 0.972847 0.173060 0.334927
Si Si5 0.477277 0.603310 0.162466
Si Si6 0.713288 0.159978 0.650978
Si Si7 0.379826 0.754101 0.054381
O O1 0.162422 0.500000 0.842540
O O2 0.364219 0.606308 0.848276
O O3 0.193086 0.620745 0.736725
O O4 0.134735 0.672528 0.879166
O O5 0.500000 0.500000 0.500000
O O6 0.250198 0.500000 0.463694
O O7 0.423986 0.586898 0.379707
O O8 0.500000 0.000000 0.500000
O O9 0.680052 0.914422 0.587220
O O10 0.953751 0.150337 0.244274
O O11 0.884639 0.256667 0.357491
O O12 0.130674 0.185529 0.352137
O O13 0.437908 0.500000 0.164772
O O14 0.405916 0.659911 0.095737
O O15 0.500000 0.775625 0.000000
O O16 0.250000 0.750000 0.000000
#
# Coordination Sequence:
#
# PCOD9212358 Si02
#       7
#     8   4   4   8   8   8   8
#     4  10  21  41  69  92 127 173 218 262 318 390
#     4  12  24  46  66  98 136 165 212 279 329 373
#     4  12  28  46  66 100 138 168 214 273 330 383
#     4  11  23  41  71  97 128 173 220 266 320 392
#     4  10  21  41  68  94 124 176 223 253 316 398
#     4  11  23  43  69  97 128 174 221 261 325 391
#     4  12  24  40  63  99 134 162 211 277 327 369
#
# _framework density 18.215962000000001
#
# number of rings (size 3 to 8) (size 9 to 14) (size 15 to 20)
#    0.000    1.000    6.667    0.000    2.333    2.667 
#    0.000    0.000    0.000    0.000    0.000    0.000 
#    0.000    0.000    0.000    0.000    0.000    0.000 
#
# Total GULP energy -134121.458317 kJ/mol
# GULP energy per Si atom -5588.394097 kJ/mol
# Density = 1.817450 g / cm^3
# Si number density = 18.215962 Si / 1000 Ang^3
#
#
#
# Elastic Constant Matrix: (Units=GPa)
#
#
# Indices 1 2 3 4 5 6 
#
# 1 124.3896 56.5625 56.6959 0.0000 -6.7229 0.0000
# 2 56.5625 143.2166 36.7974 0.0000 -7.1712 0.0000
# 3 56.6959 36.7974 82.6083 0.0000 -4.9405 0.0000
# 4 0.0000 0.0000 0.0000 28.9249 0.0000 -11.3102
# 5 -6.7229 -7.1712 -4.9405 0.0000 37.0584 0.0000
# 6 0.0000 0.0000 0.0000 -11.3102 0.0000 22.4699
#
#
#
# Elastic Compliance Matrix: (Units=1/GPa)
#
#
# Indices 1 2 3 4 5 6 
#
# 1 0.012882 -0.003151 -0.007393 0.000000 0.000742 0.000000
# 2 -0.003151 0.008698 -0.001658 0.000000 0.000890 0.000000
# 3 -0.007393 -0.001658 0.017962 0.000000 0.000732 0.000000
# 4 0.000000 0.000000 0.000000 0.043044 0.000000 0.021666
# 5 0.000742 0.000890 0.000732 0.000000 0.027389 0.000000
# 6 0.000000 0.000000 0.000000 0.021666 0.000000 0.055410
#
#
# Mechanical properties :
#
#
# Convention : Reuss Voigt Hill
#
# Bulk Modulus (GPa) = 66.06664 72.25848 69.16256
# Shear Modulus (GPa) = 25.66274 31.03455 28.34865
#
# Velocity S-wave (km/s) = 3.75748 4.13207 3.94922
# Velocity P-wave (km/s) = 7.42779 7.90690 7.67109
#
# Compressibility (1/GPa) = 0.01513623
#
# Stress axis : x y z
#
# Youngs Moduli (GPa) = 77.62829 114.97457 55.67298
#
# Poissons Ratio (x) = 0.36228 0.41160
# Poissons Ratio (y) = 0.24460 0.09233
# Poissons Ratio (z) = 0.57392 0.19069
#
# Static dielectric constant tensor:
#      x y z
#    x 1.604240 0.000000 -0.009300 
#    y 0.000000 1.588820 0.000000 
#    z -0.009300 0.000000 1.636110 
# 
# From -- ./inp_files/255820.got.cif
#   From: 2010.05.17/outbox.cif.g08.bks.cpg/sg12_128_cif.got.tgz:255820.got - 2010.06.03 13:09:07.
