data_PCOD9212232
_publ_section_title
;
Structure prediction by ZEFSAII (Michael W. Deem and Ramdas Pophale) SiO2 
 PCOD9212232
Probable space group: C 2/M
;
_chemical_formula_sum "Si O2"
_cell_formula_units_Z 50
_cell_length_a 24.594402
_cell_length_b 7.823568
_cell_length_c 14.747863
_cell_angle_alpha 90.000000
_cell_angle_beta 127.404071
_cell_angle_gamma 90.000000
_cell_volume 2254.207331
_symmetry_space_group_name_H-M "C 2/M"
_symmetry_group_IT_number 12
_symmetry_cell_setting 'monoclinic'
loop_
_space_group_symop_operation_xyz
x,y,z
-x,y,-z
-x,-y,-z
x,-y,z
1/2+x,1/2+y,z
1/2-x,1/2+y,-z
1/2-x,1/2-y,-z
1/2+x,1/2-y,z
loop_
_atom_site_type_symbol
_atom_site_label
_atom_site_fract_x
_atom_site_fract_y
_atom_site_fract_z
Si Si1 0.042133 0.295484 0.923345
Si Si2 0.681865 0.198681 0.376743
Si Si3 0.330618 0.706693 0.290554
Si Si4 0.047707 0.301739 0.714536
Si Si5 0.500000 0.500000 0.000000
Si Si6 0.320694 0.791963 0.829654
Si Si7 0.598434 0.305018 0.455638
O O1 0.026393 0.500000 0.923512
O O2 0.050939 0.272364 0.825186
O O3 0.991757 0.154928 0.914249
O O4 0.113639 0.245648 0.044832
O O5 0.750000 0.250000 0.500000
O O6 0.675529 0.275471 0.269866
O O7 0.618536 0.222753 0.380479
O O8 0.689169 0.000000 0.366981
O O9 0.331388 0.500000 0.294171
O O10 0.381741 0.760224 0.263361
O O11 0.252138 0.762986 0.203063
O O12 0.361108 0.769817 0.417674
O O13 0.031943 0.500000 0.683486
O O14 0.982298 0.202925 0.609543
O O15 0.320951 0.000000 0.829892
O O16 0.621331 0.500000 0.469835
#
# Coordination Sequence:
#
# PCOD9212232 Si02
#       7
#     8   8   8   8   2   8   8
#     4  10  25  46  67  99 136 170 216 270 321 387
#     4  11  21  37  61  91 126 164 205 257 321 385
#     4  10  21  41  66  90 124 171 218 268 320 386
#     4  11  25  42  62  93 130 169 213 266 328 381
#     4  12  26  44  72  98 130 176 216 260 322 396
#     4   9  20  42  65  89 128 171 210 264 330 378
#     4  11  23  39  62  93 126 167 217 270 322 383
#
# _framework density 22.180745999999999
#
# number of rings (size 3 to 8) (size 9 to 14) (size 15 to 20)
#    0.000    1.600    1.600    2.160    4.480    3.840 
#    2.880    0.000    0.000    0.000    0.000    0.000 
#    0.000    0.000    0.000    0.000    0.000    0.000 
#
# Total GULP energy -139460.817352 kJ/mol
# GULP energy per Si atom -5578.432694 kJ/mol
# Density = 2.213026 g / cm^3
# Si number density = 22.180746 Si / 1000 Ang^3
#
#
#
# Elastic Constant Matrix: (Units=GPa)
#
#
# Indices 1 2 3 4 5 6 
#
# 1 100.9154 4.5811 15.1994 0.0000 6.9238 0.0000
# 2 4.5811 56.8345 9.0283 0.0000 -2.1454 0.0000
# 3 15.1994 9.0283 66.1311 0.0000 13.5256 0.0000
# 4 0.0000 0.0000 0.0000 15.8524 0.0000 -7.5090
# 5 6.9238 -2.1454 13.5256 0.0000 28.8599 0.0000
# 6 0.0000 0.0000 0.0000 -7.5090 0.0000 24.1019
#
#
#
# Elastic Compliance Matrix: (Units=1/GPa)
#
#
# Indices 1 2 3 4 5 6 
#
# 1 0.010342 -0.000581 -0.001970 0.000000 -0.001601 0.000000
# 2 -0.000581 0.018217 -0.002941 0.000000 0.002872 0.000000
# 3 -0.001970 -0.002941 0.017612 0.000000 -0.008000 0.000000
# 4 0.000000 0.000000 0.000000 0.074003 0.000000 0.023056
# 5 -0.001601 0.002872 -0.008000 0.000000 0.038997 0.000000
# 6 0.000000 0.000000 0.000000 0.023056 0.000000 0.048673
#
#
# Mechanical properties :
#
#
# Convention : Reuss Voigt Hill
#
# Bulk Modulus (GPa) = 28.41940 31.27761 29.84850
# Shear Modulus (GPa) = 21.68645 26.76767 24.22706
#
# Velocity S-wave (km/s) = 3.13024 3.47767 3.30852
# Velocity P-wave (km/s) = 5.08969 5.50067 5.29917
#
# Compressibility (1/GPa) = 0.03518723
#
# Stress axis : x y z
#
# Youngs Moduli (GPa) = 96.69062 54.89267 56.77930
#
# Poissons Ratio (x) = 0.03190 0.11187
# Poissons Ratio (y) = 0.05619 0.16698
# Poissons Ratio (z) = 0.19050 0.16143
#
# Static dielectric constant tensor:
#      x y z
#    x 1.831210 0.000000 0.000080 
#    y 0.000000 1.827790 0.000000 
#    z 0.000080 0.000000 1.867570 
# 
# From -- ./inp_files/237941.got.cif
#   From: 2010.05.17/outbox.cif.g08.bks.cpg/sg12_119_cif.got.tgz:237941.got - 2010.06.03 13:09:07.
