data_PCOD9212378
_publ_section_title
;
Structure prediction by ZEFSAII (Michael W. Deem and Ramdas Pophale) SiO2 
 PCOD9212378
Probable space group: C 2/M
;
_chemical_formula_sum "Si O2"
_cell_formula_units_Z 64
_cell_length_a 19.861300
_cell_length_b 24.781328
_cell_length_c 16.174424
_cell_angle_alpha 90.000000
_cell_angle_beta 159.047257
_cell_angle_gamma 90.000000
_cell_volume 2846.793288
_symmetry_space_group_name_H-M "C 2/M"
_symmetry_group_IT_number 12
_symmetry_cell_setting 'monoclinic'
loop_
_space_group_symop_operation_xyz
x,y,z
-x,y,-z
-x,-y,-z
x,-y,z
1/2+x,1/2+y,z
1/2-x,1/2+y,-z
1/2-x,1/2-y,-z
1/2+x,1/2-y,z
loop_
_atom_site_type_symbol
_atom_site_label
_atom_site_fract_x
_atom_site_fract_y
_atom_site_fract_z
Si Si1 0.260717 0.059256 0.019656
Si Si2 0.394386 0.177418 0.961518
Si Si3 0.513320 0.135193 0.610899
Si Si4 0.617185 0.741964 0.765232
Si Si5 0.174838 0.940218 0.261378
Si Si6 0.950369 0.560950 0.059686
Si Si7 0.216014 0.197462 0.514733
Si Si8 0.363487 0.418512 0.596533
O O1 0.319243 0.104560 0.151013
O O2 0.374907 0.065173 0.066680
O O3 0.300010 0.000000 0.099743
O O4 0.042629 0.064738 0.749522
O O5 0.231221 0.210946 0.822157
O O6 0.500000 0.199887 0.000000
O O7 0.359386 0.112978 0.909194
O O8 0.572174 0.178770 0.225859
O O9 0.500000 0.122132 0.500000
O O10 0.548090 0.198581 0.660926
O O11 0.325160 0.107985 0.430976
O O12 0.425994 0.710972 0.572855
O O13 0.750000 0.750000 0.000000
O O14 0.121295 0.944319 0.295980
O O15 0.251301 0.000000 0.324887
O O16 0.000000 0.929318 0.000000
O O17 0.906803 0.500000 0.979349
O O18 0.175080 0.566946 0.330551
O O19 0.250000 0.250000 0.500000
O O20 0.123920 0.145170 0.369747
#
# Coordination Sequence:
#
# PCOD9212378 Si02
#       8
#     8   8   8   8   8   8   8   8
#     4  11  22  38  64  95 131 173 218 271 326 389
#     4  11  26  44  68 100 135 173 216 279 350 396
#     4  12  26  41  60  95 129 174 222 276 330 397
#     4  12  25  47  68  94 132 175 228 278 330 399
#     4  11  23  40  62  92 139 181 216 274 336 394
#     4  10  21  41  68  97 129 170 222 272 326 405
#     4  11  23  41  69  95 125 177 223 274 332 402
#     4  11  21  38  62  95 125 167 224 269 325 394
#
# _framework density 22.481435999999999
#
# number of rings (size 3 to 8) (size 9 to 14) (size 15 to 20)
#    0.000    0.875    2.500    5.250    1.750    2.250 
#    2.250    0.000    0.000    0.000    0.000    7.000 
#    0.000    0.000    0.000    0.000    0.000    0.000 
#
# Total GULP energy -178637.185674 kJ/mol
# GULP energy per Si atom -5582.412052 kJ/mol
# Density = 2.243027 g / cm^3
# Si number density = 22.481436 Si / 1000 Ang^3
#
#
#
# Elastic Constant Matrix: (Units=GPa)
#
#
# Indices 1 2 3 4 5 6 
#
# 1 92.5706 53.8287 17.8831 0.0000 24.1808 -0.0003
# 2 53.8287 163.2058 32.1263 0.0000 26.2865 -0.0003
# 3 17.8831 32.1263 81.3390 0.0001 39.5397 -0.0002
# 4 0.0000 0.0000 0.0001 10.1580 0.0001 35.0886
# 5 24.1808 26.2865 39.5397 0.0001 32.5107 -0.0005
# 6 -0.0003 -0.0003 -0.0002 35.0886 -0.0005 -102.7093
#
#
#
# Elastic Compliance Matrix: (Units=1/GPa)
#
#
# Indices 1 2 3 4 5 6 
#
# 1 0.016055 -0.003883 0.005583 0.000000 -0.015592 0.000000
# 2 -0.003883 0.007984 -0.001384 0.000000 -0.001885 0.000000
# 3 0.005583 -0.001384 0.032017 0.000000 -0.041973 0.000000
# 4 0.000000 0.000000 0.000000 0.045156 0.000000 0.015427
# 5 -0.015592 -0.001885 -0.041973 0.000000 0.094928 0.000000
# 6 0.000000 0.000000 0.000000 0.015427 0.000000 -0.004466
#
#
# Mechanical properties :
#
#
# Convention : Reuss Voigt Hill
#
# Bulk Modulus (GPa) = 17.64013 60.53239 39.08626
# Shear Modulus (GPa) = 23.81685 3.54371 13.68028
#
# Velocity S-wave (km/s) = 3.25837 1.25686 2.46949
# Velocity P-wave (km/s) = 4.69250 5.39354 5.05519
#
# Compressibility (1/GPa) = 0.05668892
#
# Stress axis : x y z
#
# Youngs Moduli (GPa) = 62.28696 125.25393 31.23386
#
# Poissons Ratio (x) = 0.48635 -0.17439
# Poissons Ratio (y) = 0.24185 0.04321
# Poissons Ratio (z) = -0.34777 0.17329
#
# Static dielectric constant tensor:
#      x y z
#    x 1.728030 0.000000 -0.037350 
#    y 0.000000 1.877820 0.000000 
#    z -0.037350 0.000000 1.835120 
# 
# From -- ./inp_files/286446.got.cif
#   From: 2010.05.17/outbox.cif.g08.bks.cpg/sg12_144_cif.got.tgz:286446.got - 2010.06.03 13:09:07.
