data_PCOD9212781
_publ_section_title
;
Structure prediction by ZEFSAII (Michael W. Deem and Ramdas Pophale) SiO2 
 PCOD9212781
Probable space group: C 2/M
;
_chemical_formula_sum "Si O2"
_cell_formula_units_Z 56
_cell_length_a 13.882593
_cell_length_b 22.672150
_cell_length_c 8.972015
_cell_angle_alpha 90.000000
_cell_angle_beta 92.009003
_cell_angle_gamma 90.000000
_cell_volume 2822.190069
_symmetry_space_group_name_H-M "C 2/M"
_symmetry_group_IT_number 12
_symmetry_cell_setting 'monoclinic'
loop_
_space_group_symop_operation_xyz
x,y,z
-x,y,-z
-x,-y,-z
x,-y,z
1/2+x,1/2+y,z
1/2-x,1/2+y,-z
1/2-x,1/2-y,-z
1/2+x,1/2-y,z
loop_
_atom_site_type_symbol
_atom_site_label
_atom_site_fract_x
_atom_site_fract_y
_atom_site_fract_z
Si Si1 0.101463 0.866339 0.572000
Si Si2 0.950070 0.789757 0.143102
Si Si3 0.860681 0.772055 0.689609
Si Si4 0.315599 0.183259 0.160938
Si Si5 0.610801 0.170762 0.501461
Si Si6 0.883136 0.431321 0.987510
Si Si7 0.699527 0.068109 0.352329
O O1 0.085444 0.834782 0.731593
O O2 0.125947 0.818051 0.445392
O O3 0.193183 0.908174 0.603573
O O4 0.000000 0.892294 0.500000
O O5 0.872190 0.739754 0.099591
O O6 0.038171 0.757244 0.229628
O O7 0.000000 0.817734 0.000000
O O8 0.794285 0.799400 0.813529
O O9 0.828615 0.711709 0.609282
O O10 0.351853 0.177351 0.331618
O O11 0.336688 0.122246 0.078785
O O12 0.500000 0.188978 0.500000
O O13 0.625050 0.105151 0.446169
O O14 0.864864 0.500000 0.034845
O O15 0.836577 0.425204 0.820370
O O16 0.000000 0.423593 0.000000
O O17 0.695961 0.000000 0.389346
#
# Coordination Sequence:
#
# PCOD9212781 Si02
#       7
#     8   8   8   8   8   8   8
#     4  10  21  44  67  90 130 162 201 263 321 367
#     4  11  24  37  60  97 126 161 207 251 310 390
#     4  11  22  40  61  94 127 164 201 256 320 373
#     4  12  22  37  63  91 126 167 204 255 311 374
#     4  12  21  38  63  90 126 162 205 255 314 378
#     4  10  24  45  62  87 130 173 213 262 312 362
#     4  11  25  42  65  92 121 166 218 260 308 370
#
# _framework density 19.842745000000001
#
# number of rings (size 3 to 8) (size 9 to 14) (size 15 to 20)
#    0.000    1.000    4.286    3.000    4.000    1.714 
#    0.000    0.000    0.000    0.429    0.000    0.000 
#    0.000    0.000    0.000    0.000    0.000    0.000 
#
# Total GULP energy -156243.052866 kJ/mol
# GULP energy per Si atom -5580.109031 kJ/mol
# Density = 1.979758 g / cm^3
# Si number density = 19.842745 Si / 1000 Ang^3
#
#
#
# Elastic Constant Matrix: (Units=GPa)
#
#
# Indices 1 2 3 4 5 6 
#
# 1 78.8815 23.8630 20.5283 0.0000 -2.3992 0.0000
# 2 23.8630 74.6343 38.4926 0.0000 -11.3055 0.0000
# 3 20.5283 38.4926 70.9555 0.0000 -5.3287 0.0000
# 4 0.0000 0.0000 0.0000 31.9284 0.0000 -11.0122
# 5 -2.3992 -11.3055 -5.3287 0.0000 37.9983 0.0000
# 6 0.0000 0.0000 0.0000 -11.0122 0.0000 -15.5748
#
#
#
# Elastic Compliance Matrix: (Units=1/GPa)
#
#
# Indices 1 2 3 4 5 6 
#
# 1 0.014307 -0.003458 -0.002297 0.000000 -0.000447 0.000000
# 2 -0.003458 0.020115 -0.009580 0.000000 0.004423 0.000000
# 3 -0.002297 -0.009580 0.019940 0.000000 -0.000199 0.000000
# 4 0.000000 0.000000 0.000000 0.025180 0.000000 -0.017803
# 5 -0.000447 0.004423 -0.000199 0.000000 0.027577 0.000000
# 6 0.000000 0.000000 0.000000 -0.017803 0.000000 -0.051618
#
#
# Mechanical properties :
#
#
# Convention : Reuss Voigt Hill
#
# Bulk Modulus (GPa) = 42.20596 43.35991 42.78293
# Shear Modulus (GPa) = 53.15362 20.30952 36.73157
#
# Velocity S-wave (km/s) = 5.18127 3.20273 4.30715
# Velocity P-wave (km/s) = 7.55715 5.96455 6.80758
#
# Compressibility (1/GPa) = 0.02369333
#
# Stress axis : x y z
#
# Youngs Moduli (GPa) = 69.89371 49.71453 50.15080
#
# Poissons Ratio (x) = 0.17189 0.11521
# Poissons Ratio (y) = 0.24166 0.48043
# Poissons Ratio (z) = 0.16056 0.47625
#
# Static dielectric constant tensor:
#      x y z
#    x 1.772570 0.000000 0.001350 
#    y 0.000000 1.671570 0.000000 
#    z 0.001350 0.000000 1.699520 
# 
# From -- ./inp_files/64045.got.cif
#   From: 2010.05.17/outbox.cif.g08.bks.cpg/sg12_33_cif.got.tgz:64045.got - 2010.06.03 13:09:07.
