data_PCOD9212039
_publ_section_title
;
Structure prediction by ZEFSAII (Michael W. Deem and Ramdas Pophale) SiO2 
 PCOD9212039
Probable space group: C 2/M
;
_chemical_formula_sum "Si O2"
_cell_formula_units_Z 48
_cell_length_a 8.738995
_cell_length_b 28.899625
_cell_length_c 14.167692
_cell_angle_alpha 90.000000
_cell_angle_beta 137.258186
_cell_angle_gamma 90.000000
_cell_volume 2428.443380
_symmetry_space_group_name_H-M "C 2/M"
_symmetry_group_IT_number 12
_symmetry_cell_setting 'monoclinic'
loop_
_space_group_symop_operation_xyz
x,y,z
-x,y,-z
-x,-y,-z
x,-y,z
1/2+x,1/2+y,z
1/2-x,1/2+y,-z
1/2-x,1/2-y,-z
1/2+x,1/2-y,z
loop_
_atom_site_type_symbol
_atom_site_label
_atom_site_fract_x
_atom_site_fract_y
_atom_site_fract_z
Si Si1 0.939167 0.603134 0.863931
Si Si2 0.483938 0.758187 0.392910
Si Si3 0.115297 0.315894 0.296021
Si Si4 0.002494 0.051764 0.387524
Si Si5 0.066036 0.607816 0.426031
Si Si6 0.243115 0.445827 0.854471
O O1 0.086395 0.565794 0.873266
O O2 0.977250 0.652097 0.829213
O O3 0.680921 0.587748 0.732757
O O4 0.000000 0.604781 0.000000
O O5 0.500000 0.784374 0.500000
O O6 0.750000 0.750000 0.500000
O O7 0.316129 0.715541 0.341686
O O8 0.434763 0.784499 0.272597
O O9 0.177269 0.353115 0.407402
O O10 0.000000 0.051539 0.500000
O O11 0.251583 0.067730 0.475784
O O12 0.950662 0.000000 0.330023
O O13 0.000000 0.622978 0.500000
O O14 0.855488 0.586545 0.272900
O O15 0.223899 0.500000 0.820626
O O16 0.500000 0.435959 0.000000
#
# Coordination Sequence:
#
# PCOD9212039 Si02
#       6
#     8   8   8   8   8   8
#     4  11  25  42  63  92 129 177 222 261 323 383
#     4   9  19  33  62  95 123 154 199 252 328 387
#     4  10  21  41  60  93 128 163 203 265 317 391
#     4  11  22  39  65  94 132 172 216 273 321 374
#     4  11  24  39  63  98 131 166 217 265 326 372
#     4  10  22  41  61  87 131 174 215 263 313 377
#
# _framework density 19.765747999999999
#
# number of rings (size 3 to 8) (size 9 to 14) (size 15 to 20)
#    0.000    1.667    3.333    1.500    9.333    2.667 
#    0.000    0.833    0.000    1.000    0.000    0.000 
#    0.000    0.000    0.000    0.000    0.000    0.000 
#
# Total GULP energy -133637.621344 kJ/mol
# GULP energy per Si atom -5568.234223 kJ/mol
# Density = 1.972076 g / cm^3
# Si number density = 19.765748 Si / 1000 Ang^3
#
#
#
# Elastic Constant Matrix: (Units=GPa)
#
#
# Indices 1 2 3 4 5 6 
#
# 1 87.6746 40.2987 40.9581 0.0000 -14.7727 0.0000
# 2 40.2987 102.1437 42.7575 0.0000 -5.4785 0.0000
# 3 40.9581 42.7575 103.8543 0.0000 -12.6543 0.0000
# 4 0.0000 0.0000 0.0000 16.0091 0.0000 3.6595
# 5 -14.7727 -5.4785 -12.6543 0.0000 37.2969 0.0000
# 6 0.0000 0.0000 0.0000 3.6595 0.0000 32.4021
#
#
#
# Elastic Compliance Matrix: (Units=1/GPa)
#
#
# Indices 1 2 3 4 5 6 
#
# 1 0.016028 -0.004430 -0.003967 0.000000 0.004352 0.000000
# 2 -0.004430 0.013053 -0.003763 0.000000 -0.001114 0.000000
# 3 -0.003967 -0.003763 0.013022 0.000000 0.002294 0.000000
# 4 0.000000 0.000000 0.000000 0.064120 0.000000 -0.007242
# 5 0.004352 -0.001114 0.002294 0.000000 0.029150 0.000000
# 6 0.000000 0.000000 0.000000 -0.007242 0.000000 0.031680
#
#
# Mechanical properties :
#
#
# Convention : Reuss Voigt Hill
#
# Bulk Modulus (GPa) = 56.22933 60.18902 58.20918
# Shear Modulus (GPa) = 25.34191 28.45217 26.89704
#
# Velocity S-wave (km/s) = 3.58454 3.79815 3.69289
# Velocity P-wave (km/s) = 6.75585 7.05350 6.90628
#
# Compressibility (1/GPa) = 0.01778431
#
# Stress axis : x y z
#
# Youngs Moduli (GPa) = 62.38904 76.61018 76.79166
#
# Poissons Ratio (x) = 0.33935 0.30466
# Poissons Ratio (y) = 0.27635 0.28895
# Poissons Ratio (z) = 0.24752 0.28827
#
# Static dielectric constant tensor:
#      x y z
#    x 1.762500 0.000000 -0.005640 
#    y 0.000000 1.784060 0.000000 
#    z -0.005640 0.000000 1.676350 
# 
# From -- ./inp_files/201056.got.cif
#   From: 2010.05.17/outbox.cif.g08.bks.cpg/sg12_101_cif.got.tgz:201056.got - 2010.06.03 13:09:07.
