data_PCOD9212321
_publ_section_title
;
Structure prediction by ZEFSAII (Michael W. Deem and Ramdas Pophale) SiO2 
 PCOD9212321
Probable space group: C 2/M
;
_chemical_formula_sum "Si O2"
_cell_formula_units_Z 48
_cell_length_a 12.375569
_cell_length_b 18.895567
_cell_length_c 11.673318
_cell_angle_alpha 90.000000
_cell_angle_beta 108.530072
_cell_angle_gamma 90.000000
_cell_volume 2588.210948
_symmetry_space_group_name_H-M "C 2/M"
_symmetry_group_IT_number 12
_symmetry_cell_setting 'monoclinic'
loop_
_space_group_symop_operation_xyz
x,y,z
-x,y,-z
-x,-y,-z
x,-y,z
1/2+x,1/2+y,z
1/2-x,1/2+y,-z
1/2-x,1/2-y,-z
1/2+x,1/2-y,z
loop_
_atom_site_type_symbol
_atom_site_label
_atom_site_fract_x
_atom_site_fract_y
_atom_site_fract_z
Si Si1 0.391927 0.326496 0.754415
Si Si2 0.620980 0.583488 0.476017
Si Si3 0.774011 0.417764 0.744229
Si Si4 0.761947 0.681046 0.087723
Si Si5 0.515460 0.185259 0.139028
Si Si6 0.399114 0.582564 0.108050
O O1 0.365235 0.363721 0.625619
O O2 0.285843 0.307642 0.800871
O O3 0.460092 0.252886 0.773571
O O4 0.479352 0.380340 0.844786
O O5 0.500000 0.595196 0.500000
O O6 0.620409 0.500000 0.439942
O O7 0.722759 0.594122 0.600984
O O8 0.808604 0.500000 0.766246
O O9 0.667143 0.407558 0.793590
O O10 0.879424 0.368250 0.813335
O O11 0.892177 0.656445 0.131549
O O12 0.750000 0.750000 0.000000
O O13 0.682587 0.621365 0.007555
O O14 0.500000 0.207580 0.000000
O O15 0.410514 0.500000 0.089341
#
# Coordination Sequence:
#
# PCOD9212321 Si02
#       6
#     8   8   8   8   8   8
#     4  12  23  37  64  92 128 167 210 268 324 381
#     4  10  21  41  67  94 128 169 216 271 320 371
#     4  10  22  41  65  93 126 169 219 263 313 385
#     4  12  23  40  58  91 133 172 205 260 328 384
#     4  12  23  40  64  89 130 173 210 258 324 390
#     4  11  21  36  63  95 125 159 210 270 323 378
#
# _framework density 18.545629000000002
#
# number of rings (size 3 to 8) (size 9 to 14) (size 15 to 20)
#    0.000    0.833    6.667    1.000    0.000    3.667 
#    0.000    0.833    0.000    2.000    0.000    0.000 
#    0.000    0.000    0.000    0.000    0.000    0.000 
#
# Total GULP energy -134035.425467 kJ/mol
# GULP energy per Si atom -5584.809394 kJ/mol
# Density = 1.850342 g / cm^3
# Si number density = 18.545629 Si / 1000 Ang^3
#
#
#
# Elastic Constant Matrix: (Units=GPa)
#
#
# Indices 1 2 3 4 5 6 
#
# 1 93.4099 35.7464 31.2746 0.0000 -4.4507 0.0000
# 2 35.7464 89.4699 43.0057 0.0000 -1.2068 0.0000
# 3 31.2746 43.0057 91.8618 0.0000 -10.5511 0.0000
# 4 0.0000 0.0000 0.0000 36.0373 0.0000 2.8047
# 5 -4.4507 -1.2068 -10.5511 0.0000 25.3401 0.0000
# 6 0.0000 0.0000 0.0000 2.8047 0.0000 29.6639
#
#
#
# Elastic Compliance Matrix: (Units=1/GPa)
#
#
# Indices 1 2 3 4 5 6 
#
# 1 0.013128 -0.004055 -0.002445 0.000000 0.001094 0.000000
# 2 -0.004055 0.015796 -0.006312 0.000000 -0.002588 0.000000
# 3 -0.002445 -0.006312 0.015322 0.000000 0.005650 0.000000
# 4 0.000000 0.000000 0.000000 0.027955 0.000000 -0.002643
# 5 0.001094 -0.002588 0.005650 0.000000 0.041885 0.000000
# 6 0.000000 0.000000 0.000000 -0.002643 0.000000 0.033961
#
#
# Mechanical properties :
#
#
# Convention : Reuss Voigt Hill
#
# Bulk Modulus (GPa) = 53.69941 54.97720 54.33831
# Shear Modulus (GPa) = 27.79657 29.18927 28.49292
#
# Velocity S-wave (km/s) = 3.87566 3.97157 3.92391
# Velocity P-wave (km/s) = 7.00327 7.12318 7.06348
#
# Compressibility (1/GPa) = 0.01862218
#
# Stress axis : x y z
#
# Youngs Moduli (GPa) = 76.17203 63.30716 65.26433
#
# Poissons Ratio (x) = 0.25671 0.15960
# Poissons Ratio (y) = 0.30887 0.41193
# Poissons Ratio (z) = 0.18628 0.39958
#
# Static dielectric constant tensor:
#      x y z
#    x 1.644050 0.000000 -0.001180 
#    y 0.000000 1.637230 0.000000 
#    z -0.001180 0.000000 1.545750 
# 
# From -- ./inp_files/131655.got.cif
#   From: 2010.05.17/outbox.cif.g08.bks.cpg/sg12_66_cif.got.tgz:131655.got - 2010.06.03 13:09:07.
