data_PCOD9212914
_publ_section_title
;
Structure prediction by ZEFSAII (Michael W. Deem and Ramdas Pophale) SiO2 
 PCOD9212914
Probable space group: C 2/M
;
_chemical_formula_sum "Si O2"
_cell_formula_units_Z 40
_cell_length_a 23.614907
_cell_length_b 17.193676
_cell_length_c 15.113135
_cell_angle_alpha 90.000000
_cell_angle_beta 158.380566
_cell_angle_gamma 90.000000
_cell_volume 2260.873146
_symmetry_space_group_name_H-M "C 2/M"
_symmetry_group_IT_number 12
_symmetry_cell_setting 'monoclinic'
loop_
_space_group_symop_operation_xyz
x,y,z
-x,y,-z
-x,-y,-z
x,-y,z
1/2+x,1/2+y,z
1/2-x,1/2+y,-z
1/2-x,1/2-y,-z
1/2+x,1/2-y,z
loop_
_atom_site_type_symbol
_atom_site_label
_atom_site_fract_x
_atom_site_fract_y
_atom_site_fract_z
Si Si1 0.686979 0.632050 0.870502
Si Si2 0.561763 0.500000 0.470452
Si Si3 0.148465 0.500000 0.982343
Si Si4 0.820375 0.293958 0.239840
Si Si5 0.537835 0.500000 0.229028
Si Si6 0.863901 0.133393 0.872736
Si Si7 0.301683 0.000000 0.476081
O O1 0.537872 0.576699 0.651536
O O2 0.677172 0.705122 0.790827
O O3 0.821673 0.575625 0.033627
O O4 0.726540 0.661136 0.026507
O O5 0.570375 0.500000 0.378435
O O6 0.722757 0.500000 0.754485
O O7 0.974797 0.500000 0.758174
O O8 0.734263 0.306986 0.209002
O O9 0.000000 0.320109 0.500000
O O10 0.695276 0.500000 0.405971
O O11 0.446785 0.575440 0.062347
O O12 0.747250 0.076592 0.650559
O O13 0.000000 0.159111 0.000000
#
# Coordination Sequence:
#
# PCOD9212914 Si02
#       7
#     8   4   4   8   4   8   4
#     4  10  22  35  53  81 111 145 181 222 269 331
#     4  11  19  36  56  76 111 151 182 213 267 334
#     4  11  21  35  53  77 112 145 189 219 265 315
#     4  11  20  34  58  84 111 137 182 232 276 312
#     4   9  17  34  56  82 108 143 180 216 280 326
#     4   9  18  35  59  83 112 140 174 227 283 328
#     4   9  19  33  57  85 107 137 183 232 265 318
#
# _framework density 17.692278999999999
#
# number of rings (size 3 to 8) (size 9 to 14) (size 15 to 20)
#    0.000    2.000    2.000    4.800    0.000    0.400 
#    0.000    3.000    8.800    4.800    0.000    0.000 
#    0.000    0.000    0.000    0.000    0.000    0.000 
#
# Total GULP energy -111441.790469 kJ/mol
# GULP energy per Si atom -5572.089523 kJ/mol
# Density = 1.765201 g / cm^3
# Si number density = 17.692279 Si / 1000 Ang^3
#
#
#
# Elastic Constant Matrix: (Units=GPa)
#
#
# Indices 1 2 3 4 5 6 
#
# 1 137.6756 60.9012 47.0293 0.0000 -1.6061 0.0000
# 2 60.9012 83.0974 50.3801 0.0000 0.7879 0.0000
# 3 47.0293 50.3801 104.3796 0.0000 18.3449 0.0000
# 4 0.0000 0.0000 0.0000 -22.4948 0.0000 -15.7760
# 5 -1.6061 0.7879 18.3449 0.0000 24.1455 0.0000
# 6 0.0000 0.0000 0.0000 -15.7760 0.0000 10.2244
#
#
#
# Elastic Compliance Matrix: (Units=1/GPa)
#
#
# Indices 1 2 3 4 5 6 
#
# 1 0.011040 -0.006821 -0.002135 0.000000 0.002579 0.000000
# 2 -0.006821 0.022177 -0.008568 0.000000 0.005332 0.000000
# 3 -0.002135 -0.008568 0.016912 0.000000 -0.012712 0.000000
# 4 0.000000 0.000000 0.000000 -0.021351 0.000000 -0.032944
# 5 0.002579 0.005332 -0.012712 0.000000 0.051071 0.000000
# 6 0.000000 0.000000 0.000000 -0.032944 0.000000 0.046974
#
#
# Mechanical properties :
#
#
# Convention : Reuss Voigt Hill
#
# Bulk Modulus (GPa) = 66.30976 71.30820 68.80898
# Shear Modulus (GPa) = 29.95813 13.49781 21.72797
#
# Velocity S-wave (km/s) = 4.11942 2.76510 3.50823
# Velocity P-wave (km/s) = 7.75803 7.11242 7.44223
#
# Compressibility (1/GPa) = 0.01508074
#
# Stress axis : x y z
#
# Youngs Moduli (GPa) = 90.57700 45.09128 59.12966
#
# Poissons Ratio (x) = 0.30758 0.12626
# Poissons Ratio (y) = 0.61784 0.50662
# Poissons Ratio (z) = 0.19341 0.38634
#
# Static dielectric constant tensor:
#      x y z
#    x 1.609180 0.000000 -0.003260 
#    y 0.000000 1.613410 0.000000 
#    z -0.003260 0.000000 1.604080 
# 
# From -- ./inp_files/88280.got.cif
#   From: 2010.05.17/outbox.cif.g08.bks.cpg/sg12_45_cif.got.tgz:88280.got - 2010.06.03 13:09:07.
