data_PCOD9212177
_publ_section_title
;
Structure prediction by ZEFSAII (Michael W. Deem and Ramdas Pophale) SiO2 
 PCOD9212177
Probable space group: C 2/M
;
_chemical_formula_sum "Si O2"
_cell_formula_units_Z 64
_cell_length_a 19.820442
_cell_length_b 9.058904
_cell_length_c 31.014605
_cell_angle_alpha 90.000000
_cell_angle_beta 142.187141
_cell_angle_gamma 90.000000
_cell_volume 3414.094156
_symmetry_space_group_name_H-M "C 2/M"
_symmetry_group_IT_number 12
_symmetry_cell_setting 'monoclinic'
loop_
_space_group_symop_operation_xyz
x,y,z
-x,y,-z
-x,-y,-z
x,-y,z
1/2+x,1/2+y,z
1/2-x,1/2+y,-z
1/2-x,1/2-y,-z
1/2+x,1/2-y,z
loop_
_atom_site_type_symbol
_atom_site_label
_atom_site_fract_x
_atom_site_fract_y
_atom_site_fract_z
Si Si1 0.247122 0.677288 0.788563
Si Si2 0.370734 0.822131 0.432981
Si Si3 0.024972 0.666534 0.805024
Si Si4 0.629780 0.178140 0.067963
Si Si5 0.272121 0.325692 0.056571
Si Si6 0.278248 0.676145 0.559714
Si Si7 0.279319 0.825885 0.714332
Si Si8 0.505540 0.170004 0.693724
O O1 0.257994 0.500000 0.794897
O O2 0.311425 0.745704 0.861683
O O3 0.287005 0.745646 0.763998
O O4 0.116791 0.712712 0.725533
O O5 0.500000 0.784455 0.500000
O O6 0.305670 0.780387 0.444063
O O7 0.311215 0.746035 0.362560
O O8 0.361984 0.000000 0.423941
O O9 0.055280 0.500000 0.834858
O O10 0.897840 0.690064 0.751631
O O11 0.105458 0.782380 0.867158
O O12 0.036832 0.672967 0.759756
O O13 0.690851 0.222570 0.054409
O O14 0.640501 0.000000 0.077904
O O15 0.500000 0.213137 0.000000
O O16 0.259631 0.500000 0.045643
O O17 0.250000 0.250000 0.000000
O O18 0.273069 0.500000 0.553114
O O19 0.250000 0.750000 0.500000
O O20 0.400937 0.728164 0.633475
O O21 0.257394 0.000000 0.709019
O O22 0.476372 0.000000 0.667683
#
# Coordination Sequence:
#
# PCOD9212177 Si02
#       8
#     8   8   8   8   8   8   8   8
#     4  11  24  41  64  92 123 160 202 252 304 362
#     4  10  23  43  63  87 123 164 203 248 304 361
#     4  10  21  41  65  88 120 159 202 252 305 359
#     4  10  23  43  63  87 123 164 203 248 304 361
#     4  11  24  40  63  92 124 161 204 253 302 360
#     4  11  24  40  63  92 124 161 204 253 302 360
#     4  11  24  41  64  92 123 160 202 252 304 362
#     4  10  21  41  65  88 120 159 202 252 305 359
#
# _framework density 18.745820999999999
#
# number of rings (size 3 to 8) (size 9 to 14) (size 15 to 20)
#    0.000    1.500    2.500    1.500    3.500    4.000 
#    0.000    0.000    0.000    0.000    0.000    0.000 
#    0.000    0.000    0.000    0.000    0.000    0.000 
#
# Total GULP energy -178787.207423 kJ/mol
# GULP energy per Si atom -5587.100232 kJ/mol
# Density = 1.870316 g / cm^3
# Si number density = 18.745821 Si / 1000 Ang^3
#
#
#
# Elastic Constant Matrix: (Units=GPa)
#
#
# Indices 1 2 3 4 5 6 
#
# 1 43.7999 21.9603 19.0864 0.0000 -8.8596 0.0000
# 2 21.9603 41.8331 38.9123 0.0000 -1.9458 0.0000
# 3 19.0864 38.9123 96.0249 0.0000 -6.4455 0.0000
# 4 0.0000 0.0000 0.0000 42.1099 0.0000 -3.5234
# 5 -8.8596 -1.9458 -6.4455 0.0000 30.6170 0.0000
# 6 0.0000 0.0000 0.0000 -3.5234 0.0000 29.0630
#
#
#
# Elastic Compliance Matrix: (Units=1/GPa)
#
#
# Indices 1 2 3 4 5 6 
#
# 1 0.033167 -0.018325 0.001420 0.000000 0.008732 0.000000
# 2 -0.018325 0.048513 -0.016397 0.000000 -0.005672 0.000000
# 3 0.001420 -0.016397 0.016974 0.000000 0.002942 0.000000
# 4 0.000000 0.000000 0.000000 0.023991 0.000000 0.002908
# 5 0.008732 -0.005672 0.002942 0.000000 0.035447 0.000000
# 6 0.000000 0.000000 0.000000 0.002908 0.000000 0.034761
#
#
# Mechanical properties :
#
#
# Convention : Reuss Voigt Hill
#
# Bulk Modulus (GPa) = 31.20336 37.95288 34.57812
# Shear Modulus (GPa) = 18.50893 27.13791 22.82342
#
# Velocity S-wave (km/s) = 3.14564 3.80896 3.49308
# Velocity P-wave (km/s) = 5.46581 6.29558 5.89531
#
# Compressibility (1/GPa) = 0.03204783
#
# Stress axis : x y z
#
# Youngs Moduli (GPa) = 30.15087 20.61308 58.91393
#
# Poissons Ratio (x) = 0.37774 -0.08364
# Poissons Ratio (y) = 0.55252 0.96602
# Poissons Ratio (z) = -0.04281 0.33800
#
# Static dielectric constant tensor:
#      x y z
#    x 1.632480 0.000000 0.005100 
#    y 0.000000 1.643530 0.000000 
#    z 0.005100 0.000000 1.630040 
# 
# From -- ./inp_files/378489.got.cif
#   From: 2010.05.17/outbox.cif.g08.bks.cpg/sg12_190_cif.got.tgz:378489.got - 2010.06.03 13:09:07.
