data_PCOD9212442
_publ_section_title
;
Structure prediction by ZEFSAII (Michael W. Deem and Ramdas Pophale) SiO2 
 PCOD9212442
Probable space group: C 2/M
;
_chemical_formula_sum "Si O2"
_cell_formula_units_Z 34
_cell_length_a 13.518513
_cell_length_b 22.803036
_cell_length_c 7.142025
_cell_angle_alpha 90.000000
_cell_angle_beta 41.221466
_cell_angle_gamma 90.000000
_cell_volume 1450.806416
_symmetry_space_group_name_H-M "C 2/M"
_symmetry_group_IT_number 12
_symmetry_cell_setting 'monoclinic'
loop_
_space_group_symop_operation_xyz
x,y,z
-x,y,-z
-x,-y,-z
x,-y,z
1/2+x,1/2+y,z
1/2-x,1/2+y,-z
1/2-x,1/2-y,-z
1/2+x,1/2-y,z
loop_
_atom_site_type_symbol
_atom_site_label
_atom_site_fract_x
_atom_site_fract_y
_atom_site_fract_z
Si Si1 0.138374 0.296609 0.922437
Si Si2 0.500000 0.000000 0.000000
Si Si3 0.120886 0.412946 0.163224
Si Si4 0.962464 0.811834 0.334335
Si Si5 0.544500 0.562035 0.218437
O O1 0.155976 0.345383 0.057793
O O2 0.078089 0.233953 0.079822
O O3 0.288916 0.293397 0.586754
O O4 0.000000 0.319849 0.000000
O O5 0.566049 0.050882 0.057317
O O6 0.000000 0.416183 0.500000
O O7 0.276282 0.435856 0.030181
O O8 0.000000 0.813115 0.500000
O O9 0.978240 0.877699 0.235366
O O10 0.500000 0.561813 0.500000
O O11 0.487546 0.500000 0.221013
#
# Coordination Sequence:
#
# PCOD9212442 Si02
#       5
#     8   2   8   8   8
#     4  12  25  44  66 106 144 186 242 307 357 423
#     4  12  26  48  70 104 154 182 240 296 368 412
#     4  12  25  44  75 107 139 192 243 293 360 437
#     4  11  23  42  69  99 136 195 243 293 365 426
#     4  10  21  41  71  97 137 185 244 287 357 436
#
# _framework density 23.435241000000001
#
# number of rings (size 3 to 8) (size 9 to 14) (size 15 to 20)
#    0.000    0.706    7.059    2.471    3.294    0.000 
#    0.000    0.000    0.000    2.118    0.000    0.000 
#    0.000    0.000    0.000    0.000    0.000    0.000 
#
# Total GULP energy -94728.683209 kJ/mol
# GULP energy per Si atom -5572.275483 kJ/mol
# Density = 2.338190 g / cm^3
# Si number density = 23.435241 Si / 1000 Ang^3
#
#
#
# Elastic Constant Matrix: (Units=GPa)
#
#
# Indices 1 2 3 4 5 6 
#
# 1 51.3009 9.8821 32.0146 0.0000 8.3081 0.0000
# 2 9.8821 257.2427 83.0201 0.0000 3.2562 0.0000
# 3 32.0146 83.0201 168.1226 0.0000 -22.3528 0.0000
# 4 0.0000 0.0000 0.0000 23.2584 0.0000 -9.0663
# 5 8.3081 3.2562 -22.3528 0.0000 32.8201 0.0000
# 6 0.0000 0.0000 0.0000 -9.0663 0.0000 39.2707
#
#
#
# Elastic Compliance Matrix: (Units=1/GPa)
#
#
# Indices 1 2 3 4 5 6 
#
# 1 0.025488 0.001454 -0.007091 0.000000 -0.011425 0.000000
# 2 0.001454 0.004858 -0.003067 0.000000 -0.002939 0.000000
# 3 -0.007091 -0.003067 0.009997 0.000000 0.008908 0.000000
# 4 0.000000 0.000000 0.000000 0.047247 0.000000 0.010908
# 5 -0.011425 -0.002939 0.008908 0.000000 0.039720 0.000000
# 6 0.000000 0.000000 0.000000 0.010908 0.000000 0.027983
#
#
# Mechanical properties :
#
#
# Convention : Reuss Voigt Hill
#
# Bulk Modulus (GPa) = 43.59841 80.72219 62.16030
# Shear Modulus (GPa) = 27.72460 42.51979 35.12219
#
# Velocity S-wave (km/s) = 3.44325 4.26414 3.87549
# Velocity P-wave (km/s) = 5.86960 7.66573 6.82699
#
# Compressibility (1/GPa) = 0.02293662
#
# Stress axis : x y z
#
# Youngs Moduli (GPa) = 39.23417 205.82729 100.03069
#
# Poissons Ratio (x) = -0.29924 0.70927
# Poissons Ratio (y) = -0.05704 0.30676
# Poissons Ratio (z) = 0.27819 0.63121
#
# Static dielectric constant tensor:
#      x y z
#    x 1.903830 0.000000 0.069340 
#    y 0.000000 1.985830 0.000000 
#    z 0.069340 0.000000 1.812070 
# 
# From -- ./inp_files/65707.got.cif
#   From: 2010.05.17/outbox.cif.g08.bks.cpg/sg12_33_cif.got.tgz:65707.got - 2010.06.03 13:09:07.
