data_PCOD9212545
_publ_section_title
;
Structure prediction by ZEFSAII (Michael W. Deem and Ramdas Pophale) SiO2 
 PCOD9212545
Probable space group: C 2/M
;
_chemical_formula_sum "Si O2"
_cell_formula_units_Z 64
_cell_length_a 24.291164
_cell_length_b 20.510901
_cell_length_c 18.861431
_cell_angle_alpha 90.000000
_cell_angle_beta 19.003956
_cell_angle_gamma 90.000000
_cell_volume 3060.107598
_symmetry_space_group_name_H-M "C 2/M"
_symmetry_group_IT_number 12
_symmetry_cell_setting 'monoclinic'
loop_
_space_group_symop_operation_xyz
x,y,z
-x,y,-z
-x,-y,-z
x,-y,z
1/2+x,1/2+y,z
1/2-x,1/2+y,-z
1/2-x,1/2-y,-z
1/2+x,1/2-y,z
loop_
_atom_site_type_symbol
_atom_site_label
_atom_site_fract_x
_atom_site_fract_y
_atom_site_fract_z
Si Si1 0.249592 0.370405 0.992465
Si Si2 0.266750 0.074564 0.485790
Si Si3 0.687240 0.178273 0.799873
Si Si4 0.684067 0.327339 0.809841
Si Si5 0.968881 0.925388 0.452993
Si Si6 0.471531 0.181982 0.860058
Si Si7 0.570072 0.071009 0.556076
Si Si8 0.036028 0.825827 0.142252
O O1 0.367097 0.409983 0.794401
O O2 0.363053 0.328900 0.907474
O O3 0.122529 0.328454 0.099410
O O4 0.126236 0.415142 0.189854
O O5 0.396706 0.123468 0.288792
O O6 0.339623 0.070555 0.476810
O O7 0.092117 0.113769 0.700702
O O8 0.255578 0.000000 0.472270
O O9 0.723341 0.253475 0.737052
O O10 0.826318 0.127152 0.606623
O O11 0.500000 0.162843 0.000000
O O12 0.667175 0.177640 0.909270
O O13 0.833452 0.373968 0.604422
O O14 0.500000 0.344596 0.000000
O O15 0.657692 0.331089 0.926141
O O16 0.000000 0.919241 0.500000
O O17 0.915331 0.000000 0.505360
O O18 0.548319 0.254646 0.766545
O O19 0.592925 0.000000 0.495180
#
# Coordination Sequence:
#
# PCOD9212545 Si02
#       8
#     8   8   8   8   8   8   8   8
#     4  11  24  42  63  97 129 168 212 267 314 382
#     4  10  22  38  62  93 125 166 213 262 313 373
#     4  10  23  41  65  95 124 162 212 267 312 373
#     4  10  21  42  66  94 130 166 210 265 317 370
#     4  11  24  44  67  90 126 172 209 259 324 384
#     4  10  22  42  62  90 129 170 208 258 325 381
#     4  10  22  42  66  91 129 174 208 256 321 384
#     4  11  23  39  65  95 125 167 220 264 310 371
#
# _framework density 20.914297999999999
#
# number of rings (size 3 to 8) (size 9 to 14) (size 15 to 20)
#    0.000    1.625    2.500    1.125    1.750    6.500 
#    0.000    0.625    0.000    0.000    0.000    0.000 
#    0.000    0.000    0.000    0.000    0.000    0.000 
#
# Total GULP energy -178714.949763 kJ/mol
# GULP energy per Si atom -5584.842180 kJ/mol
# Density = 2.086670 g / cm^3
# Si number density = 20.914298 Si / 1000 Ang^3
#
#
#
# Elastic Constant Matrix: (Units=GPa)
#
#
# Indices 1 2 3 4 5 6 
#
# 1 41.1227 18.3726 10.2979 -0.0011 8.8388 0.0041
# 2 18.3726 173.4698 95.4469 0.0735 -4.6272 -0.0084
# 3 10.2979 95.4469 125.6210 0.0782 4.0130 0.0024
# 4 -0.0011 0.0735 0.0782 40.7778 -0.0342 0.5694
# 5 8.8388 -4.6272 4.0130 -0.0342 23.0510 -0.0004
# 6 0.0041 -0.0084 0.0024 0.5694 -0.0004 14.2681
#
#
#
# Elastic Compliance Matrix: (Units=1/GPa)
#
#
# Indices 1 2 3 4 5 6 
#
# 1 0.028333 -0.003859 0.000986 -0.000004 -0.011810 -0.000011
# 2 -0.003859 0.010690 -0.007966 0.000000 0.005012 0.000009
# 3 0.000986 -0.007966 0.014074 -0.000016 -0.004428 -0.000007
# 4 -0.000004 0.000000 -0.000016 0.024537 0.000041 -0.000979
# 5 -0.011810 0.005012 -0.004428 0.000041 0.049688 0.000007
# 6 -0.000011 0.000009 -0.000007 -0.000979 0.000007 0.070126
#
#
# Mechanical properties :
#
#
# Convention : Reuss Voigt Hill
#
# Bulk Modulus (GPa) = 31.82679 65.38314 48.60496
# Shear Modulus (GPa) = 21.77725 30.02579 25.90152
#
# Velocity S-wave (km/s) = 3.23036 3.79312 3.52299
# Velocity P-wave (km/s) = 5.40041 7.10732 6.31183
#
# Compressibility (1/GPa) = 0.03142007
#
# Stress axis : x y z
#
# Youngs Moduli (GPa) = 35.29469 93.54273 71.05382
#
# Poissons Ratio (x) = 0.36094 -0.07009
# Poissons Ratio (y) = 0.13619 0.56604
# Poissons Ratio (z) = -0.03482 0.74519
#
# Static dielectric constant tensor:
#      x y z
#    x 1.774210 -0.000010 0.000110 
#    y -0.000010 1.753100 0.000000 
#    z 0.000110 0.000000 1.727260 
# 
# From -- ./inp_files/290882.got.cif
#   From: 2010.05.17/outbox.cif.g08.bks.cpg/sg12_146_cif.got.tgz:290882.got - 2010.06.03 13:09:07.
