data_PCOD9212973
_publ_section_title
;
Structure prediction by ZEFSAII (Michael W. Deem and Ramdas Pophale) SiO2 
 PCOD9212973
Probable space group: C 2/M
;
_chemical_formula_sum "Si O2"
_cell_formula_units_Z 40
_cell_length_a 10.564090
_cell_length_b 26.537422
_cell_length_c 7.036412
_cell_angle_alpha 90.000000
_cell_angle_beta 58.336659
_cell_angle_gamma 90.000000
_cell_volume 1678.984664
_symmetry_space_group_name_H-M "C 2/M"
_symmetry_group_IT_number 12
_symmetry_cell_setting 'monoclinic'
loop_
_space_group_symop_operation_xyz
x,y,z
-x,y,-z
-x,-y,-z
x,-y,z
1/2+x,1/2+y,z
1/2-x,1/2+y,-z
1/2-x,1/2-y,-z
1/2+x,1/2-y,z
loop_
_atom_site_type_symbol
_atom_site_label
_atom_site_fract_x
_atom_site_fract_y
_atom_site_fract_z
Si Si1 0.832636 0.307771 0.607698
Si Si2 0.880780 0.892006 0.309673
Si Si3 0.666717 0.216108 0.839930
Si Si4 0.773370 0.000000 0.831776
Si Si5 0.123793 0.000000 0.670083
Si Si6 0.716071 0.610736 0.167617
O O1 0.709596 0.350203 0.729630
O O2 0.792945 0.258830 0.765707
O O3 0.822450 0.294449 0.393389
O O4 0.000000 0.325739 0.500000
O O5 0.824336 0.892380 0.574175
O O6 0.056376 0.883550 0.191533
O O7 0.849899 0.947337 0.250245
O O8 0.691191 0.162398 0.924171
O O9 0.500000 0.235823 0.000000
O O10 0.714454 0.944360 0.935706
O O11 0.779309 0.000000 0.597791
O O12 0.949089 0.000000 0.750051
#
# Coordination Sequence:
#
# PCOD9212973 Si02
#       6
#     8   8   8   4   4   8
#     4  10  22  36  52  74 107 137 170 211 256 305
#     4   8  14  27  48  74  99 131 168 208 251 296
#     4  10  22  36  53  75 103 138 173 212 256 300
#     4   7  10  20  41  74  97 124 160 207 253 291
#     4   7  10  20  43  72  98 123 165 207 243 296
#     4   8  14  26  49  72 101 129 167 210 251 296
#
# _framework density 23.823924000000002
#
# number of rings (size 3 to 8) (size 9 to 14) (size 15 to 20)
#    0.000    3.400    0.000    2.400    8.400    0.800 
#    0.000    1.000    0.000    0.000    0.000    0.700 
#    0.000    0.000    0.000    0.000    0.000    0.000 
#
# Total GULP energy -111673.271536 kJ/mol
# GULP energy per Si atom -5583.663577 kJ/mol
# Density = 2.376970 g / cm^3
# Si number density = 23.823924 Si / 1000 Ang^3
#
#
#
# Elastic Constant Matrix: (Units=GPa)
#
#
# Indices 1 2 3 4 5 6 
#
# 1 68.2868 44.0576 10.8988 0.0000 -0.5746 0.0000
# 2 44.0576 143.7523 29.0461 0.0000 -11.9054 0.0000
# 3 10.8988 29.0461 59.0632 0.0000 8.5599 0.0000
# 4 0.0000 0.0000 0.0000 18.3461 0.0000 3.7395
# 5 -0.5746 -11.9054 8.5599 0.0000 28.0652 0.0000
# 6 0.0000 0.0000 0.0000 3.7395 0.0000 -43.7387
#
#
#
# Elastic Compliance Matrix: (Units=1/GPa)
#
#
# Indices 1 2 3 4 5 6 
#
# 1 0.018375 -0.005737 -0.000283 0.000000 -0.001971 0.000000
# 2 -0.005737 0.010140 -0.004744 0.000000 0.005631 0.000000
# 3 -0.000283 -0.004744 0.020516 0.000000 -0.008275 0.000000
# 4 0.000000 0.000000 0.000000 0.053574 0.000000 0.004580
# 5 -0.001971 0.005631 -0.008275 0.000000 0.040503 0.000000
# 6 0.000000 0.000000 0.000000 0.004580 0.000000 -0.022471
#
#
# Mechanical properties :
#
#
# Convention : Reuss Voigt Hill
#
# Bulk Modulus (GPa) = 36.36300 48.78970 42.57635
# Shear Modulus (GPa) = 33.04000 13.00785 23.02392
#
# Velocity S-wave (km/s) = 3.72807 2.33920 3.11210
# Velocity P-wave (km/s) = 5.81616 5.27442 5.55190
#
# Compressibility (1/GPa) = 0.02750048
#
# Stress axis : x y z
#
# Youngs Moduli (GPa) = 54.42325 98.62222 48.74346
#
# Poissons Ratio (x) = 0.56584 0.01381
# Poissons Ratio (y) = 0.31225 0.23123
# Poissons Ratio (z) = 0.01542 0.46785
#
# Static dielectric constant tensor:
#      x y z
#    x 1.909640 0.000000 0.072930 
#    y 0.000000 1.970590 0.000000 
#    z 0.072930 0.000000 1.875720 
# 
# From -- ./inp_files/136481.got.cif
#   From: 2010.05.17/outbox.cif.g08.bks.cpg/sg12_69_cif.got.tgz:136481.got - 2010.06.03 13:09:07.
