data_PCOD9212095
_publ_section_title
;
Structure prediction by ZEFSAII (Michael W. Deem and Ramdas Pophale) SiO2 
 PCOD9212095
Probable space group: C 2/M
;
_chemical_formula_sum "Si O2"
_cell_formula_units_Z 36
_cell_length_a 13.019338
_cell_length_b 28.064170
_cell_length_c 5.083463
_cell_angle_alpha 90.000000
_cell_angle_beta 75.637743
_cell_angle_gamma 90.000000
_cell_volume 1799.330908
_symmetry_space_group_name_H-M "C 2/M"
_symmetry_group_IT_number 12
_symmetry_cell_setting 'monoclinic'
loop_
_space_group_symop_operation_xyz
x,y,z
-x,y,-z
-x,-y,-z
x,-y,z
1/2+x,1/2+y,z
1/2-x,1/2+y,-z
1/2-x,1/2-y,-z
1/2+x,1/2-y,z
loop_
_atom_site_type_symbol
_atom_site_label
_atom_site_fract_x
_atom_site_fract_y
_atom_site_fract_z
Si Si1 0.308913 0.190340 0.717662
Si Si2 0.755795 0.417370 0.806017
Si Si3 0.076367 0.500000 0.202304
Si Si4 0.622686 0.556361 0.374349
Si Si5 0.613497 0.756217 0.819108
O O1 0.305388 0.133813 0.712658
O O2 0.384496 0.214128 0.451733
O O3 0.192257 0.211816 0.732772
O O4 0.339372 0.209292 0.985779
O O5 0.846772 0.454392 0.831761
O O6 0.691826 0.435676 0.592117
O O7 0.674454 0.414995 0.101658
O O8 0.000000 0.500000 0.500000
O O9 0.000000 0.500000 0.000000
O O10 0.500000 0.569062 0.500000
O O11 0.626132 0.500000 0.302629
O O12 0.500000 0.741042 0.000000
#
# Coordination Sequence:
#
# PCOD9212095 Si02
#       5
#     8   8   4   8   8
#     4  10  23  39  63  94 121 163 208 253 315 374
#     4  12  23  43  63  91 132 164 212 264 305 370
#     4  12  26  42  61  88 125 174 216 256 300 354
#     4  11  22  39  64  92 123 165 206 254 320 375
#     4  10  21  41  63  89 126 158 202 262 315 373
#
# _framework density 20.007436999999999
#
# number of rings (size 3 to 8) (size 9 to 14) (size 15 to 20)
#    0.000    1.111    2.222    4.000    0.000    6.222 
#    0.000    0.000    0.000    0.000    0.000    0.000 
#    0.000    0.000    0.000    0.000    0.000    0.000 
#
# Total GULP energy -100665.282741 kJ/mol
# GULP energy per Si atom -5592.515708 kJ/mol
# Density = 1.996190 g / cm^3
# Si number density = 20.007437 Si / 1000 Ang^3
#
#
#
# Elastic Constant Matrix: (Units=GPa)
#
#
# Indices 1 2 3 4 5 6 
#
# 1 83.7962 29.2616 20.9119 0.0000 -10.1801 0.0000
# 2 29.2616 97.3526 8.7782 0.0000 3.5103 0.0000
# 3 20.9119 8.7782 115.6597 0.0000 -8.1543 0.0000
# 4 0.0000 0.0000 0.0000 13.7217 0.0000 3.5823
# 5 -10.1801 3.5103 -8.1543 0.0000 38.2984 0.0000
# 6 0.0000 0.0000 0.0000 3.5823 0.0000 2.7014
#
#
#
# Elastic Compliance Matrix: (Units=1/GPa)
#
#
# Indices 1 2 3 4 5 6 
#
# 1 0.014391 -0.004281 -0.002010 0.000000 0.003790 0.000000
# 2 -0.004281 0.011665 -0.000271 0.000000 -0.002265 0.000000
# 3 -0.002010 -0.000271 0.009131 0.000000 0.001435 0.000000
# 4 0.000000 0.000000 0.000000 0.111466 0.000000 -0.147815
# 5 0.003790 -0.002265 0.001435 0.000000 0.027631 0.000000
# 6 0.000000 0.000000 0.000000 -0.147815 0.000000 0.566202
#
#
# Mechanical properties :
#
#
# Convention : Reuss Voigt Hill
#
# Bulk Modulus (GPa) = 45.32442 46.07912 45.70177
# Shear Modulus (GPa) = 6.57062 26.80142 16.68602
#
# Velocity S-wave (km/s) = 1.81417 3.66399 2.89102
# Velocity P-wave (km/s) = 5.20493 6.40162 5.83404
#
# Compressibility (1/GPa) = 0.02206316
#
# Stress axis : x y z
#
# Youngs Moduli (GPa) = 69.49009 85.72844 109.51513
#
# Poissons Ratio (x) = 0.36699 0.22011
# Poissons Ratio (y) = 0.29748 0.02968
# Poissons Ratio (z) = 0.13966 0.02323
#
# Static dielectric constant tensor:
#      x y z
#    x 1.705390 0.000000 -0.010470 
#    y 0.000000 1.679030 0.000000 
#    z -0.010470 0.000000 1.685210 
# 
# From -- ./inp_files/7499.got.cif
#   From: 2010.05.17/outbox.cif.g08.bks.cpg/sg12_4_cif.got.tgz:7499.got - 2010.06.03 13:09:07.
