data_PCOD9212908
_publ_section_title
;
Structure prediction by ZEFSAII (Michael W. Deem and Ramdas Pophale) SiO2 
 PCOD9212908
Probable space group: C 2/M
;
_chemical_formula_sum "Si O2"
_cell_formula_units_Z 64
_cell_length_a 23.630581
_cell_length_b 22.798701
_cell_length_c 18.251347
_cell_angle_alpha 90.000000
_cell_angle_beta 157.200422
_cell_angle_gamma 90.000000
_cell_volume 3810.315965
_symmetry_space_group_name_H-M "C 2/M"
_symmetry_group_IT_number 12
_symmetry_cell_setting 'monoclinic'
loop_
_space_group_symop_operation_xyz
x,y,z
-x,y,-z
-x,-y,-z
x,-y,z
1/2+x,1/2+y,z
1/2-x,1/2+y,-z
1/2-x,1/2-y,-z
1/2+x,1/2-y,z
loop_
_atom_site_type_symbol
_atom_site_label
_atom_site_fract_x
_atom_site_fract_y
_atom_site_fract_z
Si Si1 0.673292 0.299697 0.458907
Si Si2 0.138607 0.798719 0.838578
Si Si3 0.844145 0.266872 0.285121
Si Si4 0.144822 0.867227 0.281067
Si Si5 0.110121 0.569573 0.507868
Si Si6 0.655268 0.433270 0.089511
Si Si7 0.210398 0.622080 0.878170
Si Si8 0.664711 0.244261 0.217084
O O1 0.750000 0.250000 0.500000
O O2 0.514347 0.286468 0.303302
O O3 0.650830 0.351849 0.374281
O O4 0.773067 0.302386 0.650280
O O5 0.129507 0.785952 0.741268
O O6 0.250000 0.750000 0.000000
O O7 0.209846 0.859244 0.951774
O O8 0.774684 0.320912 0.157424
O O9 0.752671 0.248719 0.246554
O O10 0.000000 0.287586 0.500000
O O11 0.274205 0.911659 0.415772
O O12 0.170477 0.807677 0.264896
O O13 0.987583 0.893531 0.071913
O O14 0.079483 0.500000 0.471554
O O15 0.203336 0.583547 0.692848
O O16 0.959650 0.605027 0.319187
O O17 0.618363 0.500000 0.065411
O O18 0.706347 0.428057 0.066733
O O19 0.500000 0.231283 0.000000
#
# Coordination Sequence:
#
# PCOD9212908 Si02
#       8
#     8   8   8   8   8   8   8   8
#     4  10  22  36  52  76 107 137 176 220 259 314
#     4  10  22  35  51  77 104 140 179 216 260 312
#     4  11  20  33  53  74 106 139 176 213 256 309
#     4  11  21  36  54  73 108 145 180 213 267 315
#     4  11  23  35  50  77 106 140 184 225 257 297
#     4  11  21  35  53  75 105 141 183 228 257 298
#     4  11  21  34  52  73 106 144 180 211 264 310
#     4  11  22  33  53  79 107 140 176 214 258 317
#
# _framework density 16.796506999999998
#
# number of rings (size 3 to 8) (size 9 to 14) (size 15 to 20)
#    0.000    1.250    2.500    5.250   10.500    2.000 
#    0.000    0.000    0.000    0.000    0.000    0.000 
#    0.000   20.000    0.000    0.000    0.000    0.000 
#
# Total GULP energy -178469.616268 kJ/mol
# GULP energy per Si atom -5577.175508 kJ/mol
# Density = 1.675828 g / cm^3
# Si number density = 16.796507 Si / 1000 Ang^3
#
#
#
# Elastic Constant Matrix: (Units=GPa)
#
#
# Indices 1 2 3 4 5 6 
#
# 1 108.9470 24.0793 43.1340 0.0000 5.8242 0.0000
# 2 24.0793 39.0071 23.4242 0.0000 -7.0356 0.0000
# 3 43.1340 23.4242 77.4057 0.0000 7.2373 0.0000
# 4 0.0000 0.0000 0.0000 28.9561 0.0000 -4.3901
# 5 5.8242 -7.0356 7.2373 0.0000 32.8388 0.0000
# 6 0.0000 0.0000 0.0000 -4.3901 0.0000 22.7406
#
#
#
# Elastic Compliance Matrix: (Units=1/GPa)
#
#
# Indices 1 2 3 4 5 6 
#
# 1 0.012459 -0.004912 -0.005260 0.000000 -0.002103 0.000000
# 2 -0.004912 0.036098 -0.009181 0.000000 0.010628 0.000000
# 3 -0.005260 -0.009181 0.019119 0.000000 -0.005248 0.000000
# 4 0.000000 0.000000 0.000000 0.035576 0.000000 0.006868
# 5 -0.002103 0.010628 -0.005248 0.000000 0.034258 0.000000
# 6 0.000000 0.000000 0.000000 0.006868 0.000000 0.045300
#
#
# Mechanical properties :
#
#
# Convention : Reuss Voigt Hill
#
# Bulk Modulus (GPa) = 34.51614 45.18165 39.84889
# Shear Modulus (GPa) = 21.62880 25.88860 23.75870
#
# Velocity S-wave (km/s) = 3.59234 3.93021 3.76507
# Velocity P-wave (km/s) = 6.14823 6.89588 6.53276
#
# Compressibility (1/GPa) = 0.02897196
#
# Stress axis : x y z
#
# Youngs Moduli (GPa) = 80.26149 27.70200 52.30449
#
# Poissons Ratio (x) = 0.13607 0.27511
# Poissons Ratio (y) = 0.39423 0.48019
# Poissons Ratio (z) = 0.42216 0.25432
#
# Static dielectric constant tensor:
#      x y z
#    x 1.458610 0.000000 -0.091820 
#    y 0.000000 1.672300 0.000000 
#    z -0.091820 0.000000 1.533280 
# 
# From -- ./inp_files/279393.got.cif
#   From: 2010.05.17/outbox.cif.g08.bks.cpg/sg12_140_cif.got.tgz:279393.got - 2010.06.03 13:09:07.
