data_PCOD9212798
_publ_section_title
;
Structure prediction by ZEFSAII (Michael W. Deem and Ramdas Pophale) SiO2 
 PCOD9212798
Probable space group: C 2/M
;
_chemical_formula_sum "Si O2"
_cell_formula_units_Z 58
_cell_length_a 22.697358
_cell_length_b 19.901623
_cell_length_c 11.219456
_cell_angle_alpha 90.000000
_cell_angle_beta 26.311943
_cell_angle_gamma 90.000000
_cell_volume 2246.426601
_symmetry_space_group_name_H-M "C 2/M"
_symmetry_group_IT_number 12
_symmetry_cell_setting 'monoclinic'
loop_
_space_group_symop_operation_xyz
x,y,z
-x,y,-z
-x,-y,-z
x,-y,z
1/2+x,1/2+y,z
1/2-x,1/2+y,-z
1/2-x,1/2-y,-z
1/2+x,1/2-y,z
loop_
_atom_site_type_symbol
_atom_site_label
_atom_site_fract_x
_atom_site_fract_y
_atom_site_fract_z
Si Si1 0.686804 0.075443 0.631153
Si Si2 0.356883 0.224024 0.211289
Si Si3 0.632323 0.651362 0.330841
Si Si4 0.059077 0.364444 0.269188
Si Si5 0.940247 0.073671 0.310730
Si Si6 0.171558 0.710951 0.346854
Si Si7 0.000000 0.500000 0.500000
Si Si8 0.747453 0.572909 0.756128
O O1 0.636961 0.141833 0.790935
O O2 0.843442 0.077121 0.375450
O O3 0.674151 0.078439 0.511083
O O4 0.642597 0.000000 0.751026
O O5 0.250000 0.250000 0.500000
O O6 0.286952 0.256586 0.221489
O O7 0.500000 0.248756 0.000000
O O8 0.500000 0.627983 0.500000
O O9 0.598655 0.630985 0.526843
O O10 0.646596 0.731029 0.298255
O O11 0.783737 0.629295 0.032462
O O12 0.000000 0.335539 0.500000
O O13 0.972973 0.314764 0.338084
O O14 0.013356 0.440874 0.371417
O O15 0.916142 0.000000 0.413327
O O16 0.093131 0.076308 0.003174
O O17 0.229519 0.638250 0.206177
O O18 0.765843 0.500000 0.783580
#
# Coordination Sequence:
#
# PCOD9212798 Si02
#       8
#     8   8   8   8   8   8   2   8
#     4  10  21  44  70 104 147 196 250 306 364 445
#     4  12  28  46  71 111 151 200 248 308 374 450
#     4  12  29  47  75 112 150 194 251 314 378 447
#     4  10  27  52  79 106 146 197 249 313 377 450
#     4  10  23  42  70 104 146 191 242 304 373 438
#     4  12  27  44  78 104 152 195 252 302 382 446
#     4   8  24  56  82 108 146 190 262 310 384 448
#     4  10  23  41  71 108 142 190 248 303 368 442
#
# _framework density 25.818784000000001
#
# number of rings (size 3 to 8) (size 9 to 14) (size 15 to 20)
#    0.414    0.828    2.759    0.828    9.655    3.310 
#    2.483    0.000    0.000    0.000    0.000    0.000 
#    0.000    0.000    0.000    0.000    0.000    0.000 
#
# Total GULP energy -161439.961132 kJ/mol
# GULP energy per Si atom -5566.895211 kJ/mol
# Density = 2.576002 g / cm^3
# Si number density = 25.818784 Si / 1000 Ang^3
#
#
#
# Elastic Constant Matrix: (Units=GPa)
#
#
# Indices 1 2 3 4 5 6 
#
# 1 53.3605 14.4028 24.7647 -0.0001 -12.8627 0.0000
# 2 14.4028 155.8439 23.0473 0.0009 -6.5273 -0.0002
# 3 24.7647 23.0473 166.6044 0.0009 -42.1944 -0.0003
# 4 -0.0001 0.0009 0.0009 21.5538 -0.0004 -8.6031
# 5 -12.8627 -6.5273 -42.1944 -0.0004 38.4127 0.0002
# 6 0.0000 -0.0002 -0.0003 -8.6031 0.0002 31.1505
#
#
#
# Elastic Compliance Matrix: (Units=1/GPa)
#
#
# Indices 1 2 3 4 5 6 
#
# 1 0.021121 -0.001496 -0.001670 0.000000 0.004983 0.000000
# 2 -0.001496 0.006657 -0.000747 0.000000 -0.000190 0.000000
# 3 -0.001670 -0.000747 0.008562 0.000000 0.008719 0.000000
# 4 0.000000 0.000000 0.000000 0.052144 0.000000 0.014401
# 5 0.004983 -0.000190 0.008719 0.000000 0.037246 0.000000
# 6 0.000000 0.000000 0.000000 0.014401 0.000000 0.036079
#
#
# Mechanical properties :
#
#
# Convention : Reuss Voigt Hill
#
# Bulk Modulus (GPa) = 35.07098 55.58204 45.32651
# Shear Modulus (GPa) = 27.91099 39.12966 33.52032
#
# Velocity S-wave (km/s) = 3.29148 3.89723 3.60709
# Velocity P-wave (km/s) = 5.29699 6.46728 5.91117
#
# Compressibility (1/GPa) = 0.02851360
#
# Stress axis : x y z
#
# Youngs Moduli (GPa) = 47.34669 150.20833 116.79629
#
# Poissons Ratio (x) = 0.22474 0.19510
# Poissons Ratio (y) = 0.07084 0.08721
# Poissons Ratio (z) = 0.07909 0.11215
#
# Static dielectric constant tensor:
#      x y z
#    x 2.340630 0.000000 -0.015420 
#    y 0.000000 2.034300 0.000000 
#    z -0.015420 0.000000 2.133260 
# 
# From -- ./inp_files/247265.got.cif
#   From: 2010.05.17/outbox.cif.g08.bks.cpg/sg12_124_cif.got.tgz:247265.got - 2010.06.03 13:09:07.
