data_PCOD9212982
_publ_section_title
;
Structure prediction by ZEFSAII (Michael W. Deem and Ramdas Pophale) SiO2 
 PCOD9212982
Probable space group: C 2/M
;
_chemical_formula_sum "Si O2"
_cell_formula_units_Z 52
_cell_length_a 9.632754
_cell_length_b 27.839590
_cell_length_c 10.638632
_cell_angle_alpha 90.000000
_cell_angle_beta 90.865488
_cell_angle_gamma 90.000000
_cell_volume 2852.656900
_symmetry_space_group_name_H-M "C 2/M"
_symmetry_group_IT_number 12
_symmetry_cell_setting 'monoclinic'
loop_
_space_group_symop_operation_xyz
x,y,z
-x,y,-z
-x,-y,-z
x,-y,z
1/2+x,1/2+y,z
1/2-x,1/2+y,-z
1/2-x,1/2-y,-z
1/2+x,1/2-y,z
loop_
_atom_site_type_symbol
_atom_site_label
_atom_site_fract_x
_atom_site_fract_y
_atom_site_fract_z
Si Si1 0.223134 0.792363 0.679559
Si Si2 0.035207 0.944492 0.290688
Si Si3 0.951924 0.158877 0.767814
Si Si4 0.381097 0.245660 0.912076
Si Si5 0.500000 0.882992 0.500000
Si Si6 0.187860 0.311490 0.603235
Si Si7 0.768421 0.945185 0.462590
O O1 0.335439 0.784782 0.790257
O O2 0.153197 0.739520 0.664265
O O3 0.286749 0.803322 0.544755
O O4 0.102676 0.829229 0.712638
O O5 0.054539 0.897956 0.202053
O O6 0.149554 0.939703 0.403888
O O7 0.886216 0.938579 0.358098
O O8 0.043564 0.000000 0.243366
O O9 0.926317 0.200617 0.869723
O O10 0.830674 0.169786 0.664892
O O11 0.500000 0.223489 0.000000
O O12 0.250000 0.250000 0.000000
O O13 0.565580 0.849661 0.609437
O O14 0.632471 0.912738 0.454684
O O15 0.721079 0.000000 0.454307
#
# Coordination Sequence:
#
# PCOD9212982 Si02
#       7
#     8   8   8   8   4   8   8
#     4  10  22  36  54  75 115 153 184 228 274 337
#     4   9  18  35  53  78 106 149 193 226 274 335
#     4  11  20  36  59  79 114 150 187 230 279 331
#     4  11  23  41  58  81 108 147 195 233 278 332
#     4  12  19  28  44  76 118 144 191 218 270 334
#     4  10  23  30  48  83 118 149 183 220 281 339
#     4   9  18  31  48  70 111 153 188 226 268 332
#
# _framework density 18.228622000000001
#
# number of rings (size 3 to 8) (size 9 to 14) (size 15 to 20)
#    0.000    1.846    3.077    2.538    8.615    0.000 
#    0.000    0.000    0.000    0.462    0.000    0.000 
#    0.000    1.231    0.000    0.000    0.000    0.000 
#
# Total GULP energy -144980.988921 kJ/mol
# GULP energy per Si atom -5576.191882 kJ/mol
# Density = 1.818713 g / cm^3
# Si number density = 18.228622 Si / 1000 Ang^3
#
#
#
# Elastic Constant Matrix: (Units=GPa)
#
#
# Indices 1 2 3 4 5 6 
#
# 1 104.6130 29.8863 22.2724 0.0000 24.4406 0.0000
# 2 29.8863 123.7905 7.9676 0.0000 9.9478 0.0000
# 3 22.2724 7.9676 54.2988 0.0000 17.1626 0.0000
# 4 0.0000 0.0000 0.0000 12.4890 0.0000 -0.3113
# 5 24.4406 9.9478 17.1626 0.0000 25.0002 0.0000
# 6 0.0000 0.0000 0.0000 -0.3113 0.0000 42.5517
#
#
#
# Elastic Compliance Matrix: (Units=1/GPa)
#
#
# Indices 1 2 3 4 5 6 
#
# 1 0.013044 -0.002179 -0.001627 0.000000 -0.010768 0.000000
# 2 -0.002179 0.008711 0.000048 0.000000 -0.001369 0.000000
# 3 -0.001627 0.000048 0.023729 0.000000 -0.014719 0.000000
# 4 0.000000 0.000000 0.000000 0.080085 0.000000 0.000586
# 5 -0.010768 -0.001369 -0.014719 0.000000 0.061175 0.000000
# 6 0.000000 0.000000 0.000000 0.000586 0.000000 0.023505
#
#
# Mechanical properties :
#
#
# Convention : Reuss Voigt Hill
#
# Bulk Modulus (GPa) = 26.33786 44.77278 35.55532
# Shear Modulus (GPa) = 21.69937 30.84657 26.27297
#
# Velocity S-wave (km/s) = 3.45396 4.11810 3.80057
# Velocity P-wave (km/s) = 5.51239 6.87218 6.22950
#
# Compressibility (1/GPa) = 0.03796815
#
# Stress axis : x y z
#
# Youngs Moduli (GPa) = 76.66597 114.79523 42.14229
#
# Poissons Ratio (x) = 0.25015 0.06857
# Poissons Ratio (y) = 0.16706 -0.00204
# Poissons Ratio (z) = 0.12475 -0.00555
#
# Static dielectric constant tensor:
#      x y z
#    x 1.635730 0.000000 0.001090 
#    y 0.000000 1.690290 0.000000 
#    z 0.001090 0.000000 1.621290 
# 
# From -- ./inp_files/124811.got.cif
#   From: 2010.05.17/outbox.cif.g08.bks.cpg/sg12_63_cif.got.tgz:124811.got - 2010.06.03 13:09:07.
