data_PCOD9212773
_publ_section_title
;
Structure prediction by ZEFSAII (Michael W. Deem and Ramdas Pophale) SiO2 
 PCOD9212773
Probable space group: C 2/M
;
_chemical_formula_sum "Si O2"
_cell_formula_units_Z 46
_cell_length_a 14.253481
_cell_length_b 15.250463
_cell_length_c 26.671298
_cell_angle_alpha 90.000000
_cell_angle_beta 21.252737
_cell_angle_gamma 90.000000
_cell_volume 2101.528276
_symmetry_space_group_name_H-M "C 2/M"
_symmetry_group_IT_number 12
_symmetry_cell_setting 'monoclinic'
loop_
_space_group_symop_operation_xyz
x,y,z
-x,y,-z
-x,-y,-z
x,-y,z
1/2+x,1/2+y,z
1/2-x,1/2+y,-z
1/2-x,1/2-y,-z
1/2+x,1/2-y,z
loop_
_atom_site_type_symbol
_atom_site_label
_atom_site_fract_x
_atom_site_fract_y
_atom_site_fract_z
Si Si1 0.942429 0.679574 0.958895
Si Si2 0.931528 0.830442 0.467462
Si Si3 0.462319 0.327550 0.332741
Si Si4 0.000000 0.000000 0.500000
Si Si5 0.277319 0.500000 0.067278
Si Si6 0.325991 0.500000 0.921606
Si Si7 0.477950 0.183512 0.820861
Si Si8 0.304308 0.500000 0.349851
O O1 0.237562 0.692714 0.826326
O O2 0.950356 0.685162 0.894662
O O3 0.833409 0.582625 0.019232
O O4 0.742240 0.747101 0.082944
O O5 0.718166 0.757132 0.586034
O O6 0.930852 0.846751 0.407907
O O7 0.901578 0.922167 0.510297
O O8 0.220964 0.796443 0.337395
O O9 0.392643 0.412543 0.335024
O O10 0.359390 0.500000 0.966266
O O11 0.500000 0.500000 0.000000
O O12 0.100528 0.587138 0.159989
O O13 0.591643 0.500000 0.758934
O O14 0.000000 0.500000 0.500000
#
# Coordination Sequence:
#
# PCOD9212773 Si02
#       8
#     8   8   8   2   4   4   8   4
#     4   9  19  40  71  98 128 169 221 281 335 407
#     4  10  23  44  70  97 135 184 228 288 344 419
#     4  10  23  46  70  98 133 178 239 282 340 415
#     4  12  24  40  66 100 136 182 222 276 354 410
#     4  10  21  44  66 105 135 174 232 295 343 421
#     4  10  23  42  70  97 138 179 226 283 361 406
#     4   9  19  40  67  96 133 174 214 276 351 396
#     4  12  28  44  65  98 140 188 227 291 343 416
#
# _framework density 21.888832000000001
#
# number of rings (size 3 to 8) (size 9 to 14) (size 15 to 20)
#    0.000    2.087    0.000    1.565    3.652    4.174 
#   12.522    0.000    0.000    0.000    0.000    0.000 
#    0.000    0.000    0.000    0.000    0.000    0.000 
#
# Total GULP energy -128219.142318 kJ/mol
# GULP energy per Si atom -5574.745318 kJ/mol
# Density = 2.183901 g / cm^3
# Si number density = 21.888832 Si / 1000 Ang^3
#
#
#
# Elastic Constant Matrix: (Units=GPa)
#
#
# Indices 1 2 3 4 5 6 
#
# 1 138.4980 57.9921 33.3850 0.0308 0.1725 -1.5624
# 2 57.9921 185.3770 98.0042 -0.0195 -22.2892 -0.1845
# 3 33.3850 98.0042 180.3849 0.0896 -36.6716 -5.7753
# 4 0.0308 -0.0195 0.0896 17.4282 -0.1145 -39.8118
# 5 0.1725 -22.2892 -36.6716 -0.1145 32.8044 0.5206
# 6 -1.5624 -0.1845 -5.7753 -39.8118 0.5206 1503.9659
#
#
#
# Elastic Compliance Matrix: (Units=1/GPa)
#
#
# Indices 1 2 3 4 5 6 
#
# 1 0.008477 -0.002603 -0.000677 -0.000017 -0.002570 0.000006
# 2 -0.002603 0.008381 -0.003768 0.000005 0.001496 -0.000017
# 3 -0.000677 -0.003768 0.009314 0.000078 0.007855 0.000034
# 4 -0.000017 0.000005 0.000078 0.061073 0.000279 0.001617
# 5 -0.002570 0.001496 0.007855 0.000279 0.040296 0.000021
# 6 0.000006 -0.000017 0.000034 0.001617 0.000021 0.000708
#
#
# Mechanical properties :
#
#
# Convention : Reuss Voigt Hill
#
# Bulk Modulus (GPa) = 82.80920 98.11360 90.46140
# Shear Modulus (GPa) = 34.16032 331.83162 182.99597
#
# Velocity S-wave (km/s) = 3.95476 12.32590 9.15336
# Velocity P-wave (km/s) = 7.66599 15.73185 12.37454
#
# Compressibility (1/GPa) = 0.01207595
#
# Stress axis : x y z
#
# Youngs Moduli (GPa) = 117.97096 119.32427 107.36454
#
# Poissons Ratio (x) = 0.31059 0.07268
# Poissons Ratio (y) = 0.30707 0.40453
# Poissons Ratio (z) = 0.07986 0.44959
#
# Static dielectric constant tensor:
#      x y z
#    x 1.846930 -0.000120 0.022900 
#    y -0.000120 1.775130 0.000030 
#    z 0.022900 0.000030 1.804120 
# 
# From -- ./inp_files/376618.got.cif
#   From: 2010.05.17/outbox.cif.g08.bks.cpg/sg12_189_cif.got.tgz:376618.got - 2010.06.03 13:09:07.
