data_PCOD9212547
_publ_section_title
;
Structure prediction by ZEFSAII (Michael W. Deem and Ramdas Pophale) SiO2 
 PCOD9212547
Probable space group: C 2/M
;
_chemical_formula_sum "Si O2"
_cell_formula_units_Z 58
_cell_length_a 18.401222
_cell_length_b 26.733122
_cell_length_c 14.304221
_cell_angle_alpha 90.000000
_cell_angle_beta 157.818134
_cell_angle_gamma 90.000000
_cell_volume 2656.638254
_symmetry_space_group_name_H-M "C 2/M"
_symmetry_group_IT_number 12
_symmetry_cell_setting 'monoclinic'
loop_
_space_group_symop_operation_xyz
x,y,z
-x,y,-z
-x,-y,-z
x,-y,z
1/2+x,1/2+y,z
1/2-x,1/2+y,-z
1/2-x,1/2-y,-z
1/2+x,1/2-y,z
loop_
_atom_site_type_symbol
_atom_site_label
_atom_site_fract_x
_atom_site_fract_y
_atom_site_fract_z
Si Si1 0.066074 0.846906 0.363872
Si Si2 0.408909 0.590250 0.005568
Si Si3 0.557075 0.235651 0.325993
Si Si4 0.000000 0.000000 0.000000
Si Si5 0.382649 0.850934 0.456440
Si Si6 0.340120 0.411807 0.242195
Si Si7 0.981472 0.335492 0.081830
Si Si8 0.100700 0.445577 0.783376
O O1 0.987343 0.790167 0.272026
O O2 0.297209 0.851177 0.637008
O O3 0.971819 0.873783 0.339643
O O4 0.998730 0.874573 0.190404
O O5 0.315404 0.626261 0.816497
O O6 0.232723 0.561404 0.848451
O O7 0.535467 0.544880 0.119112
O O8 0.750000 0.250000 0.500000
O O9 0.610249 0.198963 0.474131
O O10 0.431047 0.204893 0.101343
O O11 0.500000 0.842986 0.500000
O O12 0.473464 0.895648 0.626987
O O13 0.500000 0.436928 0.500000
O O14 0.229959 0.443210 0.030951
O O15 0.172376 0.380440 0.095564
O O16 0.000000 0.313079 0.000000
O O17 0.002664 0.500000 0.660238
#
# Coordination Sequence:
#
# PCOD9212547 Si02
#       8
#     8   8   8   2   8   8   8   8
#     4  10  24  43  64  96 141 172 225 283 333 413
#     4  10  24  40  62 101 133 176 224 276 341 419
#     4  10  23  41  63  97 133 181 219 281 342 402
#     4  12  24  36  66  92 136 176 216 274 346 404
#     4  10  22  42  66  97 136 177 230 280 339 422
#     4  11  22  41  69  94 124 179 224 279 339 402
#     4  11  22  42  65  92 132 174 226 275 337 402
#     4  10  21  42  66  95 133 173 227 288 339 402
#
# _framework density 21.832103
#
# number of rings (size 3 to 8) (size 9 to 14) (size 15 to 20)
#    0.000    1.655    3.448    0.000    4.828    4.414 
#    0.000    0.000    0.000    0.414    0.000    0.000 
#    0.000    0.000    0.000    0.000    0.000    0.000 
#
# Total GULP energy -161595.797176 kJ/mol
# GULP energy per Si atom -5572.268868 kJ/mol
# Density = 2.178241 g / cm^3
# Si number density = 21.832103 Si / 1000 Ang^3
#
#
#
# Elastic Constant Matrix: (Units=GPa)
#
#
# Indices 1 2 3 4 5 6 
#
# 1 86.1468 53.0680 32.4997 0.0000 -9.6142 0.0000
# 2 53.0680 150.2339 34.4120 0.0000 -12.5354 0.0000
# 3 32.4997 34.4120 71.3783 0.0000 -7.3210 0.0000
# 4 0.0000 0.0000 0.0000 11.2884 0.0000 4.4763
# 5 -9.6142 -12.5354 -7.3210 0.0000 38.5148 0.0000
# 6 0.0000 0.0000 0.0000 4.4763 0.0000 -39.2559
#
#
#
# Elastic Compliance Matrix: (Units=1/GPa)
#
#
# Indices 1 2 3 4 5 6 
#
# 1 0.016528 -0.004513 -0.005178 0.000000 0.001673 0.000000
# 2 -0.004513 0.008837 -0.002066 0.000000 0.001357 0.000000
# 3 -0.005178 -0.002066 0.017504 0.000000 0.001362 0.000000
# 4 0.000000 0.000000 0.000000 0.084754 0.000000 0.009664
# 5 0.001673 0.001357 0.001362 0.000000 0.027082 0.000000
# 6 0.000000 0.000000 0.000000 0.009664 0.000000 -0.024372
#
#
# Mechanical properties :
#
#
# Convention : Reuss Voigt Hill
#
# Bulk Modulus (GPa) = 51.66983 60.85761 56.26372
# Shear Modulus (GPa) = 31.19160 14.62808 22.90984
#
# Velocity S-wave (km/s) = 3.78392 2.59129 3.24290
# Velocity P-wave (km/s) = 6.54286 6.07362 6.31260
#
# Compressibility (1/GPa) = 0.01935365
#
# Stress axis : x y z
#
# Youngs Moduli (GPa) = 60.50236 113.16224 57.13101
#
# Poissons Ratio (x) = 0.51066 0.29585
# Poissons Ratio (y) = 0.27303 0.11806
# Poissons Ratio (z) = 0.31331 0.23385
#
# Static dielectric constant tensor:
#      x y z
#    x 1.841340 0.000000 -0.008940 
#    y 0.000000 1.794300 0.000000 
#    z -0.008940 0.000000 1.830030 
# 
# From -- ./inp_files/235841.got.cif
#   From: 2010.05.17/outbox.cif.g08.bks.cpg/sg12_118_cif.got.tgz:235841.got - 2010.06.03 13:09:07.
