data_PCOD9212704
_publ_section_title
;
Structure prediction by ZEFSAII (Michael W. Deem and Ramdas Pophale) SiO2 
 PCOD9212704
Probable space group: C 2/M
;
_chemical_formula_sum "Si O2"
_cell_formula_units_Z 52
_cell_length_a 12.430010
_cell_length_b 19.608198
_cell_length_c 8.198071
_cell_angle_alpha 90.000000
_cell_angle_beta 89.355359
_cell_angle_gamma 90.000000
_cell_volume 1997.990175
_symmetry_space_group_name_H-M "C 2/M"
_symmetry_group_IT_number 12
_symmetry_cell_setting 'monoclinic'
loop_
_space_group_symop_operation_xyz
x,y,z
-x,y,-z
-x,-y,-z
x,-y,z
1/2+x,1/2+y,z
1/2-x,1/2+y,-z
1/2-x,1/2-y,-z
1/2+x,1/2-y,z
loop_
_atom_site_type_symbol
_atom_site_label
_atom_site_fract_x
_atom_site_fract_y
_atom_site_fract_z
Si Si1 0.823595 0.000000 0.565099
Si Si2 0.585582 0.654769 0.790384
Si Si3 0.814360 0.000000 0.919703
Si Si4 0.795449 0.616242 0.582034
Si Si5 0.251545 0.846988 0.053780
Si Si6 0.888719 0.703545 0.321246
Si Si7 0.940908 0.391246 0.849308
Si Si8 0.027306 0.000000 0.764723
O O1 0.747882 0.065231 0.554646
O O2 0.903749 0.000000 0.410542
O O3 0.883305 0.000000 0.743187
O O4 0.690856 0.638492 0.680462
O O5 0.550482 0.725972 0.712759
O O6 0.513580 0.588011 0.779401
O O7 0.638013 0.667954 0.968442
O O8 0.751093 0.929520 0.921071
O O9 0.891958 0.000000 0.073124
O O10 0.855448 0.680361 0.501705
O O11 0.869418 0.575834 0.709369
O O12 0.280640 0.803270 0.211548
O O13 0.354783 0.839009 0.932550
O O14 0.964833 0.645281 0.249189
O O15 0.000000 0.426547 0.000000
#
# Coordination Sequence:
#
# PCOD9212704 Si02
#       8
#     4   8   4   8   8   8   8   4
#     4  10  23  45  68  95 138 174 228 284 337 414
#     4  11  24  40  69 100 138 184 228 289 338 407
#     4  10  21  45  69  94 135 178 230 288 330 418
#     4  11  22  44  68  97 135 187 227 272 349 410
#     4  10  21  43  67  97 138 182 232 278 347 398
#     4  11  21  44  64 102 142 180 233 277 337 409
#     4   9  22  42  66  98 137 166 230 281 331 413
#     4  10  24  48  64 107 134 176 235 284 350 398
#
# _framework density 26.026152
#
# number of rings (size 3 to 8) (size 9 to 14) (size 15 to 20)
#    0.462    1.231    1.538    2.308    0.000    4.308 
#   24.923    9.231    0.000    0.000    0.000    0.000 
#    0.000    0.000    0.000    0.000    0.000    0.000 
#
# Total GULP energy -145117.167449 kJ/mol
# GULP energy per Si atom -5581.429517 kJ/mol
# Density = 2.596692 g / cm^3
# Si number density = 26.026152 Si / 1000 Ang^3
#
#
#
# Elastic Constant Matrix: (Units=GPa)
#
#
# Indices 1 2 3 4 5 6 
#
# 1 81.8973 14.6084 40.2776 0.0000 5.7706 0.0000
# 2 14.6084 124.1214 31.3351 0.0000 10.3772 0.0000
# 3 40.2776 31.3351 141.1792 0.0000 23.6081 0.0000
# 4 0.0000 0.0000 0.0000 19.2528 0.0000 -7.7622
# 5 5.7706 10.3772 23.6081 0.0000 35.0688 0.0000
# 6 0.0000 0.0000 0.0000 -7.7622 0.0000 -14.9823
#
#
#
# Elastic Compliance Matrix: (Units=1/GPa)
#
#
# Indices 1 2 3 4 5 6 
#
# 1 0.014269 -0.000715 -0.004006 0.000000 0.000560 0.000000
# 2 -0.000715 0.008633 -0.001470 0.000000 -0.001447 0.000000
# 3 -0.004006 -0.001470 0.009431 0.000000 -0.005255 0.000000
# 4 0.000000 0.000000 0.000000 0.042966 0.000000 -0.022260
# 5 0.000560 -0.001447 -0.005255 0.000000 0.032389 0.000000
# 6 0.000000 0.000000 0.000000 -0.022260 0.000000 -0.055212
#
#
# Mechanical properties :
#
#
# Convention : Reuss Voigt Hill
#
# Bulk Modulus (GPa) = 50.12310 57.73780 53.93045
# Shear Modulus (GPa) = 69.92386 25.26631 47.59509
#
# Velocity S-wave (km/s) = 5.18894 3.11915 4.28102
# Velocity P-wave (km/s) = 7.42972 5.93337 6.72330
#
# Compressibility (1/GPa) = 0.01995088
#
# Stress axis : x y z
#
# Youngs Moduli (GPa) = 70.08441 115.83586 106.03316
#
# Poissons Ratio (x) = 0.08281 0.42474
# Poissons Ratio (y) = 0.05010 0.15588
# Poissons Ratio (z) = 0.28074 0.17029
#
# Static dielectric constant tensor:
#      x y z
#    x 2.003280 0.000000 0.057870 
#    y 0.000000 2.056760 0.000000 
#    z 0.057870 0.000000 2.118070 
# 
# From -- ./inp_files/63521.got.cif
#   From: 2010.05.17/outbox.cif.g08.bks.cpg/sg12_32_cif.got.tgz:63521.got - 2010.06.03 13:09:07.
