data_PCOD9212755
_publ_section_title
;
Structure prediction by ZEFSAII (Michael W. Deem and Ramdas Pophale) SiO2 
 PCOD9212755
Probable space group: C 2/M
;
_chemical_formula_sum "Si O2"
_cell_formula_units_Z 36
_cell_length_a 8.361361
_cell_length_b 26.774148
_cell_length_c 10.145053
_cell_angle_alpha 90.000000
_cell_angle_beta 41.865686
_cell_angle_gamma 90.000000
_cell_volume 1515.739207
_symmetry_space_group_name_H-M "C 2/M"
_symmetry_group_IT_number 12
_symmetry_cell_setting 'monoclinic'
loop_
_space_group_symop_operation_xyz
x,y,z
-x,y,-z
-x,-y,-z
x,-y,z
1/2+x,1/2+y,z
1/2-x,1/2+y,-z
1/2-x,1/2-y,-z
1/2+x,1/2-y,z
loop_
_atom_site_type_symbol
_atom_site_label
_atom_site_fract_x
_atom_site_fract_y
_atom_site_fract_z
Si Si1 0.017378 0.231984 0.276431
Si Si2 0.785450 0.326681 0.736938
Si Si3 0.151599 0.500000 0.656414
Si Si4 0.119057 0.000000 0.197812
Si Si5 0.000000 0.667146 0.000000
Si Si6 0.685620 0.912343 0.098088
O O1 0.750000 0.250000 0.500000
O O2 0.930033 0.198674 0.209778
O O3 0.133537 0.286402 0.202875
O O4 0.253474 0.199501 0.185072
O O5 0.728692 0.379453 0.832609
O O6 0.000000 0.331757 0.500000
O O7 0.369692 0.500000 0.424392
O O8 0.208303 0.500000 0.779260
O O9 0.006948 0.449924 0.723278
O O10 0.155795 0.950599 0.086334
O O11 0.934337 0.628436 0.924192
#
# Coordination Sequence:
#
# PCOD9212755 Si02
#       6
#     8   8   4   4   4   8
#     4  10  24  46  69 106 154 197 254 310 374 446
#     4  10  23  45  71 105 151 201 247 309 375 447
#     4  10  21  45  74 109 149 191 251 314 391 461
#     4  10  21  43  74 110 147 197 244 321 385 459
#     4  12  24  43  80 110 144 203 254 320 382 444
#     4  11  22  43  75 113 149 189 262 314 375 455
#
# _framework density 23.750786000000002
#
# number of rings (size 3 to 8) (size 9 to 14) (size 15 to 20)
#    0.000    1.556    2.222    2.000    0.000    9.778 
#    0.000    4.444    0.000   17.333    0.000    0.000 
#    0.000    0.000    0.000    0.000    0.000    0.000 
#
# Total GULP energy -100274.519018 kJ/mol
# GULP energy per Si atom -5570.806612 kJ/mol
# Density = 2.369673 g / cm^3
# Si number density = 23.750786 Si / 1000 Ang^3
#
#
#
# Elastic Constant Matrix: (Units=GPa)
#
#
# Indices 1 2 3 4 5 6 
#
# 1 96.4954 87.9190 76.7569 0.0000 3.1757 0.0000
# 2 87.9190 231.7561 99.3625 0.0000 5.7688 0.0000
# 3 76.7569 99.3625 183.7355 0.0000 -35.3456 0.0000
# 4 0.0000 0.0000 0.0000 -98.6754 0.0000 -22.6816
# 5 3.1757 5.7688 -35.3456 0.0000 28.8697 0.0000
# 6 0.0000 0.0000 0.0000 -22.6816 0.0000 74.6242
#
#
#
# Elastic Compliance Matrix: (Units=1/GPa)
#
#
# Indices 1 2 3 4 5 6 
#
# 1 0.022088 -0.003856 -0.009760 0.000000 -0.013608 0.000000
# 2 -0.003856 0.007341 -0.003348 0.000000 -0.005142 0.000000
# 3 -0.009760 -0.003348 0.015260 0.000000 0.020426 0.000000
# 4 0.000000 0.000000 0.000000 -0.009472 0.000000 -0.002879
# 5 -0.013608 -0.005142 0.020426 0.000000 0.062171 0.000000
# 6 0.000000 0.000000 0.000000 -0.002879 0.000000 0.012525
#
#
# Mechanical properties :
#
#
# Convention : Reuss Voigt Hill
#
# Bulk Modulus (GPa) = 92.93377 115.56264 104.24820
# Shear Modulus (GPa) = 33.91473 17.49361 25.70417
#
# Velocity S-wave (km/s) = 3.78291 2.71689 3.29332
# Velocity P-wave (km/s) = 7.63506 7.65532 7.64520
#
# Compressibility (1/GPa) = 0.01076035
#
# Stress axis : x y z
#
# Youngs Moduli (GPa) = 45.27368 136.21484 65.53040
#
# Poissons Ratio (x) = 0.52525 0.63957
# Poissons Ratio (y) = 0.17458 0.21943
# Poissons Ratio (z) = 0.44187 0.45611
#
# Static dielectric constant tensor:
#      x y z
#    x 2.027810 0.000000 -0.020470 
#    y 0.000000 1.826950 0.000000 
#    z -0.020470 0.000000 1.991600 
# 
# From -- ./inp_files/123390.got.cif
#   From: 2010.05.17/outbox.cif.g08.bks.cpg/sg12_62_cif.got.tgz:123390.got - 2010.06.03 13:09:07.
