data_PCOD9212995
_publ_section_title
;
Structure prediction by ZEFSAII (Michael W. Deem and Ramdas Pophale) SiO2 
 PCOD9212995
Probable space group: C 2/M
;
_chemical_formula_sum "Si O2"
_cell_formula_units_Z 56
_cell_length_a 18.997753
_cell_length_b 19.602731
_cell_length_c 22.523686
_cell_angle_alpha 90.000000
_cell_angle_beta 161.685659
_cell_angle_gamma 90.000000
_cell_volume 2635.761102
_symmetry_space_group_name_H-M "C 2/M"
_symmetry_group_IT_number 12
_symmetry_cell_setting 'monoclinic'
loop_
_space_group_symop_operation_xyz
x,y,z
-x,y,-z
-x,-y,-z
x,-y,z
1/2+x,1/2+y,z
1/2-x,1/2+y,-z
1/2-x,1/2-y,-z
1/2+x,1/2-y,z
loop_
_atom_site_type_symbol
_atom_site_label
_atom_site_fract_x
_atom_site_fract_y
_atom_site_fract_z
Si Si1 0.698476 0.682856 0.998225
Si Si2 0.312997 0.919928 0.990365
Si Si3 0.106469 0.321264 0.140920
Si Si4 0.967550 0.922118 0.403272
Si Si5 0.688990 0.422833 0.465908
Si Si6 0.433656 0.797098 0.614525
Si Si7 0.690917 0.794384 0.615494
O O1 0.793770 0.617669 0.038819
O O2 0.433320 0.673249 0.795684
O O3 0.750000 0.750000 0.000000
O O4 0.828374 0.701652 0.162589
O O5 0.062929 0.919450 0.762059
O O6 0.388142 0.000000 0.052686
O O7 0.461601 0.870764 0.067637
O O8 0.265852 0.371884 0.232017
O O9 0.242164 0.271839 0.292781
O O10 0.000000 0.280990 0.000000
O O11 0.000000 0.920287 0.500000
O O12 0.167170 0.903054 0.518350
O O13 0.910540 0.000000 0.341614
O O14 0.770027 0.500000 0.527570
O O15 0.839546 0.372784 0.548937
O O16 0.250000 0.750000 0.500000
O O17 0.424089 0.776595 0.538850
O O18 0.500000 0.833319 0.500000
#
# Coordination Sequence:
#
# PCOD9212995 Si02
#       7
#     8   8   8   8   8   8   8
#     4  12  24  46  70  99 133 182 238 288 347 414
#     4  11  22  40  67 101 141 182 231 286 340 410
#     4  12  24  37  62  94 144 183 231 268 338 416
#     4  10  22  36  54  87 137 184 224 265 325 412
#     4  10  22  41  65  96 135 186 231 278 346 415
#     4  12  25  43  72  95 139 180 231 297 348 402
#     4  12  29  45  67 101 137 179 237 289 353 408
#
# _framework density 21.246234999999999
#
# number of rings (size 3 to 8) (size 9 to 14) (size 15 to 20)
#    0.000    0.714    5.714    0.857    8.000    1.143 
#    0.000    0.000    0.000    1.714    0.000    2.000 
#    0.000    0.000    0.000    0.000    0.000    0.000 
#
# Total GULP energy -156493.386172 kJ/mol
# GULP energy per Si atom -5589.049506 kJ/mol
# Density = 2.119788 g / cm^3
# Si number density = 21.246235 Si / 1000 Ang^3
#
#
#
# Elastic Constant Matrix: (Units=GPa)
#
#
# Indices 1 2 3 4 5 6 
#
# 1 130.4684 38.3167 52.4026 -0.0013 -17.5150 0.0007
# 2 38.3167 64.3734 18.0736 -0.0543 0.6015 -0.0800
# 3 52.4026 18.0736 103.7932 -0.0276 -15.6982 -0.0668
# 4 -0.0013 -0.0543 -0.0276 25.9232 0.0105 1.1876
# 5 -17.5150 0.6015 -15.6982 0.0105 50.5863 -0.0109
# 6 0.0007 -0.0800 -0.0668 1.1876 -0.0109 24.1875
#
#
#
# Elastic Compliance Matrix: (Units=1/GPa)
#
#
# Indices 1 2 3 4 5 6 
#
# 1 0.011430 -0.005595 -0.004394 -0.000016 0.002660 -0.000029
# 2 -0.005595 0.019133 -0.000876 0.000037 -0.002436 0.000058
# 3 -0.004394 -0.000876 0.012357 0.000009 0.002324 0.000032
# 4 -0.000016 0.000037 0.000009 0.038663 -0.000012 -0.001898
# 5 0.002660 -0.002436 0.002324 -0.000012 0.021439 0.000009
# 6 -0.000029 0.000058 0.000032 -0.001898 0.000009 0.041437
#
#
# Mechanical properties :
#
#
# Convention : Reuss Voigt Hill
#
# Bulk Modulus (GPa) = 47.18881 57.35789 52.27335
# Shear Modulus (GPa) = 28.85989 32.79555 30.82772
#
# Velocity S-wave (km/s) = 3.68958 3.93312 3.81330
# Velocity P-wave (km/s) = 6.35683 6.90516 6.63666
#
# Compressibility (1/GPa) = 0.02119146
#
# Stress axis : x y z
#
# Youngs Moduli (GPa) = 87.49102 52.26554 80.92622
#
# Poissons Ratio (x) = 0.29240 0.35560
# Poissons Ratio (y) = 0.48947 0.07086
# Poissons Ratio (z) = 0.38444 0.04576
#
# Static dielectric constant tensor:
#      x y z
#    x 1.798240 -0.000200 -0.002050 
#    y -0.000200 1.758720 -0.000260 
#    z -0.002050 -0.000260 1.883280 
# 
# From -- ./inp_files/318055.got.cif
#   From: 2010.05.17/outbox.cif.g08.bks.cpg/sg12_160_cif.got.tgz:318055.got - 2010.06.03 13:09:07.
