data_PCOD9212234
_publ_section_title
;
Structure prediction by ZEFSAII (Michael W. Deem and Ramdas Pophale) SiO2 
 PCOD9212234
Probable space group: C 2/M
;
_chemical_formula_sum "Si O2"
_cell_formula_units_Z 44
_cell_length_a 7.972270
_cell_length_b 20.731944
_cell_length_c 16.191779
_cell_angle_alpha 90.000000
_cell_angle_beta 48.825484
_cell_angle_gamma 90.000000
_cell_volume 2014.387479
_symmetry_space_group_name_H-M "C 2/M"
_symmetry_group_IT_number 12
_symmetry_cell_setting 'monoclinic'
loop_
_space_group_symop_operation_xyz
x,y,z
-x,y,-z
-x,-y,-z
x,-y,z
1/2+x,1/2+y,z
1/2-x,1/2+y,-z
1/2-x,1/2-y,-z
1/2+x,1/2-y,z
loop_
_atom_site_type_symbol
_atom_site_label
_atom_site_fract_x
_atom_site_fract_y
_atom_site_fract_z
Si Si1 0.935913 0.652940 0.670497
Si Si2 0.865603 0.000000 0.728890
Si Si3 0.459660 0.708209 0.314097
Si Si4 0.218273 0.614822 0.874797
Si Si5 0.871093 0.102799 0.459615
Si Si6 0.403023 0.575604 0.117942
O O1 0.750681 0.680899 0.668272
O O2 0.811542 0.612926 0.781028
O O3 0.046659 0.715632 0.675249
O O4 0.112663 0.608558 0.565713
O O5 0.695192 0.058110 0.814838
O O6 0.046249 0.055930 0.639206
O O7 0.680104 0.679858 0.197867
O O8 0.445358 0.674047 0.407526
O O9 0.408424 0.585497 0.873567
O O10 0.000000 0.625851 0.000000
O O11 0.000000 0.081660 0.500000
O O12 0.354692 0.500000 0.126448
O O13 0.500000 0.599751 0.000000
#
# Coordination Sequence:
#
# PCOD9212234 Si02
#       6
#     8   4   8   8   8   8
#     4  11  23  42  66  88 130 165 206 260 308 365
#     4  10  22  38  60  94 125 162 214 248 307 374
#     4  10  23  41  62  95 122 167 210 252 311 373
#     4  10  21  41  66  90 126 166 207 258 308 369
#     4  11  23  40  61  92 127 163 210 256 310 370
#     4  10  23  41  61  95 125 161 210 252 314 370
#
# _framework density 21.842867999999999
#
# number of rings (size 3 to 8) (size 9 to 14) (size 15 to 20)
#    0.000    1.636    0.909    2.727    1.273    5.091 
#    3.273    6.364    0.000    0.000    0.000    0.000 
#    0.000    0.000    0.000    0.000    0.000    0.000 
#
# Total GULP energy -122495.919448 kJ/mol
# GULP energy per Si atom -5567.996339 kJ/mol
# Density = 2.179315 g / cm^3
# Si number density = 21.842868 Si / 1000 Ang^3
#
#
#
# Elastic Constant Matrix: (Units=GPa)
#
#
# Indices 1 2 3 4 5 6 
#
# 1 40.7041 12.8370 11.6242 0.0000 -4.0649 0.0000
# 2 12.8370 33.3128 27.3449 0.0000 2.0262 0.0000
# 3 11.6242 27.3449 163.9280 0.0000 -15.7487 0.0000
# 4 0.0000 0.0000 0.0000 33.7975 0.0000 7.3953
# 5 -4.0649 2.0262 -15.7487 0.0000 24.3990 0.0000
# 6 0.0000 0.0000 0.0000 7.3953 0.0000 12.7169
#
#
#
# Elastic Compliance Matrix: (Units=1/GPa)
#
#
# Indices 1 2 3 4 5 6 
#
# 1 0.028780 -0.011901 0.000533 0.000000 0.006127 0.000000
# 2 -0.011901 0.040885 -0.006922 0.000000 -0.009846 0.000000
# 3 0.000533 -0.006922 0.007762 0.000000 0.005674 0.000000
# 4 0.000000 0.000000 0.000000 0.033902 0.000000 -0.019715
# 5 0.006127 -0.009846 0.005674 0.000000 0.046486 0.000000
# 6 0.000000 0.000000 0.000000 -0.019715 0.000000 0.090100
#
#
# Mechanical properties :
#
#
# Convention : Reuss Voigt Hill
#
# Bulk Modulus (GPa) = 24.48080 37.95078 31.21579
# Shear Modulus (GPa) = 16.77223 26.59194 21.68208
#
# Velocity S-wave (km/s) = 2.77403 3.49294 3.15404
# Velocity P-wave (km/s) = 4.63598 5.80342 5.25224
#
# Compressibility (1/GPa) = 0.04084834
#
# Stress axis : x y z
#
# Youngs Moduli (GPa) = 34.74592 24.45869 128.82898
#
# Poissons Ratio (x) = 0.29107 -0.06866
# Poissons Ratio (y) = 0.41350 0.89177
# Poissons Ratio (z) = -0.01852 0.16931
#
# Static dielectric constant tensor:
#      x y z
#    x 1.896260 0.000000 0.038480 
#    y 0.000000 1.793480 0.000000 
#    z 0.038480 0.000000 1.788200 
# 
# From -- ./inp_files/120922.got.cif
#   From: 2010.05.17/outbox.cif.g08.bks.cpg/sg12_61_cif.got.tgz:120922.got - 2010.06.03 13:09:07.
