data_PCOD9212752
_publ_section_title
;
Structure prediction by ZEFSAII (Michael W. Deem and Ramdas Pophale) SiO2 
 PCOD9212752
Probable space group: C 2/M
;
_chemical_formula_sum "Si O2"
_cell_formula_units_Z 48
_cell_length_a 19.573514
_cell_length_b 23.412781
_cell_length_c 5.878260
_cell_angle_alpha 90.000000
_cell_angle_beta 129.842148
_cell_angle_gamma 90.000000
_cell_volume 2068.358130
_symmetry_space_group_name_H-M "C 2/M"
_symmetry_group_IT_number 12
_symmetry_cell_setting 'monoclinic'
loop_
_space_group_symop_operation_xyz
x,y,z
-x,y,-z
-x,-y,-z
x,-y,z
1/2+x,1/2+y,z
1/2-x,1/2+y,-z
1/2-x,1/2-y,-z
1/2+x,1/2-y,z
loop_
_atom_site_type_symbol
_atom_site_label
_atom_site_fract_x
_atom_site_fract_y
_atom_site_fract_z
Si Si1 0.858303 0.934036 0.153802
Si Si2 0.742851 0.632253 0.679498
Si Si3 0.413858 0.332378 0.975555
Si Si4 0.954974 0.663974 0.656745
Si Si5 0.829434 0.438299 0.507749
Si Si6 0.653188 0.768994 0.861375
O O1 0.829682 0.896088 0.308576
O O2 0.888804 0.000000 0.259112
O O3 0.918855 0.892448 0.127546
O O4 0.763120 0.939177 0.824728
O O5 0.680520 0.663292 0.360698
O O6 0.799032 0.580762 0.691974
O O7 0.818654 0.674303 0.938350
O O8 0.500000 0.327288 0.000000
O O9 0.400992 0.277895 0.113164
O O10 0.893712 0.608713 0.545379
O O11 0.893989 0.718516 0.478553
O O12 0.000000 0.661006 0.500000
O O13 0.000000 0.669169 0.000000
O O14 0.872008 0.500000 0.595289
O O15 0.750000 0.750000 0.000000
#
# Coordination Sequence:
#
# PCOD9212752 Si02
#       6
#     8   8   8   8   8   8
#     4  10  21  43  73 105 142 192 258 315 375 455
#     4  11  21  43  74 106 142 198 260 317 373 454
#     4  11  26  44  70 108 150 196 252 319 399 458
#     4  12  28  48  72 112 160 198 247 320 393 447
#     4  10  22  43  71 104 145 201 258 307 367 459
#     4  12  24  48  75 101 145 199 257 310 369 466
#
# _framework density 23.206814000000001
#
# number of rings (size 3 to 8) (size 9 to 14) (size 15 to 20)
#    0.000    1.000    3.333    3.000    0.000    7.000 
#    0.000    0.833    0.000    0.000    0.000    0.000 
#    0.000    0.000    0.000    0.000    0.000    0.000 
#
# Total GULP energy -134045.315524 kJ/mol
# GULP energy per Si atom -5585.221480 kJ/mol
# Density = 2.315399 g / cm^3
# Si number density = 23.206814 Si / 1000 Ang^3
#
#
#
# Elastic Constant Matrix: (Units=GPa)
#
#
# Indices 1 2 3 4 5 6 
#
# 1 123.8715 42.7703 45.6823 0.0000 -5.8200 0.0000
# 2 42.7703 142.2581 69.8684 0.0000 -9.0876 0.0000
# 3 45.6823 69.8684 74.5012 0.0000 -4.8707 0.0000
# 4 0.0000 0.0000 0.0000 29.2637 0.0000 -30.5223
# 5 -5.8200 -9.0876 -4.8707 0.0000 26.5047 0.0000
# 6 0.0000 0.0000 0.0000 -30.5223 0.0000 164.5372
#
#
#
# Elastic Compliance Matrix: (Units=1/GPa)
#
#
# Indices 1 2 3 4 5 6 
#
# 1 0.010466 0.000077 -0.006415 0.000000 0.001146 0.000000
# 2 0.000077 0.013166 -0.012246 0.000000 0.002281 0.000000
# 3 -0.006415 -0.012246 0.028820 0.000000 -0.000311 0.000000
# 4 0.000000 0.000000 0.000000 0.042370 0.000000 0.007860
# 5 0.001146 0.002281 -0.000311 0.000000 0.038706 0.000000
# 6 0.000000 0.000000 0.000000 0.007860 0.000000 0.007536
#
#
# Mechanical properties :
#
#
# Convention : Reuss Voigt Hill
#
# Bulk Modulus (GPa) = 65.42277 73.03031 69.22654
# Shear Modulus (GPa) = 27.27389 56.21511 41.74450
#
# Velocity S-wave (km/s) = 3.43192 4.92708 4.24583
# Velocity P-wave (km/s) = 6.62997 7.99411 7.34378
#
# Compressibility (1/GPa) = 0.01528520
#
# Stress axis : x y z
#
# Youngs Moduli (GPa) = 95.54955 75.95090 34.69799
#
# Poissons Ratio (x) = -0.00586 0.22258
# Poissons Ratio (y) = -0.00738 0.42491
# Poissons Ratio (z) = 0.61294 0.93009
#
# Static dielectric constant tensor:
#      x y z
#    x 1.676040 0.000000 0.274390 
#    y 0.000000 1.442540 0.000000 
#    z 0.274390 0.000000 1.639930 
# 
# From -- ./inp_files/22007.got.cif
#   From: 2010.05.17/outbox.cif.g08.bks.cpg/sg12_12_cif.got.tgz:22007.got - 2010.06.03 13:09:07.
