data_PCOD9212062
_publ_section_title
;
Structure prediction by ZEFSAII (Michael W. Deem and Ramdas Pophale) SiO2 
 PCOD9212062
Probable space group: C 2/M
;
_chemical_formula_sum "Si O2"
_cell_formula_units_Z 56
_cell_length_a 10.176977
_cell_length_b 21.504934
_cell_length_c 15.207911
_cell_angle_alpha 90.000000
_cell_angle_beta 60.317687
_cell_angle_gamma 90.000000
_cell_volume 2891.601844
_symmetry_space_group_name_H-M "C 2/M"
_symmetry_group_IT_number 12
_symmetry_cell_setting 'monoclinic'
loop_
_space_group_symop_operation_xyz
x,y,z
-x,y,-z
-x,-y,-z
x,-y,z
1/2+x,1/2+y,z
1/2-x,1/2+y,-z
1/2-x,1/2-y,-z
1/2+x,1/2-y,z
loop_
_atom_site_type_symbol
_atom_site_label
_atom_site_fract_x
_atom_site_fract_y
_atom_site_fract_z
Si Si1 0.932901 0.639442 0.294219
Si Si2 0.421825 0.668916 0.933485
Si Si3 0.565915 0.186505 0.074344
Si Si4 0.078857 0.115741 0.385699
Si Si5 0.430251 0.750970 0.429941
Si Si6 0.106489 0.426456 0.384711
Si Si7 0.047474 0.072470 0.749658
O O1 0.754891 0.625494 0.348227
O O2 0.963465 0.702662 0.339231
O O3 0.992782 0.647260 0.176245
O O4 0.023200 0.589305 0.321561
O O5 0.464101 0.740311 0.895337
O O6 0.471473 0.618990 0.844656
O O7 0.500000 0.653712 0.000000
O O8 0.243093 0.672401 0.009334
O O9 0.500000 0.173927 0.000000
O O10 0.044119 0.076167 0.311172
O O11 0.000000 0.090479 0.500000
O O12 0.001773 0.182999 0.392273
O O13 0.500000 0.771623 0.500000
O O14 0.250000 0.750000 0.500000
O O15 0.119113 0.500000 0.391625
O O16 0.280150 0.404095 0.325646
O O17 0.000000 0.404184 0.500000
O O18 0.052037 0.000000 0.777818
#
# Coordination Sequence:
#
# PCOD9212062 Si02
#       7
#     8   8   8   8   8   8   8
#     4  12  22  37  64  88 121 166 202 257 311 374
#     4  10  21  41  62  86 118 152 203 256 313 374
#     4  10  22  39  61  89 119 156 200 254 317 376
#     4  11  23  38  57  89 128 160 203 245 305 379
#     4  11  22  38  57  95 131 162 205 251 312 376
#     4  10  23  41  61  90 126 166 214 258 308 375
#     4  11  24  41  64  89 119 165 211 260 313 364
#
# _framework density 19.366427999999999
#
# number of rings (size 3 to 8) (size 9 to 14) (size 15 to 20)
#    0.000    1.286    2.857    3.857    2.000    4.571 
#    0.000    0.714    0.000    1.714    0.000    0.000 
#    0.000    0.000    0.000    0.000    0.000    0.000 
#
# Total GULP energy -156425.299696 kJ/mol
# GULP energy per Si atom -5586.617846 kJ/mol
# Density = 1.932235 g / cm^3
# Si number density = 19.366428 Si / 1000 Ang^3
#
#
#
# Elastic Constant Matrix: (Units=GPa)
#
#
# Indices 1 2 3 4 5 6 
#
# 1 138.7462 14.9243 44.6097 0.0000 16.0738 0.0000
# 2 14.9243 44.4806 33.2090 0.0000 0.8779 0.0000
# 3 44.6097 33.2090 127.5055 0.0000 19.2629 0.0000
# 4 0.0000 0.0000 0.0000 26.6382 0.0000 8.1948
# 5 16.0738 0.8779 19.2629 0.0000 18.0880 0.0000
# 6 0.0000 0.0000 0.0000 8.1948 0.0000 34.1903
#
#
#
# Elastic Compliance Matrix: (Units=1/GPa)
#
#
# Indices 1 2 3 4 5 6 
#
# 1 0.008590 -0.001448 -0.001770 0.000000 -0.005678 0.000000
# 2 -0.001448 0.029061 -0.008394 0.000000 0.008816 0.000000
# 3 -0.001770 -0.008394 0.012334 0.000000 -0.011154 0.000000
# 4 0.000000 0.000000 0.000000 0.040528 0.000000 -0.009714
# 5 -0.005678 0.008816 -0.011154 0.000000 0.071782 0.000000
# 6 0.000000 0.000000 0.000000 -0.009714 0.000000 0.031576
#
#
# Mechanical properties :
#
#
# Convention : Reuss Voigt Hill
#
# Bulk Modulus (GPa) = 37.37090 55.13537 46.25314
# Shear Modulus (GPa) = 22.12235 30.31593 26.21914
#
# Velocity S-wave (km/s) = 3.38347 3.96079 3.68345
# Velocity P-wave (km/s) = 5.88238 7.03196 6.48270
#
# Compressibility (1/GPa) = 0.02675879
#
# Stress axis : x y z
#
# Youngs Moduli (GPa) = 116.41155 34.41084 81.07983
#
# Poissons Ratio (x) = 0.04984 0.14354
# Poissons Ratio (y) = 0.16861 0.68058
# Poissons Ratio (z) = 0.20609 0.28884
#
# Static dielectric constant tensor:
#      x y z
#    x 1.645850 0.000000 -0.000880 
#    y 0.000000 1.714770 0.000000 
#    z -0.000880 0.000000 1.652520 
# 
# From -- ./inp_files/198768.got.cif
#   From: 2010.05.17/outbox.cif.g08.bks.cpg/sg12_100_cif.got.tgz:198768.got - 2010.06.03 13:09:07.
