data_PCOD9212603
_publ_section_title
;
Structure prediction by ZEFSAII (Michael W. Deem and Ramdas Pophale) SiO2 
 PCOD9212603
Probable space group: C 2/M
;
_chemical_formula_sum "Si O2"
_cell_formula_units_Z 60
_cell_length_a 12.574995
_cell_length_b 17.311435
_cell_length_c 20.514003
_cell_angle_alpha 90.000000
_cell_angle_beta 141.478603
_cell_angle_gamma 90.000000
_cell_volume 2781.279857
_symmetry_space_group_name_H-M "C 2/M"
_symmetry_group_IT_number 12
_symmetry_cell_setting 'monoclinic'
loop_
_space_group_symop_operation_xyz
x,y,z
-x,y,-z
-x,-y,-z
x,-y,z
1/2+x,1/2+y,z
1/2-x,1/2+y,-z
1/2-x,1/2-y,-z
1/2+x,1/2-y,z
loop_
_atom_site_type_symbol
_atom_site_label
_atom_site_fract_x
_atom_site_fract_y
_atom_site_fract_z
Si Si1 0.806418 0.700329 0.714934
Si Si2 0.247467 0.088752 0.411150
Si Si3 0.858394 0.654865 0.191095
Si Si4 0.157376 0.866023 0.220352
Si Si5 0.632870 0.590672 0.735659
Si Si6 0.709122 0.584710 0.997204
Si Si7 0.500000 0.789386 0.500000
Si Si8 0.805627 0.318305 0.928370
O O1 0.888659 0.775994 0.788292
O O2 0.740806 0.639186 0.735822
O O3 0.639797 0.736255 0.600986
O O4 0.942752 0.664354 0.730768
O O5 0.205622 0.097990 0.313428
O O6 0.392652 0.151798 0.494222
O O7 0.070387 0.106484 0.363174
O O8 0.297315 0.000000 0.447662
O O9 0.810422 0.635099 0.241896
O O10 0.771713 0.736680 0.130112
O O11 0.770475 0.594522 0.100256
O O12 0.993176 0.905577 0.109594
O O13 0.657868 0.500000 0.738775
O O14 0.697929 0.617748 0.837299
O O15 0.761979 0.500000 0.998185
O O16 0.792736 0.654433 0.996468
O O17 0.000000 0.319963 0.000000
#
# Coordination Sequence:
#
# PCOD9212603 Si02
#       8
#     8   8   8   8   8   8   4   8
#     4  11  24  44  66  95 128 164 216 267 319 388
#     4  10  21  42  68  98 132 162 210 268 321 375
#     4  12  25  41  63  93 131 177 213 262 316 377
#     4  11  22  40  64  94 130 175 211 255 316 373
#     4  11  23  42  68  94 128 167 209 268 323 373
#     4  12  25  40  61  94 134 174 217 260 313 374
#     4  10  23  42  69  98 122 166 212 266 323 388
#     4  12  22  38  62  91 127 171 221 261 306 371
#
# _framework density 21.572801999999999
#
# number of rings (size 3 to 8) (size 9 to 14) (size 15 to 20)
#    0.000    0.800    4.000    4.200    0.000    4.800 
#    2.400    0.333    0.000    0.000    0.000    0.000 
#    0.000    0.000    0.000    0.000    0.000    0.000 
#
# Total GULP energy -167822.581006 kJ/mol
# GULP energy per Si atom -5594.086034 kJ/mol
# Density = 2.152370 g / cm^3
# Si number density = 21.572802 Si / 1000 Ang^3
#
#
#
# Elastic Constant Matrix: (Units=GPa)
#
#
# Indices 1 2 3 4 5 6 
#
# 1 86.2294 -2.8672 1.3180 0.0000 5.1262 0.0000
# 2 -2.8672 71.3355 9.0949 0.0000 5.6741 0.0000
# 3 1.3180 9.0949 67.9388 0.0000 16.3098 0.0000
# 4 0.0000 0.0000 0.0000 13.5179 0.0000 -6.4419
# 5 5.1262 5.6741 16.3098 0.0000 22.5536 0.0000
# 6 0.0000 0.0000 0.0000 -6.4419 0.0000 24.5704
#
#
#
# Elastic Compliance Matrix: (Units=1/GPa)
#
#
# Indices 1 2 3 4 5 6 
#
# 1 0.011801 0.000670 0.000443 0.000000 -0.003171 0.000000
# 2 0.000670 0.014434 -0.001255 0.000000 -0.002876 0.000000
# 3 0.000443 -0.001255 0.017942 0.000000 -0.012760 0.000000
# 4 0.000000 0.000000 0.000000 0.084538 0.000000 0.022164
# 5 -0.003171 -0.002876 -0.012760 0.000000 0.055010 0.000000
# 6 0.000000 0.000000 0.000000 0.022164 0.000000 0.046510
#
#
# Mechanical properties :
#
#
# Convention : Reuss Voigt Hill
#
# Bulk Modulus (GPa) = 22.78299 26.73278 24.75788
# Shear Modulus (GPa) = 20.39564 26.65891 23.52727
#
# Velocity S-wave (km/s) = 3.07813 3.51916 3.30600
# Velocity P-wave (km/s) = 4.81841 5.37879 5.10629
#
# Compressibility (1/GPa) = 0.04389240
#
# Stress axis : x y z
#
# Youngs Moduli (GPa) = 84.73860 69.28105 55.73623
#
# Poissons Ratio (x) = -0.04643 -0.02467
# Poissons Ratio (y) = -0.05678 0.06994
# Poissons Ratio (z) = -0.03750 0.08693
#
# Static dielectric constant tensor:
#      x y z
#    x 1.782160 0.000000 0.002230 
#    y 0.000000 1.771810 0.000000 
#    z 0.002230 0.000000 1.796100 
# 
# From -- ./inp_files/306388.got.cif
#   From: 2010.05.17/outbox.cif.g08.bks.cpg/sg12_154_cif.got.tgz:306388.got - 2010.06.03 13:09:07.
