data_PCOD9212199
_publ_section_title
;
Structure prediction by ZEFSAII (Michael W. Deem and Ramdas Pophale) SiO2 
 PCOD9212199
Probable space group: C 2/M
;
_chemical_formula_sum "Si O2"
_cell_formula_units_Z 54
_cell_length_a 8.577927
_cell_length_b 18.160810
_cell_length_c 16.737348
_cell_angle_alpha 90.000000
_cell_angle_beta 103.651787
_cell_angle_gamma 90.000000
_cell_volume 2533.715763
_symmetry_space_group_name_H-M "C 2/M"
_symmetry_group_IT_number 12
_symmetry_cell_setting 'monoclinic'
loop_
_space_group_symop_operation_xyz
x,y,z
-x,y,-z
-x,-y,-z
x,-y,z
1/2+x,1/2+y,z
1/2-x,1/2+y,-z
1/2-x,1/2-y,-z
1/2+x,1/2-y,z
loop_
_atom_site_type_symbol
_atom_site_label
_atom_site_fract_x
_atom_site_fract_y
_atom_site_fract_z
Si Si1 0.632237 0.358571 0.609685
Si Si2 0.000000 0.000000 0.500000
Si Si3 0.169282 0.416451 0.222834
Si Si4 0.549217 0.217860 0.417073
Si Si5 0.465608 0.699117 0.862536
Si Si6 0.784289 0.915747 0.053520
Si Si7 0.615833 0.814212 0.765096
Si Si8 0.500000 0.818221 0.000000
O O1 0.594333 0.434556 0.561781
O O2 0.700606 0.375945 0.705934
O O3 0.476489 0.305997 0.590872
O O4 0.775767 0.312210 0.584638
O O5 0.155875 0.500000 0.249747
O O6 0.217643 0.418038 0.136359
O O7 0.001887 0.375457 0.213884
O O8 0.500000 0.193917 0.500000
O O9 0.427881 0.190388 0.333466
O O10 0.557728 0.633356 0.917842
O O11 0.567734 0.739131 0.805626
O O12 0.300596 0.672536 0.804668
O O13 0.437497 0.763865 0.923681
O O14 0.805011 0.000000 0.028371
O O15 0.647783 0.869595 0.990574
#
# Coordination Sequence:
#
# PCOD9212199 Si02
#       8
#     8   2   8   8   8   8   8   4
#     4  11  23  41  65  92 129 167 216 262 320 380
#     4  12  24  40  66  92 132 172 210 272 328 380
#     4  10  21  41  65  92 128 171 209 259 322 384
#     4  11  23  40  67  97 125 167 220 265 312 382
#     4  12  23  41  65  97 124 171 216 263 312 383
#     4  11  24  42  65  95 129 164 213 264 320 381
#     4  11  22  40  67  91 131 165 219 261 316 380
#     4  12  23  42  69  90 128 170 216 262 315 390
#
# _framework density 21.312571999999999
#
# number of rings (size 3 to 8) (size 9 to 14) (size 15 to 20)
#    0.000    0.889    4.444    3.778    0.000    0.593 
#    0.000    0.741    0.000    0.000    0.000    0.000 
#    0.000    0.000    0.000    0.000    0.000    0.000 
#
# Total GULP energy -150774.138109 kJ/mol
# GULP energy per Si atom -5584.227337 kJ/mol
# Density = 2.126406 g / cm^3
# Si number density = 21.312572 Si / 1000 Ang^3
#
#
#
# Elastic Constant Matrix: (Units=GPa)
#
#
# Indices 1 2 3 4 5 6 
#
# 1 62.5310 49.6034 25.9694 0.0000 29.7186 0.0000
# 2 49.6034 158.5842 18.7504 0.0000 9.4659 0.0000
# 3 25.9694 18.7504 98.3910 0.0000 12.3711 0.0000
# 4 0.0000 0.0000 0.0000 19.1915 0.0000 7.9295
# 5 29.7186 9.4659 12.3711 0.0000 41.7778 0.0000
# 6 0.0000 0.0000 0.0000 7.9295 0.0000 25.7965
#
#
#
# Elastic Compliance Matrix: (Units=1/GPa)
#
#
# Indices 1 2 3 4 5 6 
#
# 1 0.035864 -0.009325 -0.004930 0.000000 -0.021939 0.000000
# 2 -0.009325 0.008929 0.000187 0.000000 0.004555 0.000000
# 3 -0.004930 0.000187 0.011419 0.000000 0.000084 0.000000
# 4 0.000000 0.000000 0.000000 0.059687 0.000000 -0.018347
# 5 -0.021939 0.004555 0.000084 0.000000 0.038485 0.000000
# 6 0.000000 0.000000 0.000000 -0.018347 0.000000 0.044404
#
#
# Mechanical properties :
#
#
# Convention : Reuss Voigt Hill
#
# Bulk Modulus (GPa) = 35.62029 56.46142 46.04086
# Shear Modulus (GPa) = 21.16107 32.36536 26.76322
#
# Velocity S-wave (km/s) = 3.15444 3.90115 3.54750
# Velocity P-wave (km/s) = 5.47876 6.84409 6.19913
#
# Compressibility (1/GPa) = 0.02807388
#
# Stress axis : x y z
#
# Youngs Moduli (GPa) = 27.88338 111.99925 87.57570
#
# Poissons Ratio (x) = 1.04443 0.43178
# Poissons Ratio (y) = 0.26002 -0.01638
# Poissons Ratio (z) = 0.13747 -0.02095
#
# Static dielectric constant tensor:
#      x y z
#    x 1.776460 0.000000 -0.020220 
#    y 0.000000 1.758650 0.000000 
#    z -0.020220 0.000000 1.809130 
# 
# From -- ./inp_files/257226.got.cif
#   From: 2010.05.17/outbox.cif.g08.bks.cpg/sg12_129_cif.got.tgz:257226.got - 2010.06.03 13:09:07.
