data_PCOD9212056
_publ_section_title
;
Structure prediction by ZEFSAII (Michael W. Deem and Ramdas Pophale) SiO2 
 PCOD9212056
Probable space group: C 2/M
;
_chemical_formula_sum "Si O2"
_cell_formula_units_Z 58
_cell_length_a 17.004146
_cell_length_b 22.159802
_cell_length_c 9.425769
_cell_angle_alpha 90.000000
_cell_angle_beta 123.208843
_cell_angle_gamma 90.000000
_cell_volume 2971.643953
_symmetry_space_group_name_H-M "C 2/M"
_symmetry_group_IT_number 12
_symmetry_cell_setting 'monoclinic'
loop_
_space_group_symop_operation_xyz
x,y,z
-x,y,-z
-x,-y,-z
x,-y,z
1/2+x,1/2+y,z
1/2-x,1/2+y,-z
1/2-x,1/2-y,-z
1/2+x,1/2-y,z
loop_
_atom_site_type_symbol
_atom_site_label
_atom_site_fract_x
_atom_site_fract_y
_atom_site_fract_z
Si Si1 0.080167 0.190838 0.366597
Si Si2 0.500000 0.500000 0.000000
Si Si3 0.244065 0.141839 0.726981
Si Si4 0.407179 0.218332 0.003650
Si Si5 0.178028 0.430783 0.441074
Si Si6 0.127066 0.844319 0.884837
Si Si7 0.859705 0.897531 0.801163
Si Si8 0.026252 0.671295 0.359883
O O1 0.159289 0.168921 0.551533
O O2 0.112562 0.165463 0.246128
O O3 0.070515 0.262288 0.376117
O O4 0.977837 0.160105 0.285374
O O5 0.560865 0.447372 0.143976
O O6 0.280956 0.084874 0.674540
O O7 0.200898 0.136144 0.840016
O O8 0.330206 0.187809 0.828732
O O9 0.365092 0.276934 0.040800
O O10 0.439895 0.173248 0.162885
O O11 0.500000 0.231256 0.000000
O O12 0.147573 0.500000 0.420063
O O13 0.262141 0.418588 0.636182
O O14 0.096414 0.382748 0.392496
O O15 0.140621 0.887974 0.031271
O O16 0.000000 0.668214 0.500000
#
# Coordination Sequence:
#
# PCOD9212056 Si02
#       8
#     8   2   8   8   8   8   8   8
#     4  10  21  41  62 101 133 169 207 267 329 393
#     4  12  20  44  60 102 126 182 208 266 320 380
#     4  11  24  39  64  91 132 168 207 259 328 387
#     4  11  22  41  62  98 132 165 206 264 324 389
#     4  11  26  46  62  91 128 177 224 260 318 398
#     4  11  21  38  63  99 128 160 211 266 319 382
#     4  11  23  38  69  93 131 172 217 264 319 383
#     4  11  24  42  69  93 130 165 220 276 328 375
#
# _framework density 19.517814999999999
#
# number of rings (size 3 to 8) (size 9 to 14) (size 15 to 20)
#    0.000    1.103    3.448    4.138    3.862    1.379 
#    1.241    1.379    0.000    3.310    0.000    0.000 
#    0.000    0.000    0.000    0.000    0.000    0.000 
#
# Total GULP energy -161612.474210 kJ/mol
# GULP energy per Si atom -5572.843938 kJ/mol
# Density = 1.947339 g / cm^3
# Si number density = 19.517815 Si / 1000 Ang^3
#
#
#
# Elastic Constant Matrix: (Units=GPa)
#
#
# Indices 1 2 3 4 5 6 
#
# 1 76.6879 48.2674 32.9377 0.0000 -38.5490 0.0000
# 2 48.2674 106.7510 31.7595 0.0000 -14.9623 0.0000
# 3 32.9377 31.7595 86.6429 0.0000 -19.7339 0.0000
# 4 0.0000 0.0000 0.0000 15.5480 0.0000 10.5034
# 5 -38.5490 -14.9623 -19.7339 0.0000 29.1096 0.0000
# 6 0.0000 0.0000 0.0000 10.5034 0.0000 11.5419
#
#
#
# Elastic Compliance Matrix: (Units=1/GPa)
#
#
# Indices 1 2 3 4 5 6 
#
# 1 0.057272 -0.016342 -0.000498 0.000000 0.067107 0.000000
# 2 -0.016342 0.015452 -0.003041 0.000000 -0.015760 0.000000
# 3 -0.000498 -0.003041 0.014593 0.000000 0.007670 0.000000
# 4 0.000000 0.000000 0.000000 0.166954 0.000000 -0.151932
# 5 0.067107 -0.015760 0.007670 0.000000 0.120320 0.000000
# 6 0.000000 0.000000 0.000000 -0.151932 0.000000 0.224903
#
#
# Mechanical properties :
#
#
# Convention : Reuss Voigt Hill
#
# Bulk Modulus (GPa) = 21.02811 55.11232 38.07022
# Shear Modulus (GPa) = 7.63235 21.71437 14.67336
#
# Velocity S-wave (km/s) = 1.97963 3.33910 2.74486
# Velocity P-wave (km/s) = 4.00281 6.56996 5.43998
#
# Compressibility (1/GPa) = 0.04755540
#
# Stress axis : x y z
#
# Youngs Moduli (GPa) = 17.46056 64.71506 68.52768
#
# Poissons Ratio (x) = 1.05755 0.03411
# Poissons Ratio (y) = 0.28533 0.20842
# Poissons Ratio (z) = 0.00869 0.19682
#
# Static dielectric constant tensor:
#      x y z
#    x 1.719340 0.000000 -0.006090 
#    y 0.000000 1.650330 0.000000 
#    z -0.006090 0.000000 1.706270 
# 
# From -- ./inp_files/78046.got.cif
#   From: 2010.05.17/outbox.cif.g08.bks.cpg/sg12_40_cif.got.tgz:78046.got - 2010.06.03 13:09:07.
