data_PCOD9212204
_publ_section_title
;
Structure prediction by ZEFSAII (Michael W. Deem and Ramdas Pophale) SiO2 
 PCOD9212204
Probable space group: C 2/M
;
_chemical_formula_sum "Si O2"
_cell_formula_units_Z 42
_cell_length_a 29.012144
_cell_length_b 7.315097
_cell_length_c 7.604593
_cell_angle_alpha 90.000000
_cell_angle_beta 83.081783
_cell_angle_gamma 90.000000
_cell_volume 1602.146645
_symmetry_space_group_name_H-M "C 2/M"
_symmetry_group_IT_number 12
_symmetry_cell_setting 'monoclinic'
loop_
_space_group_symop_operation_xyz
x,y,z
-x,y,-z
-x,-y,-z
x,-y,z
1/2+x,1/2+y,z
1/2-x,1/2+y,-z
1/2-x,1/2-y,-z
1/2+x,1/2-y,z
loop_
_atom_site_type_symbol
_atom_site_label
_atom_site_fract_x
_atom_site_fract_y
_atom_site_fract_z
Si Si1 0.926918 0.218746 0.556989
Si Si2 0.642949 0.778960 0.898996
Si Si3 0.954203 0.212325 0.934758
Si Si4 0.000000 0.500000 0.500000
Si Si5 0.790652 0.282231 0.843016
Si Si6 0.322008 0.786491 0.475345
O O1 0.937406 0.285833 0.753444
O O2 0.964801 0.338368 0.438937
O O3 0.874591 0.267538 0.525911
O O4 0.932689 0.000000 0.536951
O O5 0.673907 0.709468 0.722542
O O6 0.644427 0.000000 0.896511
O O7 0.589655 0.723889 0.915700
O O8 0.664296 0.713251 0.072741
O O9 0.964156 0.000000 0.894702
O O10 0.000000 0.294183 0.000000
O O11 0.795131 0.500000 0.823060
O O12 0.789367 0.209471 0.644914
O O13 0.750000 0.250000 0.000000
O O14 0.311038 0.000000 0.459133
#
# Coordination Sequence:
#
# PCOD9212204 Si02
#       6
#     8   8   8   2   8   8
#     4  11  24  41  64  93 130 178 228 274 329 395
#     4  10  22  39  65  93 124 171 220 263 330 403
#     4  10  23  40  59  89 129 169 216 270 323 386
#     4  12  26  40  62  90 132 180 224 276 332 380
#     4  10  22  41  65  93 129 168 219 277 337 404
#     4  10  21  41  65  93 129 171 215 272 336 397
#
# _framework density 26.214825999999999
#
# number of rings (size 3 to 8) (size 9 to 14) (size 15 to 20)
#    0.000    1.714    2.857    0.286    4.000    3.429 
#    0.000    0.000    0.000    0.000    0.000    0.000 
#    0.000    0.000    0.000    0.000    0.000    0.000 
#
# Total GULP energy -117239.477434 kJ/mol
# GULP energy per Si atom -5582.832259 kJ/mol
# Density = 2.615516 g / cm^3
# Si number density = 26.214826 Si / 1000 Ang^3
#
#
#
# Elastic Constant Matrix: (Units=GPa)
#
#
# Indices 1 2 3 4 5 6 
#
# 1 70.0550 -3.9373 1.8054 0.0000 -10.5177 0.0000
# 2 -3.9373 141.9079 -8.4026 0.0000 7.3055 0.0000
# 3 1.8054 -8.4026 133.5088 0.0000 5.8546 0.0000
# 4 0.0000 0.0000 0.0000 14.1384 0.0000 -5.9563
# 5 -10.5177 7.3055 5.8546 0.0000 38.8470 0.0000
# 6 0.0000 0.0000 0.0000 -5.9563 0.0000 19.0958
#
#
#
# Elastic Compliance Matrix: (Units=1/GPa)
#
#
# Indices 1 2 3 4 5 6 
#
# 1 0.014903 0.000183 -0.000368 0.000000 0.004056 0.000000
# 2 0.000183 0.007153 0.000508 0.000000 -0.001372 0.000000
# 3 -0.000368 0.000508 0.007586 0.000000 -0.001338 0.000000
# 4 0.000000 0.000000 0.000000 0.081430 0.000000 0.025399
# 5 0.004056 -0.001372 -0.001338 0.000000 0.027300 0.000000
# 6 0.000000 0.000000 0.000000 0.025399 0.000000 0.060290
#
#
# Mechanical properties :
#
#
# Convention : Reuss Voigt Hill
#
# Bulk Modulus (GPa) = 33.01709 36.04474 34.53092
# Shear Modulus (GPa) = 24.02561 38.14998 31.08780
#
# Velocity S-wave (km/s) = 3.03064 3.81896 3.44741
# Velocity P-wave (km/s) = 4.98684 5.76416 5.38953
#
# Compressibility (1/GPa) = 0.03028735
#
# Stress axis : x y z
#
# Youngs Moduli (GPa) = 67.09968 139.80910 131.82578
#
# Poissons Ratio (x) = -0.02557 0.04850
# Poissons Ratio (y) = -0.01227 -0.06695
# Poissons Ratio (z) = 0.02469 -0.07100
#
# Static dielectric constant tensor:
#      x y z
#    x 2.065060 0.000000 -0.053690 
#    y 0.000000 1.980660 0.000000 
#    z -0.053690 0.000000 2.233790 
# 
# From -- ./inp_files/107909.got.cif
#   From: 2010.05.17/outbox.cif.g08.bks.cpg/sg12_54_cif.got.tgz:107909.got - 2010.06.03 13:09:07.
