data_PCOD9212733
_publ_section_title
;
Structure prediction by ZEFSAII (Michael W. Deem and Ramdas Pophale) SiO2 
 PCOD9212733
Probable space group: C 2/M
;
_chemical_formula_sum "Si O2"
_cell_formula_units_Z 44
_cell_length_a 12.289396
_cell_length_b 25.460476
_cell_length_c 7.771876
_cell_angle_alpha 90.000000
_cell_angle_beta 118.824390
_cell_angle_gamma 90.000000
_cell_volume 2130.479485
_symmetry_space_group_name_H-M "C 2/M"
_symmetry_group_IT_number 12
_symmetry_cell_setting 'monoclinic'
loop_
_space_group_symop_operation_xyz
x,y,z
-x,y,-z
-x,-y,-z
x,-y,z
1/2+x,1/2+y,z
1/2-x,1/2+y,-z
1/2-x,1/2-y,-z
1/2+x,1/2-y,z
loop_
_atom_site_type_symbol
_atom_site_label
_atom_site_fract_x
_atom_site_fract_y
_atom_site_fract_z
Si Si1 0.550202 0.885647 0.365791
Si Si2 0.133997 0.716494 0.347275
Si Si3 0.746606 0.939193 0.274571
Si Si4 0.445030 0.691627 0.143212
Si Si5 0.316840 0.159306 0.981738
Si Si6 0.000000 0.113130 0.500000
O O1 0.500000 0.911196 0.500000
O O2 0.628980 0.833530 0.470225
O O3 0.634275 0.923809 0.316743
O O4 0.440118 0.857093 0.176391
O O5 0.250000 0.750000 0.500000
O O6 0.156763 0.691165 0.175255
O O7 0.012735 0.753767 0.246261
O O8 0.731636 0.898756 0.106744
O O9 0.880773 0.922704 0.449791
O O10 0.741660 0.000000 0.225803
O O11 0.295625 0.690248 0.014532
O O12 0.477332 0.651125 0.320063
O O13 0.500000 0.676781 0.000000
#
# Coordination Sequence:
#
# PCOD9212733 Si02
#       6
#     8   8   8   8   8   4
#     4  11  25  39  60  91 129 161 211 269 307 370
#     4  11  23  38  60  90 126 171 210 253 310 378
#     4  10  21  43  70  89 120 164 205 260 328 380
#     4  11  23  38  65  89 130 175 210 255 316 374
#     4  10  24  42  58  93 126 160 219 260 309 381
#     4  10  23  42  64 102 128 158 213 260 312 394
#
# _framework density 20.652628
#
# number of rings (size 3 to 8) (size 9 to 14) (size 15 to 20)
#    0.000    1.455    0.000    6.818    8.909    3.273 
#    0.000    0.000    0.000    2.727    0.000    0.000 
#    0.000    0.000    0.000    0.000    0.000    0.000 
#
# Total GULP energy -122817.647338 kJ/mol
# GULP energy per Si atom -5582.620334 kJ/mol
# Density = 2.060562 g / cm^3
# Si number density = 20.652628 Si / 1000 Ang^3
#
#
#
# Elastic Constant Matrix: (Units=GPa)
#
#
# Indices 1 2 3 4 5 6 
#
# 1 120.4601 28.4432 17.9149 0.0000 0.7790 0.0000
# 2 28.4432 134.0508 16.9620 0.0000 9.2975 0.0000
# 3 17.9149 16.9620 53.8578 0.0000 4.6314 0.0000
# 4 0.0000 0.0000 0.0000 10.3645 0.0000 1.8217
# 5 0.7790 9.2975 4.6314 0.0000 36.7457 0.0000
# 6 0.0000 0.0000 0.0000 1.8217 0.0000 16.6408
#
#
#
# Elastic Compliance Matrix: (Units=1/GPa)
#
#
# Indices 1 2 3 4 5 6 
#
# 1 0.009063 -0.001639 -0.002545 0.000000 0.000543 0.000000
# 2 -0.001639 0.008169 -0.001873 0.000000 -0.001796 0.000000
# 3 -0.002545 -0.001873 0.020177 0.000000 -0.002015 0.000000
# 4 0.000000 0.000000 0.000000 0.098376 0.000000 -0.010769
# 5 0.000543 -0.001796 -0.002015 0.000000 0.027911 0.000000
# 6 0.000000 0.000000 0.000000 -0.010769 0.000000 0.061272
#
#
# Mechanical properties :
#
#
# Convention : Reuss Voigt Hill
#
# Bulk Modulus (GPa) = 39.53319 48.33432 43.93376
# Shear Modulus (GPa) = 20.36533 29.08679 24.72606
#
# Velocity S-wave (km/s) = 3.14361 3.75691 3.46386
# Velocity P-wave (km/s) = 5.68858 6.50181 6.10874
#
# Compressibility (1/GPa) = 0.02529520
#
# Stress axis : x y z
#
# Youngs Moduli (GPa) = 110.33283 122.41140 49.56051
#
# Poissons Ratio (x) = 0.20060 0.12615
# Poissons Ratio (y) = 0.18080 0.09284
# Poissons Ratio (z) = 0.28085 0.22931
#
# Static dielectric constant tensor:
#      x y z
#    x 1.831880 0.000000 0.053220 
#    y 0.000000 1.715340 0.000000 
#    z 0.053220 0.000000 1.799210 
# 
# From -- ./inp_files/51573.got.cif
#   From: 2010.05.17/outbox.cif.g08.bks.cpg/sg12_26_cif.got.tgz:51573.got - 2010.06.03 13:09:07.
