data_PCOD9212756
_publ_section_title
;
Structure prediction by ZEFSAII (Michael W. Deem and Ramdas Pophale) SiO2 
 PCOD9212756
Probable space group: C 2/M
;
_chemical_formula_sum "Si O2"
_cell_formula_units_Z 40
_cell_length_a 9.007439
_cell_length_b 19.091428
_cell_length_c 10.517998
_cell_angle_alpha 90.000000
_cell_angle_beta 97.659605
_cell_angle_gamma 90.000000
_cell_volume 1792.587682
_symmetry_space_group_name_H-M "C 2/M"
_symmetry_group_IT_number 12
_symmetry_cell_setting 'monoclinic'
loop_
_space_group_symop_operation_xyz
x,y,z
-x,y,-z
-x,-y,-z
x,-y,z
1/2+x,1/2+y,z
1/2-x,1/2+y,-z
1/2-x,1/2-y,-z
1/2+x,1/2-y,z
loop_
_atom_site_type_symbol
_atom_site_label
_atom_site_fract_x
_atom_site_fract_y
_atom_site_fract_z
Si Si1 0.335980 0.079456 0.043879
Si Si2 0.839507 0.327812 0.293672
Si Si3 0.324573 0.417467 0.230381
Si Si4 0.681266 0.206634 0.369721
Si Si5 0.887282 0.081329 0.597620
O O1 0.226561 0.100929 0.916930
O O2 0.296638 0.000000 0.079895
O O3 0.500000 0.077626 0.000000
O O4 0.344134 0.129087 0.165078
O O5 0.731232 0.261477 0.267104
O O6 0.764040 0.378339 0.390722
O O7 0.003342 0.301766 0.353551
O O8 0.285070 0.500000 0.247532
O O9 0.245443 0.367428 0.325376
O O10 0.503131 0.412048 0.268564
O O11 0.750000 0.250000 0.500000
O O12 0.000000 0.107746 0.500000
O O13 0.857697 0.000000 0.567554
#
# Coordination Sequence:
#
# PCOD9212756 Si02
#       5
#     8   8   8   8   8
#     4  10  21  43  75 110 146 187 242 298 359 437
#     4  12  25  44  70 101 144 192 240 299 364 426
#     4  10  22  44  73 105 145 191 238 297 361 429
#     4  12  26  44  69 104 142 191 246 298 360 433
#     4  10  22  42  70 105 144 187 238 296 360 433
#
# _framework density 22.314111
#
# number of rings (size 3 to 8) (size 9 to 14) (size 15 to 20)
#    0.000    1.200    2.000    3.600    0.000    2.400 
#    0.000    4.000    0.000    7.200    0.000    0.000 
#    0.000    0.000    0.000    0.000    0.000    0.000 
#
# Total GULP energy -111712.050938 kJ/mol
# GULP energy per Si atom -5585.602547 kJ/mol
# Density = 2.226332 g / cm^3
# Si number density = 22.314111 Si / 1000 Ang^3
#
#
#
# Elastic Constant Matrix: (Units=GPa)
#
#
# Indices 1 2 3 4 5 6 
#
# 1 155.0532 66.3903 52.7121 0.0000 2.6418 0.0000
# 2 66.3903 118.4479 70.4111 0.0000 -15.9467 0.0000
# 3 52.7121 70.4111 143.9059 0.0000 12.1307 0.0000
# 4 0.0000 0.0000 0.0000 43.6829 0.0000 -10.5918
# 5 2.6418 -15.9467 12.1307 0.0000 32.7204 0.0000
# 6 0.0000 0.0000 0.0000 -10.5918 0.0000 41.9679
#
#
#
# Elastic Compliance Matrix: (Units=1/GPa)
#
#
# Indices 1 2 3 4 5 6 
#
# 1 0.008837 -0.005048 -0.000515 0.000000 -0.002983 0.000000
# 2 -0.005048 0.017400 -0.007653 0.000000 0.011725 0.000000
# 3 -0.000515 -0.007653 0.011554 0.000000 -0.007972 0.000000
# 4 0.000000 0.000000 0.000000 0.024384 0.000000 0.006154
# 5 -0.002983 0.011725 -0.007972 0.000000 0.039472 0.000000
# 6 0.000000 0.000000 0.000000 0.006154 0.000000 0.025381
#
#
# Mechanical properties :
#
#
# Convention : Reuss Voigt Hill
#
# Bulk Modulus (GPa) = 88.04332 88.49267 88.26800
# Shear Modulus (GPa) = 31.79706 38.86715 35.33210
#
# Velocity S-wave (km/s) = 3.77898 4.17804 3.98351
# Velocity P-wave (km/s) = 7.65395 7.93842 7.79748
#
# Compressibility (1/GPa) = 0.01135804
#
# Stress axis : x y z
#
# Youngs Moduli (GPa) = 113.15997 57.47222 86.54971
#
# Poissons Ratio (x) = 0.29014 0.04461
# Poissons Ratio (y) = 0.57127 0.66233
# Poissons Ratio (z) = 0.05833 0.43981
#
# Static dielectric constant tensor:
#      x y z
#    x 1.826180 0.000000 0.018060 
#    y 0.000000 1.869970 0.000000 
#    z 0.018060 0.000000 1.900540 
# 
# From -- ./inp_files/120325.got.cif
#   From: 2010.05.17/outbox.cif.g08.bks.cpg/sg12_61_cif.got.tgz:120325.got - 2010.06.03 13:09:07.
