data_PCOD9212735
_publ_section_title
;
Structure prediction by ZEFSAII (Michael W. Deem and Ramdas Pophale) SiO2 
 PCOD9212735
Probable space group: C 2/M
;
_chemical_formula_sum "Si O2"
_cell_formula_units_Z 40
_cell_length_a 7.993162
_cell_length_b 21.791093
_cell_length_c 14.206782
_cell_angle_alpha 90.000000
_cell_angle_beta 54.108791
_cell_angle_gamma 90.000000
_cell_volume 2004.697818
_symmetry_space_group_name_H-M "C 2/M"
_symmetry_group_IT_number 12
_symmetry_cell_setting 'monoclinic'
loop_
_space_group_symop_operation_xyz
x,y,z
-x,y,-z
-x,-y,-z
x,-y,z
1/2+x,1/2+y,z
1/2-x,1/2+y,-z
1/2-x,1/2-y,-z
1/2+x,1/2-y,z
loop_
_atom_site_type_symbol
_atom_site_label
_atom_site_fract_x
_atom_site_fract_y
_atom_site_fract_z
Si Si1 0.060252 0.379010 0.240211
Si Si2 0.598369 0.634817 0.366878
Si Si3 0.194600 0.572124 0.005413
Si Si4 0.594552 0.570484 0.744060
Si Si5 0.982813 0.727651 0.406690
O O1 0.177365 0.385369 0.102615
O O2 0.191627 0.417608 0.272366
O O3 0.824135 0.395912 0.292233
O O4 0.036159 0.313855 0.300736
O O5 0.500000 0.620643 0.500000
O O6 0.455778 0.612355 0.328922
O O7 0.611014 0.709122 0.357621
O O8 0.186865 0.500000 0.037805
O O9 0.406806 0.581523 0.879336
O O10 0.000000 0.582437 0.000000
O O11 0.583230 0.500000 0.717438
O O12 0.750000 0.750000 0.500000
O O13 0.000000 0.691365 0.500000
#
# Coordination Sequence:
#
# PCOD9212735 Si02
#       5
#     8   8   8   8   8
#     4  12  23  39  72  97 128 174 226 273 325 395
#     4  11  24  42  66  97 135 180 219 272 326 393
#     4  10  21  43  70  94 128 176 222 271 335 394
#     4  11  25  43  68 100 135 175 222 273 332 396
#     4  11  21  41  67  92 127 175 223 264 323 394
#
# _framework density 19.953130999999999
#
# number of rings (size 3 to 8) (size 9 to 14) (size 15 to 20)
#    0.000    1.000    6.000    2.400    0.000    2.800 
#    0.000    2.000    4.400    0.000    0.000    0.000 
#    0.000    0.000    0.000    0.000    0.000    0.000 
#
# Total GULP energy -111526.884396 kJ/mol
# GULP energy per Si atom -5576.344220 kJ/mol
# Density = 1.990772 g / cm^3
# Si number density = 19.953131 Si / 1000 Ang^3
#
#
#
# Elastic Constant Matrix: (Units=GPa)
#
#
# Indices 1 2 3 4 5 6 
#
# 1 90.8415 23.5799 17.8639 0.0000 14.0118 0.0000
# 2 23.5799 65.7297 51.0889 0.0000 18.5405 0.0000
# 3 17.8639 51.0889 78.6589 0.0000 26.7438 0.0000
# 4 0.0000 0.0000 0.0000 4.3791 0.0000 -13.0385
# 5 14.0118 18.5405 26.7438 0.0000 41.3193 0.0000
# 6 0.0000 0.0000 0.0000 -13.0385 0.0000 17.8074
#
#
#
# Elastic Compliance Matrix: (Units=1/GPa)
#
#
# Indices 1 2 3 4 5 6 
#
# 1 0.012403 -0.004460 0.001064 0.000000 -0.002893 0.000000
# 2 -0.004460 0.032368 -0.019984 0.000000 -0.000077 0.000000
# 3 0.001064 -0.019984 0.028881 0.000000 -0.010086 0.000000
# 4 0.000000 0.000000 0.000000 -0.193509 0.000000 -0.141687
# 5 -0.002893 -0.000077 -0.010086 0.000000 0.031746 0.000000
# 6 0.000000 0.000000 0.000000 -0.141687 0.000000 -0.047587
#
#
# Mechanical properties :
#
#
# Convention : Reuss Voigt Hill
#
# Bulk Modulus (GPa) = 37.18744 46.69949 41.94347
# Shear Modulus (GPa) = -62.52068 22.21433 -20.15318
#
# Velocity S-wave (km/s) = -5.60373 3.34027 -3.18154
# Velocity P-wave (km/s) = 4.81572 6.19128 2.75143
#
# Compressibility (1/GPa) = 0.02689080
#
# Stress axis : x y z
#
# Youngs Moduli (GPa) = 80.62581 30.89431 34.62532
#
# Poissons Ratio (x) = 0.13779 -0.03683
# Poissons Ratio (y) = 0.35961 0.69196
# Poissons Ratio (z) = -0.08577 0.61740
#
# Static dielectric constant tensor:
#      x y z
#    x 1.820440 0.000000 0.028390 
#    y 0.000000 1.714060 0.000000 
#    z 0.028390 0.000000 1.742140 
# 
# From -- ./inp_files/196781.got.cif
#   From: 2010.05.17/outbox.cif.g08.bks.cpg/sg12_99_cif.got.tgz:196781.got - 2010.06.03 13:09:07.
