data_PCOD9212151
_publ_section_title
;
Structure prediction by ZEFSAII (Michael W. Deem and Ramdas Pophale) SiO2 
 PCOD9212151
Probable space group: C 2/M
;
_chemical_formula_sum "Si O2"
_cell_formula_units_Z 40
_cell_length_a 24.873783
_cell_length_b 8.307384
_cell_length_c 24.648356
_cell_angle_alpha 90.000000
_cell_angle_beta 21.713952
_cell_angle_gamma 90.000000
_cell_volume 1884.361027
_symmetry_space_group_name_H-M "C 2/M"
_symmetry_group_IT_number 12
_symmetry_cell_setting 'monoclinic'
loop_
_space_group_symop_operation_xyz
x,y,z
-x,y,-z
-x,-y,-z
x,-y,z
1/2+x,1/2+y,z
1/2-x,1/2+y,-z
1/2-x,1/2-y,-z
1/2+x,1/2-y,z
loop_
_atom_site_type_symbol
_atom_site_label
_atom_site_fract_x
_atom_site_fract_y
_atom_site_fract_z
Si Si1 0.395868 0.820004 0.725361
Si Si2 0.203424 0.000000 0.756367
Si Si3 0.626514 0.500000 0.955443
Si Si4 0.097907 0.186824 0.162985
Si Si5 0.325204 0.187886 0.374802
Si Si6 0.645573 0.314925 0.431961
O O1 0.221245 0.846574 0.887651
O O2 0.437779 0.771711 0.746715
O O3 0.475686 0.709043 0.606774
O O4 0.453722 0.000000 0.659948
O O5 0.292867 0.164145 0.660042
O O6 0.160340 0.000000 0.859717
O O7 0.045567 0.000000 0.873984
O O8 0.976779 0.219792 0.231568
O O9 0.105196 0.000000 0.168043
O O10 0.250000 0.250000 0.000000
O O11 0.250000 0.250000 0.500000
O O12 0.228859 0.204322 0.411667
O O13 0.356471 0.000000 0.352442
O O14 0.669836 0.500000 0.389927
#
# Coordination Sequence:
#
# PCOD9212151 Si02
#       6
#     8   4   4   8   8   8
#     4  10  21  41  64  92 129 169 216 267 331 387
#     4  11  23  49  73  95 129 169 223 289 340 403
#     4   9  25  45  73  95 125 173 221 277 360 389
#     4  12  25  38  58  91 133 177 219 260 320 386
#     4  11  23  37  57  90 128 171 213 256 313 381
#     4  11  24  40  66 101 132 173 225 272 328 398
#
# _framework density 21.227354999999999
#
# number of rings (size 3 to 8) (size 9 to 14) (size 15 to 20)
#    0.600    0.600    3.000    3.000    5.600    1.600 
#    0.000    6.000    0.000    0.000    0.000    0.000 
#    0.000    0.000    0.000    0.000    0.000    0.000 
#
# Total GULP energy -111616.493732 kJ/mol
# GULP energy per Si atom -5580.824687 kJ/mol
# Density = 2.117904 g / cm^3
# Si number density = 21.227355 Si / 1000 Ang^3
#
#
#
# Elastic Constant Matrix: (Units=GPa)
#
#
# Indices 1 2 3 4 5 6 
#
# 1 40.4951 12.3682 -2.6723 0.0000 -6.9125 0.0000
# 2 12.3682 96.1649 11.9214 0.0019 7.4110 -0.0003
# 3 -2.6723 11.9214 86.8833 -0.0001 -9.7783 0.0000
# 4 0.0000 0.0019 -0.0001 30.4516 -0.0001 -4.2539
# 5 -6.9125 7.4110 -9.7783 -0.0001 34.3428 0.0000
# 6 0.0000 -0.0003 0.0000 -4.2539 0.0000 15.2637
#
#
#
# Elastic Compliance Matrix: (Units=1/GPa)
#
#
# Indices 1 2 3 4 5 6 
#
# 1 0.027378 -0.004344 0.002235 0.000000 0.007085 0.000000
# 2 -0.004344 0.011532 -0.002164 -0.000001 -0.003979 0.000000
# 3 0.002235 -0.002164 0.012375 0.000000 0.004440 0.000000
# 4 0.000000 -0.000001 0.000000 0.034169 0.000000 0.009523
# 5 0.007085 -0.003979 0.004440 0.000000 0.032667 0.000000
# 6 0.000000 0.000000 0.000000 0.009523 0.000000 0.068169
#
#
# Mechanical properties :
#
#
# Convention : Reuss Voigt Hill
#
# Bulk Modulus (GPa) = 23.39712 29.64199 26.51956
# Shear Modulus (GPa) = 23.91396 29.47335 26.69366
#
# Velocity S-wave (km/s) = 3.36007 3.73025 3.54999
# Velocity P-wave (km/s) = 5.10877 5.70503 5.41511
#
# Compressibility (1/GPa) = 0.04274030
#
# Stress axis : x y z
#
# Youngs Moduli (GPa) = 36.52554 86.71179 80.80744
#
# Poissons Ratio (x) = 0.37671 -0.18065
# Poissons Ratio (y) = 0.15868 0.17485
# Poissons Ratio (z) = -0.08165 0.18763
#
# Static dielectric constant tensor:
#      x y z
#    x 1.785320 0.000000 -0.048140 
#    y 0.000000 1.796470 0.000000 
#    z -0.048140 0.000000 1.798350 
# 
# From -- ./inp_files/368820.got.cif
#   From: 2010.05.17/outbox.cif.g08.bks.cpg/sg12_185_cif.got.tgz:368820.got - 2010.06.03 13:09:07.
