data_PCOD9212004
_publ_section_title
;
Structure prediction by ZEFSAII (Michael W. Deem and Ramdas Pophale) SiO2 
 PCOD9212004
Probable space group: C 2/M
;
_chemical_formula_sum "Si O2"
_cell_formula_units_Z 40
_cell_length_a 10.659462
_cell_length_b 26.132185
_cell_length_c 7.907699
_cell_angle_alpha 90.000000
_cell_angle_beta 49.218963
_cell_angle_gamma 90.000000
_cell_volume 1667.931503
_symmetry_space_group_name_H-M "C 2/M"
_symmetry_group_IT_number 12
_symmetry_cell_setting 'monoclinic'
loop_
_space_group_symop_operation_xyz
x,y,z
-x,y,-z
-x,-y,-z
x,-y,z
1/2+x,1/2+y,z
1/2-x,1/2+y,-z
1/2-x,1/2-y,-z
1/2+x,1/2-y,z
loop_
_atom_site_type_symbol
_atom_site_label
_atom_site_fract_x
_atom_site_fract_y
_atom_site_fract_z
Si Si1 0.313034 0.441847 0.325624
Si Si2 0.621627 0.198955 0.232853
Si Si3 0.186286 0.719829 0.719507
Si Si4 0.670178 0.402072 0.035798
Si Si5 0.318875 0.104197 0.239230
O O1 0.366432 0.500000 0.309027
O O2 0.471576 0.404353 0.201086
O O3 0.185057 0.424312 0.579708
O O4 0.259914 0.436321 0.178506
O O5 0.500000 0.184162 0.500000
O O6 0.728769 0.246087 0.209237
O O7 0.505762 0.211874 0.172358
O O8 0.744055 0.152808 0.074142
O O9 0.250000 0.750000 0.500000
O O10 0.248415 0.661713 0.676136
O O11 0.712265 0.421197 0.185649
O O12 0.500000 0.107112 0.000000
#
# Coordination Sequence:
#
# PCOD9212004 Si02
#       5
#     8   8   8   8   8
#     4  11  27  50  76 108 142 190 254 317 385 456
#     4  10  21  40  70 105 150 197 247 299 365 445
#     4  10  22  42  68 104 154 197 249 301 364 444
#     4  11  24  45  77 104 148 190 245 308 381 441
#     4  12  26  47  73 107 153 194 247 309 376 447
#
# _framework density 23.981801999999998
#
# number of rings (size 3 to 8) (size 9 to 14) (size 15 to 20)
#    0.000    1.200    2.000    4.200    0.000   11.600 
#    7.200    1.000    0.000    0.000    0.000    0.000 
#    0.000    0.000    0.000    0.000    0.000    0.000 
#
# Total GULP energy -111755.741429 kJ/mol
# GULP energy per Si atom -5587.787071 kJ/mol
# Density = 2.392722 g / cm^3
# Si number density = 23.981802 Si / 1000 Ang^3
#
#
#
# Elastic Constant Matrix: (Units=GPa)
#
#
# Indices 1 2 3 4 5 6 
#
# 1 111.0454 46.3893 20.6061 0.0000 30.8130 0.0000
# 2 46.3893 92.9778 45.1577 0.0000 -9.8768 0.0000
# 3 20.6061 45.1577 121.3691 0.0000 16.2815 0.0000
# 4 0.0000 0.0000 0.0000 8.7445 0.0000 -4.3114
# 5 30.8130 -9.8768 16.2815 0.0000 45.2790 0.0000
# 6 0.0000 0.0000 0.0000 -4.3114 0.0000 -13.9574
#
#
#
# Elastic Compliance Matrix: (Units=1/GPa)
#
#
# Indices 1 2 3 4 5 6 
#
# 1 0.018182 -0.012700 0.003856 0.000000 -0.016530 0.000000
# 2 -0.012700 0.023099 -0.008693 0.000000 0.016807 0.000000
# 3 0.003856 -0.008693 0.012004 0.000000 -0.008837 0.000000
# 4 0.000000 0.000000 0.000000 0.099244 0.000000 -0.030656
# 5 -0.016530 0.016807 -0.008837 0.000000 0.040178 0.000000
# 6 0.000000 0.000000 0.000000 -0.030656 0.000000 -0.062177
#
#
# Mechanical properties :
#
#
# Convention : Reuss Voigt Hill
#
# Bulk Modulus (GPa) = 54.91117 61.07762 57.99439
# Shear Modulus (GPa) = 29.12477 22.22915 25.67696
#
# Velocity S-wave (km/s) = 3.48868 3.04783 3.27568
# Velocity P-wave (km/s) = 6.25896 6.15706 6.20822
#
# Compressibility (1/GPa) = 0.01821123
#
# Stress axis : x y z
#
# Youngs Moduli (GPa) = 54.99905 43.29162 83.30221
#
# Poissons Ratio (x) = 0.54982 -0.32121
# Poissons Ratio (y) = 0.69850 0.72414
# Poissons Ratio (z) = -0.21207 0.37633
#
# Static dielectric constant tensor:
#      x y z
#    x 0.866870 0.000000 -0.994830 
#    y 0.000000 1.848890 0.000000 
#    z -0.994830 0.000000 1.149340 
# 
# From -- ./inp_files/52334.got.cif
#   From: 2010.05.17/outbox.cif.g08.bks.cpg/sg12_27_cif.got.tgz:52334.got - 2010.06.03 13:09:07.
