data_PCOD9212984
_publ_section_title
;
Structure prediction by ZEFSAII (Michael W. Deem and Ramdas Pophale) SiO2 
 PCOD9212984
Probable space group: C 2/M
;
_chemical_formula_sum "Si O2"
_cell_formula_units_Z 64
_cell_length_a 23.748091
_cell_length_b 25.544600
_cell_length_c 4.866521
_cell_angle_alpha 90.000000
_cell_angle_beta 99.936386
_cell_angle_gamma 90.000000
_cell_volume 2907.921096
_symmetry_space_group_name_H-M "C 2/M"
_symmetry_group_IT_number 12
_symmetry_cell_setting 'monoclinic'
loop_
_space_group_symop_operation_xyz
x,y,z
-x,y,-z
-x,-y,-z
x,-y,z
1/2+x,1/2+y,z
1/2-x,1/2+y,-z
1/2-x,1/2-y,-z
1/2+x,1/2-y,z
loop_
_atom_site_type_symbol
_atom_site_label
_atom_site_fract_x
_atom_site_fract_y
_atom_site_fract_z
Si Si1 0.056339 0.942589 0.733365
Si Si2 0.617742 0.648702 0.063995
Si Si3 0.283494 0.705853 0.201730
Si Si4 0.795293 0.559481 0.545769
Si Si5 0.132986 0.715454 0.560366
Si Si6 0.832383 0.056562 0.555486
Si Si7 0.190446 0.373765 0.977172
Si Si8 0.566447 0.755980 0.027457
O O1 0.114558 0.944892 0.606178
O O2 0.000000 0.936632 0.500000
O O3 0.051481 0.000000 0.868747
O O4 0.068635 0.891363 0.920964
O O5 0.656545 0.610356 0.277403
O O6 0.584390 0.698529 0.154219
O O7 0.663800 0.675092 0.897209
O O8 0.315806 0.742405 0.450187
O O9 0.250000 0.750000 0.000000
O O10 0.235588 0.661843 0.188478
O O11 0.814517 0.500000 0.524329
O O12 0.730977 0.558070 0.619449
O O13 0.787975 0.586988 0.244079
O O14 0.833898 0.590315 0.798571
O O15 0.156258 0.667047 0.756193
O O16 0.102871 0.704769 0.247964
O O17 0.086570 0.740044 0.730460
O O18 0.834303 0.000000 0.713164
O O19 0.500000 0.764806 0.000000
#
# Coordination Sequence:
#
# PCOD9212984 Si02
#       8
#     8   8   8   8   8   8   8   8
#     4  10  23  39  55  76 107 150 211 273 315 358
#     4  11  22  35  57  78 110 155 202 249 312 361
#     4   9  20  36  56  82 115 155 202 251 298 361
#     4  11  23  37  60  93 127 161 198 243 299 366
#     4  10  23  41  61  89 119 159 207 251 302 362
#     4  10  22  36  54  79 111 154 206 255 302 360
#     4  11  21  39  63  87 125 163 198 244 304 366
#     4  11  25  40  61  88 123 156 203 263 305 358
#
# _framework density 22.008852000000001
#
# number of rings (size 3 to 8) (size 9 to 14) (size 15 to 20)
#    0.000    1.625    1.250    2.625    7.000    0.000 
#    0.000    6.875    0.000    0.000    0.000    0.000 
#    0.000   35.000    0.000    0.000    0.000    0.000 
#
# Total GULP energy -178476.435307 kJ/mol
# GULP energy per Si atom -5577.388603 kJ/mol
# Density = 2.195876 g / cm^3
# Si number density = 22.008852 Si / 1000 Ang^3
#
#
#
# Elastic Constant Matrix: (Units=GPa)
#
#
# Indices 1 2 3 4 5 6 
#
# 1 50.1423 21.8558 12.9473 0.0000 6.9460 0.0000
# 2 21.8558 125.3135 27.8541 0.0000 3.7589 0.0000
# 3 12.9473 27.8541 83.3089 0.0000 8.0501 0.0000
# 4 0.0000 0.0000 0.0000 36.5024 0.0000 5.7179
# 5 6.9460 3.7589 8.0501 0.0000 32.3011 0.0000
# 6 0.0000 0.0000 0.0000 5.7179 0.0000 61.8044
#
#
#
# Elastic Compliance Matrix: (Units=1/GPa)
#
#
# Indices 1 2 3 4 5 6 
#
# 1 0.022467 -0.003358 -0.001988 0.000000 -0.003945 0.000000
# 2 -0.003358 0.009125 -0.002558 0.000000 0.000298 0.000000
# 3 -0.001988 -0.002558 0.013421 0.000000 -0.002620 0.000000
# 4 0.000000 0.000000 0.000000 0.027798 0.000000 -0.002572
# 5 -0.003945 0.000298 -0.002620 0.000000 0.032425 0.000000
# 6 0.000000 0.000000 0.000000 -0.002572 0.000000 0.016418
#
#
# Mechanical properties :
#
#
# Convention : Reuss Voigt Hill
#
# Bulk Modulus (GPa) = 34.24031 42.67545 38.45788
# Shear Modulus (GPa) = 33.96809 39.19541 36.58175
#
# Velocity S-wave (km/s) = 3.93285 4.22464 4.08136
# Velocity P-wave (km/s) = 6.01784 6.57488 6.30252
#
# Compressibility (1/GPa) = 0.02920534
#
# Stress axis : x y z
#
# Youngs Moduli (GPa) = 44.51029 109.58523 74.51138
#
# Poissons Ratio (x) = 0.36802 0.14810
# Poissons Ratio (y) = 0.14948 0.19059
# Poissons Ratio (z) = 0.08847 0.28030
#
# Static dielectric constant tensor:
#      x y z
#    x 1.821730 0.000000 -0.020890 
#    y 0.000000 1.898930 0.000000 
#    z -0.020890 0.000000 1.868380 
# 
# From -- ./inp_files/26217.got.cif
#   From: 2010.05.17/outbox.cif.g08.bks.cpg/sg12_14_cif.got.tgz:26217.got - 2010.06.03 13:09:07.
