data_PCOD9212069
_publ_section_title
;
Structure prediction by ZEFSAII (Michael W. Deem and Ramdas Pophale) SiO2 
 PCOD9212069
Probable space group: C 2/M
;
_chemical_formula_sum "Si O2"
_cell_formula_units_Z 36
_cell_length_a 14.313241
_cell_length_b 10.100184
_cell_length_c 25.680857
_cell_angle_alpha 90.000000
_cell_angle_beta 27.499634
_cell_angle_gamma 90.000000
_cell_volume 1714.261425
_symmetry_space_group_name_H-M "C 2/M"
_symmetry_group_IT_number 12
_symmetry_cell_setting 'monoclinic'
loop_
_space_group_symop_operation_xyz
x,y,z
-x,y,-z
-x,-y,-z
x,-y,z
1/2+x,1/2+y,z
1/2-x,1/2+y,-z
1/2-x,1/2-y,-z
1/2+x,1/2-y,z
loop_
_atom_site_type_symbol
_atom_site_label
_atom_site_fract_x
_atom_site_fract_y
_atom_site_fract_z
Si Si1 0.582880 0.359418 0.074259
Si Si2 0.441980 0.658622 0.419955
Si Si3 0.000000 0.210923 0.000000
Si Si4 0.262529 0.156107 0.668423
Si Si5 0.415123 0.346881 0.765981
O O1 0.679030 0.500000 0.040297
O O2 0.391629 0.342018 0.206377
O O3 0.750000 0.250000 0.000000
O O4 0.516790 0.360549 0.046967
O O5 0.401694 0.500000 0.450171
O O6 0.250000 0.750000 0.500000
O O7 0.561646 0.740099 0.405140
O O8 0.574454 0.662800 0.301288
O O9 0.788926 0.288340 0.110033
O O10 0.122999 0.203827 0.689293
O O11 0.328097 0.000000 0.629707
O O12 0.417111 0.500000 0.779502
#
# Coordination Sequence:
#
# PCOD9212069 Si02
#       5
#     8   8   4   8   8
#     4  11  23  37  58  90 129 167 204 248 304 364
#     4  11  24  44  66  92 119 159 206 257 311 366
#     4  12  20  38  60  96 129 162 205 248 309 356
#     4  10  21  41  62  89 123 163 205 253 304 361
#     4  10  22  38  63  93 125 164 206 247 301 369
#
# _framework density 21.000297
#
# number of rings (size 3 to 8) (size 9 to 14) (size 15 to 20)
#    0.000    1.333    4.444    1.333    0.000    2.667 
#    0.000    6.667    0.000    0.000    0.000    0.000 
#    0.000    0.000    0.000    0.000    0.000    0.000 
#
# Total GULP energy -100413.159266 kJ/mol
# GULP energy per Si atom -5578.508848 kJ/mol
# Density = 2.095250 g / cm^3
# Si number density = 21.000297 Si / 1000 Ang^3
#
#
#
# Elastic Constant Matrix: (Units=GPa)
#
#
# Indices 1 2 3 4 5 6 
#
# 1 112.3579 43.1090 8.7093 -0.0001 -19.8667 0.0000
# 2 43.1090 134.4440 40.3716 0.0008 -41.4910 0.0007
# 3 8.7093 40.3716 74.3529 -0.0009 -10.2584 0.0006
# 4 -0.0001 0.0008 -0.0009 -15.9691 0.0003 -41.0059
# 5 -19.8667 -41.4910 -10.2584 0.0003 45.6445 0.0007
# 6 0.0000 0.0007 0.0006 -41.0059 0.0007 5.6423
#
#
#
# Elastic Compliance Matrix: (Units=1/GPa)
#
#
# Indices 1 2 3 4 5 6 
#
# 1 0.010310 -0.002872 0.000630 0.000000 0.002018 0.000000
# 2 -0.002872 0.012798 -0.005346 0.000000 0.009182 0.000000
# 3 0.000630 -0.005346 0.016146 0.000000 -0.000956 -0.000001
# 4 0.000000 0.000000 0.000000 -0.003185 0.000001 -0.023146
# 5 0.002018 0.009182 -0.000956 0.000001 0.030918 0.000000
# 6 0.000000 0.000000 -0.000001 -0.023146 0.000000 0.009014
#
#
# Mechanical properties :
#
#
# Convention : Reuss Voigt Hill
#
# Bulk Modulus (GPa) = 41.53010 56.17052 48.85031
# Shear Modulus (GPa) = 50.40167 22.32787 36.36477
#
# Velocity S-wave (km/s) = 4.90434 3.26424 4.16580
# Velocity P-wave (km/s) = 7.20340 6.40410 6.81548
#
# Compressibility (1/GPa) = 0.02407892
#
# Stress axis : x y z
#
# Youngs Moduli (GPa) = 96.99156 78.13808 61.93418
#
# Poissons Ratio (x) = 0.22444 -0.03904
# Poissons Ratio (y) = 0.27860 0.33108
# Poissons Ratio (z) = -0.06114 0.41770
#
# Static dielectric constant tensor:
#      x y z
#    x 1.856340 0.000000 -0.022840 
#    y 0.000000 1.756580 0.000000 
#    z -0.022840 0.000000 1.755030 
# 
# From -- ./inp_files/212141.got.cif
#   From: 2010.05.17/outbox.cif.g08.bks.cpg/sg12_107_cif.got.tgz:212141.got - 2010.06.03 13:09:07.
