data_PCOD9212714
_publ_section_title
;
Structure prediction by ZEFSAII (Michael W. Deem and Ramdas Pophale) SiO2 
 PCOD9212714
Probable space group: C 2/M
;
_chemical_formula_sum "Si O2"
_cell_formula_units_Z 32
_cell_length_a 19.210246
_cell_length_b 12.602743
_cell_length_c 12.998560
_cell_angle_alpha 90.000000
_cell_angle_beta 31.967576
_cell_angle_gamma 90.000000
_cell_volume 1666.131963
_symmetry_space_group_name_H-M "C 2/M"
_symmetry_group_IT_number 12
_symmetry_cell_setting 'monoclinic'
loop_
_space_group_symop_operation_xyz
x,y,z
-x,y,-z
-x,-y,-z
x,-y,z
1/2+x,1/2+y,z
1/2-x,1/2+y,-z
1/2-x,1/2-y,-z
1/2+x,1/2-y,z
loop_
_atom_site_type_symbol
_atom_site_label
_atom_site_fract_x
_atom_site_fract_y
_atom_site_fract_z
Si Si1 0.952918 0.000000 0.359681
Si Si2 0.902578 0.773090 0.328929
Si Si3 0.000000 0.678184 0.000000
Si Si4 0.261211 0.000000 0.001860
Si Si5 0.797565 0.500000 0.195805
Si Si6 0.982021 0.621837 0.640014
O O1 0.922520 0.105570 0.334266
O O2 0.853129 0.000000 0.580890
O O3 0.105976 0.000000 0.195434
O O4 0.750000 0.750000 0.500000
O O5 0.953380 0.699015 0.358632
O O6 0.980803 0.744630 0.127225
O O7 0.125998 0.601596 0.855372
O O8 0.311087 0.000000 0.056283
O O9 0.328995 0.100579 0.860252
O O10 0.037566 0.500000 0.578108
O O11 0.000000 0.657686 0.500000
#
# Coordination Sequence:
#
# PCOD9212714 Si02
#       6
#     4   8   4   4   4   8
#     4  12  28  41  65 109 134 178 234 284 333 405
#     4  12  26  44  70 100 140 176 230 287 338 407
#     4  11  22  45  74  94 132 193 213 278 350 412
#     4  10  21  43  68  97 140 176 224 279 335 414
#     4  11  21  43  71 100 133 176 234 267 350 405
#     4   9  21  44  72  98 135 188 222 273 349 412
#
# _framework density 19.206161999999999
#
# number of rings (size 3 to 8) (size 9 to 14) (size 15 to 20)
#    0.750    0.500    5.000    0.375    3.500    5.500 
#    0.000    0.000    0.000    0.000    0.000    0.000 
#    0.000    0.000    0.000    0.000    0.000    0.000 
#
# Total GULP energy -89325.266714 kJ/mol
# GULP energy per Si atom -5582.829170 kJ/mol
# Density = 1.916245 g / cm^3
# Si number density = 19.206162 Si / 1000 Ang^3
#
#
#
# Elastic Constant Matrix: (Units=GPa)
#
#
# Indices 1 2 3 4 5 6 
#
# 1 105.9371 47.8974 58.4213 0.0000 13.3741 0.0000
# 2 47.8974 98.0937 24.2250 0.0000 14.4300 0.0000
# 3 58.4213 24.2250 130.7385 0.0000 12.8147 0.0000
# 4 0.0000 0.0000 0.0000 0.1481 0.0000 1.7148
# 5 13.3741 14.4300 12.8147 0.0000 56.1792 0.0000
# 6 0.0000 0.0000 0.0000 1.7148 0.0000 28.1424
#
#
#
# Elastic Compliance Matrix: (Units=1/GPa)
#
#
# Indices 1 2 3 4 5 6 
#
# 1 0.015386 -0.005987 -0.005685 0.000000 -0.000828 0.000000
# 2 -0.005987 0.013324 0.000411 0.000000 -0.002091 0.000000
# 3 -0.005685 0.000411 0.010219 0.000000 -0.001083 0.000000
# 4 0.000000 0.000000 0.000000 22.940257 0.000000 -1.397788
# 5 -0.000828 -0.002091 -0.001083 0.000000 0.018782 0.000000
# 6 0.000000 0.000000 0.000000 -1.397788 0.000000 0.120703
#
#
# Mechanical properties :
#
#
# Convention : Reuss Voigt Hill
#
# Bulk Modulus (GPa) = 60.94538 66.20632 63.57585
# Shear Modulus (GPa) = 0.21601 30.50897 15.36249
#
# Velocity S-wave (km/s) = 0.33573 3.98992 2.83127
# Velocity P-wave (km/s) = 5.65255 7.46808 6.62282
#
# Compressibility (1/GPa) = 0.01640814
#
# Stress axis : x y z
#
# Youngs Moduli (GPa) = 64.99402 75.05467 97.85607
#
# Poissons Ratio (x) = 0.44935 0.55629
# Poissons Ratio (y) = 0.38912 -0.04027
# Poissons Ratio (z) = 0.36948 -0.03088
#
# Static dielectric constant tensor:
#      x y z
#    x 1.630490 0.000000 -0.000230 
#    y 0.000000 1.662980 0.000000 
#    z -0.000230 0.000000 1.686280 
# 
# From -- ./inp_files/153201.got.cif
#   From: 2010.05.17/outbox.cif.g08.bks.cpg/sg12_77_cif.got.tgz:153201.got - 2010.06.03 13:09:07.
