data_PCOD9212602
_publ_section_title
;
Structure prediction by ZEFSAII (Michael W. Deem and Ramdas Pophale) SiO2 
 PCOD9212602
Probable space group: C 2/M
;
_chemical_formula_sum "Si O2"
_cell_formula_units_Z 42
_cell_length_a 27.562630
_cell_length_b 10.138560
_cell_length_c 7.381076
_cell_angle_alpha 90.000000
_cell_angle_beta 109.263266
_cell_angle_gamma 90.000000
_cell_volume 1947.127662
_symmetry_space_group_name_H-M "C 2/M"
_symmetry_group_IT_number 12
_symmetry_cell_setting 'monoclinic'
loop_
_space_group_symop_operation_xyz
x,y,z
-x,y,-z
-x,-y,-z
x,-y,z
1/2+x,1/2+y,z
1/2-x,1/2+y,-z
1/2-x,1/2-y,-z
1/2+x,1/2-y,z
loop_
_atom_site_type_symbol
_atom_site_label
_atom_site_fract_x
_atom_site_fract_y
_atom_site_fract_z
Si Si1 0.417610 0.221166 0.412153
Si Si2 0.000000 0.500000 0.500000
Si Si3 0.633366 0.351441 0.977665
Si Si4 0.782192 0.653281 0.793283
Si Si5 0.453097 0.652838 0.826763
Si Si6 0.695609 0.853946 0.609519
O O1 0.402764 0.325156 0.239405
O O2 0.441996 0.281506 0.622843
O O3 0.363293 0.158865 0.406397
O O4 0.457571 0.113896 0.393247
O O5 0.655045 0.500000 0.996439
O O6 0.675716 0.237302 0.046325
O O7 0.597453 0.342102 0.110724
O O8 0.777871 0.500000 0.842604
O O9 0.729302 0.735378 0.732467
O O10 0.799194 0.655209 0.602283
O O11 0.465945 0.500000 0.808300
O O12 0.500000 0.712895 0.000000
O O13 0.715311 0.000000 0.685389
#
# Coordination Sequence:
#
# PCOD9212602 Si02
#       6
#     8   2   8   8   8   8
#     4  12  24  44  67 100 138 181 227 289 346 411
#     4  12  28  44  68 104 140 186 234 284 352 412
#     4  11  24  42  68 103 140 181 234 285 342 419
#     4  10  22  40  69 106 137 180 233 284 348 421
#     4  10  22  43  68  95 131 182 233 287 345 405
#     4  10  21  42  68  97 140 182 226 285 347 413
#
# _framework density 21.570233000000002
#
# number of rings (size 3 to 8) (size 9 to 14) (size 15 to 20)
#    0.000    1.333    2.857    2.286    1.333    3.048 
#    0.000    5.238    0.000    0.000    0.000    0.000 
#    0.000    0.000    0.000    0.000    0.000    0.000 
#
# Total GULP energy -117164.969886 kJ/mol
# GULP energy per Si atom -5579.284280 kJ/mol
# Density = 2.152114 g / cm^3
# Si number density = 21.570233 Si / 1000 Ang^3
#
#
#
# Elastic Constant Matrix: (Units=GPa)
#
#
# Indices 1 2 3 4 5 6 
#
# 1 61.4824 40.5631 5.4160 0.0000 22.2429 0.0000
# 2 40.5631 171.0135 63.4501 0.0000 24.0258 0.0000
# 3 5.4160 63.4501 129.2754 0.0000 14.2822 0.0000
# 4 0.0000 0.0000 0.0000 13.5582 0.0000 38.3210
# 5 22.2429 24.0258 14.2822 0.0000 40.5847 0.0000
# 6 0.0000 0.0000 0.0000 38.3210 0.0000 -3.3909
#
#
#
# Elastic Compliance Matrix: (Units=1/GPa)
#
#
# Indices 1 2 3 4 5 6 
#
# 1 0.023187 -0.004983 0.002655 0.000000 -0.010692 0.000000
# 2 -0.004983 0.008621 -0.003912 0.000000 -0.000996 0.000000
# 3 0.002655 -0.003912 0.009832 0.000000 -0.002599 0.000000
# 4 0.000000 0.000000 0.000000 0.002239 0.000000 0.025303
# 5 -0.010692 -0.000996 -0.002599 0.000000 0.032004 0.000000
# 6 0.000000 0.000000 0.000000 0.025303 0.000000 -0.008952
#
#
# Mechanical properties :
#
#
# Convention : Reuss Voigt Hill
#
# Bulk Modulus (GPa) = 34.29406 64.51441 49.40424
# Shear Modulus (GPa) = 56.09844 26.97319 41.53582
#
# Velocity S-wave (km/s) = 5.10527 3.54005 4.39294
# Velocity P-wave (km/s) = 7.11934 6.83251 6.97740
#
# Compressibility (1/GPa) = 0.02915957
#
# Stress axis : x y z
#
# Youngs Moduli (GPa) = 43.12850 115.99733 101.71269
#
# Poissons Ratio (x) = 0.57798 -0.27010
# Poissons Ratio (y) = 0.21490 0.39795
# Poissons Ratio (z) = -0.11453 0.45384
#
# Static dielectric constant tensor:
#      x y z
#    x 1.781920 0.000000 -0.010850 
#    y 0.000000 1.749040 0.000000 
#    z -0.010850 0.000000 1.783670 
# 
# From -- ./inp_files/108318.got.cif
#   From: 2010.05.17/outbox.cif.g08.bks.cpg/sg12_55_cif.got.tgz:108318.got - 2010.06.03 13:09:07.
