data_PCOD9212111
_publ_section_title
;
Structure prediction by ZEFSAII (Michael W. Deem and Ramdas Pophale) SiO2 
 PCOD9212111
Probable space group: C 2/M
;
_chemical_formula_sum "Si O2"
_cell_formula_units_Z 58
_cell_length_a 10.949313
_cell_length_b 18.513493
_cell_length_c 21.515225
_cell_angle_alpha 90.000000
_cell_angle_beta 143.216453
_cell_angle_gamma 90.000000
_cell_volume 2611.549762
_symmetry_space_group_name_H-M "C 2/M"
_symmetry_group_IT_number 12
_symmetry_cell_setting 'monoclinic'
loop_
_space_group_symop_operation_xyz
x,y,z
-x,y,-z
-x,-y,-z
x,-y,z
1/2+x,1/2+y,z
1/2-x,1/2+y,-z
1/2-x,1/2-y,-z
1/2+x,1/2-y,z
loop_
_atom_site_type_symbol
_atom_site_label
_atom_site_fract_x
_atom_site_fract_y
_atom_site_fract_z
Si Si1 0.807950 0.374420 0.839823
Si Si2 0.028660 0.637348 0.317551
Si Si3 0.142356 0.085534 0.642592
Si Si4 0.015647 0.767806 0.890870
Si Si5 0.575397 0.294250 0.285958
Si Si6 0.731409 0.831702 0.516921
Si Si7 0.399960 0.577853 0.891091
Si Si8 0.500000 0.000000 0.000000
O O1 0.789503 0.397315 0.760600
O O2 0.584428 0.359921 0.776852
O O3 0.906809 0.295396 0.884650
O O4 0.924409 0.436642 0.921530
O O5 0.239798 0.614608 0.370037
O O6 0.054080 0.632360 0.402624
O O7 0.995060 0.721801 0.288012
O O8 0.843586 0.591316 0.213461
O O9 0.936263 0.126817 0.578163
O O10 0.106307 0.000000 0.621926
O O11 0.917118 0.767188 0.781584
O O12 0.989873 0.850593 0.898504
O O13 0.250000 0.750000 0.000000
O O14 0.760782 0.322410 0.405034
O O15 0.750000 0.750000 0.500000
O O16 0.447841 0.500000 0.880727
O O17 0.500000 0.575720 0.000000
#
# Coordination Sequence:
#
# PCOD9212111 Si02
#       8
#     8   8   8   8   8   8   8   2
#     4  11  23  41  61  93 135 173 220 287 340 407
#     4  11  20  41  70  96 134 177 224 280 345 408
#     4  11  22  39  64 100 136 172 224 282 348 405
#     4  12  24  42  70  94 128 184 230 276 342 416
#     4  10  21  41  63  95 130 173 224 274 334 408
#     4   9  22  39  65  98 134 175 218 276 334 400
#     4  11  26  46  65  97 137 176 228 289 340 408
#     4  12  24  40  60  96 132 174 222 280 348 404
#
# _framework density 22.209036000000001
#
# number of rings (size 3 to 8) (size 9 to 14) (size 15 to 20)
#    0.000    1.241    3.448    2.483    0.966    1.655 
#    4.966    0.690    0.000    0.828    0.000    0.000 
#    0.000    0.000    0.000    0.000    0.000    0.000 
#
# Total GULP energy -161537.111071 kJ/mol
# GULP energy per Si atom -5570.245209 kJ/mol
# Density = 2.215849 g / cm^3
# Si number density = 22.209036 Si / 1000 Ang^3
#
#
#
# Elastic Constant Matrix: (Units=GPa)
#
#
# Indices 1 2 3 4 5 6 
#
# 1 30.3493 39.1261 28.0722 -0.0001 -3.5533 0.0001
# 2 39.1261 156.7475 51.4514 0.0000 -7.8839 0.0000
# 3 28.0722 51.4514 151.3896 0.0002 -21.9571 0.0001
# 4 -0.0001 0.0000 0.0002 31.5396 0.0000 -11.0501
# 5 -3.5533 -7.8839 -21.9571 0.0000 34.1423 0.0001
# 6 0.0001 0.0000 0.0001 -11.0501 0.0001 21.4963
#
#
#
# Elastic Compliance Matrix: (Units=1/GPa)
#
#
# Indices 1 2 3 4 5 6 
#
# 1 0.053060 -0.011276 -0.006158 0.000000 -0.001042 0.000000
# 2 -0.011276 0.009577 -0.001118 0.000000 0.000319 0.000000
# 3 -0.006158 -0.001118 0.008819 0.000000 0.004773 0.000000
# 4 0.000000 0.000000 0.000000 0.038671 0.000000 0.019878
# 5 -0.001042 0.000319 0.004773 0.000000 0.032324 0.000000
# 6 0.000000 0.000000 0.000000 0.019878 0.000000 0.056738
#
#
# Mechanical properties :
#
#
# Convention : Reuss Voigt Hill
#
# Bulk Modulus (GPa) = 29.10857 63.97619 46.54238
# Shear Modulus (GPa) = 20.18221 32.09143 26.13682
#
# Velocity S-wave (km/s) = 3.01780 3.80540 3.43425
# Velocity P-wave (km/s) = 5.02771 6.94097 6.06032
#
# Compressibility (1/GPa) = 0.03435414
#
# Stress axis : x y z
#
# Youngs Moduli (GPa) = 18.84663 104.41507 113.38560
#
# Poissons Ratio (x) = 1.17733 0.69821
# Poissons Ratio (y) = 0.21251 0.12674
# Poissons Ratio (z) = 0.11606 0.11671
#
# Static dielectric constant tensor:
#      x y z
#    x 1.867800 0.000000 -0.028320 
#    y 0.000000 1.748790 0.000000 
#    z -0.028320 0.000000 2.090980 
# 
# From -- ./inp_files/306381.got.cif
#   From: 2010.05.17/outbox.cif.g08.bks.cpg/sg12_154_cif.got.tgz:306381.got - 2010.06.03 13:09:07.
