data_PCOD9212504
_publ_section_title
;
Structure prediction by ZEFSAII (Michael W. Deem and Ramdas Pophale) SiO2 
 PCOD9212504
Probable space group: C 2/M
;
_chemical_formula_sum "Si O2"
_cell_formula_units_Z 56
_cell_length_a 32.155440
_cell_length_b 11.816598
_cell_length_c 8.338453
_cell_angle_alpha 90.000000
_cell_angle_beta 116.948987
_cell_angle_gamma 90.000000
_cell_volume 2824.295209
_symmetry_space_group_name_H-M "C 2/M"
_symmetry_group_IT_number 12
_symmetry_cell_setting 'monoclinic'
loop_
_space_group_symop_operation_xyz
x,y,z
-x,y,-z
-x,-y,-z
x,-y,z
1/2+x,1/2+y,z
1/2-x,1/2+y,-z
1/2-x,1/2-y,-z
1/2+x,1/2-y,z
loop_
_atom_site_type_symbol
_atom_site_label
_atom_site_fract_x
_atom_site_fract_y
_atom_site_fract_z
Si Si1 0.421043 0.000000 0.442083
Si Si2 0.749402 0.128721 0.098930
Si Si3 0.452796 0.778670 0.979786
Si Si4 0.379456 0.820590 0.586645
Si Si5 0.202324 0.286193 0.327756
Si Si6 0.129261 0.864416 0.015779
Si Si7 0.357520 0.374009 0.329317
Si Si8 0.475499 0.000000 0.222082
O O1 0.390709 0.103542 0.453440
O O2 0.434061 0.000000 0.280267
O O3 0.472631 0.000000 0.612657
O O4 0.715691 0.142573 0.192877
O O5 0.802037 0.123970 0.255479
O O6 0.741470 0.000000 0.010067
O O7 0.750000 0.250000 0.000000
O O8 0.421836 0.830200 0.782971
O O9 0.418319 0.692987 0.008315
O O10 0.500000 0.721676 0.000000
O O11 0.468955 0.885235 0.112559
O O12 0.332073 0.843898 0.602206
O O13 0.377841 0.696338 0.509879
O O14 0.250000 0.250000 0.500000
O O15 0.171291 0.183802 0.199113
O O16 0.128707 0.000000 0.023896
O O17 0.135784 0.830492 0.840674
O O18 0.376841 0.500000 0.366055
#
# Coordination Sequence:
#
# PCOD9212504 Si02
#       8
#     4   8   8   8   8   8   8   4
#     4  11  23  40  67  98 129 168 217 272 330 406
#     4  11  23  43  66  94 129 180 229 280 338 406
#     4  11  22  41  66  93 129 166 212 270 330 400
#     4  11  23  39  62  98 128 164 219 267 332 389
#     4  11  23  40  63  95 133 175 222 274 331 397
#     4  10  23  42  66  91 128 172 216 267 330 395
#     4  10  21  42  64  87 127 171 217 269 330 394
#     4  11  22  43  70  91 130 177 210 267 346 402
#
# _framework density 19.827956
#
# number of rings (size 3 to 8) (size 9 to 14) (size 15 to 20)
#    0.000    1.286    4.286    1.500    1.000    3.143 
#    2.571    0.000    0.000    1.714    0.000    0.000 
#    0.000    0.000    0.000    0.000    0.000    0.000 
#
# Total GULP energy -156099.889504 kJ/mol
# GULP energy per Si atom -5574.996054 kJ/mol
# Density = 1.978283 g / cm^3
# Si number density = 19.827956 Si / 1000 Ang^3
#
#
#
# Elastic Constant Matrix: (Units=GPa)
#
#
# Indices 1 2 3 4 5 6 
#
# 1 154.9002 29.7804 25.6243 0.0000 -9.3308 0.0000
# 2 29.7804 80.4681 20.7143 0.0000 -8.4984 0.0000
# 3 25.6243 20.7143 47.3498 0.0000 -3.6511 0.0000
# 4 0.0000 0.0000 0.0000 19.4698 0.0000 -1.9910
# 5 -9.3308 -8.4984 -3.6511 0.0000 33.7172 0.0000
# 6 0.0000 0.0000 0.0000 -1.9910 0.0000 16.0965
#
#
#
# Elastic Compliance Matrix: (Units=1/GPa)
#
#
# Indices 1 2 3 4 5 6 
#
# 1 0.007393 -0.001801 -0.003116 0.000000 0.001254 0.000000
# 2 -0.001801 0.014728 -0.005265 0.000000 0.002644 0.000000
# 3 -0.003116 -0.005265 0.025150 0.000000 0.000534 0.000000
# 4 0.000000 0.000000 0.000000 0.052020 0.000000 0.006434
# 5 0.001254 0.002644 0.000534 0.000000 0.030730 0.000000
# 6 0.000000 0.000000 0.000000 0.006434 0.000000 0.062921
#
#
# Mechanical properties :
#
#
# Convention : Reuss Voigt Hill
#
# Bulk Modulus (GPa) = 37.16458 48.32847 42.74652
# Shear Modulus (GPa) = 22.49461 27.62999 25.06230
#
# Velocity S-wave (km/s) = 3.37187 3.73699 3.55912
# Velocity P-wave (km/s) = 5.82611 6.56102 6.20446
#
# Compressibility (1/GPa) = 0.02690734
#
# Stress axis : x y z
#
# Youngs Moduli (GPa) = 135.26005 67.89604 39.76135
#
# Poissons Ratio (x) = 0.12231 0.12390
# Poissons Ratio (y) = 0.24367 0.20932
# Poissons Ratio (z) = 0.42149 0.35744
#
# Static dielectric constant tensor:
#      x y z
#    x 1.702770 0.000000 -0.029330 
#    y 0.000000 1.747420 0.000000 
#    z -0.029330 0.000000 1.695920 
# 
# From -- ./inp_files/110598.got.cif
#   From: 2010.05.17/outbox.cif.g08.bks.cpg/sg12_56_cif.got.tgz:110598.got - 2010.06.03 13:09:07.
