data_PCOD9212115
_publ_section_title
;
Structure prediction by ZEFSAII (Michael W. Deem and Ramdas Pophale) SiO2 
 PCOD9212115
Probable space group: C 2/M
;
_chemical_formula_sum "Si O2"
_cell_formula_units_Z 42
_cell_length_a 17.238009
_cell_length_b 16.373343
_cell_length_c 19.668505
_cell_angle_alpha 90.000000
_cell_angle_beta 22.125360
_cell_angle_gamma 90.000000
_cell_volume 2090.815484
_symmetry_space_group_name_H-M "C 2/M"
_symmetry_group_IT_number 12
_symmetry_cell_setting 'monoclinic'
loop_
_space_group_symop_operation_xyz
x,y,z
-x,y,-z
-x,-y,-z
x,-y,z
1/2+x,1/2+y,z
1/2-x,1/2+y,-z
1/2-x,1/2-y,-z
1/2+x,1/2-y,z
loop_
_atom_site_type_symbol
_atom_site_label
_atom_site_fract_x
_atom_site_fract_y
_atom_site_fract_z
Si Si1 0.276280 0.687360 0.217641
Si Si2 0.000000 0.500000 0.000000
Si Si3 0.866276 0.870275 0.672098
Si Si4 0.457897 0.402226 0.193725
Si Si5 0.845838 0.901227 0.437588
Si Si6 0.106887 0.402141 0.228819
O O1 0.211838 0.779845 0.281609
O O2 0.304663 0.640388 0.265328
O O3 0.129724 0.642348 0.282482
O O4 0.500000 0.685501 0.000000
O O5 0.176629 0.429079 0.842546
O O6 0.000000 0.901200 0.500000
O O7 0.014323 0.864783 0.617344
O O8 0.429094 0.500000 0.212579
O O9 0.422333 0.377871 0.300299
O O10 0.691167 0.384220 0.980025
O O11 0.604798 0.879553 0.636551
O O12 0.863200 0.000000 0.429453
O O13 0.102506 0.500000 0.244291
#
# Coordination Sequence:
#
# PCOD9212115 Si02
#       6
#     8   2   8   8   8   8
#     4  10  21  41  63  98 134 170 219 257 318 380
#     4  12  26  52  72  86 118 166 222 278 310 388
#     4  12  27  46  69  94 122 169 219 273 325 379
#     4   9  19  38  65  96 132 176 208 255 315 382
#     4  10  22  40  62  94 126 165 221 260 321 382
#     4   9  19  37  63  96 135 173 206 259 313 382
#
# _framework density 20.087855999999999
#
# number of rings (size 3 to 8) (size 9 to 14) (size 15 to 20)
#    0.000    1.905    1.905    0.857    2.667    4.571 
#    3.429    4.762    0.000    0.000    0.000    0.000 
#    0.000    0.000    0.000    0.000    0.000    0.000 
#
# Total GULP energy -117097.696926 kJ/mol
# GULP energy per Si atom -5576.080806 kJ/mol
# Density = 2.004214 g / cm^3
# Si number density = 20.087856 Si / 1000 Ang^3
#
#
#
# Elastic Constant Matrix: (Units=GPa)
#
#
# Indices 1 2 3 4 5 6 
#
# 1 90.7519 16.2335 -9.9777 0.6499 -25.0287 -2.3755
# 2 16.2335 36.9942 0.9245 0.0312 -18.7511 -0.7038
# 3 -9.9777 0.9245 -19.0255 1.0998 -59.1961 -4.2066
# 4 0.6499 0.0312 1.0998 13.1958 0.5227 0.1096
# 5 -25.0287 -18.7511 -59.1961 0.5227 3.2839 -1.7210
# 6 -2.3755 -0.7038 -4.2066 0.1096 -1.7210 -22.3896
#
#
#
# Elastic Compliance Matrix: (Units=1/GPa)
#
#
# Indices 1 2 3 4 5 6 
#
# 1 0.011366 -0.005408 -0.003138 -0.000244 -0.000970 -0.000373
# 2 -0.005408 0.031519 -0.007503 0.000662 0.003777 0.000705
# 3 -0.003138 -0.007503 0.002701 0.000626 -0.017437 0.001405
# 4 -0.000244 0.000662 0.000626 0.075689 0.001245 0.000162
# 5 -0.000970 0.003777 -0.017437 0.001245 0.005649 0.002832
# 6 -0.000373 0.000705 0.001405 0.000162 0.002832 -0.045127
#
#
# Mechanical properties :
#
#
# Convention : Reuss Voigt Hill
#
# Bulk Modulus (GPa) = 74.13300 13.67570 43.90435
# Shear Modulus (GPa) = 42.23349 5.58737 23.91043
#
# Velocity S-wave (km/s) = 4.59021 1.66958 3.45380
# Velocity P-wave (km/s) = 8.06709 3.24644 6.14887
#
# Compressibility (1/GPa) = 0.01348927
#
# Stress axis : x y z
#
# Youngs Moduli (GPa) = 87.98259 31.72684 370.27731
#
# Poissons Ratio (x) = 0.17156 1.16186
# Poissons Ratio (y) = 0.47577 2.77814
# Poissons Ratio (z) = 0.27607 0.23804
#
# Static dielectric constant tensor:
#      x y z
#    x 1.677130 -0.000010 0.002810 
#    y -0.000010 1.673130 0.000060 
#    z 0.002810 0.000060 1.719250 
# 
# From -- ./inp_files/317264.got.cif
#   From: 2010.05.17/outbox.cif.g08.bks.cpg/sg12_159_cif.got.tgz:317264.got - 2010.06.03 13:09:07.
