data_PCOD9212048
_publ_section_title
;
Structure prediction by ZEFSAII (Michael W. Deem and Ramdas Pophale) SiO2 
 PCOD9212048
Probable space group: C 2/M
;
_chemical_formula_sum "Si O2"
_cell_formula_units_Z 64
_cell_length_a 13.759118
_cell_length_b 17.705767
_cell_length_c 22.550622
_cell_angle_alpha 90.000000
_cell_angle_beta 143.629511
_cell_angle_gamma 90.000000
_cell_volume 3257.779311
_symmetry_space_group_name_H-M "C 2/M"
_symmetry_group_IT_number 12
_symmetry_cell_setting 'monoclinic'
loop_
_space_group_symop_operation_xyz
x,y,z
-x,y,-z
-x,-y,-z
x,-y,z
1/2+x,1/2+y,z
1/2-x,1/2+y,-z
1/2-x,1/2-y,-z
1/2+x,1/2-y,z
loop_
_atom_site_type_symbol
_atom_site_label
_atom_site_fract_x
_atom_site_fract_y
_atom_site_fract_z
Si Si1 0.069445 0.088708 0.858426
Si Si2 0.042841 0.588733 0.951356
Si Si3 0.116341 0.910541 0.108536
Si Si4 0.201142 0.334041 0.495775
Si Si5 0.989133 0.089806 0.563861
Si Si6 0.419730 0.186912 0.276253
Si Si7 0.139284 0.209525 0.309122
Si Si8 0.727316 0.189235 0.242381
O O1 0.970897 0.102299 0.871154
O O2 0.992428 0.145942 0.773472
O O3 0.048931 0.000000 0.831874
O O4 0.263208 0.101568 0.961855
O O5 0.008291 0.500000 0.919818
O O6 0.933897 0.645787 0.858866
O O7 0.000000 0.598797 0.000000
O O8 0.295528 0.875532 0.193152
O O9 0.129944 0.000000 0.107149
O O10 0.000000 0.878910 0.000000
O O11 0.250000 0.250000 0.500000
O O12 0.325258 0.386436 0.519203
O O13 0.237080 0.330630 0.583652
O O14 0.015950 0.342681 0.381914
O O15 0.000000 0.114882 0.500000
O O16 0.140832 0.128502 0.671144
O O17 0.002853 0.000000 0.571425
O O18 0.558058 0.217245 0.300304
O O19 0.310815 0.261429 0.232483
O O20 0.207574 0.247435 0.283459
#
# Coordination Sequence:
#
# PCOD9212048 Si02
#       8
#     8   8   8   8   8   8   8   8
#     4  10  22  43  64  90 124 165 213 258 313 376
#     4  10  23  41  62  91 130 169 208 261 324 385
#     4  10  23  44  66  88 124 170 212 262 316 369
#     4  10  21  41  61  89 128 165 207 249 313 375
#     4  11  23  40  64  95 128 165 210 262 322 388
#     4  11  23  41  63  94 124 166 214 255 315 379
#     4  11  23  39  64  96 122 168 209 259 318 377
#     4  12  23  39  64  93 129 167 206 267 315 383
#
# _framework density 19.645284
#
# number of rings (size 3 to 8) (size 9 to 14) (size 15 to 20)
#    0.000    1.375    3.750    2.625    1.750    3.000 
#    0.000    0.625    0.000    1.500    0.000    0.000 
#    0.000    0.000    0.000    0.000    0.000    0.000 
#
# Total GULP energy -178536.531055 kJ/mol
# GULP energy per Si atom -5579.266595 kJ/mol
# Density = 1.960057 g / cm^3
# Si number density = 19.645284 Si / 1000 Ang^3
#
#
#
# Elastic Constant Matrix: (Units=GPa)
#
#
# Indices 1 2 3 4 5 6 
#
# 1 31.3507 19.3379 9.4022 0.0003 -0.5841 0.0000
# 2 19.3379 51.5100 42.3486 0.0001 -4.5900 0.0000
# 3 9.4022 42.3486 133.4347 -0.0001 -0.6567 0.0001
# 4 0.0003 0.0001 -0.0001 -6.7633 0.0000 12.3756
# 5 -0.5841 -4.5900 -0.6567 0.0000 24.0213 0.0000
# 6 0.0000 0.0000 0.0001 12.3756 0.0000 32.2513
#
#
#
# Elastic Compliance Matrix: (Units=1/GPa)
#
#
# Indices 1 2 3 4 5 6 
#
# 1 0.042398 -0.018492 0.002869 0.000001 -0.002424 0.000000
# 2 -0.018492 0.034896 -0.009743 0.000000 0.005952 0.000000
# 3 0.002869 -0.009743 0.010377 0.000000 -0.001508 0.000000
# 4 0.000001 0.000000 0.000000 -0.086865 0.000000 0.033332
# 5 -0.002424 0.005952 -0.001508 0.000000 0.042667 0.000000
# 6 0.000000 0.000000 0.000000 0.033332 0.000000 0.018216
#
#
# Mechanical properties :
#
#
# Convention : Reuss Voigt Hill
#
# Bulk Modulus (GPa) = 27.07089 39.83030 33.45060
# Shear Modulus (GPa) = 40.08543 19.58231 29.83387
#
# Velocity S-wave (km/s) = 4.52205 3.16063 3.90118
# Velocity P-wave (km/s) = 6.40897 5.79984 6.11200
#
# Compressibility (1/GPa) = 0.03694005
#
# Stress axis : x y z
#
# Youngs Moduli (GPa) = 23.58612 28.65621 96.36870
#
# Poissons Ratio (x) = 0.52991 -0.27653
# Poissons Ratio (y) = 0.43616 0.93891
# Poissons Ratio (z) = -0.06768 0.27919
#
# Static dielectric constant tensor:
#      x y z
#    x 1.748600 0.000000 -0.044420 
#    y 0.000000 1.631750 0.000000 
#    z -0.044420 0.000000 1.666320 
# 
# From -- ./inp_files/340886.got.cif
#   From: 2010.05.17/outbox.cif.g08.bks.cpg/sg12_171_cif.got.tgz:340886.got - 2010.06.03 13:09:07.
