data_PCOD9212775
_publ_section_title
;
Structure prediction by ZEFSAII (Michael W. Deem and Ramdas Pophale) SiO2 
 PCOD9212775
Probable space group: C 2/M
;
_chemical_formula_sum "Si O2"
_cell_formula_units_Z 48
_cell_length_a 24.366670
_cell_length_b 20.181173
_cell_length_c 7.930513
_cell_angle_alpha 90.000000
_cell_angle_beta 145.215517
_cell_angle_gamma 90.000000
_cell_volume 2224.809285
_symmetry_space_group_name_H-M "C 2/M"
_symmetry_group_IT_number 12
_symmetry_cell_setting 'monoclinic'
loop_
_space_group_symop_operation_xyz
x,y,z
-x,y,-z
-x,-y,-z
x,-y,z
1/2+x,1/2+y,z
1/2-x,1/2+y,-z
1/2-x,1/2-y,-z
1/2+x,1/2-y,z
loop_
_atom_site_type_symbol
_atom_site_label
_atom_site_fract_x
_atom_site_fract_y
_atom_site_fract_z
Si Si1 0.543972 0.344809 0.300479
Si Si2 0.726555 0.613834 0.955438
Si Si3 0.633755 0.424114 0.062061
Si Si4 0.791047 0.655964 0.654500
Si Si5 0.689831 0.763982 0.631360
Si Si6 0.094856 0.576278 0.816039
O O1 0.636868 0.385803 0.599516
O O2 0.590011 0.271211 0.434264
O O3 0.500000 0.351609 0.000000
O O4 0.455410 0.373470 0.184527
O O5 0.692497 0.576693 0.036743
O O6 0.758147 0.687421 0.103648
O O7 0.817910 0.582982 0.095056
O O8 0.605343 0.500000 0.032257
O O9 0.702191 0.390594 0.374861
O O10 0.757590 0.706775 0.717615
O O11 0.826359 0.692713 0.577166
O O12 0.874299 0.612135 0.938327
O O13 0.076429 0.500000 0.806485
O O14 0.000000 0.607791 0.500000
#
# Coordination Sequence:
#
# PCOD9212775 Si02
#       6
#     8   8   8   8   8   8
#     4  12  23  40  63 101 136 174 217 271 326 405
#     4  11  24  44  67  95 135 181 215 277 329 388
#     4  11  24  43  69 100 136 179 219 267 340 405
#     4  10  21  44  66  93 129 177 216 282 322 385
#     4  10  22  42  63  93 134 165 229 259 325 395
#     4  11  24  43  66  97 126 169 232 275 328 387
#
# _framework density 21.574884000000001
#
# number of rings (size 3 to 8) (size 9 to 14) (size 15 to 20)
#    0.000    1.167    3.333    2.000    0.000    3.667 
#    0.000    2.500    0.000    9.000    0.000    0.000 
#    0.000    0.000    0.000    0.000    0.000    0.000 
#
# Total GULP energy -133915.888709 kJ/mol
# GULP energy per Si atom -5579.828696 kJ/mol
# Density = 2.152578 g / cm^3
# Si number density = 21.574884 Si / 1000 Ang^3
#
#
#
# Elastic Constant Matrix: (Units=GPa)
#
#
# Indices 1 2 3 4 5 6 
#
# 1 20.3195 0.7487 6.3839 0.0000 -5.9342 0.0000
# 2 0.7487 97.9436 30.4241 0.0000 -0.8541 0.0000
# 3 6.3839 30.4241 160.0282 0.0000 -0.9674 0.0000
# 4 0.0000 0.0000 0.0000 10.3482 0.0000 1.7689
# 5 -5.9342 -0.8541 -0.9674 0.0000 32.3597 0.0000
# 6 0.0000 0.0000 0.0000 1.7689 0.0000 24.3743
#
#
#
# Elastic Compliance Matrix: (Units=1/GPa)
#
#
# Indices 1 2 3 4 5 6 
#
# 1 0.052668 0.000336 -0.002107 0.000000 0.009604 0.000000
# 2 0.000336 0.010855 -0.002075 0.000000 0.000286 0.000000
# 3 -0.002107 -0.002075 0.006726 0.000000 -0.000240 0.000000
# 4 0.000000 0.000000 0.000000 0.097849 0.000000 -0.007101
# 5 0.009604 0.000286 -0.000240 0.000000 0.032664 0.000000
# 6 0.000000 0.000000 0.000000 -0.007101 0.000000 0.041542
#
#
# Mechanical properties :
#
#
# Convention : Reuss Voigt Hill
#
# Bulk Modulus (GPa) = 15.98569 39.26716 27.62643
# Shear Modulus (GPa) = 18.46044 29.46541 23.96293
#
# Velocity S-wave (km/s) = 2.92831 3.69958 3.33631
# Velocity P-wave (km/s) = 4.34268 6.04062 5.26061
#
# Compressibility (1/GPa) = 0.06255594
#
# Stress axis : x y z
#
# Youngs Moduli (GPa) = 18.98673 92.12742 148.67592
#
# Poissons Ratio (x) = -0.03092 0.31323
# Poissons Ratio (y) = -0.00637 0.30855
# Poissons Ratio (z) = 0.04000 0.19119
#
# Static dielectric constant tensor:
#      x y z
#    x 1.796200 0.000000 -0.006530 
#    y 0.000000 1.839680 0.000000 
#    z -0.006530 0.000000 1.782910 
# 
# From -- ./inp_files/106598.got.cif
#   From: 2010.05.17/outbox.cif.g08.bks.cpg/sg12_54_cif.got.tgz:106598.got - 2010.06.03 13:09:07.
