data_PCOD9212812
_publ_section_title
;
Structure prediction by ZEFSAII (Michael W. Deem and Ramdas Pophale) SiO2 
 PCOD9212812
Probable space group: C 2/M
;
_chemical_formula_sum "Si O2"
_cell_formula_units_Z 48
_cell_length_a 12.497639
_cell_length_b 13.394033
_cell_length_c 27.135086
_cell_angle_alpha 90.000000
_cell_angle_beta 25.669356
_cell_angle_gamma 90.000000
_cell_volume 1967.596421
_symmetry_space_group_name_H-M "C 2/M"
_symmetry_group_IT_number 12
_symmetry_cell_setting 'monoclinic'
loop_
_space_group_symop_operation_xyz
x,y,z
-x,y,-z
-x,-y,-z
x,-y,z
1/2+x,1/2+y,z
1/2-x,1/2+y,-z
1/2-x,1/2-y,-z
1/2+x,1/2-y,z
loop_
_atom_site_type_symbol
_atom_site_label
_atom_site_fract_x
_atom_site_fract_y
_atom_site_fract_z
Si Si1 0.490888 0.714810 0.372890
Si Si2 0.380879 0.881123 0.949282
Si Si3 0.284223 0.618124 0.627036
Si Si4 0.894693 0.118291 0.205502
Si Si5 0.718714 0.881333 0.122673
Si Si6 0.906276 0.881179 0.766847
O O1 0.615556 0.638596 0.359669
O O2 0.662568 0.811429 0.294949
O O3 0.440660 0.664700 0.341427
O O4 0.250000 0.750000 0.500000
O O5 0.392339 0.870747 0.886026
O O6 0.624637 0.844184 0.875813
O O7 0.370634 0.000000 0.964234
O O8 0.117910 0.845369 0.078147
O O9 0.500000 0.656683 0.500000
O O10 0.265618 0.500000 0.625118
O O11 0.995858 0.655120 0.750485
O O12 0.991350 0.132190 0.221125
O O13 0.843793 0.000000 0.218400
O O14 0.746852 0.000000 0.122064
O O15 0.000000 0.842103 0.000000
O O16 0.900368 0.000000 0.761223
#
# Coordination Sequence:
#
# PCOD9212812 Si02
#       6
#     8   8   8   8   8   8
#     4  12  27  42  66  95 134 172 233 286 329 397
#     4   9  17  37  67  97 130 169 221 273 335 411
#     4  10  22  42  66  92 132 182 224 269 339 409
#     4  10  24  44  68 100 137 178 220 274 341 409
#     4   9  17  33  60  96 135 174 216 274 339 404
#     4  10  21  44  74  98 131 177 222 273 343 411
#
# _framework density 24.395247999999999
#
# number of rings (size 3 to 8) (size 9 to 14) (size 15 to 20)
#    0.000    2.000    1.667    1.000    2.333    5.333 
#    0.000    5.000    0.000    0.000    0.000    0.000 
#    0.000    0.000    0.000    0.000    0.000    0.000 
#
# Total GULP energy -134281.789057 kJ/mol
# GULP energy per Si atom -5595.074544 kJ/mol
# Density = 2.433972 g / cm^3
# Si number density = 24.395248 Si / 1000 Ang^3
#
#
#
# Elastic Constant Matrix: (Units=GPa)
#
#
# Indices 1 2 3 4 5 6 
#
# 1 72.8526 5.5969 43.9604 0.0002 11.0640 -0.0007
# 2 5.5969 73.5280 37.0335 -0.0021 2.0276 0.0003
# 3 43.9604 37.0335 243.1311 -0.0138 11.8777 0.0055
# 4 0.0002 -0.0021 -0.0138 36.1749 0.0049 2.9761
# 5 11.0640 2.0276 11.8777 0.0049 36.8986 -0.0021
# 6 -0.0007 0.0003 0.0055 2.9761 -0.0021 33.0382
#
#
#
# Elastic Compliance Matrix: (Units=1/GPa)
#
#
# Indices 1 2 3 4 5 6 
#
# 1 0.015950 0.000271 -0.002734 -0.000001 -0.003917 0.000001
# 2 0.000271 0.014735 -0.002286 0.000000 -0.000155 0.000000
# 3 -0.002734 -0.002286 0.004988 0.000002 -0.000660 -0.000001
# 4 -0.000001 0.000000 0.000002 0.027850 -0.000004 -0.002509
# 5 -0.003917 -0.000155 -0.000660 -0.000004 0.028497 0.000002
# 6 0.000001 0.000000 -0.000001 -0.002509 0.000002 0.030494
#
#
# Mechanical properties :
#
#
# Convention : Reuss Voigt Hill
#
# Bulk Modulus (GPa) = 38.20377 62.52148 50.36263
# Shear Modulus (GPa) = 35.52733 41.41706 38.47219
#
# Velocity S-wave (km/s) = 3.82032 4.12485 3.97550
# Velocity P-wave (km/s) = 5.92909 6.95486 6.46236
#
# Compressibility (1/GPa) = 0.02617543
#
# Stress axis : x y z
#
# Youngs Moduli (GPa) = 62.69554 67.86458 200.49182
#
# Poissons Ratio (x) = -0.01838 0.54810
# Poissons Ratio (y) = -0.01698 0.45829
# Poissons Ratio (z) = 0.17140 0.15513
#
# Static dielectric constant tensor:
#      x y z
#    x 1.940390 0.000010 -0.032890 
#    y 0.000010 1.987850 0.000000 
#    z -0.032890 0.000000 1.943180 
# 
# From -- ./inp_files/376581.got.cif
#   From: 2010.05.17/outbox.cif.g08.bks.cpg/sg12_189_cif.got.tgz:376581.got - 2010.06.03 13:09:07.
