data_PCOD9212609
_publ_section_title
;
Structure prediction by ZEFSAII (Michael W. Deem and Ramdas Pophale) SiO2 
 PCOD9212609
Probable space group: C 2/M
;
_chemical_formula_sum "Si O2"
_cell_formula_units_Z 36
_cell_length_a 16.755998
_cell_length_b 14.246283
_cell_length_c 9.015092
_cell_angle_alpha 90.000000
_cell_angle_beta 43.017345
_cell_angle_gamma 90.000000
_cell_volume 1468.136058
_symmetry_space_group_name_H-M "C 2/M"
_symmetry_group_IT_number 12
_symmetry_cell_setting 'monoclinic'
loop_
_space_group_symop_operation_xyz
x,y,z
-x,y,-z
-x,-y,-z
x,-y,z
1/2+x,1/2+y,z
1/2-x,1/2+y,-z
1/2-x,1/2-y,-z
1/2+x,1/2-y,z
loop_
_atom_site_type_symbol
_atom_site_label
_atom_site_fract_x
_atom_site_fract_y
_atom_site_fract_z
Si Si1 0.381211 0.357528 0.236578
Si Si2 0.357038 0.896143 0.606548
Si Si3 0.174934 0.603707 0.996116
Si Si4 0.390893 0.685368 0.553536
Si Si5 0.500000 0.826498 0.000000
O O1 0.268161 0.392236 0.304844
O O2 0.377236 0.369600 0.417865
O O3 0.500000 0.395033 0.000000
O O4 0.398063 0.245040 0.190920
O O5 0.413471 0.795860 0.490150
O O6 0.408205 0.000000 0.501286
O O7 0.345034 0.891587 0.801234
O O8 0.222235 0.500000 0.898770
O O9 0.274164 0.675795 0.809309
O O10 0.059697 0.617654 0.051949
O O11 0.500000 0.649789 0.500000
#
# Coordination Sequence:
#
# PCOD9212609 Si02
#       5
#     8   8   8   8   4
#     4  10  22  41  65  95 126 172 215 259 326 376
#     4  11  24  42  64  95 132 170 214 265 321 383
#     4  11  24  42  67  98 130 170 214 264 324 380
#     4  12  23  42  70  94 131 171 216 266 316 386
#     4  10  21  42  69  90 128 168 215 264 321 378
#
# _framework density 24.520886999999998
#
# number of rings (size 3 to 8) (size 9 to 14) (size 15 to 20)
#    0.667    0.444    2.222    4.333    0.000    2.222 
#    0.000    1.111    0.000    0.000    0.000    0.000 
#    0.000    0.000    0.000    0.000    0.000    0.000 
#
# Total GULP energy -100666.505131 kJ/mol
# GULP energy per Si atom -5592.583618 kJ/mol
# Density = 2.446508 g / cm^3
# Si number density = 24.520887 Si / 1000 Ang^3
#
#
#
# Elastic Constant Matrix: (Units=GPa)
#
#
# Indices 1 2 3 4 5 6 
#
# 1 236.6805 25.9076 44.1157 0.0000 20.4800 0.0000
# 2 25.9076 100.6516 18.2391 0.0000 12.8599 0.0000
# 3 44.1157 18.2391 76.1756 0.0000 26.6914 0.0000
# 4 0.0000 0.0000 0.0000 6.8981 0.0000 -8.0075
# 5 20.4800 12.8599 26.6914 0.0000 42.7435 0.0000
# 6 0.0000 0.0000 0.0000 -8.0075 0.0000 14.1174
#
#
#
# Elastic Compliance Matrix: (Units=1/GPa)
#
#
# Indices 1 2 3 4 5 6 
#
# 1 0.004803 -0.000726 -0.002404 0.000000 -0.000582 0.000000
# 2 -0.000726 0.010633 -0.001442 0.000000 -0.001951 0.000000
# 3 -0.002404 -0.001442 0.018317 0.000000 -0.009853 0.000000
# 4 0.000000 0.000000 0.000000 0.424407 0.000000 0.240727
# 5 -0.000582 -0.001951 -0.009853 0.000000 0.030414 0.000000
# 6 0.000000 0.000000 0.000000 0.240727 0.000000 0.207377
#
#
# Mechanical properties :
#
#
# Convention : Reuss Voigt Hill
#
# Bulk Modulus (GPa) = 40.63518 65.55917 53.09717
# Shear Modulus (GPa) = 7.00970 34.43483 20.72226
#
# Velocity S-wave (km/s) = 1.69259 3.75147 2.91019
# Velocity P-wave (km/s) = 4.51967 6.74973 5.74397
#
# Compressibility (1/GPa) = 0.02460922
#
# Stress axis : x y z
#
# Youngs Moduli (GPa) = 208.20294 94.04943 54.59331
#
# Poissons Ratio (x) = 0.06831 0.13123
# Poissons Ratio (y) = 0.15123 0.07871
# Poissons Ratio (z) = 0.50049 0.13559
#
# Static dielectric constant tensor:
#      x y z
#    x 1.884680 0.000000 -0.002610 
#    y 0.000000 1.931890 0.000000 
#    z -0.002610 0.000000 1.915410 
# 
# From -- ./inp_files/72782.got.cif
#   From: 2010.05.17/outbox.cif.g08.bks.cpg/sg12_37_cif.got.tgz:72782.got - 2010.06.03 13:09:07.
