data_PCOD9212133
_publ_section_title
;
Structure prediction by ZEFSAII (Michael W. Deem and Ramdas Pophale) SiO2 
 PCOD9212133
Probable space group: C 2/M
;
_chemical_formula_sum "Si O2"
_cell_formula_units_Z 34
_cell_length_a 16.455572
_cell_length_b 19.457930
_cell_length_c 9.210852
_cell_angle_alpha 90.000000
_cell_angle_beta 29.541304
_cell_angle_gamma 90.000000
_cell_volume 1454.123013
_symmetry_space_group_name_H-M "C 2/M"
_symmetry_group_IT_number 12
_symmetry_cell_setting 'monoclinic'
loop_
_space_group_symop_operation_xyz
x,y,z
-x,y,-z
-x,-y,-z
x,-y,z
1/2+x,1/2+y,z
1/2-x,1/2+y,-z
1/2-x,1/2-y,-z
1/2+x,1/2-y,z
loop_
_atom_site_type_symbol
_atom_site_label
_atom_site_fract_x
_atom_site_fract_y
_atom_site_fract_z
Si Si1 0.484329 0.076256 0.747283
Si Si2 0.987151 0.807053 0.193507
Si Si3 0.000000 0.500000 0.000000
Si Si4 0.355737 0.578736 0.606114
Si Si5 0.641503 0.206157 0.387088
O O1 0.304753 0.107830 0.062099
O O2 0.457958 0.000000 0.722835
O O3 0.554924 0.059284 0.796080
O O4 0.597295 0.126760 0.483915
O O5 0.173604 0.791172 0.954772
O O6 0.878159 0.746305 0.430974
O O7 0.000000 0.811637 0.000000
O O8 0.917898 0.875970 0.376649
O O9 0.500000 0.574196 0.500000
O O10 0.302652 0.500000 0.643928
O O11 0.500000 0.234154 0.500000
#
# Coordination Sequence:
#
# PCOD9212133 Si02
#       5
#     8   8   2   8   8
#     4   9  21  37  66  85 121 159 196 237 302 359
#     4  12  27  39  64  91 122 158 204 255 299 351
#     4   8  20  36  60  90 124 156 190 244 304 360
#     4  10  21  41  64  89 122 159 196 242 303 364
#     4  12  25  43  63  87 124 162 204 249 298 361
#
# _framework density 23.381789000000001
#
# number of rings (size 3 to 8) (size 9 to 14) (size 15 to 20)
#    0.706    0.706    0.000    4.941    4.941    1.882 
#    0.000    0.000    0.000    0.000    0.000    0.000 
#    0.000    0.000    0.000    0.000    0.000    0.000 
#
# Total GULP energy -94769.571385 kJ/mol
# GULP energy per Si atom -5574.680670 kJ/mol
# Density = 2.332857 g / cm^3
# Si number density = 23.381789 Si / 1000 Ang^3
#
#
#
# Elastic Constant Matrix: (Units=GPa)
#
#
# Indices 1 2 3 4 5 6 
#
# 1 65.8208 0.9081 4.4588 -0.0019 12.8805 0.0022
# 2 0.9081 89.4807 38.5898 -0.0015 11.4290 0.0004
# 3 4.4588 38.5898 114.0517 -0.0072 -7.5866 0.0021
# 4 -0.0019 -0.0015 -0.0072 50.0281 0.0011 11.8427
# 5 12.8805 11.4290 -7.5866 0.0011 44.1255 0.0000
# 6 0.0022 0.0004 0.0021 11.8427 0.0000 25.7446
#
#
#
# Elastic Compliance Matrix: (Units=1/GPa)
#
#
# Indices 1 2 3 4 5 6 
#
# 1 0.016302 0.001094 -0.001359 0.000001 -0.005276 -0.000002
# 2 0.001094 0.013975 -0.005092 0.000000 -0.004815 0.000000
# 3 -0.001359 -0.005092 0.010781 0.000002 0.003569 -0.000001
# 4 0.000001 0.000000 0.000002 0.022431 -0.000001 -0.010319
# 5 -0.005276 -0.004815 0.003569 -0.000001 0.026063 0.000000
# 6 -0.000002 0.000000 -0.000001 -0.010319 0.000000 0.043590
#
#
# Mechanical properties :
#
#
# Convention : Reuss Voigt Hill
#
# Bulk Modulus (GPa) = 32.95232 39.69630 36.32431
# Shear Modulus (GPa) = 32.47375 39.00606 35.73990
#
# Velocity S-wave (km/s) = 3.73077 4.08882 3.91389
# Velocity P-wave (km/s) = 5.71681 6.26942 5.99948
#
# Compressibility (1/GPa) = 0.03034688
#
# Stress axis : x y z
#
# Youngs Moduli (GPa) = 61.34180 71.55492 92.75367
#
# Poissons Ratio (x) = -0.07830 0.12601
# Poissons Ratio (y) = -0.06712 0.47227
# Poissons Ratio (z) = 0.08333 0.36433
#
# Static dielectric constant tensor:
#      x y z
#    x 1.771900 0.000000 0.001450 
#    y 0.000000 1.891380 0.000000 
#    z 0.001450 0.000000 1.773550 
# 
# From -- ./inp_files/77882.got.cif
#   From: 2010.05.17/outbox.cif.g08.bks.cpg/sg12_39_cif.got.tgz:77882.got - 2010.06.03 13:09:07.
