data_PCOD9212335
_publ_section_title
;
Structure prediction by ZEFSAII (Michael W. Deem and Ramdas Pophale) SiO2 
 PCOD9212335
Probable space group: C 2/M
;
_chemical_formula_sum "Si O2"
_cell_formula_units_Z 50
_cell_length_a 29.955719
_cell_length_b 7.957226
_cell_length_c 12.090418
_cell_angle_alpha 90.000000
_cell_angle_beta 53.126705
_cell_angle_gamma 90.000000
_cell_volume 2305.437904
_symmetry_space_group_name_H-M "C 2/M"
_symmetry_group_IT_number 12
_symmetry_cell_setting 'monoclinic'
loop_
_space_group_symop_operation_xyz
x,y,z
-x,y,-z
-x,-y,-z
x,-y,z
1/2+x,1/2+y,z
1/2-x,1/2+y,-z
1/2-x,1/2-y,-z
1/2+x,1/2-y,z
loop_
_atom_site_type_symbol
_atom_site_label
_atom_site_fract_x
_atom_site_fract_y
_atom_site_fract_z
Si Si1 0.841489 0.308823 0.092370
Si Si2 0.384998 0.300069 0.431441
Si Si3 0.079691 0.795985 0.378208
Si Si4 0.187358 0.187510 0.097344
Si Si5 0.759116 0.694470 0.612513
Si Si6 0.000000 0.500000 0.500000
Si Si7 0.937104 0.796417 0.121593
O O1 0.848230 0.500000 0.045410
O O2 0.783386 0.292003 0.245468
O O3 0.891863 0.259957 0.098485
O O4 0.837484 0.197861 0.988817
O O5 0.375347 0.500000 0.433812
O O6 0.421131 0.275527 0.487733
O O7 0.324332 0.219955 0.538260
O O8 0.415284 0.239692 0.274828
O O9 0.141225 0.739979 0.247196
O O10 0.039347 0.653993 0.390082
O O11 0.070583 0.000000 0.367085
O O12 0.192692 0.000000 0.130653
O O13 0.250000 0.250000 0.000000
O O14 0.743853 0.500000 0.646687
O O15 0.750000 0.750000 0.500000
O O16 0.937776 0.000000 0.121674
O O17 0.000000 0.739512 0.000000
#
# Coordination Sequence:
#
# PCOD9212335 Si02
#       7
#     8   8   8   8   8   2   8
#     4  12  25  41  64  98 137 176 222 271 336 410
#     4  10  21  41  67  96 135 171 220 279 339 401
#     4  10  25  46  70 104 139 185 235 296 352 411
#     4  11  24  44  72 101 140 178 228 292 356 423
#     4  12  23  37  63  95 133 173 216 269 333 405
#     4  12  26  44  76  98 142 188 250 282 334 424
#     4  10  22  41  65  94 131 176 221 270 333 399
#
# _framework density 21.687854000000002
#
# number of rings (size 3 to 8) (size 9 to 14) (size 15 to 20)
#    0.000    1.120    1.600    4.560    3.360    2.880 
#    0.000    3.200    0.000    0.000    0.000    0.000 
#    0.000    0.000    0.000    0.000    0.000    0.000 
#
# Total GULP energy -139377.970842 kJ/mol
# GULP energy per Si atom -5575.118834 kJ/mol
# Density = 2.163849 g / cm^3
# Si number density = 21.687854 Si / 1000 Ang^3
#
#
#
# Elastic Constant Matrix: (Units=GPa)
#
#
# Indices 1 2 3 4 5 6 
#
# 1 75.1734 18.5036 49.6963 0.0000 -18.8283 0.0000
# 2 18.5036 65.1298 1.8545 0.0000 -14.9532 0.0000
# 3 49.6963 1.8545 95.1745 0.0000 -20.0609 0.0000
# 4 0.0000 0.0000 0.0000 22.1141 0.0000 -9.8761
# 5 -18.8283 -14.9532 -20.0609 0.0000 43.8935 0.0000
# 6 0.0000 0.0000 0.0000 -9.8761 0.0000 25.0461
#
#
#
# Elastic Compliance Matrix: (Units=1/GPa)
#
#
# Indices 1 2 3 4 5 6 
#
# 1 0.022747 -0.005509 -0.011187 0.000000 0.002768 0.000000
# 2 -0.005509 0.018071 0.003678 0.000000 0.005474 0.000000
# 3 -0.011187 0.003678 0.017185 0.000000 0.004308 0.000000
# 4 0.000000 0.000000 0.000000 0.054886 0.000000 0.021642
# 5 0.002768 0.005474 0.004308 0.000000 0.027804 0.000000
# 6 0.000000 0.000000 0.000000 0.021642 0.000000 0.048460
#
#
# Mechanical properties :
#
#
# Convention : Reuss Voigt Hill
#
# Bulk Modulus (GPa) = 31.28075 41.73183 36.50629
# Shear Modulus (GPa) = 22.13916 29.23894 25.68905
#
# Velocity S-wave (km/s) = 3.19848 3.67573 3.44538
# Velocity P-wave (km/s) = 5.30045 6.10724 5.71810
#
# Compressibility (1/GPa) = 0.03196855
#
# Stress axis : x y z
#
# Youngs Moduli (GPa) = 43.96115 55.33708 58.19083
#
# Poissons Ratio (x) = 0.30482 0.65098
# Poissons Ratio (y) = 0.24216 -0.21403
# Poissons Ratio (z) = 0.49179 -0.20353
#
# Static dielectric constant tensor:
#      x y z
#    x 1.766690 0.000000 0.027130 
#    y 0.000000 1.812930 0.000000 
#    z 0.027130 0.000000 1.732790 
# 
# From -- ./inp_files/180588.got.cif
#   From: 2010.05.17/outbox.cif.g08.bks.cpg/sg12_91_cif.got.tgz:180588.got - 2010.06.03 13:09:07.
