data_PCOD9212845
_publ_section_title
;
Structure prediction by ZEFSAII (Michael W. Deem and Ramdas Pophale) SiO2 
 PCOD9212845
Probable space group: C 2/M
;
_chemical_formula_sum "Si O2"
_cell_formula_units_Z 48
_cell_length_a 7.837283
_cell_length_b 27.539977
_cell_length_c 23.267295
_cell_angle_alpha 90.000000
_cell_angle_beta 32.637330
_cell_angle_gamma 90.000000
_cell_volume 2708.452141
_symmetry_space_group_name_H-M "C 2/M"
_symmetry_group_IT_number 12
_symmetry_cell_setting 'monoclinic'
loop_
_space_group_symop_operation_xyz
x,y,z
-x,y,-z
-x,-y,-z
x,-y,z
1/2+x,1/2+y,z
1/2-x,1/2+y,-z
1/2-x,1/2-y,-z
1/2+x,1/2-y,z
loop_
_atom_site_type_symbol
_atom_site_label
_atom_site_fract_x
_atom_site_fract_y
_atom_site_fract_z
Si Si1 0.783834 0.125816 0.307043
Si Si2 0.358652 0.304870 0.875851
Si Si3 0.703240 0.805883 0.499997
Si Si4 0.820503 0.557676 0.371798
Si Si5 0.319072 0.374189 0.692953
Si Si6 0.737898 0.804876 0.124149
O O1 0.502851 0.165161 0.395368
O O2 0.616888 0.082106 0.320626
O O3 0.049992 0.154145 0.195569
O O4 0.932589 0.112267 0.326961
O O5 0.396923 0.249996 0.841237
O O6 0.589378 0.310262 0.864250
O O7 0.000000 0.309034 0.000000
O O8 0.500000 0.807908 0.500000
O O9 0.750000 0.750000 0.500000
O O10 0.020322 0.834840 0.395361
O O11 0.500000 0.566783 0.500000
O O12 0.860124 0.500000 0.355954
O O13 0.779936 0.582101 0.320637
O O14 0.027829 0.345864 0.804433
O O15 0.000000 0.809041 0.000000
#
# Coordination Sequence:
#
# PCOD9212845 Si02
#       6
#     8   8   8   8   8   8
#     4  11  22  39  58  87 121 154 197 245 298 350
#     4  11  21  35  56  88 125 165 204 239 287 356
#     4  10  22  32  52  83 119 158 188 226 285 348
#     4  11  24  42  66  89 114 154 202 250 303 357
#     4  11  22  39  58  87 121 154 197 245 298 350
#     4  11  21  35  56  88 125 165 204 239 287 356
#
# _framework density 17.722301000000002
#
# number of rings (size 3 to 8) (size 9 to 14) (size 15 to 20)
#    0.000    1.167    3.333    5.000    2.333    3.333 
#    0.000    1.667    0.000    1.000    0.000    0.000 
#    0.000    0.000    0.000    0.000    0.000    0.000 
#
# Total GULP energy -134044.698686 kJ/mol
# GULP energy per Si atom -5585.195779 kJ/mol
# Density = 1.768196 g / cm^3
# Si number density = 17.722301 Si / 1000 Ang^3
#
#
#
# Elastic Constant Matrix: (Units=GPa)
#
#
# Indices 1 2 3 4 5 6 
#
# 1 119.1691 53.7918 18.6548 -0.0004 4.1102 0.0001
# 2 53.7918 127.7406 45.5266 0.0012 0.5503 -0.0001
# 3 18.6548 45.5266 65.8086 -0.0044 -0.6005 0.0005
# 4 -0.0004 0.0012 -0.0044 -4.3425 0.0022 2.1428
# 5 4.1102 0.5503 -0.6005 0.0022 19.1620 -0.0002
# 6 0.0001 -0.0001 0.0005 2.1428 -0.0002 28.6200
#
#
#
# Elastic Compliance Matrix: (Units=1/GPa)
#
#
# Indices 1 2 3 4 5 6 
#
# 1 0.010446 -0.004416 0.000075 -0.000003 -0.002112 0.000000
# 2 -0.004416 0.012263 -0.007228 0.000011 0.000369 -0.000001
# 3 0.000075 -0.007228 0.020182 -0.000021 0.000824 0.000001
# 4 -0.000003 0.000011 -0.000021 -0.222078 0.000025 0.016627
# 5 -0.002112 0.000369 0.000824 0.000025 0.052655 -0.000001
# 6 0.000000 -0.000001 0.000001 0.016627 -0.000001 0.033696
#
#
# Mechanical properties :
#
#
# Convention : Reuss Voigt Hill
#
# Bulk Modulus (GPa) = 50.62838 60.96276 55.79557
# Shear Modulus (GPa) = -79.22293 21.67090 -28.77602
#
# Velocity S-wave (km/s) = -6.69324 3.50066 -4.03391
# Velocity P-wave (km/s) = 5.57700 7.12833 3.13927
#
# Compressibility (1/GPa) = 0.01975177
#
# Stress axis : x y z
#
# Youngs Moduli (GPa) = 95.72957 81.54868 49.54854
#
# Poissons Ratio (x) = 0.36016 -0.00371
# Poissons Ratio (y) = 0.42279 0.35814
# Poissons Ratio (z) = -0.00717 0.58944
#
# Static dielectric constant tensor:
#      x y z
#    x 1.637030 0.000000 0.000270 
#    y 0.000000 1.588420 0.000000 
#    z 0.000270 0.000000 1.632980 
# 
# From -- ./inp_files/334040.got.cif
#   From: 2010.05.17/outbox.cif.g08.bks.cpg/sg12_168_cif.got.tgz:334040.got - 2010.06.03 13:09:07.
