data_PCOD9212299
_publ_section_title
;
Structure prediction by ZEFSAII (Michael W. Deem and Ramdas Pophale) SiO2 
 PCOD9212299
Probable space group: C 2/M
;
_chemical_formula_sum "Si O2"
_cell_formula_units_Z 64
_cell_length_a 20.091288
_cell_length_b 8.823312
_cell_length_c 24.119073
_cell_angle_alpha 90.000000
_cell_angle_beta 128.120713
_cell_angle_gamma 90.000000
_cell_volume 3363.688344
_symmetry_space_group_name_H-M "C 2/M"
_symmetry_group_IT_number 12
_symmetry_cell_setting 'monoclinic'
loop_
_space_group_symop_operation_xyz
x,y,z
-x,y,-z
-x,-y,-z
x,-y,z
1/2+x,1/2+y,z
1/2-x,1/2+y,-z
1/2-x,1/2-y,-z
1/2+x,1/2-y,z
loop_
_atom_site_type_symbol
_atom_site_label
_atom_site_fract_x
_atom_site_fract_y
_atom_site_fract_z
Si Si1 0.214481 0.316976 0.309970
Si Si2 0.715206 0.181603 0.538996
Si Si3 0.104384 0.676392 0.798901
Si Si4 0.969273 0.181364 0.813341
Si Si5 0.723581 0.676816 0.044039
Si Si6 0.133146 0.821726 0.694432
Si Si7 0.545554 0.180573 0.965633
Si Si8 0.982870 0.328554 0.556279
O O1 0.210909 0.500000 0.310126
O O2 0.243291 0.254439 0.384817
O O3 0.123104 0.251384 0.246357
O O4 0.286038 0.272752 0.301147
O O5 0.750000 0.250000 0.500000
O O6 0.614781 0.211289 0.486642
O O7 0.727875 0.000000 0.547515
O O8 0.079002 0.500000 0.784857
O O9 0.195026 0.688432 0.875324
O O10 0.119639 0.737687 0.745350
O O11 0.034722 0.765427 0.799153
O O12 0.004644 0.240378 0.890722
O O13 0.964236 0.000000 0.811376
O O14 0.702050 0.500000 0.025871
O O15 0.750000 0.750000 0.000000
O O16 0.641628 0.765539 0.021894
O O17 0.048544 0.785911 0.616704
O O18 0.142386 0.000000 0.709515
O O19 0.542075 0.000000 0.954592
O O20 0.500000 0.216596 0.000000
O O21 0.997314 0.500000 0.586051
O O22 0.000000 0.333195 0.500000
#
# Coordination Sequence:
#
# PCOD9212299 Si02
#       8
#     8   8   8   8   8   8   8   8
#     4  11  25  45  66  93 132 172 213 266 324 383
#     4  11  24  42  66  95 128 170 216 266 322 381
#     4  11  25  44  67  95 131 171 214 263 321 381
#     4  12  26  44  68  95 129 170 216 267 320 385
#     4  11  23  41  68  97 127 168 215 269 322 378
#     4  11  25  42  66  97 129 169 216 264 318 380
#     4  11  25  44  67  96 132 172 213 263 322 383
#     4  10  21  41  67  92 124 166 212 264 320 377
#
# _framework density 19.026734000000001
#
# number of rings (size 3 to 8) (size 9 to 14) (size 15 to 20)
#    0.000    1.000    2.500    3.375    3.500    5.250 
#    0.000    0.000    0.000    0.000    0.000    0.000 
#    0.000    0.000    0.000    0.000    0.000    0.000 
#
# Total GULP energy -178909.063054 kJ/mol
# GULP energy per Si atom -5590.908220 kJ/mol
# Density = 1.898343 g / cm^3
# Si number density = 19.026734 Si / 1000 Ang^3
#
#
#
# Elastic Constant Matrix: (Units=GPa)
#
#
# Indices 1 2 3 4 5 6 
#
# 1 177.9941 76.5588 64.2208 0.0000 -1.6028 0.0000
# 2 76.5588 87.2425 60.6138 0.0000 -5.3275 0.0000
# 3 64.2208 60.6138 89.2653 0.0000 -11.9648 0.0000
# 4 0.0000 0.0000 0.0000 34.4673 0.0000 2.5879
# 5 -1.6028 -5.3275 -11.9648 0.0000 32.6024 0.0000
# 6 0.0000 0.0000 0.0000 2.5879 0.0000 29.8595
#
#
#
# Elastic Compliance Matrix: (Units=1/GPa)
#
#
# Indices 1 2 3 4 5 6 
#
# 1 0.009309 -0.006565 -0.002443 0.000000 -0.001511 0.000000
# 2 -0.006565 0.026448 -0.013357 0.000000 -0.000903 0.000000
# 3 -0.002443 -0.013357 0.022845 0.000000 0.006081 0.000000
# 4 0.000000 0.000000 0.000000 0.029203 0.000000 -0.002531
# 5 -0.001511 -0.000903 0.006081 0.000000 0.032682 0.000000
# 6 0.000000 0.000000 0.000000 -0.002531 0.000000 0.033710
#
#
# Mechanical properties :
#
#
# Convention : Reuss Voigt Hill
#
# Bulk Modulus (GPa) = 72.07949 84.14318 78.11134
# Shear Modulus (GPa) = 24.56388 29.59308 27.07848
#
# Velocity S-wave (km/s) = 3.59697 3.94806 3.77660
# Velocity P-wave (km/s) = 7.43078 8.06862 7.75626
#
# Compressibility (1/GPa) = 0.01387357
#
# Stress axis : x y z
#
# Youngs Moduli (GPa) = 107.41801 37.80973 43.77362
#
# Poissons Ratio (x) = 0.24821 0.10692
# Poissons Ratio (y) = 0.70517 0.58469
# Poissons Ratio (z) = 0.26237 0.50503
#
# Static dielectric constant tensor:
#      x y z
#    x 1.765030 0.000000 -0.100390 
#    y 0.000000 1.655040 0.000000 
#    z -0.100390 0.000000 1.683820 
# 
# From -- ./inp_files/346176.got.cif
#   From: 2010.05.17/outbox.cif.g08.bks.cpg/sg12_174_cif.got.tgz:346176.got - 2010.06.03 13:09:07.
