data_PCOD9212777
_publ_section_title
;
Structure prediction by ZEFSAII (Michael W. Deem and Ramdas Pophale) SiO2 
 PCOD9212777
Probable space group: C 2/M
;
_chemical_formula_sum "Si O2"
_cell_formula_units_Z 44
_cell_length_a 13.792279
_cell_length_b 20.534004
_cell_length_c 8.010794
_cell_angle_alpha 90.000000
_cell_angle_beta 107.348104
_cell_angle_gamma 90.000000
_cell_volume 2165.539373
_symmetry_space_group_name_H-M "C 2/M"
_symmetry_group_IT_number 12
_symmetry_cell_setting 'monoclinic'
loop_
_space_group_symop_operation_xyz
x,y,z
-x,y,-z
-x,-y,-z
x,-y,z
1/2+x,1/2+y,z
1/2-x,1/2+y,-z
1/2-x,1/2-y,-z
1/2+x,1/2-y,z
loop_
_atom_site_type_symbol
_atom_site_label
_atom_site_fract_x
_atom_site_fract_y
_atom_site_fract_z
Si Si1 0.000000 0.866077 0.000000
Si Si2 0.726810 0.577615 0.109981
Si Si3 0.555364 0.281140 0.701477
Si Si4 0.955611 0.336890 0.809572
Si Si5 0.380822 0.926295 0.492350
Si Si6 0.768225 0.692420 0.881707
O O1 0.107138 0.905278 0.077474
O O2 0.980729 0.824009 0.158560
O O3 0.736853 0.500000 0.082017
O O4 0.801694 0.592683 0.305978
O O5 0.765009 0.623817 0.978136
O O6 0.500000 0.291103 0.500000
O O7 0.536125 0.206009 0.748904
O O8 0.669834 0.301609 0.718492
O O9 0.887701 0.381515 0.657011
O O10 0.871789 0.289795 0.844888
O O11 0.000000 0.370152 0.000000
O O12 0.500000 0.926349 0.500000
O O13 0.353760 0.000000 0.524757
O O14 0.750000 0.750000 0.000000
#
# Coordination Sequence:
#
# PCOD9212777 Si02
#       6
#     4   8   8   8   8   8
#     4  10  21  44  66  94 125 162 218 262 319 382
#     4  10  22  42  67  90 124 169 213 263 322 380
#     4  11  24  40  61  94 129 163 210 264 320 377
#     4  12  22  38  61  89 126 169 209 259 321 377
#     4  10  23  40  60  90 124 166 214 257 312 384
#     4  11  23  40  62  92 125 162 210 265 314 376
#
# _framework density 20.318265
#
# number of rings (size 3 to 8) (size 9 to 14) (size 15 to 20)
#    0.000    1.273    2.727    3.000    5.091    1.818 
#    0.000    0.000    0.000    2.727    0.000    0.000 
#    0.000    0.000    0.000    0.000    0.000    0.000 
#
# Total GULP energy -122622.294924 kJ/mol
# GULP energy per Si atom -5573.740678 kJ/mol
# Density = 2.027202 g / cm^3
# Si number density = 20.318265 Si / 1000 Ang^3
#
#
#
# Elastic Constant Matrix: (Units=GPa)
#
#
# Indices 1 2 3 4 5 6 
#
# 1 76.6790 7.6385 13.5734 0.0000 23.1211 0.0000
# 2 7.6385 76.8345 39.7984 0.0000 10.9601 0.0000
# 3 13.5734 39.7984 155.5469 0.0000 38.6814 0.0000
# 4 0.0000 0.0000 0.0000 24.1060 0.0000 7.9244
# 5 23.1211 10.9601 38.6814 0.0000 34.2439 0.0000
# 6 0.0000 0.0000 0.0000 7.9244 0.0000 22.7763
#
#
#
# Elastic Compliance Matrix: (Units=1/GPa)
#
#
# Indices 1 2 3 4 5 6 
#
# 1 0.016808 -0.000836 0.002090 0.000000 -0.013442 0.000000
# 2 -0.000836 0.015055 -0.003784 0.000000 0.000020 0.000000
# 3 0.002090 -0.003784 0.010102 0.000000 -0.011611 0.000000
# 4 0.000000 0.000000 0.000000 0.046841 0.000000 -0.016297
# 5 -0.013442 0.000020 -0.011611 0.000000 0.051387 0.000000
# 6 0.000000 0.000000 0.000000 -0.016297 0.000000 0.049575
#
#
# Mechanical properties :
#
#
# Convention : Reuss Voigt Hill
#
# Bulk Modulus (GPa) = 27.09687 47.89787 37.49737
# Shear Modulus (GPa) = 24.13930 32.76193 28.45062
#
# Velocity S-wave (km/s) = 3.45056 4.01987 3.74605
# Velocity P-wave (km/s) = 5.40743 6.72092 6.09964
#
# Compressibility (1/GPa) = 0.03690463
#
# Stress axis : x y z
#
# Youngs Moduli (GPa) = 59.49624 66.42180 98.98742
#
# Poissons Ratio (x) = 0.05553 -0.20687
# Poissons Ratio (y) = 0.04974 0.37459
# Poissons Ratio (z) = -0.12434 0.25135
#
# Static dielectric constant tensor:
#      x y z
#    x 1.881160 0.000000 0.023540 
#    y 0.000000 1.735090 0.000000 
#    z 0.023540 0.000000 1.853120 
# 
# From -- ./inp_files/61849.got.cif
#   From: 2010.05.17/outbox.cif.g08.bks.cpg/sg12_31_cif.got.tgz:61849.got - 2010.06.03 13:09:07.
