data_PCOD9212325
_publ_section_title
;
Structure prediction by ZEFSAII (Michael W. Deem and Ramdas Pophale) SiO2 
 PCOD9212325
Probable space group: C 2/M
;
_chemical_formula_sum "Si O2"
_cell_formula_units_Z 64
_cell_length_a 14.294064
_cell_length_b 17.877620
_cell_length_c 12.081000
_cell_angle_alpha 90.000000
_cell_angle_beta 82.217248
_cell_angle_gamma 90.000000
_cell_volume 3058.787675
_symmetry_space_group_name_H-M "C 2/M"
_symmetry_group_IT_number 12
_symmetry_cell_setting 'monoclinic'
loop_
_space_group_symop_operation_xyz
x,y,z
-x,y,-z
-x,-y,-z
x,-y,z
1/2+x,1/2+y,z
1/2-x,1/2+y,-z
1/2-x,1/2-y,-z
1/2+x,1/2-y,z
loop_
_atom_site_type_symbol
_atom_site_label
_atom_site_fract_x
_atom_site_fract_y
_atom_site_fract_z
Si Si1 0.971013 0.351448 0.133907
Si Si2 0.032202 0.815300 0.814478
Si Si3 0.207333 0.590029 0.479679
Si Si4 0.572073 0.410748 0.590221
Si Si5 0.869057 0.585528 0.735378
Si Si6 0.309245 0.312881 0.858051
Si Si7 0.284400 0.649710 0.100995
Si Si8 0.299533 0.914358 0.274719
O O1 0.936364 0.270989 0.182349
O O2 0.886350 0.407246 0.176316
O O3 0.058467 0.373095 0.196861
O O4 0.000000 0.348872 0.000000
O O5 0.044900 0.858402 0.697366
O O6 0.105068 0.853193 0.887927
O O7 0.921245 0.810473 0.857246
O O8 0.201215 0.500000 0.469899
O O9 0.318833 0.607687 0.456787
O O10 0.150105 0.619774 0.382938
O O11 0.169195 0.609372 0.606953
O O12 0.500000 0.399055 0.500000
O O13 0.568131 0.500000 0.618766
O O14 0.901222 0.500000 0.719242
O O15 0.769778 0.590425 0.815517
O O16 0.262437 0.230748 0.861828
O O17 0.281725 0.360205 0.755778
O O18 0.269002 0.355204 0.972680
O O19 0.266209 0.000000 0.286548
#
# Coordination Sequence:
#
# PCOD9212325 Si02
#       8
#     8   8   8   8   8   8   8   8
#     4  12  25  43  65  95 137 178 215 268 330 389
#     4  12  23  40  65  99 130 173 216 256 331 402
#     4   9  20  41  64  90 127 166 208 269 336 381
#     4  10  21  41  67  94 131 175 218 270 326 384
#     4  11  23  42  68  93 125 174 223 271 327 389
#     4  11  23  39  62  91 131 173 209 265 330 383
#     4  11  22  40  62  90 130 173 212 262 328 388
#     4  11  24  43  68  97 127 170 224 273 324 389
#
# _framework density 20.923323
#
# number of rings (size 3 to 8) (size 9 to 14) (size 15 to 20)
#    0.000    1.125    3.750    3.000    0.000    4.500 
#    2.250    3.125    0.000    4.125    0.000    0.000 
#    0.000    0.000    0.000    0.000    0.000    0.000 
#
# Total GULP energy -178661.183293 kJ/mol
# GULP energy per Si atom -5583.161978 kJ/mol
# Density = 2.087570 g / cm^3
# Si number density = 20.923323 Si / 1000 Ang^3
#
#
#
# Elastic Constant Matrix: (Units=GPa)
#
#
# Indices 1 2 3 4 5 6 
#
# 1 96.7717 -0.0684 22.2804 0.0000 20.3248 0.0000
# 2 -0.0684 28.7732 34.4851 0.0000 5.9523 0.0000
# 3 22.2804 34.4851 129.6243 0.0000 18.9356 0.0000
# 4 0.0000 0.0000 0.0000 8.6133 0.0000 112.1992
# 5 20.3248 5.9523 18.9356 0.0000 37.9572 0.0000
# 6 0.0000 0.0000 0.0000 112.1992 0.0000-1102.8341
#
#
#
# Elastic Compliance Matrix: (Units=1/GPa)
#
#
# Indices 1 2 3 4 5 6 
#
# 1 0.012115 0.003985 -0.002269 0.000000 -0.005980 0.000000
# 2 0.003985 0.052397 -0.014143 0.000000 -0.003295 0.000000
# 3 -0.002269 -0.014143 0.012259 0.000000 -0.002683 0.000000
# 4 0.000000 0.000000 0.000000 0.049930 0.000000 0.005080
# 5 -0.005980 -0.003295 -0.002683 0.000000 0.031403 0.000000
# 6 0.000000 0.000000 0.000000 0.005080 0.000000 -0.000390
#
#
# Mechanical properties :
#
#
# Convention : Reuss Voigt Hill
#
# Bulk Modulus (GPa) = 19.26158 40.95150 30.10654
# Shear Modulus (GPa) = 25.01593 -198.02127 -86.50267
#
# Velocity S-wave (km/s) = 3.46150 -9.73894 -6.43680
# Velocity P-wave (km/s) = 5.02013 10.33672 6.38929
#
# Compressibility (1/GPa) = 0.05191683
#
# Stress axis : x y z
#
# Youngs Moduli (GPa) = 82.54353 19.08520 81.57153
#
# Poissons Ratio (x) = -0.07606 0.18509
# Poissons Ratio (y) = -0.32897 1.15369
# Poissons Ratio (z) = 0.18729 0.26993
#
# Static dielectric constant tensor:
#      x y z
#    x 1.784910 0.000000 0.003530 
#    y 0.000000 1.739790 0.000000 
#    z 0.003530 0.000000 1.757890 
# 
# From -- ./inp_files/146129.got.cif
#   From: 2010.05.17/outbox.cif.g08.bks.cpg/sg12_74_cif.got.tgz:146129.got - 2010.06.03 13:09:07.
