data_PCOD9212700
_publ_section_title
;
Structure prediction by ZEFSAII (Michael W. Deem and Ramdas Pophale) SiO2 
 PCOD9212700
Probable space group: C 2/M
;
_chemical_formula_sum "Si O2"
_cell_formula_units_Z 58
_cell_length_a 25.034053
_cell_length_b 8.696871
_cell_length_c 14.133377
_cell_angle_alpha 90.000000
_cell_angle_beta 86.174923
_cell_angle_gamma 90.000000
_cell_volume 3070.234949
_symmetry_space_group_name_H-M "C 2/M"
_symmetry_group_IT_number 12
_symmetry_cell_setting 'monoclinic'
loop_
_space_group_symop_operation_xyz
x,y,z
-x,y,-z
-x,-y,-z
x,-y,z
1/2+x,1/2+y,z
1/2-x,1/2+y,-z
1/2-x,1/2-y,-z
1/2+x,1/2-y,z
loop_
_atom_site_type_symbol
_atom_site_label
_atom_site_fract_x
_atom_site_fract_y
_atom_site_fract_z
Si Si1 0.527233 0.313520 0.398544
Si Si2 0.850247 0.183929 0.623504
Si Si3 0.293956 0.683170 0.065435
Si Si4 0.169406 0.681539 0.577274
Si Si5 0.000000 0.500000 0.000000
Si Si6 0.598722 0.169256 0.902453
Si Si7 0.572955 0.317094 0.707717
Si Si8 0.749984 0.817316 0.280366
O O1 0.500000 0.260396 0.500000
O O2 0.529651 0.500000 0.404010
O O3 0.588082 0.261239 0.378507
O O4 0.486848 0.274670 0.318590
O O5 0.651224 0.500000 0.365972
O O6 0.829078 0.230660 0.522340
O O7 0.810906 0.261278 0.703409
O O8 0.297260 0.500000 0.054080
O O9 0.352321 0.757805 0.046359
O O10 0.275317 0.716458 0.175289
O O11 0.250000 0.750000 0.000000
O O12 0.171763 0.500000 0.560280
O O13 0.114508 0.730062 0.635448
O O14 0.216038 0.733507 0.642583
O O15 0.045623 0.631593 0.967952
O O16 0.584855 0.272330 0.813636
O O17 0.616827 0.000000 0.863726
O O18 0.580319 0.500000 0.692910
O O19 0.753142 0.000000 0.295571
#
# Coordination Sequence:
#
# PCOD9212700 Si02
#       8
#     8   8   8   8   2   8   8   8
#     4   9  18  35  57  82 119 164 207 249 305 362
#     4  11  22  39  60  87 128 170 212 265 312 373
#     4  11  24  43  70  98 128 170 216 272 333 401
#     4  12  23  36  60  91 125 167 210 258 313 375
#     4   8  24  44  70  96 130 172 202 270 338 380
#     4  10  21  43  67  93 127 162 209 259 322 392
#     4  11  20  36  64  93 120 164 214 258 307 373
#     4  11  24  42  61  90 124 164 210 260 320 382
#
# _framework density 18.891062999999999
#
# number of rings (size 3 to 8) (size 9 to 14) (size 15 to 20)
#    0.414    0.966    2.759    3.724    0.000    1.655 
#    2.483    4.828    0.000    0.000    0.000    0.000 
#    0.000    0.000    0.000    0.000    0.000    0.000 
#
# Total GULP energy -161687.498711 kJ/mol
# GULP energy per Si atom -5575.430990 kJ/mol
# Density = 1.884807 g / cm^3
# Si number density = 18.891063 Si / 1000 Ang^3
#
#
#
# Elastic Constant Matrix: (Units=GPa)
#
#
# Indices 1 2 3 4 5 6 
#
# 1 122.0770 24.9263 38.0768 0.0000 -6.1430 0.0000
# 2 24.9263 34.6574 9.0490 0.0000 -3.6594 0.0000
# 3 38.0768 9.0490 32.3884 0.0000 4.5585 0.0000
# 4 0.0000 0.0000 0.0000 25.7666 0.0000 -4.2170
# 5 -6.1430 -3.6594 4.5585 0.0000 37.4065 0.0000
# 6 0.0000 0.0000 0.0000 -4.2170 0.0000 31.6994
#
#
#
# Elastic Compliance Matrix: (Units=1/GPa)
#
#
# Indices 1 2 3 4 5 6 
#
# 1 0.014587 -0.005908 -0.016030 0.000000 0.003771 0.000000
# 2 -0.005908 0.034172 -0.002987 0.000000 0.002737 0.000000
# 3 -0.016030 -0.002987 0.051856 0.000000 -0.009244 0.000000
# 4 0.000000 0.000000 0.000000 0.039674 0.000000 0.005278
# 5 0.003771 0.002737 -0.009244 0.000000 0.028747 0.000000
# 6 0.000000 0.000000 0.000000 0.005278 0.000000 0.032248
#
#
# Mechanical properties :
#
#
# Convention : Reuss Voigt Hill
#
# Bulk Modulus (GPa) = 19.69814 37.02522 28.36168
# Shear Modulus (GPa) = 18.65292 26.77921 22.71606
#
# Velocity S-wave (km/s) = 3.14569 3.76913 3.47144
# Velocity P-wave (km/s) = 4.86248 6.21158 5.57797
#
# Compressibility (1/GPa) = 0.05076623
#
# Stress axis : x y z
#
# Youngs Moduli (GPa) = 68.55238 29.26383 19.28432
#
# Poissons Ratio (x) = 0.17289 0.30912
# Poissons Ratio (y) = 0.40501 0.05760
# Poissons Ratio (z) = 1.09886 0.08740
#
# Static dielectric constant tensor:
#      x y z
#    x 1.673220 0.000000 -0.000790 
#    y 0.000000 1.647940 0.000000 
#    z -0.000790 0.000000 1.635040 
# 
# From -- ./inp_files/237612.got.cif
#   From: 2010.05.17/outbox.cif.g08.bks.cpg/sg12_119_cif.got.tgz:237612.got - 2010.06.03 13:09:07.
