data_PCOD9212429
_publ_section_title
;
Structure prediction by ZEFSAII (Michael W. Deem and Ramdas Pophale) SiO2 
 PCOD9212429
Probable space group: C 2/M
;
_chemical_formula_sum "Si O2"
_cell_formula_units_Z 48
_cell_length_a 14.680963
_cell_length_b 17.551818
_cell_length_c 19.068646
_cell_angle_alpha 90.000000
_cell_angle_beta 156.504062
_cell_angle_gamma 90.000000
_cell_volume 1958.959114
_symmetry_space_group_name_H-M "C 2/M"
_symmetry_group_IT_number 12
_symmetry_cell_setting 'monoclinic'
loop_
_space_group_symop_operation_xyz
x,y,z
-x,y,-z
-x,-y,-z
x,-y,z
1/2+x,1/2+y,z
1/2-x,1/2+y,-z
1/2-x,1/2-y,-z
1/2+x,1/2-y,z
loop_
_atom_site_type_symbol
_atom_site_label
_atom_site_fract_x
_atom_site_fract_y
_atom_site_fract_z
Si Si1 0.255959 0.268988 0.157509
Si Si2 0.645679 0.386998 0.030250
Si Si3 0.331065 0.079974 0.947086
Si Si4 0.396163 0.083717 0.714646
Si Si5 0.250228 0.584591 0.641054
Si Si6 0.178364 0.247650 0.530483
O O1 0.224661 0.201283 0.080886
O O2 0.403550 0.249206 0.329670
O O3 0.331254 0.348556 0.178310
O O4 0.000000 0.281008 0.000000
O O5 0.899086 0.420797 0.198544
O O6 0.500000 0.396111 0.000000
O O7 0.468737 0.414374 0.847235
O O8 0.476305 0.088452 0.120213
O O9 0.205488 0.000000 0.861761
O O10 0.500000 0.074992 0.000000
O O11 0.257334 0.163535 0.611596
O O12 0.274838 0.000000 0.626807
O O13 0.255816 0.500000 0.608274
O O14 0.255328 0.671518 0.615219
O O15 0.000000 0.583382 0.500000
O O16 0.250000 0.250000 0.500000
#
# Coordination Sequence:
#
# PCOD9212429 Si02
#       6
#     8   8   8   8   8   8
#     4  10  21  41  70  96 131 187 228 282 353 417
#     4  11  23  44  70 101 141 185 238 292 359 430
#     4   9  20  41  66  97 133 175 231 289 348 419
#     4  11  25  43  71 105 140 186 237 292 360 431
#     4  11  26  46  72 105 141 186 239 297 360 432
#     4  12  26  45  67 103 147 185 233 298 357 423
#
# _framework density 24.50281
#
# number of rings (size 3 to 8) (size 9 to 14) (size 15 to 20)
#    0.000    1.333    1.667    3.500    2.333    5.333 
#    0.000    0.000    0.000   10.000    0.000    0.000 
#    0.000    0.000    0.000    0.000    0.000    0.000 
#
# Total GULP energy -133690.678391 kJ/mol
# GULP energy per Si atom -5570.444933 kJ/mol
# Density = 2.444704 g / cm^3
# Si number density = 24.502810 Si / 1000 Ang^3
#
#
#
# Elastic Constant Matrix: (Units=GPa)
#
#
# Indices 1 2 3 4 5 6 
#
# 1 76.2063 17.9671 9.8116 -0.0042 13.5411 -0.0095
# 2 17.9671 292.9126 58.0357 -0.0231 -15.2511 -0.0652
# 3 9.8116 58.0357 94.8487 -0.0343 17.9808 -0.0181
# 4 -0.0042 -0.0231 -0.0343 43.8581 -0.0246 -26.2689
# 5 13.5411 -15.2511 17.9808 -0.0246 36.3980 -0.0084
# 6 -0.0095 -0.0652 -0.0181 -26.2689 -0.0084 32.5718
#
#
#
# Elastic Compliance Matrix: (Units=1/GPa)
#
#
# Indices 1 2 3 4 5 6 
#
# 1 0.014463 -0.001300 0.000466 -0.000004 -0.006156 -0.000003
# 2 -0.001300 0.004345 -0.003267 0.000012 0.003918 0.000017
# 3 0.000466 -0.003267 0.014107 0.000008 -0.008511 0.000006
# 4 -0.000004 0.000012 0.000008 0.044107 0.000041 0.035572
# 5 -0.006156 0.003918 -0.008511 0.000041 0.035611 0.000043
# 6 -0.000003 0.000017 0.000006 0.035572 0.000043 0.059390
#
#
# Mechanical properties :
#
#
# Convention : Reuss Voigt Hill
#
# Bulk Modulus (GPa) = 40.46343 70.62182 55.54262
# Shear Modulus (GPa) = 26.53068 47.77579 37.15324
#
# Velocity S-wave (km/s) = 3.29410 4.42045 3.89817
# Velocity P-wave (km/s) = 5.56936 7.41204 6.55577
#
# Compressibility (1/GPa) = 0.02471367
#
# Stress axis : x y z
#
# Youngs Moduli (GPa) = 69.14423 230.14839 70.88496
#
# Poissons Ratio (x) = 0.29920 -0.03305
# Poissons Ratio (y) = 0.08989 0.23157
# Poissons Ratio (z) = -0.03224 0.75187
#
# Static dielectric constant tensor:
#      x y z
#    x 2.056630 0.001050 -0.229430 
#    y 0.001050 2.297780 0.006860 
#    z -0.229430 0.006860 -0.102320 
# 
# From -- ./inp_files/317529.got.cif
#   From: 2010.05.17/outbox.cif.g08.bks.cpg/sg12_159_cif.got.tgz:317529.got - 2010.06.03 13:09:07.
