data_PCOD9212713
_publ_section_title
;
Structure prediction by ZEFSAII (Michael W. Deem and Ramdas Pophale) SiO2 
 PCOD9212713
Probable space group: C 2/M
;
_chemical_formula_sum "Si O2"
_cell_formula_units_Z 52
_cell_length_a 17.901452
_cell_length_b 8.722462
_cell_length_c 22.177876
_cell_angle_alpha 90.000000
_cell_angle_beta 134.549234
_cell_angle_gamma 90.000000
_cell_volume 2467.870143
_symmetry_space_group_name_H-M "C 2/M"
_symmetry_group_IT_number 12
_symmetry_cell_setting 'monoclinic'
loop_
_space_group_symop_operation_xyz
x,y,z
-x,y,-z
-x,-y,-z
x,-y,z
1/2+x,1/2+y,z
1/2-x,1/2+y,-z
1/2-x,1/2-y,-z
1/2+x,1/2-y,z
loop_
_atom_site_type_symbol
_atom_site_label
_atom_site_fract_x
_atom_site_fract_y
_atom_site_fract_z
Si Si1 0.549330 0.182596 0.436045
Si Si2 0.300344 0.500000 0.022723
Si Si3 0.994377 0.183216 0.280059
Si Si4 0.390488 0.818789 0.768756
Si Si5 0.224776 0.246873 0.886226
Si Si6 0.853548 0.180680 0.394021
Si Si7 0.601597 0.321330 0.099433
O O1 0.553356 0.256806 0.372610
O O2 0.630581 0.256477 0.529344
O O3 0.435751 0.227517 0.399519
O O4 0.561503 0.000000 0.440774
O O5 0.306782 0.627867 0.080209
O O6 0.281661 0.372072 0.959294
O O7 0.059685 0.225975 0.257889
O O8 0.884385 0.273876 0.210208
O O9 0.976020 0.000000 0.274546
O O10 0.265074 0.802521 0.694630
O O11 0.427890 0.746795 0.852576
O O12 0.417290 0.000000 0.779863
O O13 0.309587 0.217389 0.881827
O O14 0.880236 0.000000 0.407034
O O15 0.636507 0.500000 0.125914
O O16 0.500000 0.320842 0.000000
#
# Coordination Sequence:
#
# PCOD9212713 Si02
#       7
#     8   4   8   8   8   8   8
#     4  11  23  39  69 100 127 167 213 259 311 380
#     4  10  24  40  68  94 124 166 220 268 316 372
#     4  12  26  43  65  92 129 171 213 263 323 378
#     4  11  27  43  65  95 127 166 214 266 317 377
#     4  11  24  42  67  94 127 170 214 266 316 380
#     4  10  21  43  68  96 132 166 207 258 320 383
#     4  11  26  43  64  93 130 171 211 259 318 377
#
# _framework density 21.070800999999999
#
# number of rings (size 3 to 8) (size 9 to 14) (size 15 to 20)
#    0.000    1.077    1.538    4.615    7.538    5.846 
#    0.000    0.000    0.000    0.000    0.000    0.000 
#    0.000    0.000    0.000    0.000    0.000    0.000 
#
# Total GULP energy -144742.779366 kJ/mol
# GULP energy per Si atom -5567.029976 kJ/mol
# Density = 2.102284 g / cm^3
# Si number density = 21.070801 Si / 1000 Ang^3
#
#
#
# Elastic Constant Matrix: (Units=GPa)
#
#
# Indices 1 2 3 4 5 6 
#
# 1 36.7599 3.9484 22.8338 0.0000 -20.3551 0.0000
# 2 3.9484 44.5807 24.8415 0.0000 -9.5275 0.0000
# 3 22.8338 24.8415 92.9585 0.0000 -31.4818 0.0000
# 4 0.0000 0.0000 0.0000 33.7778 0.0000 -1.0005
# 5 -20.3551 -9.5275 -31.4818 0.0000 45.7583 0.0000
# 6 0.0000 0.0000 0.0000 -1.0005 0.0000 45.2431
#
#
#
# Elastic Compliance Matrix: (Units=1/GPa)
#
#
# Indices 1 2 3 4 5 6 
#
# 1 0.037822 0.002549 -0.005337 0.000000 0.013683 0.000000
# 2 0.002549 0.026552 -0.007126 0.000000 0.001760 0.000000
# 3 -0.005337 -0.007126 0.016514 0.000000 0.007504 0.000000
# 4 0.000000 0.000000 0.000000 0.029625 0.000000 0.000655
# 5 0.013683 0.001760 0.007504 0.000000 0.033470 0.000000
# 6 0.000000 0.000000 0.000000 0.000655 0.000000 0.022117
#
#
# Mechanical properties :
#
#
# Convention : Reuss Voigt Hill
#
# Bulk Modulus (GPa) = 16.37751 30.83850 23.60801
# Shear Modulus (GPa) = 24.23868 33.13422 28.68645
#
# Velocity S-wave (km/s) = 3.39535 3.96980 3.69376
# Velocity P-wave (km/s) = 4.81256 5.97326 5.42405
#
# Compressibility (1/GPa) = 0.06105934
#
# Stress axis : x y z
#
# Youngs Moduli (GPa) = 26.43962 37.66173 60.55475
#
# Poissons Ratio (x) = -0.09599 0.32321
# Poissons Ratio (y) = -0.06739 0.43149
# Poissons Ratio (z) = 0.14112 0.26836
#
# Static dielectric constant tensor:
#      x y z
#    x 1.760470 0.000000 0.006050 
#    y 0.000000 1.753140 0.000000 
#    z 0.006050 0.000000 1.747540 
# 
# From -- ./inp_files/314903.got.cif
#   From: 2010.05.17/outbox.cif.g08.bks.cpg/sg12_158_cif.got.tgz:314903.got - 2010.06.03 13:09:07.
