data_PCOD9212317
_publ_section_title
;
Structure prediction by ZEFSAII (Michael W. Deem and Ramdas Pophale) SiO2 
 PCOD9212317
Probable space group: C 2/M
;
_chemical_formula_sum "Si O2"
_cell_formula_units_Z 64
_cell_length_a 31.289159
_cell_length_b 8.499746
_cell_length_c 14.910370
_cell_angle_alpha 90.000000
_cell_angle_beta 49.066453
_cell_angle_gamma 90.000000
_cell_volume 2995.749345
_symmetry_space_group_name_H-M "C 2/M"
_symmetry_group_IT_number 12
_symmetry_cell_setting 'monoclinic'
loop_
_space_group_symop_operation_xyz
x,y,z
-x,y,-z
-x,-y,-z
x,-y,z
1/2+x,1/2+y,z
1/2-x,1/2+y,-z
1/2-x,1/2-y,-z
1/2+x,1/2-y,z
loop_
_atom_site_type_symbol
_atom_site_label
_atom_site_fract_x
_atom_site_fract_y
_atom_site_fract_z
Si Si1 0.144266 0.813655 0.287671
Si Si2 0.239895 0.815972 0.915323
Si Si3 0.162944 0.809020 0.864935
Si Si4 0.580849 0.310854 0.726884
Si Si5 0.541980 0.312246 0.069247
Si Si6 0.555975 0.314094 0.262596
Si Si7 0.700484 0.813638 0.631639
Si Si8 0.937832 0.685557 0.447724
O O1 0.201965 0.718717 0.216609
O O2 0.113716 0.777887 0.234712
O O3 0.100453 0.765746 0.424612
O O4 0.156011 0.000000 0.274736
O O5 0.189285 0.753019 0.922862
O O6 0.229653 0.000000 0.939668
O O7 0.250000 0.750000 0.000000
O O8 0.201950 0.754662 0.729944
O O9 0.161722 0.000000 0.867426
O O10 0.098020 0.752475 0.942478
O O11 0.583807 0.500000 0.732653
O O12 0.522283 0.254248 0.854978
O O13 0.638959 0.237752 0.680301
O O14 0.573945 0.266233 0.632014
O O15 0.539232 0.500000 0.055916
O O16 0.556183 0.290436 0.155532
O O17 0.544435 0.500000 0.293417
O O18 0.504114 0.216471 0.374139
O O19 0.750000 0.750000 0.500000
O O20 0.704543 0.000000 0.629100
O O21 0.926503 0.500000 0.458520
#
# Coordination Sequence:
#
# PCOD9212317 Si02
#       8
#     8   8   8   8   8   8   8   8
#     4  11  22  36  57  82 117 165 216 266 318 382
#     4  11  24  41  63  92 128 167 213 265 321 381
#     4  10  22  43  68  95 128 170 217 264 317 384
#     4  10  21  41  67  94 124 164 211 258 313 382
#     4   8  16  35  65  93 120 159 208 256 309 376
#     4   9  18  35  57  84 119 165 213 258 313 376
#     4  12  27  46  68  95 129 168 212 267 325 385
#     4  11  22  35  55  87 125 162 205 261 321 380
#
# _framework density 21.363603999999999
#
# number of rings (size 3 to 8) (size 9 to 14) (size 15 to 20)
#    0.000    1.750    0.000    5.250    1.750    6.000 
#    0.000    5.625    0.000    0.000    0.000    0.000 
#    0.000    0.000    0.000    0.000    0.000    0.000 
#
# Total GULP energy -178847.418149 kJ/mol
# GULP energy per Si atom -5588.981817 kJ/mol
# Density = 2.131498 g / cm^3
# Si number density = 21.363604 Si / 1000 Ang^3
#
#
#
# Elastic Constant Matrix: (Units=GPa)
#
#
# Indices 1 2 3 4 5 6 
#
# 1 103.3600 14.5215 48.0885 0.0000 -15.8128 0.0000
# 2 14.5215 29.0324 17.6387 0.0001 -2.5332 -0.0001
# 3 48.0885 17.6387 100.6377 0.0000 -8.8393 0.0000
# 4 0.0000 0.0001 0.0000 27.6267 0.0000 -0.7693
# 5 -15.8128 -2.5332 -8.8393 0.0000 24.8687 0.0000
# 6 0.0000 -0.0001 0.0000 -0.7693 0.0000 27.7883
#
#
#
# Elastic Compliance Matrix: (Units=1/GPa)
#
#
# Indices 1 2 3 4 5 6 
#
# 1 0.013589 -0.002949 -0.005413 0.000000 0.006416 0.000000
# 2 -0.002949 0.039249 -0.005454 0.000000 0.000185 0.000000
# 3 -0.005413 -0.005454 0.013551 0.000000 0.000819 0.000000
# 4 0.000000 0.000000 0.000000 0.036225 0.000000 0.001003
# 5 0.006416 0.000185 0.000819 0.000000 0.044601 0.000000
# 6 0.000000 0.000000 0.000000 0.001003 0.000000 0.036014
#
#
# Mechanical properties :
#
#
# Convention : Reuss Voigt Hill
#
# Bulk Modulus (GPa) = 25.80118 43.72525 34.76322
# Shear Modulus (GPa) = 22.34341 26.24215 24.29278
#
# Velocity S-wave (km/s) = 3.23749 3.50860 3.37577
# Velocity P-wave (km/s) = 5.10671 6.07662 5.61265
#
# Compressibility (1/GPa) = 0.03875791
#
# Stress axis : x y z
#
# Youngs Moduli (GPa) = 73.58753 25.47850 73.79482
#
# Poissons Ratio (x) = 0.07512 0.39946
# Poissons Ratio (y) = 0.21697 0.40248
# Poissons Ratio (z) = 0.39834 0.13896
#
# Static dielectric constant tensor:
#      x y z
#    x 1.806140 0.000000 0.005480 
#    y 0.000000 1.721230 0.000000 
#    z 0.005480 0.000000 1.781900 
# 
# From -- ./inp_files/249844.got.cif
#   From: 2010.05.17/outbox.cif.g08.bks.cpg/sg12_125_cif.got.tgz:249844.got - 2010.06.03 13:09:07.
