data_PCOD9212454
_publ_section_title
;
Structure prediction by ZEFSAII (Michael W. Deem and Ramdas Pophale) SiO2 
 PCOD9212454
Probable space group: C 2/M
;
_chemical_formula_sum "Si O2"
_cell_formula_units_Z 42
_cell_length_a 12.629705
_cell_length_b 19.208919
_cell_length_c 9.126401
_cell_angle_alpha 90.000000
_cell_angle_beta 123.984704
_cell_angle_gamma 90.000000
_cell_volume 1835.895991
_symmetry_space_group_name_H-M "C 2/M"
_symmetry_group_IT_number 12
_symmetry_cell_setting 'monoclinic'
loop_
_space_group_symop_operation_xyz
x,y,z
-x,y,-z
-x,-y,-z
x,-y,z
1/2+x,1/2+y,z
1/2-x,1/2+y,-z
1/2-x,1/2-y,-z
1/2+x,1/2-y,z
loop_
_atom_site_type_symbol
_atom_site_label
_atom_site_fract_x
_atom_site_fract_y
_atom_site_fract_z
Si Si1 0.000000 0.000000 0.000000
Si Si2 0.892565 0.153436 0.308065
Si Si3 0.056001 0.578848 0.709195
Si Si4 0.770652 0.711383 0.169815
Si Si5 0.601242 0.367212 0.242859
Si Si6 0.711639 0.917505 0.358550
O O1 0.913201 0.938637 0.855514
O O2 0.861988 0.233224 0.321656
O O3 0.764992 0.110800 0.245374
O O4 0.000000 0.123775 0.500000
O O5 0.963031 0.146795 0.208332
O O6 0.103072 0.500000 0.772299
O O7 0.160739 0.638108 0.802135
O O8 0.000000 0.580432 0.500000
O O9 0.937073 0.593503 0.724678
O O10 0.649943 0.694782 0.177829
O O11 0.750000 0.750000 0.000000
O O12 0.707153 0.378669 0.451878
O O13 0.736000 0.000000 0.388035
#
# Coordination Sequence:
#
# PCOD9212454 Si02
#       6
#     2   8   8   8   8   8
#     4  12  24  40  66  98 134 172 218 270 342 416
#     4  10  25  42  67  98 133 178 224 282 337 405
#     4  10  21  41  73 102 130 175 235 290 336 400
#     4  12  26  44  65  97 140 180 224 282 344 419
#     4  11  24  41  68  97 132 181 222 276 342 405
#     4  10  21  42  71 102 132 169 231 291 337 394
#
# _framework density 22.877112
#
# number of rings (size 3 to 8) (size 9 to 14) (size 15 to 20)
#    0.000    1.333    2.857    1.714    5.333    2.667 
#    0.000    0.000    0.000    2.286    0.000    0.000 
#    0.000    0.000    0.000    0.000    0.000    0.000 
#
# Total GULP energy -117139.155115 kJ/mol
# GULP energy per Si atom -5578.055005 kJ/mol
# Density = 2.282504 g / cm^3
# Si number density = 22.877112 Si / 1000 Ang^3
#
#
#
# Elastic Constant Matrix: (Units=GPa)
#
#
# Indices 1 2 3 4 5 6 
#
# 1 174.1081 66.4791 14.9198 0.0000 -32.9340 0.0000
# 2 66.4791 93.9156 7.0435 0.0000 -9.3658 0.0000
# 3 14.9198 7.0435 34.3340 0.0000 -9.3769 0.0000
# 4 0.0000 0.0000 0.0000 24.9997 0.0000 0.2304
# 5 -32.9340 -9.3658 -9.3769 0.0000 22.9402 0.0000
# 6 0.0000 0.0000 0.0000 0.2304 0.0000 29.4049
#
#
#
# Elastic Compliance Matrix: (Units=1/GPa)
#
#
# Indices 1 2 3 4 5 6 
#
# 1 0.010460 -0.006163 0.000150 0.000000 0.012562 0.000000
# 2 -0.006163 0.014773 -0.001263 0.000000 -0.003332 0.000000
# 3 0.000150 -0.001263 0.032912 0.000000 0.013152 0.000000
# 4 0.000000 0.000000 0.000000 0.040003 0.000000 -0.000313
# 5 0.012562 -0.003332 0.013152 0.000000 0.065642 0.000000
# 6 0.000000 0.000000 0.000000 -0.000313 0.000000 0.034010
#
#
# Mechanical properties :
#
#
# Convention : Reuss Voigt Hill
#
# Bulk Modulus (GPa) = 22.93951 53.24915 38.09433
# Shear Modulus (GPa) = 22.03785 29.72996 25.88390
#
# Velocity S-wave (km/s) = 3.10710 3.60884 3.36733
# Velocity P-wave (km/s) = 4.78760 6.37900 5.63971
#
# Compressibility (1/GPa) = 0.04359291
#
# Stress axis : x y z
#
# Youngs Moduli (GPa) = 95.60188 67.69306 30.38437
#
# Poissons Ratio (x) = 0.41717 -0.00455
# Poissons Ratio (y) = 0.58917 0.03836
# Poissons Ratio (z) = -0.01431 0.08547
#
# Static dielectric constant tensor:
#      x y z
#    x 1.901670 0.000000 0.010110 
#    y 0.000000 1.794800 0.000000 
#    z 0.010110 0.000000 2.032300 
# 
# From -- ./inp_files/49468.got.cif
#   From: 2010.05.17/outbox.cif.g08.bks.cpg/sg12_25_cif.got.tgz:49468.got - 2010.06.03 13:09:07.
