data_PCOD9212477
_publ_section_title
;
Structure prediction by ZEFSAII (Michael W. Deem and Ramdas Pophale) SiO2 
 PCOD9212477
Probable space group: C 2/M
;
_chemical_formula_sum "Si O2"
_cell_formula_units_Z 52
_cell_length_a 8.216081
_cell_length_b 28.610638
_cell_length_c 15.077922
_cell_angle_alpha 90.000000
_cell_angle_beta 131.850474
_cell_angle_gamma 90.000000
_cell_volume 2640.128334
_symmetry_space_group_name_H-M "C 2/M"
_symmetry_group_IT_number 12
_symmetry_cell_setting 'monoclinic'
loop_
_space_group_symop_operation_xyz
x,y,z
-x,y,-z
-x,-y,-z
x,-y,z
1/2+x,1/2+y,z
1/2-x,1/2+y,-z
1/2-x,1/2-y,-z
1/2+x,1/2-y,z
loop_
_atom_site_type_symbol
_atom_site_label
_atom_site_fract_x
_atom_site_fract_y
_atom_site_fract_z
Si Si1 0.065466 0.294975 0.228369
Si Si2 0.253189 0.395394 0.576944
Si Si3 0.155193 0.947013 0.741742
Si Si4 0.274843 0.374799 0.392322
Si Si5 0.509572 0.306333 0.742151
Si Si6 0.682357 0.340424 0.993522
Si Si7 0.000000 0.408631 0.000000
O O1 0.088825 0.337220 0.306901
O O2 0.264444 0.303050 0.231545
O O3 0.086258 0.245420 0.283341
O O4 0.833976 0.300942 0.094909
O O5 0.409793 0.432766 0.681112
O O6 0.258718 0.405327 0.473887
O O7 0.354642 0.344990 0.640773
O O8 0.000000 0.396040 0.500000
O O9 0.208929 0.908612 0.685868
O O10 0.164762 0.000000 0.713511
O O11 0.325782 0.938445 0.881980
O O12 0.500000 0.347779 0.500000
O O13 0.563005 0.322382 0.861769
O O14 0.500000 0.355700 0.000000
O O15 0.858727 0.377685 0.018758
#
# Coordination Sequence:
#
# PCOD9212477 Si02
#       7
#     8   8   8   8   8   8   4
#     4  12  23  40  63  92 135 176 227 279 330 399
#     4  11  25  41  64  94 138 175 223 275 329 398
#     4  11  23  45  76  99 127 173 219 278 350 406
#     4  10  21  42  62  90 125 171 218 263 319 398
#     4  12  24  41  60  97 133 178 230 279 331 392
#     4  12  23  41  69  95 132 183 223 281 343 400
#     4  12  21  46  74 102 140 166 218 290 351 398
#
# _framework density 19.696013000000001
#
# number of rings (size 3 to 8) (size 9 to 14) (size 15 to 20)
#    0.000    0.615    7.692    1.615    4.308    4.308 
#    0.000    0.000    0.000    0.923    0.000    0.000 
#    0.000    0.000    0.000    0.000    0.000    0.000 
#
# Total GULP energy -144983.439717 kJ/mol
# GULP energy per Si atom -5576.286143 kJ/mol
# Density = 1.965118 g / cm^3
# Si number density = 19.696013 Si / 1000 Ang^3
#
#
#
# Elastic Constant Matrix: (Units=GPa)
#
#
# Indices 1 2 3 4 5 6 
#
# 1 79.8416 3.0140 29.4128 0.0000 15.5851 0.0000
# 2 3.0140 101.4757 36.4492 0.0000 4.9258 0.0000
# 3 29.4128 36.4492 123.5445 0.0000 8.8226 0.0000
# 4 0.0000 0.0000 0.0000 -0.9479 0.0000 -3.2968
# 5 15.5851 4.9258 8.8226 0.0000 25.1346 0.0000
# 6 0.0000 0.0000 0.0000 -3.2968 0.0000 16.3825
#
#
#
# Elastic Compliance Matrix: (Units=1/GPa)
#
#
# Indices 1 2 3 4 5 6 
#
# 1 0.015412 0.001182 -0.003404 0.000000 -0.008593 0.000000
# 2 0.001182 0.011140 -0.003446 0.000000 -0.001707 0.000000
# 3 -0.003404 -0.003446 0.009972 0.000000 -0.000714 0.000000
# 4 0.000000 0.000000 0.000000 -0.620591 0.000000 -0.124886
# 5 -0.008593 -0.001707 -0.000714 0.000000 0.045699 0.000000
# 6 0.000000 0.000000 0.000000 -0.124886 0.000000 0.035909
#
#
# Mechanical properties :
#
#
# Convention : Reuss Voigt Hill
#
# Bulk Modulus (GPa) = 39.70211 49.17931 44.44071
# Shear Modulus (GPa) = -10.35785 23.84622 6.74419
#
# Velocity S-wave (km/s) = -2.29571 3.48331 1.85245
# Velocity P-wave (km/s) = 3.62962 6.41882 5.21418
#
# Compressibility (1/GPa) = 0.02518758
#
# Stress axis : x y z
#
# Youngs Moduli (GPa) = 64.88613 89.76533 100.27620
#
# Poissons Ratio (x) = -0.10612 0.34136
# Poissons Ratio (y) = -0.07670 0.34558
# Poissons Ratio (z) = 0.22089 0.30935
#
# Static dielectric constant tensor:
#      x y z
#    x 1.818340 0.000000 0.039580 
#    y 0.000000 1.677400 0.000000 
#    z 0.039580 0.000000 1.709220 
# 
# From -- ./inp_files/201345.got.cif
#   From: 2010.05.17/outbox.cif.g08.bks.cpg/sg12_101_cif.got.tgz:201345.got - 2010.06.03 13:09:07.
