data_PCOD9212669
_publ_section_title
;
Structure prediction by ZEFSAII (Michael W. Deem and Ramdas Pophale) SiO2 
 PCOD9212669
Probable space group: C 2/M
;
_chemical_formula_sum "Si O2"
_cell_formula_units_Z 36
_cell_length_a 8.925359
_cell_length_b 18.134107
_cell_length_c 12.264038
_cell_angle_alpha 90.000000
_cell_angle_beta 107.592952
_cell_angle_gamma 90.000000
_cell_volume 1892.134829
_symmetry_space_group_name_H-M "C 2/M"
_symmetry_group_IT_number 12
_symmetry_cell_setting 'monoclinic'
loop_
_space_group_symop_operation_xyz
x,y,z
-x,y,-z
-x,-y,-z
x,-y,z
1/2+x,1/2+y,z
1/2-x,1/2+y,-z
1/2-x,1/2-y,-z
1/2+x,1/2-y,z
loop_
_atom_site_type_symbol
_atom_site_label
_atom_site_fract_x
_atom_site_fract_y
_atom_site_fract_z
Si Si1 0.871750 0.000000 0.693163
Si Si2 0.539385 0.208251 0.349496
Si Si3 0.715008 0.500000 0.841430
Si Si4 0.257792 0.654571 0.579473
Si Si5 0.028826 0.626474 0.127918
Si Si6 0.771614 0.500000 0.099996
O O1 0.802561 0.927395 0.621838
O O2 0.822716 0.000000 0.809413
O O3 0.059748 0.000000 0.735809
O O4 0.591765 0.291974 0.382546
O O5 0.670614 0.161007 0.444140
O O6 0.372079 0.187795 0.365355
O O7 0.542228 0.186954 0.224040
O O8 0.820998 0.572124 0.842341
O O9 0.682072 0.500000 0.964656
O O10 0.884370 0.571591 0.122929
O O11 0.000000 0.656491 0.000000
#
# Coordination Sequence:
#
# PCOD9212669 Si02
#       6
#     4   8   4   8   8   4
#     4  12  21  37  58  98 110 153 203 244 276 356
#     4  10  21  43  59  85 117 160 189 245 291 350
#     4   9  21  32  56  89 126 154 184 248 299 333
#     4  10  24  38  65  83 123 152 195 239 302 334
#     4   9  18  37  61  83 115 161 197 231 292 355
#     4   9  17  36  57  83 121 157 191 242 294 343
#
# _framework density 19.026129000000001
#
# number of rings (size 3 to 8) (size 9 to 14) (size 15 to 20)
#    0.000    2.222    2.222    1.667    3.111    3.556 
#    0.000    4.444    0.000    0.000    0.000    0.000 
#    0.000    0.000    0.000    0.000    0.000    0.000 
#
# Total GULP energy -100487.469774 kJ/mol
# GULP energy per Si atom -5582.637210 kJ/mol
# Density = 1.898282 g / cm^3
# Si number density = 19.026129 Si / 1000 Ang^3
#
#
#
# Elastic Constant Matrix: (Units=GPa)
#
#
# Indices 1 2 3 4 5 6 
#
# 1 59.4587 38.4674 29.9729 0.0000 12.4964 0.0000
# 2 38.4674 95.9468 35.2662 0.0000 16.8842 0.0000
# 3 29.9729 35.2662 90.5209 0.0000 -8.2778 0.0000
# 4 0.0000 0.0000 0.0000 24.2713 0.0000 -2.2650
# 5 12.4964 16.8842 -8.2778 0.0000 19.9980 0.0000
# 6 0.0000 0.0000 0.0000 -2.2650 0.0000 4.3698
#
#
#
# Elastic Compliance Matrix: (Units=1/GPa)
#
#
# Indices 1 2 3 4 5 6 
#
# 1 0.028139 -0.004996 -0.008931 0.000000 -0.017062 0.000000
# 2 -0.004996 0.017229 -0.006343 0.000000 -0.014050 0.000000
# 3 -0.008931 -0.006343 0.018163 0.000000 0.018454 0.000000
# 4 0.000000 0.000000 0.000000 0.043295 0.000000 0.022441
# 5 -0.017062 -0.014050 0.018454 0.000000 0.080167 0.000000
# 6 0.000000 0.000000 0.000000 0.022441 0.000000 0.240477
#
#
# Mechanical properties :
#
#
# Convention : Reuss Voigt Hill
#
# Bulk Modulus (GPa) = 43.49550 50.37105 46.93328
# Shear Modulus (GPa) = 10.51137 19.20913 14.86025
#
# Velocity S-wave (km/s) = 2.35302 3.18090 2.79775
# Velocity P-wave (km/s) = 5.50389 6.32637 5.92941
#
# Compressibility (1/GPa) = 0.02299088
#
# Stress axis : x y z
#
# Youngs Moduli (GPa) = 35.53818 58.04005 55.05700
#
# Poissons Ratio (x) = 0.29000 0.49170
# Poissons Ratio (y) = 0.17757 0.34922
# Poissons Ratio (z) = 0.31738 0.36814
#
# Static dielectric constant tensor:
#      x y z
#    x 1.677330 0.000000 -0.007250 
#    y 0.000000 1.621260 0.000000 
#    z -0.007250 0.000000 1.654390 
# 
# From -- ./inp_files/118820.got.cif
#   From: 2010.05.17/outbox.cif.g08.bks.cpg/sg12_60_cif.got.tgz:118820.got - 2010.06.03 13:09:07.
