data_PCOD9212494
_publ_section_title
;
Structure prediction by ZEFSAII (Michael W. Deem and Ramdas Pophale) SiO2 
 PCOD9212494
Probable space group: C 2/M
;
_chemical_formula_sum "Si O2"
_cell_formula_units_Z 38
_cell_length_a 15.758857
_cell_length_b 16.673239
_cell_length_c 8.940548
_cell_angle_alpha 90.000000
_cell_angle_beta 127.310285
_cell_angle_gamma 90.000000
_cell_volume 1868.422702
_symmetry_space_group_name_H-M "C 2/M"
_symmetry_group_IT_number 12
_symmetry_cell_setting 'monoclinic'
loop_
_space_group_symop_operation_xyz
x,y,z
-x,y,-z
-x,-y,-z
x,-y,z
1/2+x,1/2+y,z
1/2-x,1/2+y,-z
1/2-x,1/2-y,-z
1/2+x,1/2-y,z
loop_
_atom_site_type_symbol
_atom_site_label
_atom_site_fract_x
_atom_site_fract_y
_atom_site_fract_z
Si Si1 0.825346 0.408866 0.197092
Si Si2 0.500000 0.500000 0.500000
Si Si3 0.389593 0.653138 0.530652
Si Si4 0.000000 0.288787 0.500000
Si Si5 0.378637 0.652014 0.858066
Si Si6 0.708555 0.803614 0.096187
O O1 0.858366 0.500000 0.254990
O O2 0.705021 0.396574 0.129640
O O3 0.900574 0.346130 0.362886
O O4 0.831463 0.383037 0.029852
O O5 0.447390 0.571184 0.549122
O O6 0.472556 0.727675 0.605482
O O7 0.344589 0.648608 0.648962
O O8 0.300947 0.672830 0.310833
O O9 0.371127 0.744244 0.904664
O O10 0.500000 0.623186 0.000000
O O11 0.750000 0.750000 0.000000
#
# Coordination Sequence:
#
# PCOD9212494 Si02
#       6
#     8   2   8   4   8   8
#     4  11  25  41  65  96 129 173 217 270 324 386
#     4  10  28  36  68 104 132 172 204 276 344 372
#     4  11  23  42  67  96 133 168 216 270 324 392
#     4  11  21  43  69  84 128 178 221 251 317 395
#     4  11  24  40  66  97 129 168 219 268 324 389
#     4  10  21  42  63  94 124 173 218 257 325 387
#
# _framework density 20.338011999999999
#
# number of rings (size 3 to 8) (size 9 to 14) (size 15 to 20)
#    0.000    1.263    4.211    2.211   11.789    0.421 
#    0.000    0.000    0.000    1.895    0.000    0.000 
#    0.000    0.000    0.000    0.000    0.000    0.000 
#
# Total GULP energy -105826.715302 kJ/mol
# GULP energy per Si atom -5569.827121 kJ/mol
# Density = 2.029172 g / cm^3
# Si number density = 20.338012 Si / 1000 Ang^3
#
#
#
# Elastic Constant Matrix: (Units=GPa)
#
#
# Indices 1 2 3 4 5 6 
#
# 1 46.8933 23.9636 19.6851 0.0000 -0.6655 0.0000
# 2 23.9636 157.1192 25.1451 0.0000 1.6273 0.0000
# 3 19.6851 25.1451 86.4383 0.0000 -9.4680 0.0000
# 4 0.0000 0.0000 0.0000 11.6581 0.0000 -0.5881
# 5 -0.6655 1.6273 -9.4680 0.0000 39.4160 0.0000
# 6 0.0000 0.0000 0.0000 -0.5881 0.0000 22.1544
#
#
#
# Elastic Compliance Matrix: (Units=1/GPa)
#
#
# Indices 1 2 3 4 5 6 
#
# 1 0.024897 -0.003013 -0.004862 0.000000 -0.000623 0.000000
# 2 -0.003013 0.007062 -0.001444 0.000000 -0.000689 0.000000
# 3 -0.004862 -0.001444 0.013447 0.000000 0.003208 0.000000
# 4 0.000000 0.000000 0.000000 0.085892 0.000000 0.002280
# 5 -0.000623 -0.000689 0.003208 0.000000 0.026159 0.000000
# 6 0.000000 0.000000 0.000000 0.002280 0.000000 0.045198
#
#
# Mechanical properties :
#
#
# Convention : Reuss Voigt Hill
#
# Bulk Modulus (GPa) = 37.35531 47.55983 42.45757
# Shear Modulus (GPa) = 21.71877 29.42283 25.57080
#
# Velocity S-wave (km/s) = 3.27140 3.80767 3.54968
# Velocity P-wave (km/s) = 5.71634 6.53961 6.14179
#
# Compressibility (1/GPa) = 0.02676995
#
# Stress axis : x y z
#
# Youngs Moduli (GPa) = 40.16613 141.59708 74.36328
#
# Poissons Ratio (x) = 0.42659 0.36153
# Poissons Ratio (y) = 0.12101 0.10737
# Poissons Ratio (z) = 0.19528 0.20444
#
# Static dielectric constant tensor:
#      x y z
#    x 1.734060 0.000000 0.023840 
#    y 0.000000 1.722810 0.000000 
#    z 0.023840 0.000000 1.765520 
# 
# From -- ./inp_files/61430.got.cif
#   From: 2010.05.17/outbox.cif.g08.bks.cpg/sg12_31_cif.got.tgz:61430.got - 2010.06.03 13:09:07.
