data_PCOD9212873
_publ_section_title
;
Structure prediction by ZEFSAII (Michael W. Deem and Ramdas Pophale) SiO2 
 PCOD9212873
Probable space group: C 2/M
;
_chemical_formula_sum "Si O2"
_cell_formula_units_Z 32
_cell_length_a 13.245983
_cell_length_b 8.636472
_cell_length_c 12.183513
_cell_angle_alpha 90.000000
_cell_angle_beta 111.011826
_cell_angle_gamma 90.000000
_cell_volume 1301.099205
_symmetry_space_group_name_H-M "C 2/M"
_symmetry_group_IT_number 12
_symmetry_cell_setting 'monoclinic'
loop_
_space_group_symop_operation_xyz
x,y,z
-x,y,-z
-x,-y,-z
x,-y,z
1/2+x,1/2+y,z
1/2-x,1/2+y,-z
1/2-x,1/2-y,-z
1/2+x,1/2-y,z
loop_
_atom_site_type_symbol
_atom_site_label
_atom_site_fract_x
_atom_site_fract_y
_atom_site_fract_z
Si Si1 0.035718 0.500000 0.164041
Si Si2 0.743217 0.500000 0.885136
Si Si3 0.376789 0.665363 0.337112
Si Si4 0.183690 0.000000 0.107950
Si Si5 0.862300 0.500000 0.367294
Si Si6 0.207083 0.500000 0.409970
Si Si7 0.000000 0.246204 0.000000
O O1 0.092626 0.500000 0.302520
O O2 0.975206 0.348459 0.098556
O O3 0.140020 0.500000 0.123307
O O4 0.740557 0.500000 0.012501
O O5 0.679631 0.643695 0.803557
O O6 0.441576 0.500000 0.370991
O O7 0.280256 0.640751 0.389204
O O8 0.422386 0.835413 0.371684
O O9 0.265858 0.000000 0.240327
O O10 0.101706 0.144150 0.074265
O O11 0.812804 0.500000 0.469740
#
# Coordination Sequence:
#
# PCOD9212873 Si02
#       7
#     4   4   8   4   4   4   4
#     4   9  18  39  57  75 112 149 182 230 278 327
#     4   8  18  38  52  76 112 142 194 234 262 326
#     4   7  18  30  45  77 106 135 174 227 276 314
#     4  11  22  33  53  87 112 143 186 224 284 341
#     4  12  17  29  55  81 113 138 180 238 282 320
#     4   8  17  31  51  81 105 140 184 234 276 318
#     4  10  22  34  50  82 118 146 178 224 286 342
#
# _framework density 24.594588999999999
#
# number of rings (size 3 to 8) (size 9 to 14) (size 15 to 20)
#    1.500    1.500    0.000    3.750    0.000    4.000 
#    0.000    1.250    0.000    0.000    0.000   78.750 
#    0.000    0.000    0.000    0.000    0.000    0.000 
#
# Total GULP energy -89214.661667 kJ/mol
# GULP energy per Si atom -5575.916354 kJ/mol
# Density = 2.453861 g / cm^3
# Si number density = 24.594589 Si / 1000 Ang^3
#
#
#
# Elastic Constant Matrix: (Units=GPa)
#
#
# Indices 1 2 3 4 5 6 
#
# 1 51.8717 28.1767 38.7534 0.0000 -10.9321 0.0000
# 2 28.1767 187.5971 21.0751 0.0000 -0.4771 0.0000
# 3 38.7534 21.0751 202.3878 0.0000 -5.8985 0.0000
# 4 0.0000 0.0000 0.0000 10.2863 0.0000 -12.7445
# 5 -10.9321 -0.4771 -5.8985 0.0000 42.4820 0.0000
# 6 0.0000 0.0000 0.0000 -12.7445 0.0000 39.9658
#
#
#
# Elastic Compliance Matrix: (Units=1/GPa)
#
#
# Indices 1 2 3 4 5 6 
#
# 1 0.025622 -0.003341 -0.004385 0.000000 0.005947 0.000000
# 2 -0.003341 0.005829 0.000010 0.000000 -0.000793 0.000000
# 3 -0.004385 0.000010 0.005770 0.000000 -0.000327 0.000000
# 4 0.000000 0.000000 0.000000 0.160712 0.000000 0.051249
# 5 0.005947 -0.000793 -0.000327 0.000000 0.025015 0.000000
# 6 0.000000 0.000000 0.000000 0.051249 0.000000 0.041364
#
#
# Mechanical properties :
#
#
# Convention : Reuss Voigt Hill
#
# Bulk Modulus (GPa) = 45.89359 68.65189 57.27274
# Shear Modulus (GPa) = 17.42106 42.13690 29.77898
#
# Velocity S-wave (km/s) = 2.66433 4.14364 3.48342
# Velocity P-wave (km/s) = 5.30711 7.13211 6.28619
#
# Compressibility (1/GPa) = 0.02178954
#
# Stress axis : x y z
#
# Youngs Moduli (GPa) = 39.02827 171.54866 173.30643
#
# Poissons Ratio (x) = 0.57309 0.75995
# Poissons Ratio (y) = 0.13038 -0.00166
# Poissons Ratio (z) = 0.17114 -0.00164
#
# Static dielectric constant tensor:
#      x y z
#    x 1.947680 0.000000 0.021730 
#    y 0.000000 2.093140 0.000000 
#    z 0.021730 0.000000 1.934850 
# 
# From -- ./inp_files/161670.got.cif
#   From: 2010.05.17/outbox.cif.g08.bks.cpg/sg12_81_cif.got.tgz:161670.got - 2010.06.03 13:09:07.
