data_PCOD9212437
_publ_section_title
;
Structure prediction by ZEFSAII (Michael W. Deem and Ramdas Pophale) SiO2 
 PCOD9212437
Probable space group: C 2/M
;
_chemical_formula_sum "Si O2"
_cell_formula_units_Z 34
_cell_length_a 9.505881
_cell_length_b 18.041193
_cell_length_c 8.198797
_cell_angle_alpha 90.000000
_cell_angle_beta 79.947703
_cell_angle_gamma 90.000000
_cell_volume 1384.487806
_symmetry_space_group_name_H-M "C 2/M"
_symmetry_group_IT_number 12
_symmetry_cell_setting 'monoclinic'
loop_
_space_group_symop_operation_xyz
x,y,z
-x,y,-z
-x,-y,-z
x,-y,z
1/2+x,1/2+y,z
1/2-x,1/2+y,-z
1/2-x,1/2-y,-z
1/2+x,1/2-y,z
loop_
_atom_site_type_symbol
_atom_site_label
_atom_site_fract_x
_atom_site_fract_y
_atom_site_fract_z
Si Si1 0.639037 0.685649 0.082652
Si Si2 0.572523 0.189676 0.309636
Si Si3 0.000000 0.000000 0.500000
Si Si4 0.276592 0.420546 0.392978
Si Si5 0.652328 0.084385 0.788504
O O1 0.584827 0.726031 0.257753
O O2 0.732592 0.614519 0.107225
O O3 0.500000 0.674358 0.000000
O O4 0.750000 0.750000 0.000000
O O5 0.500000 0.182969 0.500000
O O6 0.723173 0.147883 0.301677
O O7 0.477095 0.142411 0.203101
O O8 0.942104 0.063258 0.382772
O O9 0.213706 0.500000 0.342774
O O10 0.223129 0.416657 0.592266
O O11 0.609868 0.000000 0.830762
#
# Coordination Sequence:
#
# PCOD9212437 Si02
#       5
#     8   8   2   8   8
#     4  12  26  47  65  98 141 180 222 283 339 398
#     4  10  21  41  71 100 126 180 225 278 335 406
#     4   8  16  32  50 104 144 158 208 286 344 372
#     4   8  17  34  60  97 134 163 217 283 328 390
#     4  10  21  42  68  94 132 171 229 273 336 398
#
# _framework density 24.557818000000001
#
# number of rings (size 3 to 8) (size 9 to 14) (size 15 to 20)
#    0.706    1.412    2.353    0.706    0.000    8.941 
#    2.118    3.529    0.000    0.000    0.000    0.000 
#    0.000    0.000    0.000    0.000    0.000    0.000 
#
# Total GULP energy -94685.274832 kJ/mol
# GULP energy per Si atom -5569.722049 kJ/mol
# Density = 2.450192 g / cm^3
# Si number density = 24.557818 Si / 1000 Ang^3
#
#
#
# Elastic Constant Matrix: (Units=GPa)
#
#
# Indices 1 2 3 4 5 6 
#
# 1 94.6966 18.2388 31.2766 0.0000 30.8540 0.0000
# 2 18.2388 83.5812 21.4157 0.0000 11.0800 0.0000
# 3 31.2766 21.4157 67.9976 0.0000 21.1931 0.0000
# 4 0.0000 0.0000 0.0000 -9.7017 0.0000 -69.5562
# 5 30.8540 11.0800 21.1931 0.0000 37.7615 0.0000
# 6 0.0000 0.0000 0.0000 -69.5562 0.0000 -183.2926
#
#
#
# Elastic Compliance Matrix: (Units=1/GPa)
#
#
# Indices 1 2 3 4 5 6 
#
# 1 0.015237 -0.001080 -0.003499 0.000000 -0.010169 0.000000
# 2 -0.001080 0.013198 -0.003306 0.000000 -0.001134 0.000000
# 3 -0.003499 -0.003306 0.019590 0.000000 -0.007166 0.000000
# 4 0.000000 0.000000 0.000000 0.059903 0.000000 -0.022732
# 5 -0.010169 -0.001134 -0.007166 0.000000 0.039146 0.000000
# 6 0.000000 0.000000 0.000000 -0.022732 0.000000 0.003171
#
#
# Mechanical properties :
#
#
# Convention : Reuss Voigt Hill
#
# Bulk Modulus (GPa) = 31.00340 43.12638 37.06489
# Shear Modulus (GPa) = 28.28584 -19.35695 4.46445
#
# Velocity S-wave (km/s) = 3.39751 -2.81057 1.34977
# Velocity P-wave (km/s) = 5.29555 2.65836 4.18985
#
# Compressibility (1/GPa) = 0.03225453
#
# Stress axis : x y z
#
# Youngs Moduli (GPa) = 65.62958 75.77109 51.04531
#
# Poissons Ratio (x) = 0.08186 0.17860
# Poissons Ratio (y) = 0.07091 0.16876
# Poissons Ratio (z) = 0.22962 0.25051
#
# Static dielectric constant tensor:
#      x y z
#    x 2.106450 0.000000 -0.103100 
#    y 0.000000 1.915520 0.000000 
#    z -0.103100 0.000000 1.968430 
# 
# From -- ./inp_files/46626.got.cif
#   From: 2010.05.17/outbox.cif.g08.bks.cpg/sg12_24_cif.got.tgz:46626.got - 2010.06.03 13:09:07.
