data_PCOD9212249
_publ_section_title
;
Structure prediction by ZEFSAII (Michael W. Deem and Ramdas Pophale) SiO2 
 PCOD9212249
Probable space group: C 2/M
;
_chemical_formula_sum "Si O2"
_cell_formula_units_Z 40
_cell_length_a 18.079080
_cell_length_b 11.407949
_cell_length_c 17.970336
_cell_angle_alpha 90.000000
_cell_angle_beta 28.238080
_cell_angle_gamma 90.000000
_cell_volume 1753.583499
_symmetry_space_group_name_H-M "C 2/M"
_symmetry_group_IT_number 12
_symmetry_cell_setting 'monoclinic'
loop_
_space_group_symop_operation_xyz
x,y,z
-x,y,-z
-x,-y,-z
x,-y,z
1/2+x,1/2+y,z
1/2-x,1/2+y,-z
1/2-x,1/2-y,-z
1/2+x,1/2-y,z
loop_
_atom_site_type_symbol
_atom_site_label
_atom_site_fract_x
_atom_site_fract_y
_atom_site_fract_z
Si Si1 0.612207 0.870322 0.808751
Si Si2 0.604767 0.637435 0.337873
Si Si3 0.956636 0.123580 0.952152
Si Si4 0.349685 0.201920 0.841399
Si Si5 0.688832 0.874278 0.581318
O O1 0.716551 0.853708 0.789658
O O2 0.518833 0.751731 0.874819
O O3 0.723323 0.878387 0.638510
O O4 0.533376 0.000000 0.882129
O O5 0.500000 0.684598 0.500000
O O6 0.570692 0.500000 0.359883
O O7 0.593613 0.700476 0.268461
O O8 0.018784 0.000000 0.863421
O O9 0.773739 0.127229 0.096538
O O10 0.000000 0.118490 0.000000
O O11 0.501484 0.133834 0.735408
O O12 0.250000 0.250000 0.000000
O O13 0.750000 0.750000 0.500000
O O14 0.742863 0.000000 0.501119
#
# Coordination Sequence:
#
# PCOD9212249 Si02
#       5
#     8   8   8   8   8
#     4  10  21  41  66  92 128 177 234 286 336 406
#     4  10  22  41  68  99 134 181 239 290 345 415
#     4  11  23  41  64  94 135 177 220 278 346 416
#     4  12  24  42  70 104 141 183 231 294 355 418
#     4  11  25  45  68 100 141 185 233 291 354 427
#
# _framework density 22.810434999999998
#
# number of rings (size 3 to 8) (size 9 to 14) (size 15 to 20)
#    0.000    1.200    4.000    1.800    0.000    6.000 
#    0.000    0.000    0.000    3.000    0.000    0.000 
#    0.000    0.000    0.000    0.000    0.000    0.000 
#
# Total GULP energy -111530.516743 kJ/mol
# GULP energy per Si atom -5576.525837 kJ/mol
# Density = 2.275852 g / cm^3
# Si number density = 22.810435 Si / 1000 Ang^3
#
#
#
# Elastic Constant Matrix: (Units=GPa)
#
#
# Indices 1 2 3 4 5 6 
#
# 1 111.7191 17.0927 16.0164 -0.0001 1.0925 0.0000
# 2 17.0927 212.7965 54.6203 0.0000 7.3183 0.0000
# 3 16.0164 54.6203 71.3102 0.0000 13.6468 0.0000
# 4 -0.0001 0.0000 0.0000 33.1394 0.0001 1.7020
# 5 1.0925 7.3183 13.6468 0.0001 47.8829 0.0000
# 6 0.0000 0.0000 0.0000 1.7020 0.0000 -6.5894
#
#
#
# Elastic Compliance Matrix: (Units=1/GPa)
#
#
# Indices 1 2 3 4 5 6 
#
# 1 0.009267 -0.000254 -0.001960 0.000000 0.000386 0.000000
# 2 -0.000254 0.005864 -0.004510 0.000000 0.000395 0.000000
# 3 -0.001960 -0.004510 0.018803 0.000000 -0.004625 0.000000
# 4 0.000000 0.000000 0.000000 0.029780 0.000000 0.007692
# 5 0.000386 0.000395 -0.004625 0.000000 0.022133 0.000000
# 6 0.000000 0.000000 0.000000 0.007692 0.000000 -0.149772
#
#
# Mechanical properties :
#
#
# Convention : Reuss Voigt Hill
#
# Bulk Modulus (GPa) = 48.81729 63.47608 56.14669
# Shear Modulus (GPa) = -114.55687 35.42634 -39.56527
#
# Velocity S-wave (km/s) = -7.09438 3.94518 -4.16928
# Velocity P-wave (km/s) = 6.75717 6.97429 1.22094
#
# Compressibility (1/GPa) = 0.02048454
#
# Stress axis : x y z
#
# Youngs Moduli (GPa) = 107.90714 170.53941 53.18322
#
# Poissons Ratio (x) = 0.04340 0.10426
# Poissons Ratio (y) = 0.02746 0.23984
# Poissons Ratio (z) = 0.21154 0.76910
#
# Static dielectric constant tensor:
#      x y z
#    x 1.832990 0.000000 -0.004740 
#    y 0.000000 1.935090 0.000000 
#    z -0.004740 0.000000 1.935850 
# 
# From -- ./inp_files/277183.got.cif
#   From: 2010.05.17/outbox.cif.g08.bks.cpg/sg12_139_cif.got.tgz:277183.got - 2010.06.03 13:09:07.
