data_PCOD9212553
_publ_section_title
;
Structure prediction by ZEFSAII (Michael W. Deem and Ramdas Pophale) SiO2 
 PCOD9212553
Probable space group: C 2/M
;
_chemical_formula_sum "Si O2"
_cell_formula_units_Z 52
_cell_length_a 15.366380
_cell_length_b 14.931520
_cell_length_c 18.136039
_cell_angle_alpha 90.000000
_cell_angle_beta 141.731124
_cell_angle_gamma 90.000000
_cell_volume 2577.246872
_symmetry_space_group_name_H-M "C 2/M"
_symmetry_group_IT_number 12
_symmetry_cell_setting 'monoclinic'
loop_
_space_group_symop_operation_xyz
x,y,z
-x,y,-z
-x,-y,-z
x,-y,z
1/2+x,1/2+y,z
1/2-x,1/2+y,-z
1/2-x,1/2-y,-z
1/2+x,1/2-y,z
loop_
_atom_site_type_symbol
_atom_site_label
_atom_site_fract_x
_atom_site_fract_y
_atom_site_fract_z
Si Si1 0.432499 0.099427 0.558932
Si Si2 0.142995 0.102047 0.640756
Si Si3 0.654357 0.653671 0.291592
Si Si4 0.714674 0.839319 0.930687
Si Si5 0.894636 0.351123 0.699107
Si Si6 0.800607 0.280912 0.247918
Si Si7 0.577214 0.500000 0.881741
O O1 0.301373 0.117092 0.419714
O O2 0.381459 0.108465 0.609291
O O3 0.555374 0.170987 0.631888
O O4 0.490633 0.000000 0.585932
O O5 0.272929 0.112574 0.670824
O O6 0.171561 0.175421 0.722653
O O7 0.000000 0.121718 0.500000
O O8 0.134018 0.000000 0.662213
O O9 0.618836 0.743278 0.313438
O O10 0.681132 0.687023 0.225449
O O11 0.537486 0.578586 0.217442
O O12 0.551842 0.867486 0.832789
O O13 0.730549 0.812552 0.855152
O O14 0.750000 0.750000 0.000000
O O15 0.813385 0.920821 0.018298
#
# Coordination Sequence:
#
# PCOD9212553 Si02
#       7
#     8   8   8   8   8   8   4
#     4  11  22  37  65 100 132 165 205 256 326 387
#     4  10  21  42  67 101 130 164 209 265 329 387
#     4  11  22  41  62  96 130 164 211 263 321 382
#     4  11  25  47  63  91 127 172 221 264 308 375
#     4  10  22  42  67  91 129 171 207 265 320 372
#     4  10  24  40  66  93 133 168 208 264 321 376
#     4  12  26  43  65  92 125 171 220 263 315 373
#
# _framework density 20.176570000000002
#
# number of rings (size 3 to 8) (size 9 to 14) (size 15 to 20)
#    0.000    1.385    2.308    3.231    6.462    3.077 
#    1.385    0.000    0.000    0.923    0.000    0.000 
#    0.000    0.000    0.000    0.000    0.000    0.000 
#
# Total GULP energy -144829.304251 kJ/mol
# GULP energy per Si atom -5570.357856 kJ/mol
# Density = 2.013065 g / cm^3
# Si number density = 20.176570 Si / 1000 Ang^3
#
#
#
# Elastic Constant Matrix: (Units=GPa)
#
#
# Indices 1 2 3 4 5 6 
#
# 1 43.7137 9.8470 26.5272 0.0001 -0.0352 0.0000
# 2 9.8470 160.6177 31.3984 0.0000 -6.6879 0.0000
# 3 26.5272 31.3984 83.5771 0.0001 -7.2104 0.0001
# 4 0.0001 0.0000 0.0001 44.5752 0.0001 18.4738
# 5 -0.0352 -6.6879 -7.2104 0.0001 3.4526 0.0001
# 6 0.0000 0.0000 0.0001 18.4738 0.0001 8.4645
#
#
#
# Elastic Compliance Matrix: (Units=1/GPa)
#
#
# Indices 1 2 3 4 5 6 
#
# 1 0.029909 -0.000637 -0.011385 0.000000 -0.024705 0.000001
# 2 -0.000637 0.006995 -0.001534 0.000000 0.010341 0.000000
# 3 -0.011385 -0.001534 0.019380 0.000001 0.037387 -0.000002
# 4 0.000000 0.000000 0.000001 0.234953 0.000006 -0.512783
# 5 -0.024705 0.010341 0.037387 0.000006 0.387495 -0.000015
# 6 0.000001 0.000000 -0.000002 -0.512783 -0.000015 1.237286
#
#
# Mechanical properties :
#
#
# Convention : Reuss Voigt Hill
#
# Bulk Modulus (GPa) = 34.27824 47.05042 40.66433
# Shear Modulus (GPa) = 2.56036 25.97419 14.26727
#
# Velocity S-wave (km/s) = 1.12771 3.59185 2.66206
# Velocity P-wave (km/s) = 4.32685 6.36960 5.44488
#
# Compressibility (1/GPa) = 0.02917302
#
# Stress axis : x y z
#
# Youngs Moduli (GPa) = 33.43522 142.95087 51.59874
#
# Poissons Ratio (x) = 0.09101 0.58746
# Poissons Ratio (y) = 0.02129 0.07915
# Poissons Ratio (z) = 0.38066 0.21927
#
# Static dielectric constant tensor:
#      x y z
#    x 1.744940 0.000000 -0.004470 
#    y 0.000000 1.715940 0.000000 
#    z -0.004470 0.000000 1.681990 
# 
# From -- ./inp_files/270768.got.cif
#   From: 2010.05.17/outbox.cif.g08.bks.cpg/sg12_136_cif.got.tgz:270768.got - 2010.06.03 13:09:07.
