data_PCOD9212447
_publ_section_title
;
Structure prediction by ZEFSAII (Michael W. Deem and Ramdas Pophale) SiO2 
 PCOD9212447
Probable space group: C 2/M
;
_chemical_formula_sum "Si O2"
_cell_formula_units_Z 64
_cell_length_a 12.334602
_cell_length_b 26.461017
_cell_length_c 15.645988
_cell_angle_alpha 90.000000
_cell_angle_beta 144.386267
_cell_angle_gamma 90.000000
_cell_volume 2973.683633
_symmetry_space_group_name_H-M "C 2/M"
_symmetry_group_IT_number 12
_symmetry_cell_setting 'monoclinic'
loop_
_space_group_symop_operation_xyz
x,y,z
-x,y,-z
-x,-y,-z
x,-y,z
1/2+x,1/2+y,z
1/2-x,1/2+y,-z
1/2-x,1/2-y,-z
1/2+x,1/2-y,z
loop_
_atom_site_type_symbol
_atom_site_label
_atom_site_fract_x
_atom_site_fract_y
_atom_site_fract_z
Si Si1 0.834482 0.395928 0.825846
Si Si2 0.399422 0.206507 0.603628
Si Si3 0.946594 0.059572 0.225543
Si Si4 0.121615 0.560282 0.880265
Si Si5 0.194742 0.883088 0.144432
Si Si6 0.280635 0.299296 0.342414
Si Si7 0.307781 0.729544 0.848009
Si Si8 0.810581 0.381776 0.411344
O O1 0.671868 0.428391 0.765480
O O2 0.751369 0.341607 0.749535
O O3 0.936808 0.422251 0.811456
O O4 0.000000 0.390278 0.000000
O O5 0.250000 0.250000 0.500000
O O6 0.339785 0.181936 0.654632
O O7 0.592195 0.237388 0.733048
O O8 0.380877 0.165474 0.515021
O O9 0.143906 0.088421 0.350648
O O10 0.980891 0.000000 0.239494
O O11 0.803214 0.074001 0.055927
O O12 0.120699 0.500000 0.870630
O O13 0.148269 0.587191 0.806038
O O14 0.181026 0.826071 0.101732
O O15 0.220713 0.871735 0.260675
O O16 0.000000 0.910116 0.000000
O O17 0.500000 0.294746 0.500000
O O18 0.202898 0.245686 0.258513
O O19 0.500000 0.755222 0.000000
O O20 0.000000 0.409387 0.500000
#
# Coordination Sequence:
#
# PCOD9212447 Si02
#       8
#     8   8   8   8   8   8   8   8
#     4  10  22  42  69 102 138 175 231 291 344 409
#     4  12  25  43  70  98 135 186 229 277 344 415
#     4  10  22  42  69 102 137 177 225 285 351 411
#     4  10  21  41  72 104 135 178 230 289 353 413
#     4  11  22  41  67 100 137 176 226 285 343 407
#     4  12  24  43  68  97 137 185 233 278 346 420
#     4  11  25  44  66 100 137 176 231 285 340 403
#     4  12  25  43  69  94 136 179 225 277 340 410
#
# _framework density 21.522127999999999
#
# number of rings (size 3 to 8) (size 9 to 14) (size 15 to 20)
#    0.000    1.000    3.750    3.000    0.000    3.000 
#    0.000    0.000    0.000    1.500    0.000    0.000 
#    0.000    0.000    0.000    0.000    0.000    0.000 
#
# Total GULP energy -178182.531142 kJ/mol
# GULP energy per Si atom -5568.204098 kJ/mol
# Density = 2.147314 g / cm^3
# Si number density = 21.522128 Si / 1000 Ang^3
#
#
#
# Elastic Constant Matrix: (Units=GPa)
#
#
# Indices 1 2 3 4 5 6 
#
# 1 146.8128 35.2775 56.0990 -0.0001 16.0990 -0.0001
# 2 35.2775 67.3981 22.6915 0.0000 5.5097 0.0000
# 3 56.0990 22.6915 90.2083 -0.0001 30.3199 -0.0002
# 4 -0.0001 0.0000 -0.0001 18.2924 -0.0001 -6.4107
# 5 16.0990 5.5097 30.3199 -0.0001 46.2597 -0.0001
# 6 -0.0001 0.0000 -0.0002 -6.4107 -0.0001 20.7915
#
#
#
# Elastic Compliance Matrix: (Units=1/GPa)
#
#
# Indices 1 2 3 4 5 6 
#
# 1 0.009565 -0.003263 -0.005309 0.000000 0.000539 0.000000
# 2 -0.003263 0.017356 -0.002595 0.000000 0.000769 0.000000
# 3 -0.005309 -0.002595 0.018359 0.000000 -0.009877 0.000000
# 4 0.000000 0.000000 0.000000 0.061290 0.000000 0.018898
# 5 0.000539 0.000769 -0.009877 0.000000 0.027811 0.000000
# 6 0.000000 0.000000 0.000000 0.018898 0.000000 0.053923
#
#
# Mechanical properties :
#
#
# Convention : Reuss Voigt Hill
#
# Bulk Modulus (GPa) = 43.58028 59.17282 51.37655
# Shear Modulus (GPa) = 22.90552 29.75880 26.33216
#
# Velocity S-wave (km/s) = 3.26587 3.72251 3.50164
# Velocity P-wave (km/s) = 5.87488 6.78452 6.34602
#
# Compressibility (1/GPa) = 0.02294616
#
# Stress axis : x y z
#
# Youngs Moduli (GPa) = 104.54916 57.61678 54.46841
#
# Poissons Ratio (x) = 0.18802 0.28916
# Poissons Ratio (y) = 0.34117 0.14135
# Poissons Ratio (z) = 0.55502 0.14952
#
# Static dielectric constant tensor:
#      x y z
#    x 2.194970 0.000000 -0.054510 
#    y 0.000000 1.857880 0.000000 
#    z -0.054510 0.000000 2.018180 
# 
# From -- ./inp_files/209435.got.cif
#   From: 2010.05.17/outbox.cif.g08.bks.cpg/sg12_105_cif.got.tgz:209435.got - 2010.06.03 13:09:07.
