data_PCOD9212903
_publ_section_title
;
Structure prediction by ZEFSAII (Michael W. Deem and Ramdas Pophale) SiO2 
 PCOD9212903
Probable space group: C 2/M
;
_chemical_formula_sum "Si O2"
_cell_formula_units_Z 28
_cell_length_a 13.820585
_cell_length_b 5.744181
_cell_length_c 26.170381
_cell_angle_alpha 90.000000
_cell_angle_beta 150.883069
_cell_angle_gamma 90.000000
_cell_volume 1010.952952
_symmetry_space_group_name_H-M "C 2/M"
_symmetry_group_IT_number 12
_symmetry_cell_setting 'monoclinic'
loop_
_space_group_symop_operation_xyz
x,y,z
-x,y,-z
-x,-y,-z
x,-y,z
1/2+x,1/2+y,z
1/2-x,1/2+y,-z
1/2-x,1/2-y,-z
1/2+x,1/2-y,z
loop_
_atom_site_type_symbol
_atom_site_label
_atom_site_fract_x
_atom_site_fract_y
_atom_site_fract_z
Si Si1 0.633607 0.000000 0.510347
Si Si2 0.098048 0.500000 0.806340
Si Si3 0.146684 0.000000 0.518898
Si Si4 0.377206 0.749706 0.006509
Si Si5 0.249163 0.000000 0.722313
Si Si6 0.315716 0.000000 0.270983
O O1 0.500000 0.000000 0.500000
O O2 0.745933 0.245888 0.562803
O O3 0.485145 0.000000 0.393618
O O4 0.217792 0.715446 0.887125
O O5 0.100394 0.500000 0.747262
O O6 0.880918 0.500000 0.731599
O O7 0.984621 0.000000 0.398226
O O8 0.000000 0.000000 0.500000
O O9 0.488215 0.500000 0.055704
O O10 0.475591 0.000000 0.046888
O O11 0.250000 0.750000 0.000000
O O12 0.292575 0.750417 0.768903
#
# Coordination Sequence:
#
# PCOD9212903 Si02
#       6
#     4   4   4   8   4   4
#     4   8  14  28  49  68  97 138 168 206 263 311
#     4  10  22  34  62  76 112 142 182 228 268 320
#     4   8  14  28  49  68  97 138 168 206 263 311
#     4   8  16  30  52  78  98 141 179 209 275 324
#     4  10  22  35  53  83 110 140 181 223 275 320
#     4  10  22  35  53  83 110 140 181 223 275 320
#
# _framework density 27.696639000000001
#
# number of rings (size 3 to 8) (size 9 to 14) (size 15 to 20)
#    0.857    2.286    0.000    0.000    4.000    0.000 
#    0.000    0.000    0.000   32.571    0.000    0.000 
#    0.000    0.000    0.000    0.000    0.000    0.000 
#
# Total GULP energy -78275.849639 kJ/mol
# GULP energy per Si atom -5591.132117 kJ/mol
# Density = 2.763360 g / cm^3
# Si number density = 27.696639 Si / 1000 Ang^3
#
#
#
# Elastic Constant Matrix: (Units=GPa)
#
#
# Indices 1 2 3 4 5 6 
#
# 1 214.7610 63.5845 46.9199 -0.0007 -52.9769 0.0005
# 2 63.5845 341.2456 62.6566 -0.0029 6.3904 0.0027
# 3 46.9199 62.6566 94.9083 -0.0005 -19.9204 0.0006
# 4 -0.0007 -0.0029 -0.0005 51.7247 0.0004 -0.1783
# 5 -52.9769 6.3904 -19.9204 0.0004 50.4252 -0.0004
# 6 0.0005 0.0027 0.0006 -0.1783 -0.0004 34.1898
#
#
#
# Elastic Compliance Matrix: (Units=1/GPa)
#
#
# Indices 1 2 3 4 5 6 
#
# 1 0.007018 -0.001223 -0.001180 0.000000 0.007063 0.000000
# 2 -0.001223 0.003642 -0.002362 0.000000 -0.002680 0.000000
# 3 -0.001180 -0.002362 0.013610 0.000000 0.004437 0.000000
# 4 0.000000 0.000000 0.000000 0.019333 0.000000 0.000101
# 5 0.007063 -0.002680 0.004437 0.000000 0.029344 0.000000
# 6 0.000000 0.000000 0.000000 0.000101 0.000000 0.029249
#
#
# Mechanical properties :
#
#
# Convention : Reuss Voigt Hill
#
# Bulk Modulus (GPa) = 67.84036 110.80411 89.32223
# Shear Modulus (GPa) = 42.86625 59.11822 50.99224
#
# Velocity S-wave (km/s) = 3.93836 4.62507 4.29546
# Velocity P-wave (km/s) = 6.72519 8.28341 7.54463
#
# Compressibility (1/GPa) = 0.01474049
#
# Stress axis : x y z
#
# Youngs Moduli (GPa) = 142.48066 274.54882 73.47280
#
# Poissons Ratio (x) = 0.33589 0.08667
# Poissons Ratio (y) = 0.17431 0.17357
# Poissons Ratio (z) = 0.16808 0.64857
#
# Static dielectric constant tensor:
#      x y z
#    x 2.063810 0.000000 -0.024030 
#    y 0.000000 2.139980 0.000000 
#    z -0.024030 0.000000 2.315470 
# 
# From -- ./inp_files/266435.got.cif
#   From: 2010.05.17/outbox.cif.g08.bks.cpg/sg12_134_cif.got.tgz:266435.got - 2010.06.03 13:09:07.
