data_PCOD9212884
_publ_section_title
;
Structure prediction by ZEFSAII (Michael W. Deem and Ramdas Pophale) SiO2 
 PCOD9212884
Probable space group: C 2/M
;
_chemical_formula_sum "Si O2"
_cell_formula_units_Z 40
_cell_length_a 18.306221
_cell_length_b 12.034974
_cell_length_c 17.760209
_cell_angle_alpha 90.000000
_cell_angle_beta 24.753200
_cell_angle_gamma 90.000000
_cell_volume 1638.346422
_symmetry_space_group_name_H-M "C 2/M"
_symmetry_group_IT_number 12
_symmetry_cell_setting 'monoclinic'
loop_
_space_group_symop_operation_xyz
x,y,z
-x,y,-z
-x,-y,-z
x,-y,z
1/2+x,1/2+y,z
1/2-x,1/2+y,-z
1/2-x,1/2-y,-z
1/2+x,1/2-y,z
loop_
_atom_site_type_symbol
_atom_site_label
_atom_site_fract_x
_atom_site_fract_y
_atom_site_fract_z
Si Si1 0.082972 0.761356 0.060938
Si Si2 0.267069 0.129350 0.211625
Si Si3 0.522829 0.000000 0.386111
Si Si4 0.507501 0.806402 0.286516
Si Si5 0.560004 0.500000 0.029687
Si Si6 0.121028 0.872849 0.499138
O O1 0.108725 0.695765 0.959555
O O2 0.285576 0.786376 0.893972
O O3 0.005504 0.884968 0.121171
O O4 0.000250 0.682946 0.203010
O O5 0.237440 0.176266 0.322939
O O6 0.075170 0.129140 0.352422
O O7 0.313310 0.000000 0.174571
O O8 0.500000 0.000000 0.500000
O O9 0.455474 0.895037 0.399712
O O10 0.730102 0.000000 0.175815
O O11 0.398910 0.696824 0.407625
O O12 0.500000 0.500000 0.000000
O O13 0.169111 0.000000 0.467778
#
# Coordination Sequence:
#
# PCOD9212884 Si02
#       6
#     8   8   4   8   4   8
#     4   9  18  30  48  72 103 140 180 225 267 319
#     4   8  14  24  41  65  96 130 168 209 263 317
#     4  10  22  34  56  86 114 142 178 231 287 330
#     4   9  18  28  46  75 109 134 173 228 280 315
#     4  10  22  38  56  78 110 153 191 218 266 340
#     4   8  14  23  39  64  99 135 161 205 268 323
#
# _framework density 24.414860999999998
#
# number of rings (size 3 to 8) (size 9 to 14) (size 15 to 20)
#    0.000    3.200    0.000    1.200   11.200    0.000 
#    0.000    0.000    0.000    1.800    0.000    0.000 
#    0.000    0.000    0.000    0.000    0.000    0.000 
#
# Total GULP energy -111623.514390 kJ/mol
# GULP energy per Si atom -5581.175720 kJ/mol
# Density = 2.435929 g / cm^3
# Si number density = 24.414861 Si / 1000 Ang^3
#
#
#
# Elastic Constant Matrix: (Units=GPa)
#
#
# Indices 1 2 3 4 5 6 
#
# 1 104.8935 28.1022 42.1081 -0.0001 39.9423 0.0001
# 2 28.1022 110.0203 49.9909 -0.0004 44.8723 0.0005
# 3 42.1081 49.9909 114.7577 0.0006 32.4645 0.0001
# 4 -0.0001 -0.0004 0.0006 -7.9314 0.0000 22.2871
# 5 39.9423 44.8723 32.4645 0.0000 64.1417 0.0000
# 6 0.0001 0.0005 0.0001 22.2871 0.0000 17.1012
#
#
#
# Elastic Compliance Matrix: (Units=1/GPa)
#
#
# Indices 1 2 3 4 5 6 
#
# 1 0.013395 0.001115 -0.003292 0.000000 -0.007455 0.000000
# 2 0.001115 0.014165 -0.004178 0.000000 -0.008489 0.000000
# 3 -0.003292 -0.004178 0.012062 0.000000 -0.001132 0.000000
# 4 0.000000 0.000000 0.000000 -0.027044 0.000000 0.035245
# 5 -0.007455 -0.008489 -0.001132 0.000000 0.026745 0.000000
# 6 0.000000 0.000000 0.000000 0.035245 0.000000 0.012543
#
#
# Mechanical properties :
#
#
# Convention : Reuss Voigt Hill
#
# Bulk Modulus (GPa) = 37.15710 63.34152 50.24931
# Shear Modulus (GPa) = 67.98298 28.62698 48.30498
#
# Velocity S-wave (km/s) = 5.28255 3.42793 4.45287
# Velocity P-wave (km/s) = 7.24288 6.45506 6.86028
#
# Compressibility (1/GPa) = 0.02691276
#
# Stress axis : x y z
#
# Youngs Moduli (GPa) = 74.65429 70.59461 82.90296
#
# Poissons Ratio (x) = -0.07870 0.27289
# Poissons Ratio (y) = -0.08323 0.34639
# Poissons Ratio (z) = 0.24574 0.29496
#
# Static dielectric constant tensor:
#      x y z
#    x 2.010560 0.000000 -0.097690 
#    y 0.000000 1.941590 0.000000 
#    z -0.097690 0.000000 1.960700 
# 
# From -- ./inp_files/283177.got.cif
#   From: 2010.05.17/outbox.cif.g08.bks.cpg/sg12_142_cif.got.tgz:283177.got - 2010.06.03 13:09:07.
