data_PCOD9212636
_publ_section_title
;
Structure prediction by ZEFSAII (Michael W. Deem and Ramdas Pophale) SiO2 
 PCOD9212636
Probable space group: C 2/M
;
_chemical_formula_sum "Si O2"
_cell_formula_units_Z 48
_cell_length_a 22.805602
_cell_length_b 11.577054
_cell_length_c 14.053745
_cell_angle_alpha 90.000000
_cell_angle_beta 149.290673
_cell_angle_gamma 90.000000
_cell_volume 1894.885494
_symmetry_space_group_name_H-M "C 2/M"
_symmetry_group_IT_number 12
_symmetry_cell_setting 'monoclinic'
loop_
_space_group_symop_operation_xyz
x,y,z
-x,y,-z
-x,-y,-z
x,-y,z
1/2+x,1/2+y,z
1/2-x,1/2+y,-z
1/2-x,1/2-y,-z
1/2+x,1/2-y,z
loop_
_atom_site_type_symbol
_atom_site_label
_atom_site_fract_x
_atom_site_fract_y
_atom_site_fract_z
Si Si1 0.016788 0.251080 0.263773
Si Si2 0.369360 0.500000 0.777503
Si Si3 0.630212 0.000000 0.649350
Si Si4 0.232795 0.781965 0.086063
Si Si5 0.871462 0.739268 0.778958
Si Si6 0.949186 0.500000 0.671148
Si Si7 0.893476 0.868056 0.425410
Si Si8 0.770541 0.500000 0.597536
O O1 0.106054 0.248443 0.302661
O O2 0.979276 0.383728 0.225778
O O3 0.071605 0.208909 0.436986
O O4 0.899112 0.186299 0.078044
O O5 0.328783 0.368099 0.750096
O O6 0.345506 0.500000 0.628902
O O7 0.500000 0.500000 0.000000
O O8 0.500000 0.000000 0.500000
O O9 0.690259 0.888776 0.776018
O O10 0.625368 0.000000 0.528597
O O11 0.280760 0.677144 0.215729
O O12 0.250000 0.750000 0.000000
O O13 0.798701 0.621101 0.690532
O O14 0.000000 0.720509 0.000000
O O15 0.865950 0.500000 0.645737
O O16 0.000000 0.860898 0.500000
O O17 0.882473 0.000000 0.441509
#
# Coordination Sequence:
#
# PCOD9212636 Si02
#       8
#     8   4   4   8   8   4   8   4
#     4  11  24  43  65  94 130 166 218 264 323 389
#     4  10  22  41  65  93 128 166 216 271 321 389
#     4  12  24  40  61  88 127 168 216 260 310 380
#     4  12  25  39  65  93 122 173 210 261 322 376
#     4  10  23  43  66  97 130 169 215 276 328 393
#     4  10  22  43  64  91 124 165 212 269 311 387
#     4  11  24  43  62  90 134 167 211 267 319 382
#     4  10  21  42  70  91 127 171 215 265 338 385
#
# _framework density 25.331344999999999
#
# number of rings (size 3 to 8) (size 9 to 14) (size 15 to 20)
#    0.000    1.167    3.333    2.250    4.667    2.667 
#    3.000    0.000    0.000    0.000    0.000    0.000 
#    0.000    0.000    0.000    0.000    0.000    0.000 
#
# Total GULP energy -134473.360708 kJ/mol
# GULP energy per Si atom -5603.056696 kJ/mol
# Density = 2.527369 g / cm^3
# Si number density = 25.331345 Si / 1000 Ang^3
#
#
#
# Elastic Constant Matrix: (Units=GPa)
#
#
# Indices 1 2 3 4 5 6 
#
# 1 84.4424 24.7155 18.9069 0.0000 0.2813 0.0000
# 2 24.7155 180.7564 50.1622 0.0000 0.6045 0.0000
# 3 18.9069 50.1622 132.8028 0.0000 1.9395 0.0000
# 4 0.0000 0.0000 0.0000 49.4194 0.0000 0.6663
# 5 0.2813 0.6045 1.9395 0.0000 42.4791 0.0000
# 6 0.0000 0.0000 0.0000 0.6663 0.0000 29.8398
#
#
#
# Elastic Compliance Matrix: (Units=1/GPa)
#
#
# Indices 1 2 3 4 5 6 
#
# 1 0.012525 -0.001360 -0.001269 0.000000 -0.000006 0.000000
# 2 -0.001360 0.006328 -0.002197 0.000000 0.000019 0.000000
# 3 -0.001269 -0.002197 0.008546 0.000000 -0.000351 0.000000
# 4 0.000000 0.000000 0.000000 0.020241 0.000000 -0.000452
# 5 -0.000006 0.000019 -0.000351 0.000000 0.023557 0.000000
# 6 0.000000 0.000000 0.000000 -0.000452 0.000000 0.033522
#
#
# Mechanical properties :
#
#
# Convention : Reuss Voigt Hill
#
# Bulk Modulus (GPa) = 56.35220 65.06342 60.70781
# Shear Modulus (GPa) = 41.56755 44.62881 43.09818
#
# Velocity S-wave (km/s) = 4.05526 4.20194 4.12925
# Velocity P-wave (km/s) = 6.64990 7.02014 6.83753
#
# Compressibility (1/GPa) = 0.01774554
#
# Stress axis : x y z
#
# Youngs Moduli (GPa) = 79.84194 158.03081 117.02000
#
# Poissons Ratio (x) = 0.21497 0.14852
# Poissons Ratio (y) = 0.10861 0.25707
# Poissons Ratio (z) = 0.10134 0.34716
#
# Static dielectric constant tensor:
#      x y z
#    x 2.040130 0.000000 0.000550 
#    y 0.000000 2.111820 0.000000 
#    z 0.000550 0.000000 1.937040 
# 
# From -- ./inp_files/246041.got.cif
#   From: 2010.05.17/outbox.cif.g08.bks.cpg/sg12_124_cif.got.tgz:246041.got - 2010.06.03 13:09:07.
