data_PCOD9212628
_publ_section_title
;
Structure prediction by ZEFSAII (Michael W. Deem and Ramdas Pophale) SiO2 
 PCOD9212628
Probable space group: C 2/M
;
_chemical_formula_sum "Si O2"
_cell_formula_units_Z 46
_cell_length_a 34.188169
_cell_length_b 14.265489
_cell_length_c 16.389187
_cell_angle_alpha 90.000000
_cell_angle_beta 17.797409
_cell_angle_gamma 90.000000
_cell_volume 2443.135251
_symmetry_space_group_name_H-M "C 2/M"
_symmetry_group_IT_number 12
_symmetry_cell_setting 'monoclinic'
loop_
_space_group_symop_operation_xyz
x,y,z
-x,y,-z
-x,-y,-z
x,-y,z
1/2+x,1/2+y,z
1/2-x,1/2+y,-z
1/2-x,1/2-y,-z
1/2+x,1/2-y,z
loop_
_atom_site_type_symbol
_atom_site_label
_atom_site_fract_x
_atom_site_fract_y
_atom_site_fract_z
Si Si1 0.194669 0.500000 0.966843
Si Si2 0.596980 0.000000 0.475138
Si Si3 0.623684 0.287141 0.204458
Si Si4 0.091800 0.321928 0.604220
Si Si5 0.000000 0.500000 0.000000
Si Si6 0.869955 0.685528 0.282609
Si Si7 0.685390 0.500000 0.093032
Si Si8 0.183230 0.698165 0.912119
O O1 0.043247 0.500000 0.285702
O O2 0.269372 0.500000 0.903079
O O3 0.217889 0.592580 0.868324
O O4 0.608081 0.910661 0.512161
O O5 0.698571 0.000000 0.201564
O O6 0.500000 0.252570 0.500000
O O7 0.617820 0.400217 0.212969
O O8 0.750000 0.250000 0.000000
O O9 0.635192 0.247629 0.090781
O O10 0.128220 0.339943 0.625184
O O11 0.190749 0.245780 0.373728
O O12 0.941026 0.297511 0.899082
O O13 0.106154 0.584695 0.807606
O O14 0.750000 0.750000 0.500000
O O15 0.000000 0.740256 0.000000
#
# Coordination Sequence:
#
# PCOD9212628 Si02
#       8
#     4   4   8   8   2   8   4   8
#     4  10  23  36  60  84 125 162 216 260 300 373
#     4  10  22  37  60  92 119 163 208 253 319 360
#     4  12  25  40  60  83 118 162 210 265 309 365
#     4  11  22  41  64  92 128 158 207 261 313 383
#     4   8  22  40  70 100 136 168 218 258 326 406
#     4  10  21  42  70 101 132 173 213 265 336 407
#     4  12  22  39  57  87 121 164 210 262 311 365
#     4  11  23  40  59  92 121 164 211 260 318 363
#
# _framework density 18.828265999999999
#
# number of rings (size 3 to 8) (size 9 to 14) (size 15 to 20)
#    0.522    0.696    3.478    3.130    2.435    0.000 
#    0.000    1.304    0.000    0.000    0.000    0.000 
#    0.000    0.000    0.000    0.000    0.000    0.000 
#
# Total GULP energy -128067.504897 kJ/mol
# GULP energy per Si atom -5568.152387 kJ/mol
# Density = 1.878541 g / cm^3
# Si number density = 18.828266 Si / 1000 Ang^3
#
#
#
# Elastic Constant Matrix: (Units=GPa)
#
#
# Indices 1 2 3 4 5 6 
#
# 1 31.5442 3.3264 -2.9252 0.0000 -11.7296 0.0000
# 2 3.3264 118.2373 39.3591 0.0000 -11.4890 0.0000
# 3 -2.9252 39.3591 83.5621 0.0000 -1.6180 0.0000
# 4 0.0000 0.0000 0.0000 9.3046 0.0000 -9.8142
# 5 -11.7296 -11.4890 -1.6180 0.0000 28.2542 0.0000
# 6 0.0000 0.0000 0.0000 -9.8142 0.0000 1.2721
#
#
#
# Elastic Compliance Matrix: (Units=1/GPa)
#
#
# Indices 1 2 3 4 5 6 
#
# 1 0.037709 -0.000089 0.001666 0.000000 0.015714 0.000000
# 2 -0.000089 0.010458 -0.004853 0.000000 0.003938 0.000000
# 3 0.001666 -0.004853 0.014302 0.000000 -0.000463 0.000000
# 4 0.000000 0.000000 0.000000 -0.015057 0.000000 -0.116169
# 5 0.015714 0.003938 -0.000463 0.000000 0.043491 0.000000
# 6 0.000000 0.000000 0.000000 -0.116169 0.000000 -0.110137
#
#
# Mechanical properties :
#
#
# Convention : Reuss Voigt Hill
#
# Bulk Modulus (GPa) = 17.88326 34.76271 26.32298
# Shear Modulus (GPa) = 839.51630 20.67175 430.09403
#
# Velocity S-wave (km/s) = 21.13880 3.31707 15.13030
# Velocity P-wave (km/s) = 24.60319 5.75966 17.86744
#
# Compressibility (1/GPa) = 0.05591823
#
# Stress axis : x y z
#
# Youngs Moduli (GPa) = 26.51920 95.61965 69.91912
#
# Poissons Ratio (x) = 0.00847 -0.11649
# Poissons Ratio (y) = 0.00235 0.33930
# Poissons Ratio (z) = -0.04418 0.46402
#
# Static dielectric constant tensor:
#      x y z
#    x 1.661460 0.000000 -0.014940 
#    y 0.000000 1.666770 0.000000 
#    z -0.014940 0.000000 1.670510 
# 
# From -- ./inp_files/251476.got.cif
#   From: 2010.05.17/outbox.cif.g08.bks.cpg/sg12_126_cif.got.tgz:251476.got - 2010.06.03 13:09:07.
