data_PCOD9212033
_publ_section_title
;
Structure prediction by ZEFSAII (Michael W. Deem and Ramdas Pophale) SiO2 
 PCOD9212033
Probable space group: C 2/M
;
_chemical_formula_sum "Si O2"
_cell_formula_units_Z 36
_cell_length_a 16.043438
_cell_length_b 10.078305
_cell_length_c 13.780500
_cell_angle_alpha 90.000000
_cell_angle_beta 111.267933
_cell_angle_gamma 90.000000
_cell_volume 2076.426714
_symmetry_space_group_name_H-M "C 2/M"
_symmetry_group_IT_number 12
_symmetry_cell_setting 'monoclinic'
loop_
_space_group_symop_operation_xyz
x,y,z
-x,y,-z
-x,-y,-z
x,-y,z
1/2+x,1/2+y,z
1/2-x,1/2+y,-z
1/2-x,1/2-y,-z
1/2+x,1/2-y,z
loop_
_atom_site_type_symbol
_atom_site_label
_atom_site_fract_x
_atom_site_fract_y
_atom_site_fract_z
Si Si1 0.555553 0.000000 0.705573
Si Si2 0.015555 0.650851 0.865726
Si Si3 0.327306 0.237522 0.748205
Si Si4 0.805782 0.344468 0.953533
Si Si5 0.156229 0.500000 0.395138
Si Si6 0.724760 0.000000 0.640094
O O1 0.565253 0.875266 0.783635
O O2 0.451364 0.000000 0.630664
O O3 0.629047 0.000000 0.654415
O O4 0.977578 0.500000 0.869557
O O5 0.933782 0.748442 0.814870
O O6 0.910273 0.681040 0.023681
O O7 0.288227 0.186200 0.833820
O O8 0.321246 0.127621 0.661169
O O9 0.279757 0.370941 0.695713
O O10 0.789540 0.500000 0.967134
O O11 0.750000 0.250000 0.000000
O O12 0.207202 0.500000 0.517933
#
# Coordination Sequence:
#
# PCOD9212033 Si02
#       6
#     4   8   8   8   4   4
#     4   8  17  35  60  82 106 144 194 234 269 335
#     4   8  17  36  59  78 111 152 189 212 279 357
#     4  11  21  37  57  83 115 149 187 236 284 336
#     4  11  21  35  59  86 116 149 191 230 282 343
#     4  10  21  41  60  79 108 161 196 228 283 344
#     4  12  23  34  59  89 116 139 199 252 276 313
#
# _framework density 17.337477
#
# number of rings (size 3 to 8) (size 9 to 14) (size 15 to 20)
#    0.667    1.333    2.222    3.000    1.556    1.778 
#    2.000    1.111    0.000    0.000    0.000    9.333 
#    0.000    0.000    0.000    0.000    0.000    0.000 
#
# Total GULP energy -100320.354075 kJ/mol
# GULP energy per Si atom -5573.353004 kJ/mol
# Density = 1.729802 g / cm^3
# Si number density = 17.337477 Si / 1000 Ang^3
#
#
#
# Elastic Constant Matrix: (Units=GPa)
#
#
# Indices 1 2 3 4 5 6 
#
# 1 89.8399 70.6100 58.9117 0.0000 -7.0137 0.0000
# 2 70.6100 119.7242 69.9252 0.0000 0.5765 0.0000
# 3 58.9117 69.9252 144.6898 0.0000 -0.9208 0.0000
# 4 0.0000 0.0000 0.0000 24.4018 0.0000 2.3592
# 5 -7.0137 0.5765 -0.9208 0.0000 30.1452 0.0000
# 6 0.0000 0.0000 0.0000 2.3592 0.0000 28.7409
#
#
#
# Elastic Compliance Matrix: (Units=1/GPa)
#
#
# Indices 1 2 3 4 5 6 
#
# 1 0.022990 -0.011339 -0.003846 0.000000 0.005448 0.000000
# 2 -0.011339 0.017234 -0.003732 0.000000 -0.003082 0.000000
# 3 -0.003846 -0.003732 0.010278 0.000000 -0.000510 0.000000
# 4 0.000000 0.000000 0.000000 0.041308 0.000000 -0.003391
# 5 0.005448 -0.003082 -0.000510 0.000000 0.034484 0.000000
# 6 0.000000 0.000000 0.000000 -0.003391 0.000000 0.035072
#
#
# Mechanical properties :
#
#
# Convention : Reuss Voigt Hill
#
# Bulk Modulus (GPa) = 78.93676 83.68308 81.30992
# Shear Modulus (GPa) = 24.57937 26.97804 25.77871
#
# Velocity S-wave (km/s) = 3.76932 3.94896 3.86019
# Velocity P-wave (km/s) = 8.03568 8.31651 8.17730
#
# Compressibility (1/GPa) = 0.01266837
#
# Stress axis : x y z
#
# Youngs Moduli (GPa) = 43.49694 58.02399 97.29887
#
# Poissons Ratio (x) = 0.65792 0.37423
# Poissons Ratio (y) = 0.49320 0.36310
# Poissons Ratio (z) = 0.16730 0.21654
#
# Static dielectric constant tensor:
#      x y z
#    x 1.615280 0.000000 -0.026100 
#    y 0.000000 1.565630 0.000000 
#    z -0.026100 0.000000 1.624120 
# 
# From -- ./inp_files/202988.got.cif
#   From: 2010.05.17/outbox.cif.g08.bks.cpg/sg12_102_cif.got.tgz:202988.got - 2010.06.03 13:09:07.
