data_PCOD9212757
_publ_section_title
;
Structure prediction by ZEFSAII (Michael W. Deem and Ramdas Pophale) SiO2 
 PCOD9212757
Probable space group: C 2/M
;
_chemical_formula_sum "Si O2"
_cell_formula_units_Z 48
_cell_length_a 11.452589
_cell_length_b 14.371986
_cell_length_c 23.269604
_cell_angle_alpha 90.000000
_cell_angle_beta 26.531768
_cell_angle_gamma 90.000000
_cell_volume 1710.879886
_symmetry_space_group_name_H-M "C 2/M"
_symmetry_group_IT_number 12
_symmetry_cell_setting 'monoclinic'
loop_
_space_group_symop_operation_xyz
x,y,z
-x,y,-z
-x,-y,-z
x,-y,z
1/2+x,1/2+y,z
1/2-x,1/2+y,-z
1/2-x,1/2-y,-z
1/2+x,1/2-y,z
loop_
_atom_site_type_symbol
_atom_site_label
_atom_site_fract_x
_atom_site_fract_y
_atom_site_fract_z
Si Si1 0.703745 0.748733 0.705070
Si Si2 0.093248 0.396163 0.658173
Si Si3 0.341328 0.103082 0.498430
Si Si4 0.488954 0.608739 0.940295
Si Si5 0.232374 0.106796 0.220679
Si Si6 0.773344 0.388100 0.063759
O O1 0.681766 0.820184 0.662967
O O2 0.448469 0.685179 0.820150
O O3 0.951831 0.683353 0.586296
O O4 0.723551 0.811939 0.753405
O O5 0.126934 0.500000 0.667288
O O6 0.238079 0.391296 0.533783
O O7 0.781345 0.382719 0.785914
O O8 0.080522 0.109225 0.650251
O O9 0.460033 0.000000 0.453334
O O10 0.438428 0.500000 0.972310
O O11 0.277830 0.632928 0.985150
O O12 0.500000 0.652980 0.000000
O O13 0.398590 0.117723 0.087998
O O14 0.287478 0.000000 0.216058
O O15 0.702060 0.500000 0.099503
#
# Coordination Sequence:
#
# PCOD9212757 Si02
#       6
#     8   8   8   8   8   8
#     4  12  25  46  80 115 158 207 269 337 409 481
#     4  10  22  44  79 118 154 206 273 338 401 484
#     4  10  24  50  81 113 158 213 271 333 412 494
#     4  10  21  43  76 110 149 205 269 331 396 471
#     4  11  26  49  76 113 158 210 272 337 405 487
#     4  12  28  47  75 117 164 213 269 335 413 485
#
# _framework density 28.05574
#
# number of rings (size 3 to 8) (size 9 to 14) (size 15 to 20)
#    0.000    1.167    1.667    3.000    2.333    6.000 
#    3.000    2.500    0.000    2.500    0.000    0.000 
#    0.000    0.000    0.000    0.000    0.000    0.000 
#
# Total GULP energy -134692.677539 kJ/mol
# GULP energy per Si atom -5612.194897 kJ/mol
# Density = 2.799188 g / cm^3
# Si number density = 28.055740 Si / 1000 Ang^3
#
#
#
# Elastic Constant Matrix: (Units=GPa)
#
#
# Indices 1 2 3 4 5 6 
#
# 1 132.3660 108.6443 53.3704 0.0176 3.2088 0.0660
# 2 108.6443 256.2047 109.1736 0.0039 -17.1833 0.0109
# 3 53.3704 109.1736 203.9022 0.0896 7.9759 0.1404
# 4 0.0176 0.0039 0.0896 26.8168 0.0063 -18.1569
# 5 3.2088 -17.1833 7.9759 0.0063 51.3049 -0.0585
# 6 0.0660 0.0109 0.1404 -18.1569 -0.0585 48.3367
#
#
#
# Elastic Compliance Matrix: (Units=1/GPa)
#
#
# Indices 1 2 3 4 5 6 
#
# 1 0.011905 -0.005080 -0.000302 -0.000023 -0.002399 -0.000026
# 2 -0.005080 0.007467 -0.002795 0.000030 0.003253 0.000029
# 3 -0.000302 -0.002795 0.006556 -0.000046 -0.001937 -0.000038
# 4 -0.000023 0.000030 -0.000046 0.050009 0.000034 0.018785
# 5 -0.002399 0.003253 -0.001937 0.000034 0.021032 0.000046
# 6 -0.000026 0.000029 -0.000038 0.018785 0.000046 0.027745
#
#
# Mechanical properties :
#
#
# Convention : Reuss Voigt Hill
#
# Bulk Modulus (GPa) = 104.47347 126.09438 115.28392
# Shear Modulus (GPa) = 34.65963 46.71065 40.68514
#
# Velocity S-wave (km/s) = 3.51862 4.08477 3.81222
# Velocity P-wave (km/s) = 7.33664 8.20299 7.78188
#
# Compressibility (1/GPa) = 0.00957181
#
# Stress axis : x y z
#
# Youngs Moduli (GPa) = 84.00032 133.92458 152.53498
#
# Poissons Ratio (x) = 0.68040 0.04605
# Poissons Ratio (y) = 0.42676 0.42640
# Poissons Ratio (z) = 0.02536 0.37438
#
# Static dielectric constant tensor:
#      x y z
#    x 2.359880 0.000020 0.054820 
#    y 0.000020 2.063610 -0.000030 
#    z 0.054820 -0.000030 2.176530 
# 
# From -- ./inp_files/204855.got.cif
#   From: 2010.05.17/outbox.cif.g08.bks.cpg/sg12_103_cif.got.tgz:204855.got - 2010.06.03 13:09:07.
