data_PCOD9212751
_publ_section_title
;
Structure prediction by ZEFSAII (Michael W. Deem and Ramdas Pophale) SiO2 
 PCOD9212751
Probable space group: C 2/M
;
_chemical_formula_sum "Si O2"
_cell_formula_units_Z 32
_cell_length_a 12.540389
_cell_length_b 25.277460
_cell_length_c 8.386778
_cell_angle_alpha 90.000000
_cell_angle_beta 145.972147
_cell_angle_gamma 90.000000
_cell_volume 1487.695592
_symmetry_space_group_name_H-M "C 2/M"
_symmetry_group_IT_number 12
_symmetry_cell_setting 'monoclinic'
loop_
_space_group_symop_operation_xyz
x,y,z
-x,y,-z
-x,-y,-z
x,-y,z
1/2+x,1/2+y,z
1/2-x,1/2+y,-z
1/2-x,1/2-y,-z
1/2+x,1/2-y,z
loop_
_atom_site_type_symbol
_atom_site_label
_atom_site_fract_x
_atom_site_fract_y
_atom_site_fract_z
Si Si1 0.967817 0.612408 0.267545
Si Si2 0.906406 0.000000 0.711347
Si Si3 0.646134 0.303693 0.821913
Si Si4 0.597251 0.613625 0.291616
Si Si5 0.029857 0.500000 0.845898
O O1 0.176025 0.619918 0.446678
O O2 0.888825 0.554476 0.121191
O O3 0.000000 0.616416 0.500000
O O4 0.819272 0.654819 0.015541
O O5 0.939711 0.943387 0.668729
O O6 0.685026 0.000000 0.483735
O O7 0.000000 0.000000 0.000000
O O8 0.500000 0.291333 0.500000
O O9 0.506456 0.335574 0.766943
O O10 0.750000 0.250000 0.000000
O O11 0.500000 0.607277 0.000000
O O12 0.000000 0.500000 0.000000
#
# Coordination Sequence:
#
# PCOD9212751 Si02
#       5
#     8   4   8   8   4
#     4  11  23  45  72 102 144 186 228 277 349 413
#     4   8  18  36  65 101 135 174 213 261 342 408
#     4  12  29  48  69 100 132 180 242 288 351 411
#     4  10  21  43  73 102 140 175 225 285 340 414
#     4  10  23  38  67 108 148 183 224 276 339 407
#
# _framework density 21.509775000000001
#
# number of rings (size 3 to 8) (size 9 to 14) (size 15 to 20)
#    0.000    1.500    2.500    1.125    7.000    2.000 
#    0.000    1.250    0.000    0.000    0.000    0.000 
#    0.000    0.000    0.000    0.000    0.000    0.000 
#
# Total GULP energy -89216.443691 kJ/mol
# GULP energy per Si atom -5576.027731 kJ/mol
# Density = 2.146082 g / cm^3
# Si number density = 21.509775 Si / 1000 Ang^3
#
#
#
# Elastic Constant Matrix: (Units=GPa)
#
#
# Indices 1 2 3 4 5 6 
#
# 1 68.2816 57.6516 44.3263 0.0000 29.8059 0.0000
# 2 57.6516 230.2216 87.4420 0.0000 16.1410 0.0000
# 3 44.3263 87.4420 159.3633 0.0000 17.8629 0.0000
# 4 0.0000 0.0000 0.0000 39.7600 0.0000 8.7604
# 5 29.8059 16.1410 17.8629 0.0000 40.0590 0.0000
# 6 0.0000 0.0000 0.0000 8.7604 0.0000 27.6852
#
#
#
# Elastic Compliance Matrix: (Units=1/GPa)
#
#
# Indices 1 2 3 4 5 6 
#
# 1 0.028540 -0.004598 -0.003413 0.000000 -0.017860 0.000000
# 2 -0.004598 0.006260 -0.002375 0.000000 0.001958 0.000000
# 3 -0.003413 -0.002375 0.008564 0.000000 -0.000322 0.000000
# 4 0.000000 0.000000 0.000000 0.027036 0.000000 -0.008555
# 5 -0.017860 0.001958 -0.000322 0.000000 0.037607 0.000000
# 6 0.000000 0.000000 0.000000 -0.008555 0.000000 0.038827
#
#
# Mechanical properties :
#
#
# Convention : Reuss Voigt Hill
#
# Bulk Modulus (GPa) = 44.26785 92.96736 68.61760
# Shear Modulus (GPa) = 28.54911 39.39727 33.97319
#
# Velocity S-wave (km/s) = 3.64711 4.28436 3.97852
# Velocity P-wave (km/s) = 6.19357 8.23342 7.28524
#
# Compressibility (1/GPa) = 0.02258976
#
# Stress axis : x y z
#
# Youngs Moduli (GPa) = 35.03906 159.74338 116.77073
#
# Poissons Ratio (x) = 0.73454 0.39856
# Poissons Ratio (y) = 0.16112 0.27737
# Poissons Ratio (z) = 0.11960 0.37945
#
# Static dielectric constant tensor:
#      x y z
#    x 1.806440 0.000000 -0.004080 
#    y 0.000000 1.866140 0.000000 
#    z -0.004080 0.000000 1.760510 
# 
# From -- ./inp_files/65679.got.cif
#   From: 2010.05.17/outbox.cif.g08.bks.cpg/sg12_33_cif.got.tgz:65679.got - 2010.06.03 13:09:07.
