data_PCOD9212320
_publ_section_title
;
Structure prediction by ZEFSAII (Michael W. Deem and Ramdas Pophale) SiO2 
 PCOD9212320
Probable space group: C 2/M
;
_chemical_formula_sum "Si O2"
_cell_formula_units_Z 56
_cell_length_a 12.134464
_cell_length_b 21.020110
_cell_length_c 12.503145
_cell_angle_alpha 90.000000
_cell_angle_beta 69.346090
_cell_angle_gamma 90.000000
_cell_volume 2984.176513
_symmetry_space_group_name_H-M "C 2/M"
_symmetry_group_IT_number 12
_symmetry_cell_setting 'monoclinic'
loop_
_space_group_symop_operation_xyz
x,y,z
-x,y,-z
-x,-y,-z
x,-y,z
1/2+x,1/2+y,z
1/2-x,1/2+y,-z
1/2-x,1/2-y,-z
1/2+x,1/2-y,z
loop_
_atom_site_type_symbol
_atom_site_label
_atom_site_fract_x
_atom_site_fract_y
_atom_site_fract_z
Si Si1 0.502773 0.293879 0.371723
Si Si2 0.911171 0.657341 0.370312
Si Si3 0.865397 0.426551 0.005872
Si Si4 0.887127 0.000000 0.402421
Si Si5 0.774467 0.132493 0.377978
Si Si6 0.849820 0.000000 0.667171
Si Si7 0.625473 0.924799 0.250678
Si Si8 0.742172 0.636325 0.235371
O O1 0.500000 0.309976 0.500000
O O2 0.493034 0.218455 0.361165
O O3 0.386172 0.321696 0.354681
O O4 0.621519 0.324256 0.284296
O O5 0.822216 0.651610 0.500245
O O6 0.835843 0.664519 0.287375
O O7 0.994263 0.595910 0.330746
O O8 0.824272 0.500000 0.038362
O O9 0.792915 0.375801 0.100033
O O10 0.862542 0.415301 0.880344
O O11 0.000000 0.423824 0.000000
O O12 0.824036 0.063133 0.387291
O O13 0.877647 0.000000 0.532882
O O14 0.022880 0.000000 0.319757
O O15 0.713112 0.121471 0.285158
O O16 0.783129 0.064639 0.715397
O O17 0.644615 0.000000 0.266715
#
# Coordination Sequence:
#
# PCOD9212320 Si02
#       8
#     8   8   8   4   8   4   8   8
#     4  12  25  44  64  93 129 179 213 251 311 386
#     4  12  26  39  66  93 131 169 211 260 316 382
#     4  10  21  41  67  94 127 165 211 263 319 381
#     4  11  20  34  59  98 132 164 196 268 323 376
#     4  12  23  40  62  95 136 164 208 257 323 385
#     4  11  20  36  61  99 128 155 214 262 317 374
#     4  11  25  41  63  96 130 165 206 267 326 370
#     4  12  23  40  69  95 123 166 218 266 309 377
#
# _framework density 18.765646
#
# number of rings (size 3 to 8) (size 9 to 14) (size 15 to 20)
#    0.000    0.571    7.143    1.714    4.000    0.571 
#    0.000    1.429    3.143    2.571    0.000    0.000 
#    0.000    0.000    0.000    0.000    0.000    0.000 
#
# Total GULP energy -156426.804178 kJ/mol
# GULP energy per Si atom -5586.671578 kJ/mol
# Density = 1.872293 g / cm^3
# Si number density = 18.765646 Si / 1000 Ang^3
#
#
#
# Elastic Constant Matrix: (Units=GPa)
#
#
# Indices 1 2 3 4 5 6 
#
# 1 102.1232 24.8649 46.4289 0.0000 13.7744 0.0000
# 2 24.8649 67.2974 19.4569 0.0000 1.1236 0.0000
# 3 46.4289 19.4569 81.1936 0.0000 11.1360 0.0000
# 4 0.0000 0.0000 0.0000 12.5888 0.0000 0.0510
# 5 13.7744 1.1236 11.1360 0.0000 27.8868 0.0000
# 6 0.0000 0.0000 0.0000 0.0510 0.0000 25.7457
#
#
#
# Elastic Compliance Matrix: (Units=1/GPa)
#
#
# Indices 1 2 3 4 5 6 
#
# 1 0.014229 -0.003224 -0.006789 0.000000 -0.004187 0.000000
# 2 -0.003224 0.016719 -0.002421 0.000000 0.001886 0.000000
# 3 -0.006789 -0.002421 0.017250 0.000000 -0.003437 0.000000
# 4 0.000000 0.000000 0.000000 0.079436 0.000000 -0.000157
# 5 -0.004187 0.001886 -0.003437 0.000000 0.039224 0.000000
# 6 0.000000 0.000000 0.000000 -0.000157 0.000000 0.038842
#
#
# Mechanical properties :
#
#
# Convention : Reuss Voigt Hill
#
# Bulk Modulus (GPa) = 42.86710 48.01285 45.43998
# Shear Modulus (GPa) = 20.97786 23.90183 22.43985
#
# Velocity S-wave (km/s) = 3.34711 3.57277 3.46178
# Velocity P-wave (km/s) = 6.15065 6.53151 6.34394
#
# Compressibility (1/GPa) = 0.02332791
#
# Stress axis : x y z
#
# Youngs Moduli (GPa) = 70.28103 59.81097 57.96987
#
# Poissons Ratio (x) = 0.19285 0.39358
# Poissons Ratio (y) = 0.22661 0.14037
# Poissons Ratio (z) = 0.47717 0.14483
#
# Static dielectric constant tensor:
#      x y z
#    x 1.687570 0.000000 0.001540 
#    y 0.000000 1.653480 0.000000 
#    z 0.001540 0.000000 1.640230 
# 
# From -- ./inp_files/133902.got.cif
#   From: 2010.05.17/outbox.cif.g08.bks.cpg/sg12_67_cif.got.tgz:133902.got - 2010.06.03 13:09:07.
