data_PCOD9212595
_publ_section_title
;
Structure prediction by ZEFSAII (Michael W. Deem and Ramdas Pophale) SiO2 
 PCOD9212595
Probable space group: C 2/M
;
_chemical_formula_sum "Si O2"
_cell_formula_units_Z 48
_cell_length_a 13.313255
_cell_length_b 29.473043
_cell_length_c 5.344600
_cell_angle_alpha 90.000000
_cell_angle_beta 84.629217
_cell_angle_gamma 90.000000
_cell_volume 2087.918820
_symmetry_space_group_name_H-M "C 2/M"
_symmetry_group_IT_number 12
_symmetry_cell_setting 'monoclinic'
loop_
_space_group_symop_operation_xyz
x,y,z
-x,y,-z
-x,-y,-z
x,-y,z
1/2+x,1/2+y,z
1/2-x,1/2+y,-z
1/2-x,1/2-y,-z
1/2+x,1/2-y,z
loop_
_atom_site_type_symbol
_atom_site_label
_atom_site_fract_x
_atom_site_fract_y
_atom_site_fract_z
Si Si1 0.606776 0.268327 0.580692
Si Si2 0.556365 0.144455 0.734770
Si Si3 0.766600 0.701968 0.188005
Si Si4 0.114363 0.145774 0.869004
Si Si5 0.776903 0.948645 0.201470
Si Si6 0.140856 0.449723 0.732959
O O1 0.500000 0.254988 0.500000
O O2 0.685971 0.265051 0.338062
O O3 0.640349 0.239190 0.815614
O O4 0.608749 0.322125 0.629411
O O5 0.500000 0.158511 0.500000
O O6 0.670804 0.162278 0.689198
O O7 0.561333 0.090260 0.742735
O O8 0.500000 0.159740 0.000000
O O9 0.701920 0.672534 0.005692
O O10 0.147797 0.094062 0.821530
O O11 0.000000 0.147709 0.000000
O O12 0.711116 0.945691 0.470169
O O13 0.821639 0.000000 0.185532
O O14 0.707051 0.944736 0.970333
O O15 0.095476 0.500000 0.743039
#
# Coordination Sequence:
#
# PCOD9212595 Si02
#       6
#     8   8   8   8   8   8
#     4  11  24  45  71 101 134 180 239 282 359 419
#     4  12  26  42  67 102 137 185 236 286 354 419
#     4  11  25  45  67  97 142 181 221 303 342 418
#     4  12  24  41  70 101 135 184 237 283 356 423
#     4  10  22  41  70 102 141 186 231 290 353 414
#     4  10  21  42  68  96 137 186 233 288 355 412
#
# _framework density 22.989398999999999
#
# number of rings (size 3 to 8) (size 9 to 14) (size 15 to 20)
#    0.000    1.000    3.333    3.000    2.333    1.667 
#    0.000    0.000    0.000    3.500    0.000    0.000 
#    0.000    0.000    0.000    0.000    0.000    0.000 
#
# Total GULP energy -133796.190403 kJ/mol
# GULP energy per Si atom -5574.841267 kJ/mol
# Density = 2.293707 g / cm^3
# Si number density = 22.989399 Si / 1000 Ang^3
#
#
#
# Elastic Constant Matrix: (Units=GPa)
#
#
# Indices 1 2 3 4 5 6 
#
# 1 114.5942 40.6776 50.2185 0.0000 22.8859 0.0000
# 2 40.6776 155.9081 33.5542 0.0000 25.7031 0.0000
# 3 50.2185 33.5542 121.6655 0.0000 17.1515 0.0000
# 4 0.0000 0.0000 0.0000 20.8482 0.0000 -6.1501
# 5 22.8859 25.7031 17.1515 0.0000 18.1378 0.0000
# 6 0.0000 0.0000 0.0000 -6.1501 0.0000 25.5975
#
#
#
# Elastic Compliance Matrix: (Units=1/GPa)
#
#
# Indices 1 2 3 4 5 6 
#
# 1 0.012871 -0.000622 -0.003434 0.000000 -0.012111 0.000000
# 2 -0.000622 0.008457 -0.000573 0.000000 -0.010657 0.000000
# 3 -0.003434 -0.000573 0.010464 0.000000 -0.004751 0.000000
# 4 0.000000 0.000000 0.000000 0.051625 0.000000 0.012403
# 5 -0.012111 -0.010657 -0.004751 0.000000 0.090009 0.000000
# 6 0.000000 0.000000 0.000000 0.012403 0.000000 0.042046
#
#
# Mechanical properties :
#
#
# Convention : Reuss Voigt Hill
#
# Bulk Modulus (GPa) = 44.37820 71.22982 57.80401
# Shear Modulus (GPa) = 21.52937 30.76455 26.14696
#
# Velocity S-wave (km/s) = 3.06353 3.66212 3.37612
# Velocity P-wave (km/s) = 5.64441 6.99518 6.35578
#
# Compressibility (1/GPa) = 0.02253359
#
# Stress axis : x y z
#
# Youngs Moduli (GPa) = 77.69506 118.25054 95.56355
#
# Poissons Ratio (x) = 0.07361 0.32812
# Poissons Ratio (y) = 0.04836 0.05476
# Poissons Ratio (z) = 0.26677 0.06776
#
# Static dielectric constant tensor:
#      x y z
#    x 1.911430 0.000000 -0.056520 
#    y 0.000000 1.894040 0.000000 
#    z -0.056520 0.000000 1.924020 
# 
# From -- ./inp_files/12936.got.cif
#   From: 2010.05.17/outbox.cif.g08.bks.cpg/sg12_7_cif.got.tgz:12936.got - 2010.06.03 13:09:07.
