data_PCOD9212147
_publ_section_title
;
Structure prediction by ZEFSAII (Michael W. Deem and Ramdas Pophale) SiO2 
 PCOD9212147
Probable space group: C 2/M
;
_chemical_formula_sum "Si O2"
_cell_formula_units_Z 52
_cell_length_a 19.254925
_cell_length_b 9.568733
_cell_length_c 19.314365
_cell_angle_alpha 90.000000
_cell_angle_beta 133.123860
_cell_angle_gamma 90.000000
_cell_volume 2597.327905
_symmetry_space_group_name_H-M "C 2/M"
_symmetry_group_IT_number 12
_symmetry_cell_setting 'monoclinic'
loop_
_space_group_symop_operation_xyz
x,y,z
-x,y,-z
-x,-y,-z
x,-y,z
1/2+x,1/2+y,z
1/2-x,1/2+y,-z
1/2-x,1/2-y,-z
1/2+x,1/2-y,z
loop_
_atom_site_type_symbol
_atom_site_label
_atom_site_fract_x
_atom_site_fract_y
_atom_site_fract_z
Si Si1 0.731700 0.334096 0.228066
Si Si2 0.893372 0.337997 0.124340
Si Si3 0.122323 0.772530 0.426873
Si Si4 0.920423 0.842782 0.756504
Si Si5 0.760441 0.500000 0.534172
Si Si6 0.452751 0.163613 0.392488
Si Si7 0.741183 0.837387 0.101754
O O1 0.726211 0.500000 0.207367
O O2 0.663135 0.310656 0.246498
O O3 0.841604 0.300018 0.318962
O O4 0.702551 0.240211 0.143074
O O5 0.900367 0.500000 0.150556
O O6 0.833253 0.248240 0.138387
O O7 0.995726 0.269298 0.183404
O O8 0.834426 0.331570 0.012494
O O9 0.118839 0.840844 0.348176
O O10 0.170457 0.622490 0.451467
O O11 0.016857 0.753409 0.384382
O O12 0.188635 0.876470 0.514781
O O13 0.956562 0.000000 0.796275
O O14 0.500000 0.176315 0.500000
O O15 0.458201 0.000000 0.375732
O O16 0.763437 0.000000 0.129846
#
# Coordination Sequence:
#
# PCOD9212147 Si02
#       7
#     8   8   8   8   4   8   8
#     4  10  23  40  61  88 121 163 207 250 303 364
#     4  10  22  39  66  92 120 161 201 245 303 372
#     4  11  22  41  62  89 119 162 199 257 299 367
#     4  11  24  40  62  90 124 161 204 255 304 359
#     4  10  24  36  66  88 118 156 210 250 304 352
#     4  10  22  39  62  86 117 160 202 247 300 358
#     4  10  21  41  64  92 124 156 199 251 305 361
#
# _framework density 20.020575999999998
#
# number of rings (size 3 to 8) (size 9 to 14) (size 15 to 20)
#    0.000    1.692    1.538    1.846    5.385    4.308 
#    1.385    3.462    0.000    0.000    0.000    0.000 
#    0.000    0.000    0.000    0.000    0.000    0.000 
#
# Total GULP energy -144763.879424 kJ/mol
# GULP energy per Si atom -5567.841516 kJ/mol
# Density = 1.997501 g / cm^3
# Si number density = 20.020576 Si / 1000 Ang^3
#
#
#
# Elastic Constant Matrix: (Units=GPa)
#
#
# Indices 1 2 3 4 5 6 
#
# 1 118.1413 50.1372 14.6299 0.0000 -1.6495 0.0000
# 2 50.1372 127.5122 21.2488 0.0000 6.4326 0.0000
# 3 14.6299 21.2488 27.7781 0.0000 1.5618 0.0000
# 4 0.0000 0.0000 0.0000 17.2708 0.0000 2.5977
# 5 -1.6495 6.4326 1.5618 0.0000 33.5128 0.0000
# 6 0.0000 0.0000 0.0000 2.5977 0.0000 22.7570
#
#
#
# Elastic Compliance Matrix: (Units=1/GPa)
#
#
# Indices 1 2 3 4 5 6 
#
# 1 0.010390 -0.003701 -0.002717 0.000000 0.001348 0.000000
# 2 -0.003701 0.010373 -0.005879 0.000000 -0.001899 0.000000
# 3 -0.002717 -0.005879 0.041982 0.000000 -0.000962 0.000000
# 4 0.000000 0.000000 0.000000 0.058913 0.000000 -0.006725
# 5 0.001348 -0.001899 -0.000962 0.000000 0.030315 0.000000
# 6 0.000000 0.000000 0.000000 -0.006725 0.000000 0.044710
#
#
# Mechanical properties :
#
#
# Convention : Reuss Voigt Hill
#
# Bulk Modulus (GPa) = 26.21141 49.49595 37.85368
# Shear Modulus (GPa) = 21.36808 27.20249 24.28529
#
# Velocity S-wave (km/s) = 3.27051 3.69009 3.48662
# Velocity P-wave (km/s) = 5.23281 6.55224 5.92934
#
# Compressibility (1/GPa) = 0.03815133
#
# Stress axis : x y z
#
# Youngs Moduli (GPa) = 96.24428 96.40469 23.81979
#
# Poissons Ratio (x) = 0.35675 0.06473
# Poissons Ratio (y) = 0.35616 0.14004
# Poissons Ratio (z) = 0.26152 0.56676
#
# Static dielectric constant tensor:
#      x y z
#    x 1.688720 0.000000 -0.000320 
#    y 0.000000 1.684890 0.000000 
#    z -0.000320 0.000000 1.760880 
# 
# From -- ./inp_files/314918.got.cif
#   From: 2010.05.17/outbox.cif.g08.bks.cpg/sg12_158_cif.got.tgz:314918.got - 2010.06.03 13:09:07.
