data_PCOD9212967
_publ_section_title
;
Structure prediction by ZEFSAII (Michael W. Deem and Ramdas Pophale) SiO2 
 PCOD9212967
Probable space group: C 2/M
;
_chemical_formula_sum "Si O2"
_cell_formula_units_Z 52
_cell_length_a 16.514850
_cell_length_b 13.761983
_cell_length_c 16.126297
_cell_angle_alpha 90.000000
_cell_angle_beta 120.800263
_cell_angle_gamma 90.000000
_cell_volume 3148.197749
_symmetry_space_group_name_H-M "C 2/M"
_symmetry_group_IT_number 12
_symmetry_cell_setting 'monoclinic'
loop_
_space_group_symop_operation_xyz
x,y,z
-x,y,-z
-x,-y,-z
x,-y,z
1/2+x,1/2+y,z
1/2-x,1/2+y,-z
1/2-x,1/2-y,-z
1/2+x,1/2-y,z
loop_
_atom_site_type_symbol
_atom_site_label
_atom_site_fract_x
_atom_site_fract_y
_atom_site_fract_z
Si Si1 0.650581 0.616635 0.610472
Si Si2 0.817637 0.693879 0.802873
Si Si3 0.110644 0.500000 0.068132
Si Si4 0.959890 0.883365 0.610471
Si Si5 0.485235 0.693879 0.802872
Si Si6 0.280384 0.500000 0.060769
Si Si7 0.957487 0.000000 0.068132
Si Si8 0.305910 0.718974 0.111821
O O1 0.663198 0.500000 0.619384
O O2 0.744019 0.667051 0.692204
O O3 0.615554 0.643101 0.500000
O O4 0.563161 0.638840 0.626323
O O5 0.856381 0.595305 0.865228
O O6 0.756274 0.749126 0.841606
O O7 0.906965 0.750000 0.813930
O O8 0.167886 0.500000 0.010517
O O9 0.000000 0.500000 0.000000
O O10 0.948185 0.832949 0.692204
O O11 0.956186 0.000000 0.619383
O O12 0.508848 0.595305 0.865229
O O13 0.585331 0.749126 0.841606
O O14 0.342631 0.500000 0.010516
O O15 0.310325 0.600418 0.120650
O O16 0.000000 0.000000 0.000000
O O17 0.250000 0.750000 0.000000
#
# Coordination Sequence:
#
# PCOD9212967 Si02
#       8
#     8   8   4   8   8   4   4   8
#     4   9  17  33  58  82 104 132 170 222 277 321
#     4  11  22  34  55  79 106 140 178 217 265 313
#     4  10  22  36  51  74 109 140 180 214 255 311
#     4   9  17  33  58  82 104 132 170 222 277 321
#     4  11  22  34  55  79 106 140 178 217 265 313
#     4   8  20  36  56  64  93 152 165 220 260 288
#     4  10  22  36  51  74 109 140 180 214 255 311
#     4  10  22  36  51  74 109 140 180 214 255 311
#
# _framework density 16.517385999999998
#
# number of rings (size 3 to 8) (size 9 to 14) (size 15 to 20)
#    0.000    2.154    3.077    0.923    8.615    0.615 
#    0.000    0.000    0.000    0.000    0.000    0.000 
#    0.000    4.923    0.000    0.000    0.000    0.000 
#
# Total GULP energy -144845.225409 kJ/mol
# GULP energy per Si atom -5570.970208 kJ/mol
# Density = 1.647979 g / cm^3
# Si number density = 16.517386 Si / 1000 Ang^3
#
#
#
# Elastic Constant Matrix: (Units=GPa)
#
#
# Indices 1 2 3 4 5 6 
#
# 1 180.6196 42.6257 70.6425 0.0000 0.0002 0.0000
# 2 42.6257 41.2552 26.0129 0.0000 0.0000 0.0000
# 3 70.6425 26.0129 100.2266 0.0000 0.0004 0.0000
# 4 0.0000 0.0000 0.0000 -3.9642 0.0000 0.0000
# 5 0.0002 0.0000 0.0004 0.0000 34.9832 0.0000
# 6 0.0000 0.0000 0.0000 0.0000 0.0000 26.3570
#
#
#
# Elastic Compliance Matrix: (Units=1/GPa)
#
#
# Indices 1 2 3 4 5 6 
#
# 1 0.008793 -0.006190 -0.004591 0.000000 0.000000 0.000000
# 2 -0.006190 0.033340 -0.004290 0.000000 0.000000 0.000000
# 3 -0.004591 -0.004290 0.014327 0.000000 0.000000 0.000000
# 4 0.000000 0.000000 0.000000 -0.252260 0.000000 0.000000
# 5 0.000000 0.000000 0.000000 0.000000 0.028585 0.000000
# 6 0.000000 0.000000 0.000000 0.000000 0.000000 0.037941
#
#
# Mechanical properties :
#
#
# Convention : Reuss Voigt Hill
#
# Bulk Modulus (GPa) = 37.99773 66.74040 52.36906
# Shear Modulus (GPa) = -55.33444 23.66323 -15.83560
#
# Velocity S-wave (km/s) = -5.79426 3.78911 -3.09968
# Velocity P-wave (km/s) = 4.65940 7.72250 4.35471
#
# Compressibility (1/GPa) = 0.02631736
#
# Stress axis : x y z
#
# Youngs Moduli (GPa) = 113.72763 29.99369 69.80013
#
# Poissons Ratio (x) = 0.18567 0.32044
# Poissons Ratio (y) = 0.70401 0.29945
# Poissons Ratio (z) = 0.52211 0.12868
#
# Static dielectric constant tensor:
#      x y z
#    x 1.582470 0.000000 0.000000 
#    y 0.000000 1.563250 0.000000 
#    z 0.000000 0.000000 1.557380 
# 
# From -- ./inp_files/214971.got.cif
#   From: 2010.05.17/outbox.cif.g08.bks.cpg/sg12_108_cif.got.tgz:214971.got - 2010.06.03 13:09:07.
