data_PCOD9212986
_publ_section_title
;
Structure prediction by ZEFSAII (Michael W. Deem and Ramdas Pophale) SiO2 
 PCOD9212986
Probable space group: C 2/M
;
_chemical_formula_sum "Si O2"
_cell_formula_units_Z 64
_cell_length_a 12.426782
_cell_length_b 14.867472
_cell_length_c 28.042857
_cell_angle_alpha 90.000000
_cell_angle_beta 36.911723
_cell_angle_gamma 90.000000
_cell_volume 3111.656890
_symmetry_space_group_name_H-M "C 2/M"
_symmetry_group_IT_number 12
_symmetry_cell_setting 'monoclinic'
loop_
_space_group_symop_operation_xyz
x,y,z
-x,y,-z
-x,-y,-z
x,-y,z
1/2+x,1/2+y,z
1/2-x,1/2+y,-z
1/2-x,1/2-y,-z
1/2+x,1/2-y,z
loop_
_atom_site_type_symbol
_atom_site_label
_atom_site_fract_x
_atom_site_fract_y
_atom_site_fract_z
Si Si1 0.594625 0.394064 0.513760
Si Si2 0.009924 0.327093 0.633058
Si Si3 0.371469 0.101688 0.590002
Si Si4 0.475045 0.343792 0.713099
Si Si5 0.228082 0.099256 0.299366
Si Si6 0.300402 0.603071 0.091095
Si Si7 0.184590 0.899930 0.799921
Si Si8 0.017018 0.249791 0.191245
O O1 0.500000 0.356995 0.500000
O O2 0.628382 0.500000 0.494047
O O3 0.787528 0.351153 0.451187
O O4 0.455782 0.387516 0.606135
O O5 0.008774 0.239859 0.666020
O O6 0.909826 0.327519 0.617878
O O7 0.886558 0.394072 0.707798
O O8 0.500000 0.118952 0.500000
O O9 0.163565 0.105477 0.650350
O O10 0.414477 0.000000 0.592065
O O11 0.323335 0.397079 0.738271
O O12 0.424915 0.307082 0.782901
O O13 0.366257 0.178143 0.260841
O O14 0.297165 0.000000 0.288028
O O15 0.238610 0.500000 0.101869
O O16 0.308166 0.611078 0.145845
O O17 0.174095 0.683936 0.117680
O O18 0.500000 0.611976 0.000000
O O19 0.071413 0.820229 0.814766
O O20 0.112370 0.000000 0.814321
#
# Coordination Sequence:
#
# PCOD9212986 Si02
#       8
#     8   8   8   8   8   8   8   8
#     4  10  22  36  54  81 117 162 213 264 315 363
#     4  12  22  39  59  83 120 164 216 263 307 366
#     4  11  24  40  58  81 117 170 222 269 317 364
#     4  12  23  37  56  87 121 156 206 267 307 365
#     4  11  23  39  57  85 122 164 208 261 316 365
#     4  10  23  44  71 102 131 160 198 250 313 383
#     4  11  23  41  67  95 125 166 211 253 305 375
#     4  12  22  42  65  95 126 163 209 254 309 374
#
# _framework density 20.567820000000001
#
# number of rings (size 3 to 8) (size 9 to 14) (size 15 to 20)
#    0.000    0.875    3.750    3.375    0.000    6.500 
#    0.000    0.000    0.000    0.375    0.000    0.000 
#    0.000    0.000    0.000    0.000    0.000    0.000 
#
# Total GULP energy -178853.371767 kJ/mol
# GULP energy per Si atom -5589.167868 kJ/mol
# Density = 2.052101 g / cm^3
# Si number density = 20.567820 Si / 1000 Ang^3
#
#
#
# Elastic Constant Matrix: (Units=GPa)
#
#
# Indices 1 2 3 4 5 6 
#
# 1 50.4693 13.8960 2.0444 0.0000 3.4599 0.0000
# 2 13.8960 114.4124 16.4176 0.0000 -10.3512 0.0000
# 3 2.0444 16.4176 74.6367 0.0002 -10.9733 -0.0001
# 4 0.0000 0.0000 0.0002 10.7703 -0.0002 6.9208
# 5 3.4599 -10.3512 -10.9733 -0.0002 21.9364 0.0000
# 6 0.0000 0.0000 -0.0001 6.9208 0.0000 24.8354
#
#
#
# Elastic Compliance Matrix: (Units=1/GPa)
#
#
# Indices 1 2 3 4 5 6 
#
# 1 0.020985 -0.002906 -0.000673 0.000000 -0.005018 0.000000
# 2 -0.002906 0.009687 -0.001416 0.000000 0.004321 0.000000
# 3 -0.000673 -0.001416 0.014729 0.000000 0.006806 0.000000
# 4 0.000000 0.000000 0.000000 0.113101 0.000001 -0.031518
# 5 -0.005018 0.004321 0.006806 0.000001 0.051821 0.000000
# 6 0.000000 0.000000 0.000000 -0.031518 0.000000 0.049048
#
#
# Mechanical properties :
#
#
# Convention : Reuss Voigt Hill
#
# Bulk Modulus (GPa) = 28.24003 33.80382 31.02192
# Shear Modulus (GPa) = 17.78306 25.31910 21.55108
#
# Velocity S-wave (km/s) = 2.94361 3.51238 3.24049
# Velocity P-wave (km/s) = 5.03121 5.73760 5.39598
#
# Compressibility (1/GPa) = 0.03541073
#
# Stress axis : x y z
#
# Youngs Moduli (GPa) = 47.65196 103.22652 67.89431
#
# Poissons Ratio (x) = 0.30000 0.04571
# Poissons Ratio (y) = 0.13849 0.09614
# Poissons Ratio (z) = 0.03209 0.14617
#
# Static dielectric constant tensor:
#      x y z
#    x 1.770290 0.000000 -0.018540 
#    y 0.000000 1.794960 0.000000 
#    z -0.018540 0.000000 1.718420 
# 
# From -- ./inp_files/358410.got.cif
#   From: 2010.05.17/outbox.cif.g08.bks.cpg/sg12_180_cif.got.tgz:358410.got - 2010.06.03 13:09:07.
