data_PCOD9212492
_publ_section_title
;
Structure prediction by ZEFSAII (Michael W. Deem and Ramdas Pophale) SiO2 
 PCOD9212492
Probable space group: C 2/M
;
_chemical_formula_sum "Si O2"
_cell_formula_units_Z 52
_cell_length_a 19.484139
_cell_length_b 10.653890
_cell_length_c 18.252296
_cell_angle_alpha 90.000000
_cell_angle_beta 36.774200
_cell_angle_gamma 90.000000
_cell_volume 2268.241690
_symmetry_space_group_name_H-M "C 2/M"
_symmetry_group_IT_number 12
_symmetry_cell_setting 'monoclinic'
loop_
_space_group_symop_operation_xyz
x,y,z
-x,y,-z
-x,-y,-z
x,-y,z
1/2+x,1/2+y,z
1/2-x,1/2+y,-z
1/2-x,1/2-y,-z
1/2+x,1/2-y,z
loop_
_atom_site_type_symbol
_atom_site_label
_atom_site_fract_x
_atom_site_fract_y
_atom_site_fract_z
Si Si1 0.237818 0.138576 0.115603
Si Si2 0.912500 0.296086 0.841743
Si Si3 0.387249 0.000000 0.352754
Si Si4 0.938247 0.138312 0.187984
Si Si5 0.898971 0.857914 0.527627
Si Si6 0.845543 0.639685 0.179015
Si Si7 0.199960 0.354930 0.478611
O O1 0.145088 0.247141 0.183413
O O2 0.316604 0.156425 0.118973
O O3 0.185357 0.000000 0.168172
O O4 0.316538 0.144734 0.976272
O O5 0.016382 0.390284 0.744151
O O6 0.961701 0.174516 0.841928
O O7 0.287118 0.880046 0.445754
O O8 0.923653 0.250706 0.143307
O O9 0.817465 0.136952 0.335385
O O10 0.955085 0.000000 0.141681
O O11 0.777568 0.857029 0.674923
O O12 0.886015 0.744955 0.480934
O O13 0.000000 0.833533 0.500000
O O14 0.917127 0.000000 0.483650
O O15 0.894505 0.500000 0.151677
O O16 0.138105 0.500000 0.528241
#
# Coordination Sequence:
#
# PCOD9212492 Si02
#       7
#     8   8   4   8   8   8   8
#     4  10  22  43  62  94 120 164 215 260 306 377
#     4  11  23  39  66  88 128 165 207 264 311 362
#     4  10  22  40  59  91 122 169 207 250 310 377
#     4  10  21  42  63  93 125 163 201 259 311 369
#     4   9  17  31  54  85 117 157 199 258 307 363
#     4   9  20  37  63  87 122 160 209 256 313 368
#     4   8  19  37  55  84 122 155 204 242 301 379
#
# _framework density 22.925246000000001
#
# number of rings (size 3 to 8) (size 9 to 14) (size 15 to 20)
#    0.462    2.000    0.769    0.462    3.231    1.538 
#    1.385    3.077    0.000    0.000    0.000    0.000 
#    0.000    0.000    0.000    0.000    0.000    0.000 
#
# Total GULP energy -144810.560281 kJ/mol
# GULP energy per Si atom -5569.636934 kJ/mol
# Density = 2.287307 g / cm^3
# Si number density = 22.925246 Si / 1000 Ang^3
#
#
#
# Elastic Constant Matrix: (Units=GPa)
#
#
# Indices 1 2 3 4 5 6 
#
# 1 71.2855 74.8197 5.7109 0.0000 -8.1447 0.0000
# 2 74.8197 145.0122 4.4019 0.0000 -3.6931 0.0000
# 3 5.7109 4.4019 54.9051 0.0000 1.6280 0.0000
# 4 0.0000 0.0000 0.0000 5.5759 0.0000 20.2974
# 5 -8.1447 -3.6931 1.6280 0.0000 19.1238 0.0000
# 6 0.0000 0.0000 0.0000 20.2974 0.0000 13.3146
#
#
#
# Elastic Compliance Matrix: (Units=1/GPa)
#
#
# Indices 1 2 3 4 5 6 
#
# 1 0.032958 -0.016650 -0.002420 0.000000 0.011027 0.000000
# 2 -0.016650 0.015361 0.000624 0.000000 -0.004178 0.000000
# 3 -0.002420 0.000624 0.018489 0.000000 -0.002484 0.000000
# 4 0.000000 0.000000 0.000000 -0.039422 0.000000 0.060097
# 5 0.011027 -0.004178 -0.002484 0.000000 0.056392 0.000000
# 6 0.000000 0.000000 0.000000 0.060097 0.000000 -0.016509
#
#
# Mechanical properties :
#
#
# Convention : Reuss Voigt Hill
#
# Bulk Modulus (GPa) = 33.42795 49.00754 41.21774
# Shear Modulus (GPa) = 43.80862 20.02089 31.91476
#
# Velocity S-wave (km/s) = 4.37616 2.95839 3.73516
# Velocity P-wave (km/s) = 6.33619 5.75265 6.05146
#
# Compressibility (1/GPa) = 0.02991509
#
# Stress axis : x y z
#
# Youngs Moduli (GPa) = 30.34185 65.09794 54.08744
#
# Poissons Ratio (x) = 1.08391 0.13090
# Poissons Ratio (y) = 0.50520 -0.03376
# Poissons Ratio (z) = 0.07343 -0.04063
#
# Static dielectric constant tensor:
#      x y z
#    x 1.821310 0.000000 0.032660 
#    y 0.000000 2.074560 0.000000 
#    z 0.032660 0.000000 1.868530 
# 
# From -- ./inp_files/345861.got.cif
#   From: 2010.05.17/outbox.cif.g08.bks.cpg/sg12_173_cif.got.tgz:345861.got - 2010.06.03 13:09:07.
