data_PCOD9212557
_publ_section_title
;
Structure prediction by ZEFSAII (Michael W. Deem and Ramdas Pophale) SiO2 
 PCOD9212557
Probable space group: C 2/M
;
_chemical_formula_sum "Si O2"
_cell_formula_units_Z 40
_cell_length_a 17.381063
_cell_length_b 26.240296
_cell_length_c 8.393439
_cell_angle_alpha 90.000000
_cell_angle_beta 33.153070
_cell_angle_gamma 90.000000
_cell_volume 2093.510701
_symmetry_space_group_name_H-M "C 2/M"
_symmetry_group_IT_number 12
_symmetry_cell_setting 'monoclinic'
loop_
_space_group_symop_operation_xyz
x,y,z
-x,y,-z
-x,-y,-z
x,-y,z
1/2+x,1/2+y,z
1/2-x,1/2+y,-z
1/2-x,1/2-y,-z
1/2+x,1/2-y,z
loop_
_atom_site_type_symbol
_atom_site_label
_atom_site_fract_x
_atom_site_fract_y
_atom_site_fract_z
Si Si1 0.870756 0.057595 0.601816
Si Si2 0.363035 0.197915 0.130994
Si Si3 0.861430 0.626243 0.828814
Si Si4 0.318107 0.289821 0.010419
Si Si5 0.931160 0.846998 0.291983
O O1 0.920563 0.095976 0.378080
O O2 0.000000 0.055836 0.500000
O O3 0.838572 0.000000 0.605312
O O4 0.738413 0.083712 0.920566
O O5 0.315570 0.255013 0.170276
O O6 0.227987 0.171856 0.440480
O O7 0.500000 0.198656 0.000000
O O8 0.396605 0.165957 0.911101
O O9 0.773640 0.659796 0.853550
O O10 0.000000 0.607037 0.500000
O O11 0.250000 0.250000 0.000000
O O12 0.478909 0.311790 0.738332
O O13 0.000000 0.845108 0.000000
#
# Coordination Sequence:
#
# PCOD9212557 Si02
#       5
#     8   8   8   8   8
#     4  10  21  42  67  89 115 151 203 263 314 360
#     4  10  24  38  56  87 129 167 201 241 292 355
#     4  10  22  38  62  87 121 158 200 253 301 355
#     4  10  22  36  59  87 125 163 208 239 293 351
#     4  11  24  40  62  91 126 163 203 251 301 360
#
# _framework density 19.106660000000002
#
# number of rings (size 3 to 8) (size 9 to 14) (size 15 to 20)
#    0.000    1.800    2.000    0.600    8.400    2.400 
#    0.000    0.000    0.000    9.600    0.000    0.000 
#    0.000    0.000    0.000    0.000    0.000    0.000 
#
# Total GULP energy -111522.976173 kJ/mol
# GULP energy per Si atom -5576.148809 kJ/mol
# Density = 1.906317 g / cm^3
# Si number density = 19.106660 Si / 1000 Ang^3
#
#
#
# Elastic Constant Matrix: (Units=GPa)
#
#
# Indices 1 2 3 4 5 6 
#
# 1 113.1669 44.0580 52.1089 0.0000 -18.3501 0.0000
# 2 44.0580 121.7508 21.6200 0.0000 1.7574 0.0000
# 3 52.1089 21.6200 96.8460 0.0000 1.8602 0.0000
# 4 0.0000 0.0000 0.0000 15.0831 0.0000 0.8244
# 5 -18.3501 1.7574 1.8602 0.0000 31.6262 0.0000
# 6 0.0000 0.0000 0.0000 0.8244 0.0000 13.3098
#
#
#
# Elastic Compliance Matrix: (Units=1/GPa)
#
#
# Indices 1 2 3 4 5 6 
#
# 1 0.015670 -0.004458 -0.007624 0.000000 0.009788 0.000000
# 2 -0.004458 0.009825 0.000266 0.000000 -0.003148 0.000000
# 3 -0.007624 0.000266 0.014470 0.000000 -0.005289 0.000000
# 4 0.000000 0.000000 0.000000 0.066525 0.000000 -0.004120
# 5 0.009788 -0.003148 -0.005289 0.000000 0.037785 0.000000
# 6 0.000000 0.000000 0.000000 -0.004120 0.000000 0.075388
#
#
# Mechanical properties :
#
#
# Convention : Reuss Voigt Hill
#
# Bulk Modulus (GPa) = 61.22792 63.03750 62.13271
# Shear Modulus (GPa) = 20.10143 26.26894 23.18519
#
# Velocity S-wave (km/s) = 3.24707 3.71193 3.48726
# Velocity P-wave (km/s) = 6.79506 7.17184 6.98599
#
# Compressibility (1/GPa) = 0.01633242
#
# Stress axis : x y z
#
# Youngs Moduli (GPa) = 63.81724 101.78203 69.10780
#
# Poissons Ratio (x) = 0.45373 0.52688
# Poissons Ratio (y) = 0.28449 -0.01836
# Poissons Ratio (z) = 0.48655 -0.02705
#
# Static dielectric constant tensor:
#      x y z
#    x 1.702450 0.000000 0.009800 
#    y 0.000000 1.667240 0.000000 
#    z 0.009800 0.000000 1.671680 
# 
# From -- ./inp_files/39443.got.cif
#   From: 2010.05.17/outbox.cif.g08.bks.cpg/sg12_20_cif.got.tgz:39443.got - 2010.06.03 13:09:07.
