data_PCOD9212830
_publ_section_title
;
Structure prediction by ZEFSAII (Michael W. Deem and Ramdas Pophale) SiO2 
 PCOD9212830
Probable space group: C 2/M
;
_chemical_formula_sum "Si O2"
_cell_formula_units_Z 40
_cell_length_a 13.569427
_cell_length_b 24.014560
_cell_length_c 5.302491
_cell_angle_alpha 90.000000
_cell_angle_beta 78.677823
_cell_angle_gamma 90.000000
_cell_volume 1694.263054
_symmetry_space_group_name_H-M "C 2/M"
_symmetry_group_IT_number 12
_symmetry_cell_setting 'monoclinic'
loop_
_space_group_symop_operation_xyz
x,y,z
-x,y,-z
-x,-y,-z
x,-y,z
1/2+x,1/2+y,z
1/2-x,1/2+y,-z
1/2-x,1/2-y,-z
1/2+x,1/2-y,z
loop_
_atom_site_type_symbol
_atom_site_label
_atom_site_fract_x
_atom_site_fract_y
_atom_site_fract_z
Si Si1 0.599274 0.886074 0.285294
Si Si2 0.838176 0.500000 0.960394
Si Si3 0.301481 0.801784 0.112635
Si Si4 0.693643 0.620348 0.508886
Si Si5 0.206112 0.000000 0.525105
Si Si6 0.934552 0.778214 0.283551
O O1 0.500000 0.882165 0.500000
O O2 0.601166 0.943600 0.126619
O O3 0.698530 0.887209 0.410654
O O4 0.616880 0.833988 0.093843
O O5 0.750477 0.500000 0.788082
O O6 0.793193 0.500000 0.264424
O O7 0.220663 0.847789 0.236812
O O8 0.356158 0.772832 0.321238
O O9 0.250000 0.750000 0.000000
O O10 0.650362 0.558477 0.508845
O O11 0.624875 0.663595 0.690551
O O12 0.000000 0.776563 0.500000
O O13 0.000000 0.773843 0.000000
#
# Coordination Sequence:
#
# PCOD9212830 Si02
#       6
#     8   4   8   8   4   8
#     4  11  25  42  72 106 145 191 238 297 358 438
#     4  10  21  46  66 105 142 185 235 291 360 433
#     4  12  25  44  72 102 148 192 245 294 364 430
#     4  11  25  47  70 106 142 187 244 299 365 430
#     4  10  22  44  79  99 138 189 235 302 361 426
#     4  12  29  46  73 106 147 194 244 303 365 427
#
# _framework density 23.609086000000001
#
# number of rings (size 3 to 8) (size 9 to 14) (size 15 to 20)
#    0.000    0.800    4.000    2.100    5.600    0.000 
#    0.000    3.000    0.000    0.000    0.000    0.700 
#    0.000    0.000    0.000    0.000    0.000    0.000 
#
# Total GULP energy -112073.210903 kJ/mol
# GULP energy per Si atom -5603.660545 kJ/mol
# Density = 2.355535 g / cm^3
# Si number density = 23.609086 Si / 1000 Ang^3
#
#
#
# Elastic Constant Matrix: (Units=GPa)
#
#
# Indices 1 2 3 4 5 6 
#
# 1 48.9702 15.5475 14.9985 0.0000 17.9400 0.0000
# 2 15.5475 199.5607 24.9312 0.0000 -1.1207 0.0000
# 3 14.9985 24.9312 90.5275 0.0000 -0.2642 0.0000
# 4 0.0000 0.0000 0.0000 50.3818 0.0000 -5.5566
# 5 17.9400 -1.1207 -0.2642 0.0000 37.3489 0.0000
# 6 0.0000 0.0000 0.0000 -5.5566 0.0000 8.5961
#
#
#
# Elastic Compliance Matrix: (Units=1/GPa)
#
#
# Indices 1 2 3 4 5 6 
#
# 1 0.026963 -0.001668 -0.004046 0.000000 -0.013030 0.000000
# 2 -0.001668 0.005294 -0.001179 0.000000 0.000952 0.000000
# 3 -0.004046 -0.001179 0.012047 0.000000 0.001993 0.000000
# 4 0.000000 0.000000 0.000000 0.021372 0.000000 0.013815
# 5 -0.013030 0.000952 0.001993 0.000000 0.033076 0.000000
# 6 0.000000 0.000000 0.000000 0.013815 0.000000 0.125263
#
#
# Mechanical properties :
#
#
# Convention : Reuss Voigt Hill
#
# Bulk Modulus (GPa) = 32.76756 50.00141 41.38449
# Shear Modulus (GPa) = 20.16355 38.17077 29.16716
#
# Velocity S-wave (km/s) = 2.92560 4.02529 3.51867
# Velocity P-wave (km/s) = 5.03205 6.54437 5.83739
#
# Compressibility (1/GPa) = 0.03051798
#
# Stress axis : x y z
#
# Youngs Moduli (GPa) = 37.08810 188.90793 83.00769
#
# Poissons Ratio (x) = 0.31517 0.33583
# Poissons Ratio (y) = 0.06188 0.09784
# Poissons Ratio (z) = 0.15005 0.22266
#
# Static dielectric constant tensor:
#      x y z
#    x 1.900940 0.000000 0.028750 
#    y 0.000000 1.917210 0.000000 
#    z 0.028750 0.000000 1.905680 
# 
# From -- ./inp_files/11541.got.cif
#   From: 2010.05.17/outbox.cif.g08.bks.cpg/sg12_6_cif.got.tgz:11541.got - 2010.06.03 13:09:07.
