data_PCOD9212559
_publ_section_title
;
Structure prediction by ZEFSAII (Michael W. Deem and Ramdas Pophale) SiO2 
 PCOD9212559
Probable space group: C 2/M
;
_chemical_formula_sum "Si O2"
_cell_formula_units_Z 64
_cell_length_a 28.624398
_cell_length_b 14.363410
_cell_length_c 9.062243
_cell_angle_alpha 90.000000
_cell_angle_beta 68.618174
_cell_angle_gamma 90.000000
_cell_volume 3469.439358
_symmetry_space_group_name_H-M "C 2/M"
_symmetry_group_IT_number 12
_symmetry_cell_setting 'monoclinic'
loop_
_space_group_symop_operation_xyz
x,y,z
-x,y,-z
-x,-y,-z
x,-y,z
1/2+x,1/2+y,z
1/2-x,1/2+y,-z
1/2-x,1/2-y,-z
1/2+x,1/2-y,z
loop_
_atom_site_type_symbol
_atom_site_label
_atom_site_fract_x
_atom_site_fract_y
_atom_site_fract_z
Si Si1 0.807136 0.753115 0.489903
Si Si2 0.693072 0.900244 0.259908
Si Si3 0.550958 0.393414 0.033904
Si Si4 0.212519 0.168065 0.995182
Si Si5 0.647294 0.391180 0.350526
Si Si6 0.630650 0.755354 0.869913
Si Si7 0.950069 0.786310 0.655111
Si Si8 0.899979 0.608360 0.851615
O O1 0.750000 0.750000 0.500000
O O2 0.812468 0.681961 0.618496
O O3 0.824241 0.851588 0.538681
O O4 0.843189 0.725712 0.314573
O O5 0.749341 0.899071 0.132564
O O6 0.653179 0.888606 0.173933
O O7 0.682542 0.000000 0.343457
O O8 0.569707 0.500000 0.026166
O O9 0.543723 0.348786 0.204353
O O10 0.500000 0.395090 0.000000
O O11 0.588797 0.324422 0.907306
O O12 0.171866 0.210961 0.932106
O O13 0.250000 0.250000 0.000000
O O14 0.183760 0.125518 0.167779
O O15 0.635441 0.500000 0.376921
O O16 0.597136 0.331103 0.377475
O O17 0.608760 0.845888 0.977770
O O18 0.935510 0.681784 0.724873
O O19 0.000000 0.787187 0.500000
O O20 0.916011 0.500000 0.837099
#
# Coordination Sequence:
#
# PCOD9212559 Si02
#       8
#     8   8   8   8   8   8   8   8
#     4  12  24  41  57  86 134 168 204 258 314 369
#     4  11  22  37  62  88 119 161 209 255 305 366
#     4  10  23  41  62  92 125 162 204 249 312 378
#     4  12  18  40  63  87 120 163 208 252 302 364
#     4  12  25  41  63  94 127 167 216 258 307 375
#     4  11  22  38  64  85 125 167 203 257 312 367
#     4  11  23  42  67  94 125 162 202 263 318 368
#     4  10  21  42  67  91 117 159 213 257 308 372
#
# _framework density 18.446784000000001
#
# number of rings (size 3 to 8) (size 9 to 14) (size 15 to 20)
#    0.000    0.875    7.500    0.750    1.750    3.250 
#    0.000    0.000    0.000    6.000    0.000    0.000 
#    0.000    0.000    0.000    0.000    0.000    0.000 
#
# Total GULP energy -178685.664700 kJ/mol
# GULP energy per Si atom -5583.927022 kJ/mol
# Density = 1.840480 g / cm^3
# Si number density = 18.446784 Si / 1000 Ang^3
#
#
#
# Elastic Constant Matrix: (Units=GPa)
#
#
# Indices 1 2 3 4 5 6 
#
# 1 78.7257 37.7379 27.1660 0.0000 -8.8866 0.0000
# 2 37.7379 153.2442 41.0518 0.0000 -8.5900 0.0000
# 3 27.1660 41.0518 96.8888 0.0000 -21.8445 0.0000
# 4 0.0000 0.0000 0.0000 9.7591 0.0000 3.1253
# 5 -8.8866 -8.5900 -21.8445 0.0000 32.6562 0.0000
# 6 0.0000 0.0000 0.0000 3.1253 0.0000 21.7855
#
#
#
# Elastic Compliance Matrix: (Units=1/GPa)
#
#
# Indices 1 2 3 4 5 6 
#
# 1 0.015211 -0.002944 -0.002660 0.000000 0.001585 0.000000
# 2 -0.002944 0.007932 -0.002644 0.000000 -0.000484 0.000000
# 3 -0.002660 -0.002644 0.013975 0.000000 0.007929 0.000000
# 4 0.000000 0.000000 0.000000 0.107403 0.000000 -0.015408
# 5 0.001585 -0.000484 0.007929 0.000000 0.036230 0.000000
# 6 0.000000 0.000000 0.000000 -0.015408 0.000000 0.048112
#
#
# Mechanical properties :
#
#
# Convention : Reuss Voigt Hill
#
# Bulk Modulus (GPa) = 48.49544 60.08556 54.29050
# Shear Modulus (GPa) = 19.82296 27.70036 23.76166
#
# Velocity S-wave (km/s) = 3.28167 3.87930 3.59293
# Velocity P-wave (km/s) = 6.38009 7.26005 6.83425
#
# Compressibility (1/GPa) = 0.02062049
#
# Stress axis : x y z
#
# Youngs Moduli (GPa) = 65.74391 126.07411 71.55728
#
# Poissons Ratio (x) = 0.37121 0.19033
# Poissons Ratio (y) = 0.19357 0.18921
# Poissons Ratio (z) = 0.17487 0.33337
#
# Static dielectric constant tensor:
#      x y z
#    x 1.648260 0.000000 -0.011400 
#    y 0.000000 1.669080 0.000000 
#    z -0.011400 0.000000 1.632330 
# 
# From -- ./inp_files/104516.got.cif
#   From: 2010.05.17/outbox.cif.g08.bks.cpg/sg12_53_cif.got.tgz:104516.got - 2010.06.03 13:09:07.
