data_PCOD9212674
_publ_section_title
;
Structure prediction by ZEFSAII (Michael W. Deem and Ramdas Pophale) SiO2 
 PCOD9212674
Probable space group: C 2/M
;
_chemical_formula_sum "Si O2"
_cell_formula_units_Z 32
_cell_length_a 14.510290
_cell_length_b 14.577904
_cell_length_c 9.035864
_cell_angle_alpha 90.000000
_cell_angle_beta 65.310483
_cell_angle_gamma 90.000000
_cell_volume 1736.625778
_symmetry_space_group_name_H-M "C 2/M"
_symmetry_group_IT_number 12
_symmetry_cell_setting 'monoclinic'
loop_
_space_group_symop_operation_xyz
x,y,z
-x,y,-z
-x,-y,-z
x,-y,z
1/2+x,1/2+y,z
1/2-x,1/2+y,-z
1/2-x,1/2-y,-z
1/2+x,1/2-y,z
loop_
_atom_site_type_symbol
_atom_site_label
_atom_site_fract_x
_atom_site_fract_y
_atom_site_fract_z
Si Si1 0.237192 0.500000 0.893186
Si Si2 0.096125 0.359084 0.823758
Si Si3 0.980435 0.000000 0.686173
Si Si4 0.914524 0.148200 0.182395
Si Si5 0.581829 0.000000 0.573507
Si Si6 0.748272 0.500000 0.781615
O O1 0.188677 0.412006 0.842540
O O2 0.359829 0.500000 0.803133
O O3 0.202681 0.500000 0.088315
O O4 0.115316 0.253225 0.771514
O O5 0.073873 0.413837 0.688381
O O6 0.000000 0.365471 0.000000
O O7 0.000000 0.000000 0.500000
O O8 0.035561 0.089192 0.719301
O O9 0.821626 0.089591 0.182629
O O10 0.000000 0.149648 0.000000
O O11 0.500000 0.000000 0.500000
O O12 0.684537 0.000000 0.410329
#
# Coordination Sequence:
#
# PCOD9212674 Si02
#       6
#     4   8   4   8   4   4
#     4  11  21  41  62  93 118 160 208 243 303 358
#     4  10  23  41  63  88 124 158 202 252 300 356
#     4  11  23  40  63  90 125 159 202 251 299 356
#     4  10  21  43  62  89 123 162 197 246 306 361
#     4  11  23  40  58  88 122 164 200 248 304 355
#     4  11  21  38  65  86 125 159 200 248 302 364
#
# _framework density 18.426537
#
# number of rings (size 3 to 8) (size 9 to 14) (size 15 to 20)
#    0.000    1.500    2.500    3.750    7.000    3.000 
#    4.500    0.000    0.000    0.000    0.000    0.000 
#    0.000    0.000    0.000    0.000    0.000    0.000 
#
# Total GULP energy -89299.870821 kJ/mol
# GULP energy per Si atom -5581.241926 kJ/mol
# Density = 1.838460 g / cm^3
# Si number density = 18.426537 Si / 1000 Ang^3
#
#
#
# Elastic Constant Matrix: (Units=GPa)
#
#
# Indices 1 2 3 4 5 6 
#
# 1 92.0710 65.0866 23.1551 0.0000 25.8773 0.0000
# 2 65.0866 202.6976 53.7884 0.0000 24.3138 0.0000
# 3 23.1551 53.7884 98.5049 0.0000 29.2125 0.0000
# 4 0.0000 0.0000 0.0000 10.4012 0.0000 -5.9096
# 5 25.8773 24.3138 29.2125 0.0000 42.0478 0.0000
# 6 0.0000 0.0000 0.0000 -5.9096 0.0000 7.5355
#
#
#
# Elastic Compliance Matrix: (Units=1/GPa)
#
#
# Indices 1 2 3 4 5 6 
#
# 1 0.015993 -0.004454 0.001042 0.000000 -0.007992 0.000000
# 2 -0.004454 0.007080 -0.003045 0.000000 0.000763 0.000000
# 3 0.001042 -0.003045 0.014154 0.000000 -0.008714 0.000000
# 4 0.000000 0.000000 0.000000 0.173412 0.000000 0.135997
# 5 -0.007992 0.000763 -0.008714 0.000000 0.034314 0.000000
# 6 0.000000 0.000000 0.000000 0.135997 0.000000 0.239360
#
#
# Mechanical properties :
#
#
# Convention : Reuss Voigt Hill
#
# Bulk Modulus (GPa) = 41.12788 75.25928 58.19358
# Shear Modulus (GPa) = 9.89450 28.74644 19.32047
#
# Velocity S-wave (km/s) = 2.31978 3.95404 3.24159
# Velocity P-wave (km/s) = 5.43539 7.85986 6.75725
#
# Compressibility (1/GPa) = 0.02431441
#
# Stress axis : x y z
#
# Youngs Moduli (GPa) = 62.52555 141.23991 70.65216
#
# Poissons Ratio (x) = 0.62901 -0.07364
# Poissons Ratio (y) = 0.27846 0.21516
# Poissons Ratio (z) = -0.06517 0.43013
#
# Static dielectric constant tensor:
#      x y z
#    x 1.621300 0.000000 -0.013320 
#    y 0.000000 1.641240 0.000000 
#    z -0.013320 0.000000 1.627010 
# 
# From -- ./inp_files/58060.got.cif
#   From: 2010.05.17/outbox.cif.g08.bks.cpg/sg12_30_cif.got.tgz:58060.got - 2010.06.03 13:09:07.
