data_PCOD9212935
_publ_section_title
;
Structure prediction by ZEFSAII (Michael W. Deem and Ramdas Pophale) SiO2 
 PCOD9212935
Probable space group: C 2/M
;
_chemical_formula_sum "Si O2"
_cell_formula_units_Z 56
_cell_length_a 16.539622
_cell_length_b 22.765273
_cell_length_c 9.313234
_cell_angle_alpha 90.000000
_cell_angle_beta 121.511267
_cell_angle_gamma 90.000000
_cell_volume 2989.595272
_symmetry_space_group_name_H-M "C 2/M"
_symmetry_group_IT_number 12
_symmetry_cell_setting 'monoclinic'
loop_
_space_group_symop_operation_xyz
x,y,z
-x,y,-z
-x,-y,-z
x,-y,z
1/2+x,1/2+y,z
1/2-x,1/2+y,-z
1/2-x,1/2-y,-z
1/2+x,1/2-y,z
loop_
_atom_site_type_symbol
_atom_site_label
_atom_site_fract_x
_atom_site_fract_y
_atom_site_fract_z
Si Si1 0.912172 0.372574 0.595797
Si Si2 0.104863 0.374482 0.096093
Si Si3 0.098626 0.829243 0.178765
Si Si4 0.269996 0.767005 0.854471
Si Si5 0.253945 0.430728 0.739173
Si Si6 0.089567 0.765631 0.479334
Si Si7 0.606703 0.934092 0.818897
O O1 0.876103 0.387107 0.722167
O O2 0.839835 0.408273 0.430722
O O3 0.907731 0.302832 0.566365
O O4 0.022055 0.392016 0.686639
O O5 0.175751 0.328232 0.096090
O O6 0.102068 0.428703 0.986100
O O7 0.000000 0.346322 0.000000
O O8 0.162726 0.781362 0.156027
O O9 0.158437 0.889797 0.223283
O O10 0.087795 0.805638 0.333323
O O11 0.000000 0.834127 0.000000
O O12 0.180337 0.773790 0.666106
O O13 0.250000 0.750000 0.000000
O O14 0.271891 0.500000 0.733980
O O15 0.212958 0.421151 0.862438
O O16 0.000000 0.775525 0.500000
O O17 0.583883 0.000000 0.749956
#
# Coordination Sequence:
#
# PCOD9212935 Si02
#       7
#     8   8   8   8   8   8   8
#     4  11  21  37  60  90 128 159 197 249 306 370
#     4  10  22  35  57  85 125 161 201 243 300 364
#     4  12  25  42  63  90 124 163 209 255 306 363
#     4  12  23  38  62  89 124 164 202 251 309 363
#     4  11  23  41  63  87 118 162 211 255 300 357
#     4  12  25  40  62  94 129 159 202 255 311 373
#     4  10  22  38  59  91 126 162 201 243 301 371
#
# _framework density 18.731632000000001
#
# number of rings (size 3 to 8) (size 9 to 14) (size 15 to 20)
#    0.000    0.857    2.857    5.143    6.000    4.571 
#    0.000    0.000    0.000    0.429    0.000    0.000 
#    0.000    0.000    0.000    0.000    0.000    0.000 
#
# Total GULP energy -156305.456559 kJ/mol
# GULP energy per Si atom -5582.337734 kJ/mol
# Density = 1.868900 g / cm^3
# Si number density = 18.731632 Si / 1000 Ang^3
#
#
#
# Elastic Constant Matrix: (Units=GPa)
#
#
# Indices 1 2 3 4 5 6 
#
# 1 118.6115 49.7070 69.1282 0.0000 -4.3222 0.0000
# 2 49.7070 105.9847 40.3028 0.0000 8.2470 0.0000
# 3 69.1282 40.3028 108.5352 0.0000 -10.4683 0.0000
# 4 0.0000 0.0000 0.0000 15.3951 0.0000 0.5992
# 5 -4.3222 8.2470 -10.4683 0.0000 38.3177 0.0000
# 6 0.0000 0.0000 0.0000 0.5992 0.0000 26.3349
#
#
#
# Elastic Compliance Matrix: (Units=1/GPa)
#
#
# Indices 1 2 3 4 5 6 
#
# 1 0.014660 -0.003919 -0.007848 0.000000 0.000353 0.000000
# 2 -0.003919 0.012532 -0.002527 0.000000 -0.003830 0.000000
# 3 -0.007848 -0.002527 0.015527 0.000000 0.003901 0.000000
# 4 0.000000 0.000000 0.000000 0.065013 0.000000 -0.001479
# 5 0.000353 -0.003830 0.003901 0.000000 0.028027 0.000000
# 6 0.000000 0.000000 0.000000 -0.001479 0.000000 0.038006
#
#
# Mechanical properties :
#
#
# Convention : Reuss Voigt Hill
#
# Bulk Modulus (GPa) = 70.76503 72.37859 71.57181
# Shear Modulus (GPa) = 24.14720 27.60909 25.87815
#
# Velocity S-wave (km/s) = 3.59432 3.84334 3.72091
# Velocity P-wave (km/s) = 7.42199 7.64321 7.53341
#
# Compressibility (1/GPa) = 0.01413127
#
# Stress axis : x y z
#
# Youngs Moduli (GPa) = 68.21363 79.79477 64.40490
#
# Poissons Ratio (x) = 0.31268 0.50545
# Poissons Ratio (y) = 0.26730 0.16276
# Poissons Ratio (z) = 0.53534 0.20165
#
# Static dielectric constant tensor:
#      x y z
#    x 1.677600 0.000000 -0.060870 
#    y 0.000000 1.642010 0.000000 
#    z -0.060870 0.000000 1.821210 
# 
# From -- ./inp_files/65953.got.cif
#   From: 2010.05.17/outbox.cif.g08.bks.cpg/sg12_33_cif.got.tgz:65953.got - 2010.06.03 13:09:07.
