data_PCOD9212882
_publ_section_title
;
Structure prediction by ZEFSAII (Michael W. Deem and Ramdas Pophale) SiO2 
 PCOD9212882
Probable space group: C 2/M
;
_chemical_formula_sum "Si O2"
_cell_formula_units_Z 36
_cell_length_a 15.511074
_cell_length_b 25.483023
_cell_length_c 14.635225
_cell_angle_alpha 90.000000
_cell_angle_beta 160.792766
_cell_angle_gamma 90.000000
_cell_volume 1903.134473
_symmetry_space_group_name_H-M "C 2/M"
_symmetry_group_IT_number 12
_symmetry_cell_setting 'monoclinic'
loop_
_space_group_symop_operation_xyz
x,y,z
-x,y,-z
-x,-y,-z
x,-y,z
1/2+x,1/2+y,z
1/2-x,1/2+y,-z
1/2-x,1/2-y,-z
1/2+x,1/2-y,z
loop_
_atom_site_type_symbol
_atom_site_label
_atom_site_fract_x
_atom_site_fract_y
_atom_site_fract_z
Si Si1 0.758326 0.438999 0.320312
Si Si2 0.500000 0.322615 0.500000
Si Si3 0.312981 0.164980 0.978274
Si Si4 0.800469 0.144732 0.581778
Si Si5 0.382427 0.258943 0.787252
O O1 0.809509 0.500000 0.395307
O O2 0.716311 0.404004 0.367057
O O3 0.000000 0.419796 0.500000
O O4 0.500000 0.436625 0.000000
O O5 0.302211 0.352712 0.235211
O O6 0.326251 0.284689 0.390099
O O7 0.083839 0.153686 0.820680
O O8 0.577747 0.139988 0.282076
O O9 0.393181 0.225997 0.040858
O O10 0.756163 0.196941 0.598399
O O11 0.500000 0.281331 0.000000
#
# Coordination Sequence:
#
# PCOD9212882 Si02
#       5
#     8   4   8   8   8
#     4  10  22  41  61  85 118 148 182 232 286 336
#     4  10  22  38  50  76 116 156 182 226 278 324
#     4  11  23  37  52  81 114 152 189 235 269 332
#     4  12  23  34  59  84 109 149 195 230 274 329
#     4  10  22  34  53  77 121 154 187 224 275 331
#
# _framework density 18.916162
#
# number of rings (size 3 to 8) (size 9 to 14) (size 15 to 20)
#    0.000    1.333    2.222    3.333    7.778    0.000 
#    0.000    0.000    0.000    0.000    0.000    4.667 
#    0.000    0.000    0.000    0.000    0.000    0.000 
#
# Total GULP energy -100516.690872 kJ/mol
# GULP energy per Si atom -5584.260604 kJ/mol
# Density = 1.887311 g / cm^3
# Si number density = 18.916162 Si / 1000 Ang^3
#
#
#
# Elastic Constant Matrix: (Units=GPa)
#
#
# Indices 1 2 3 4 5 6 
#
# 1 80.0391 48.3965 32.4888 -0.0071 17.3359 0.0054
# 2 48.3965 51.9275 18.0263 0.0106 -1.6255 -0.0060
# 3 32.4888 18.0263 102.6278 0.0380 4.9017 -0.0193
# 4 -0.0071 0.0106 0.0380 161.8861 0.0238 -82.9861
# 5 17.3359 -1.6255 4.9017 0.0238 46.1168 -0.0136
# 6 0.0054 -0.0060 -0.0193 -82.9861 -0.0136 65.0063
#
#
#
# Elastic Compliance Matrix: (Units=1/GPa)
#
#
# Indices 1 2 3 4 5 6 
#
# 1 0.039480 -0.035355 -0.005548 0.000005 -0.015498 -0.000005
# 2 -0.035355 0.052225 0.001303 -0.000005 0.014993 0.000005
# 3 -0.005548 0.001303 0.011227 -0.000003 0.000938 0.000000
# 4 0.000005 -0.000005 -0.000003 0.017874 -0.000004 0.022818
# 5 -0.015498 0.014993 0.000938 -0.000004 0.027939 0.000003
# 6 -0.000005 0.000005 0.000000 0.022818 0.000003 0.044512
#
#
# Mechanical properties :
#
#
# Convention : Reuss Voigt Hill
#
# Bulk Modulus (GPa) = 42.13658 48.04640 45.09149
# Shear Modulus (GPa) = 17.83378 63.64735 40.74057
#
# Velocity S-wave (km/s) = 3.07380 5.80690 4.64588
# Velocity P-wave (km/s) = 5.90944 8.39136 7.25729
#
# Compressibility (1/GPa) = 0.02373235
#
# Stress axis : x y z
#
# Youngs Moduli (GPa) = 25.32920 19.14787 89.07390
#
# Poissons Ratio (x) = 0.67697 0.49419
# Poissons Ratio (y) = 0.89550 -0.11606
# Poissons Ratio (z) = 0.14053 -0.02495
#
# Static dielectric constant tensor:
#      x y z
#    x 1.693800 0.000000 -0.008850 
#    y 0.000000 1.618700 0.000000 
#    z -0.008850 0.000000 1.702660 
# 
# From -- ./inp_files/218609.got.cif
#   From: 2010.05.17/outbox.cif.g08.bks.cpg/sg12_110_cif.got.tgz:218609.got - 2010.06.03 13:09:07.
