data_PCOD9212927
_publ_section_title
;
Structure prediction by ZEFSAII (Michael W. Deem and Ramdas Pophale) SiO2 
 PCOD9212927
Probable space group: C 2/M
;
_chemical_formula_sum "Si O2"
_cell_formula_units_Z 48
_cell_length_a 14.360729
_cell_length_b 25.818144
_cell_length_c 14.435509
_cell_angle_alpha 90.000000
_cell_angle_beta 30.153938
_cell_angle_gamma 90.000000
_cell_volume 2688.551560
_symmetry_space_group_name_H-M "C 2/M"
_symmetry_group_IT_number 12
_symmetry_cell_setting 'monoclinic'
loop_
_space_group_symop_operation_xyz
x,y,z
-x,y,-z
-x,-y,-z
x,-y,z
1/2+x,1/2+y,z
1/2-x,1/2+y,-z
1/2-x,1/2-y,-z
1/2+x,1/2-y,z
loop_
_atom_site_type_symbol
_atom_site_label
_atom_site_fract_x
_atom_site_fract_y
_atom_site_fract_z
Si Si1 0.323561 0.866449 0.591390
Si Si2 0.280905 0.442255 0.177347
Si Si3 0.461853 0.740326 0.684247
Si Si4 0.607763 0.824800 0.989915
Si Si5 0.899181 0.645704 0.793337
Si Si6 0.856460 0.768355 0.272315
O O1 0.500000 0.848276 0.500000
O O2 0.287109 0.922559 0.663613
O O3 0.391713 0.863321 0.426974
O O4 0.159695 0.826353 0.752334
O O5 0.214106 0.500000 0.211953
O O6 0.217056 0.398989 0.157927
O O7 0.500000 0.443095 0.000000
O O8 0.359387 0.795534 0.792040
O O9 0.642383 0.749142 0.465027
O O10 0.553998 0.726468 0.703448
O O11 0.310797 0.697208 0.789691
O O12 0.615455 0.853003 0.083253
O O13 0.478547 0.774270 0.117921
O O14 0.500000 0.853858 0.000000
#
# Coordination Sequence:
#
# PCOD9212927 Si02
#       6
#     8   8   8   8   8   8
#     4   9  19  31  53  74 103 141 171 214 267 329
#     4  10  22  35  55  84 104 128 171 224 286 341
#     4   9  19  33  49  73 102 150 183 219 257 306
#     4  11  23  31  50  77 108 151 189 218 253 307
#     4   9  19  36  48  73 106 135 180 212 264 317
#     4   9  18  32  48  72 107 140 188 215 256 315
#
# _framework density 17.853480000000001
#
# number of rings (size 3 to 8) (size 9 to 14) (size 15 to 20)
#    0.000    2.500    0.000    3.000   11.667    3.000 
#    0.000    0.000    0.000    0.500    0.000    0.000 
#    0.000    2.667    0.000    0.000    0.000    0.000 
#
# Total GULP energy -133673.300695 kJ/mol
# GULP energy per Si atom -5569.720862 kJ/mol
# Density = 1.781284 g / cm^3
# Si number density = 17.853480 Si / 1000 Ang^3
#
#
#
# Elastic Constant Matrix: (Units=GPa)
#
#
# Indices 1 2 3 4 5 6 
#
# 1 62.8602 32.8972 21.4815 0.0004 2.2573 -0.0003
# 2 32.8972 86.6242 14.9997 0.0003 -5.7909 -0.0003
# 3 21.4815 14.9997 52.7747 0.0021 -1.8544 -0.0009
# 4 0.0004 0.0003 0.0021 14.5428 -0.0009 -2.6751
# 5 2.2573 -5.7909 -1.8544 -0.0009 23.1914 0.0002
# 6 -0.0003 -0.0003 -0.0009 -2.6751 0.0002 24.0856
#
#
#
# Elastic Compliance Matrix: (Units=1/GPa)
#
#
# Indices 1 2 3 4 5 6 
#
# 1 0.022512 -0.007621 -0.007161 0.000000 -0.004667 0.000000
# 2 -0.007621 0.014901 -0.000979 0.000000 0.004384 0.000000
# 3 -0.007161 -0.000979 0.022220 -0.000003 0.002229 0.000000
# 4 0.000000 0.000000 -0.000003 0.070197 0.000003 0.007796
# 5 -0.004667 0.004384 0.002229 0.000003 0.044847 0.000000
# 6 0.000000 0.000000 0.000000 0.007796 0.000000 0.042385
#
#
# Mechanical properties :
#
#
# Convention : Reuss Voigt Hill
#
# Bulk Modulus (GPa) = 35.57443 37.89065 36.73254
# Shear Modulus (GPa) = 19.38339 21.22267 20.30303
#
# Velocity S-wave (km/s) = 3.29856 3.45151 3.37590
# Velocity P-wave (km/s) = 5.87166 6.09534 5.98454
#
# Compressibility (1/GPa) = 0.02811008
#
# Stress axis : x y z
#
# Youngs Moduli (GPa) = 44.42166 67.10943 45.00476
#
# Poissons Ratio (x) = 0.51145 0.32228
# Poissons Ratio (y) = 0.33855 0.04406
# Poissons Ratio (z) = 0.31810 0.06570
#
# Static dielectric constant tensor:
#      x y z
#    x 1.667080 0.000000 0.023080 
#    y 0.000000 1.615210 0.000000 
#    z 0.023080 0.000000 1.712480 
# 
# From -- ./inp_files/218418.got.cif
#   From: 2010.05.17/outbox.cif.g08.bks.cpg/sg12_110_cif.got.tgz:218418.got - 2010.06.03 13:09:07.
