data_PCOD9212441
_publ_section_title
;
Structure prediction by ZEFSAII (Michael W. Deem and Ramdas Pophale) SiO2 
 PCOD9212441
Probable space group: C 2/M
;
_chemical_formula_sum "Si O2"
_cell_formula_units_Z 42
_cell_length_a 14.930841
_cell_length_b 14.910434
_cell_length_c 10.233372
_cell_angle_alpha 90.000000
_cell_angle_beta 52.663208
_cell_angle_gamma 90.000000
_cell_volume 1811.366923
_symmetry_space_group_name_H-M "C 2/M"
_symmetry_group_IT_number 12
_symmetry_cell_setting 'monoclinic'
loop_
_space_group_symop_operation_xyz
x,y,z
-x,y,-z
-x,-y,-z
x,-y,z
1/2+x,1/2+y,z
1/2-x,1/2+y,-z
1/2-x,1/2-y,-z
1/2+x,1/2-y,z
loop_
_atom_site_type_symbol
_atom_site_label
_atom_site_fract_x
_atom_site_fract_y
_atom_site_fract_z
Si Si1 0.500000 0.000000 0.500000
Si Si2 0.943010 0.894985 0.922352
Si Si3 0.168525 0.398113 0.767634
Si Si4 0.802606 0.390119 0.953140
Si Si5 0.917542 0.862272 0.458699
Si Si6 0.534958 0.835559 0.647049
O O1 0.560796 0.921354 0.535742
O O2 0.028963 0.888994 0.726372
O O3 0.922146 0.000000 0.969240
O O4 0.820690 0.861023 0.985839
O O5 0.000000 0.853358 0.000000
O O6 0.124802 0.500000 0.805195
O O7 0.292627 0.395198 0.595335
O O8 0.088466 0.342671 0.743850
O O9 0.181566 0.371770 0.907181
O O10 0.816282 0.500000 0.922137
O O11 0.900707 0.341346 0.787305
O O12 0.920322 0.754478 0.456510
O O13 0.000000 0.894972 0.500000
#
# Coordination Sequence:
#
# PCOD9212441 Si02
#       6
#     2   8   8   8   8   8
#     4  12  24  44  66  92 142 186 222 278 338 412
#     4  10  23  44  68 102 139 186 230 280 346 415
#     4  11  23  43  73 100 132 179 227 287 346 416
#     4  10  21  41  71  97 130 173 230 284 342 407
#     4  12  25  44  67 101 142 182 227 286 347 409
#     4  12  25  44  67 101 139 180 232 283 347 408
#
# _framework density 23.186909
#
# number of rings (size 3 to 8) (size 9 to 14) (size 15 to 20)
#    0.000    0.952    4.762    1.714    0.000    6.095 
#    6.857    0.000    0.000    0.000    0.000    0.000 
#    0.000    0.000    0.000    0.000    0.000    0.000 
#
# Total GULP energy -117313.669814 kJ/mol
# GULP energy per Si atom -5586.365229 kJ/mol
# Density = 2.313413 g / cm^3
# Si number density = 23.186909 Si / 1000 Ang^3
#
#
#
# Elastic Constant Matrix: (Units=GPa)
#
#
# Indices 1 2 3 4 5 6 
#
# 1 95.4068 12.0858 35.6510 0.0000 18.4056 0.0000
# 2 12.0858 88.7690 -4.0013 0.0000 7.8007 0.0000
# 3 35.6510 -4.0013 79.7272 0.0000 3.6790 0.0000
# 4 0.0000 0.0000 0.0000 -3.5879 0.0000 -9.6671
# 5 18.4056 7.8007 3.6790 0.0000 52.8303 0.0000
# 6 0.0000 0.0000 0.0000 -9.6671 0.0000 30.0243
#
#
#
# Elastic Compliance Matrix: (Units=1/GPa)
#
#
# Indices 1 2 3 4 5 6 
#
# 1 0.013763 -0.001786 -0.006054 0.000000 -0.004110 0.000000
# 2 -0.001786 0.011679 0.001440 0.000000 -0.001203 0.000000
# 3 -0.006054 0.001440 0.015284 0.000000 0.000832 0.000000
# 4 0.000000 0.000000 0.000000 -0.149243 0.000000 -0.048052
# 5 -0.004110 -0.001203 0.000832 0.000000 0.020480 0.000000
# 6 0.000000 0.000000 0.000000 -0.048052 0.000000 0.017835
#
#
# Mechanical properties :
#
#
# Convention : Reuss Voigt Hill
#
# Bulk Modulus (GPa) = 35.80869 39.04154 37.42511
# Shear Modulus (GPa) = -103.96139 30.53116 -36.71511
#
# Velocity S-wave (km/s) = -6.70325 3.63263 -3.98357
# Velocity P-wave (km/s) = 6.66591 5.87103 2.23220
#
# Compressibility (1/GPa) = 0.02792618
#
# Stress axis : x y z
#
# Youngs Moduli (GPa) = 72.66014 85.62458 65.42860
#
# Poissons Ratio (x) = 0.15289 0.39611
# Poissons Ratio (y) = 0.12974 -0.09422
# Poissons Ratio (z) = 0.43990 -0.12330
#
# Static dielectric constant tensor:
#      x y z
#    x 1.857650 0.000000 0.026970 
#    y 0.000000 1.897720 0.000000 
#    z 0.026970 0.000000 1.859510 
# 
# From -- ./inp_files/61620.got.cif
#   From: 2010.05.17/outbox.cif.g08.bks.cpg/sg12_31_cif.got.tgz:61620.got - 2010.06.03 13:09:07.
