data_PCOD9212742
_publ_section_title
;
Structure prediction by ZEFSAII (Michael W. Deem and Ramdas Pophale) SiO2 
 PCOD9212742
Probable space group: C 2/M
;
_chemical_formula_sum "Si O2"
_cell_formula_units_Z 40
_cell_length_a 8.677282
_cell_length_b 21.472390
_cell_length_c 10.441795
_cell_angle_alpha 90.000000
_cell_angle_beta 77.551466
_cell_angle_gamma 90.000000
_cell_volume 1899.796462
_symmetry_space_group_name_H-M "C 2/M"
_symmetry_group_IT_number 12
_symmetry_cell_setting 'monoclinic'
loop_
_space_group_symop_operation_xyz
x,y,z
-x,y,-z
-x,-y,-z
x,-y,z
1/2+x,1/2+y,z
1/2-x,1/2+y,-z
1/2-x,1/2-y,-z
1/2+x,1/2-y,z
loop_
_atom_site_type_symbol
_atom_site_label
_atom_site_fract_x
_atom_site_fract_y
_atom_site_fract_z
Si Si1 0.199325 0.332322 0.294973
Si Si2 0.319193 0.820666 0.991055
Si Si3 0.616609 0.569166 0.599939
Si Si4 0.916108 0.239919 0.401315
Si Si5 0.604728 0.429222 0.110157
O O1 0.189298 0.350452 0.149852
O O2 0.241741 0.383123 0.395000
O O3 0.357078 0.289129 0.280142
O O4 0.037716 0.295207 0.352740
O O5 0.500000 0.817017 0.000000
O O6 0.250000 0.750000 0.000000
O O7 0.222095 0.870248 0.093669
O O8 0.500000 0.575546 0.500000
O O9 0.685024 0.500000 0.579006
O O10 0.507713 0.573504 0.746098
O O11 0.750000 0.250000 0.500000
O O12 0.000000 0.201235 0.500000
O O13 0.675588 0.500000 0.095452
O O14 0.500000 0.423491 0.000000
#
# Coordination Sequence:
#
# PCOD9212742 Si02
#       5
#     8   8   8   8   8
#     4  11  21  39  63  94 128 174 223 273 335 397
#     4  12  26  41  62  96 138 175 226 289 337 393
#     4  10  22  42  71 103 135 175 223 278 338 406
#     4   9  20  38  59  88 124 168 213 265 331 400
#     4  10  21  43  71  95 129 182 229 272 341 418
#
# _framework density 21.054886
#
# number of rings (size 3 to 8) (size 9 to 14) (size 15 to 20)
#    0.000    1.600    2.000    2.400    2.800    0.400 
#   10.800    0.000    0.000    5.400    0.000    0.000 
#    0.000    0.000    0.000    0.000    0.000    0.000 
#
# Total GULP energy -111365.880107 kJ/mol
# GULP energy per Si atom -5568.294005 kJ/mol
# Density = 2.100696 g / cm^3
# Si number density = 21.054886 Si / 1000 Ang^3
#
#
#
# Elastic Constant Matrix: (Units=GPa)
#
#
# Indices 1 2 3 4 5 6 
#
# 1 129.8651 62.7120 13.1875 0.0000 22.7243 0.0000
# 2 62.7120 152.7027 -8.9558 0.0000 -10.0712 0.0000
# 3 13.1875 -8.9558 79.1332 0.0000 25.9441 0.0000
# 4 0.0000 0.0000 0.0000 109.9531 0.0000 -17.8037
# 5 22.7243 -10.0712 25.9441 0.0000 35.9190 0.0000
# 6 0.0000 0.0000 0.0000 -17.8037 0.0000 31.5316
#
#
#
# Elastic Compliance Matrix: (Units=1/GPa)
#
#
# Indices 1 2 3 4 5 6 
#
# 1 0.011969 -0.005512 0.000486 0.000000 -0.009469 0.000000
# 2 -0.005512 0.009212 -0.000038 0.000000 0.006097 0.000000
# 3 0.000486 -0.000038 0.016583 0.000000 -0.012296 0.000000
# 4 0.000000 0.000000 0.000000 0.010010 0.000000 0.005652
# 5 -0.009469 0.006097 -0.012296 0.000000 0.044422 0.000000
# 6 0.000000 0.000000 0.000000 0.005652 0.000000 0.034906
#
#
# Mechanical properties :
#
#
# Convention : Reuss Voigt Hill
#
# Bulk Modulus (GPa) = 36.18323 55.06538 45.62430
# Shear Modulus (GPa) = 34.14343 55.13122 44.63733
#
# Velocity S-wave (km/s) = 4.03133 5.12263 4.60939
# Velocity P-wave (km/s) = 6.23629 7.82295 7.07424
#
# Compressibility (1/GPa) = 0.02763711
#
# Stress axis : x y z
#
# Youngs Moduli (GPa) = 83.54631 108.55296 60.30330
#
# Poissons Ratio (x) = 0.59830 -0.02930
# Poissons Ratio (y) = 0.46047 0.00229
# Poissons Ratio (z) = -0.04060 0.00412
#
# Static dielectric constant tensor:
#      x y z
#    x 1.791030 0.000000 -0.007730 
#    y 0.000000 1.908210 0.000000 
#    z -0.007730 0.000000 1.909140 
# 
# From -- ./inp_files/120138.got.cif
#   From: 2010.05.17/outbox.cif.g08.bks.cpg/sg12_61_cif.got.tgz:120138.got - 2010.06.03 13:09:07.
