data_PCOD9212981
_publ_section_title
;
Structure prediction by ZEFSAII (Michael W. Deem and Ramdas Pophale) SiO2 
 PCOD9212981
Probable space group: C 2/M
;
_chemical_formula_sum "Si O2"
_cell_formula_units_Z 50
_cell_length_a 16.404582
_cell_length_b 14.572408
_cell_length_c 10.879158
_cell_angle_alpha 90.000000
_cell_angle_beta 108.063835
_cell_angle_gamma 90.000000
_cell_volume 2472.524403
_symmetry_space_group_name_H-M "C 2/M"
_symmetry_group_IT_number 12
_symmetry_cell_setting 'monoclinic'
loop_
_space_group_symop_operation_xyz
x,y,z
-x,y,-z
-x,-y,-z
x,-y,z
1/2+x,1/2+y,z
1/2-x,1/2+y,-z
1/2-x,1/2-y,-z
1/2+x,1/2-y,z
loop_
_atom_site_type_symbol
_atom_site_label
_atom_site_fract_x
_atom_site_fract_y
_atom_site_fract_z
Si Si1 0.271166 0.106513 0.033006
Si Si2 0.889793 0.254076 0.683249
Si Si3 0.500000 0.000000 0.000000
Si Si4 0.236645 0.392082 0.252245
Si Si5 0.089396 0.159434 0.046883
Si Si6 0.600572 0.395093 0.516954
Si Si7 0.057107 0.330095 0.849640
O O1 0.276605 0.141069 0.894072
O O2 0.291881 0.000000 0.035201
O O3 0.175726 0.116137 0.036491
O O4 0.345837 0.151678 0.148898
O O5 0.820038 0.332175 0.681289
O O6 0.892888 0.192234 0.807262
O O7 0.874260 0.185629 0.564203
O O8 0.983744 0.301330 0.720124
O O9 0.524669 0.081616 0.910658
O O10 0.210073 0.500000 0.244524
O O11 0.336167 0.387380 0.336741
O O12 0.069319 0.245933 0.949456
O O13 0.000000 0.104572 0.000000
O O14 0.500000 0.386711 0.500000
O O15 0.613688 0.500000 0.474563
#
# Coordination Sequence:
#
# PCOD9212981 Si02
#       7
#     8   8   2   8   8   8   8
#     4  11  22  36  59  91 130 161 195 245 308 378
#     4  11  22  37  65  90 124 163 202 258 312 367
#     4  12  16  36  60  88 130 152 202 236 298 376
#     4  10  22  38  62  93 118 160 210 255 302 365
#     4  10  22  36  53  88 126 161 196 244 302 369
#     4  10  24  44  63  85 117 164 221 264 301 357
#     4  11  21  34  59  93 125 157 194 245 303 365
#
# _framework density 20.222245999999998
#
# number of rings (size 3 to 8) (size 9 to 14) (size 15 to 20)
#    0.000    1.440    4.800    0.960    7.840    0.960 
#    0.000    0.000    0.000    0.480    0.000    0.000 
#    0.000    0.000    0.000    0.000    0.000    0.000 
#
# Total GULP energy -139225.907607 kJ/mol
# GULP energy per Si atom -5569.036304 kJ/mol
# Density = 2.017622 g / cm^3
# Si number density = 20.222246 Si / 1000 Ang^3
#
#
#
# Elastic Constant Matrix: (Units=GPa)
#
#
# Indices 1 2 3 4 5 6 
#
# 1 106.1835 21.1056 22.3017 0.0000 28.8930 0.0000
# 2 21.1056 62.4648 16.9503 0.0000 7.1545 0.0000
# 3 22.3017 16.9503 42.0469 0.0000 18.8184 0.0000
# 4 0.0000 0.0000 0.0000 15.5214 0.0000 3.0763
# 5 28.8930 7.1545 18.8184 0.0000 27.4170 0.0000
# 6 0.0000 0.0000 0.0000 3.0763 0.0000 18.0420
#
#
#
# Elastic Compliance Matrix: (Units=1/GPa)
#
#
# Indices 1 2 3 4 5 6 
#
# 1 0.013756 -0.003103 0.000116 0.000000 -0.013766 0.000000
# 2 -0.003103 0.018678 -0.007457 0.000000 0.003513 0.000000
# 3 0.000116 -0.007457 0.037400 0.000000 -0.023847 0.000000
# 4 0.000000 0.000000 0.000000 0.066681 0.000000 -0.011369
# 5 -0.013766 0.003513 -0.023847 0.000000 0.066432 0.000000
# 6 0.000000 0.000000 0.000000 -0.011369 0.000000 0.057365
#
#
# Mechanical properties :
#
#
# Convention : Reuss Voigt Hill
#
# Bulk Modulus (GPa) = 20.42986 36.82337 28.62662
# Shear Modulus (GPa) = 16.80586 22.21858 19.51222
#
# Velocity S-wave (km/s) = 2.88594 3.31829 3.10964
# Velocity P-wave (km/s) = 4.60754 5.73849 5.20383
#
# Compressibility (1/GPa) = 0.04894795
#
# Stress axis : x y z
#
# Youngs Moduli (GPa) = 72.69621 53.53811 26.73763
#
# Poissons Ratio (x) = 0.16610 -0.00310
# Poissons Ratio (y) = 0.22554 0.19937
# Poissons Ratio (z) = -0.00842 0.39921
#
# Static dielectric constant tensor:
#      x y z
#    x 1.789520 0.000000 0.044240 
#    y 0.000000 1.726650 0.000000 
#    z 0.044240 0.000000 1.679860 
# 
# From -- ./inp_files/156240.got.cif
#   From: 2010.05.17/outbox.cif.g08.bks.cpg/sg12_79_cif.got.tgz:156240.got - 2010.06.03 13:09:07.
