data_PCOD9212721
_publ_section_title
;
Structure prediction by ZEFSAII (Michael W. Deem and Ramdas Pophale) SiO2 
 PCOD9212721
Probable space group: C 2/M
;
_chemical_formula_sum "Si O2"
_cell_formula_units_Z 40
_cell_length_a 9.432030
_cell_length_b 26.944722
_cell_length_c 12.371274
_cell_angle_alpha 90.000000
_cell_angle_beta 37.570470
_cell_angle_gamma 90.000000
_cell_volume 1917.059847
_symmetry_space_group_name_H-M "C 2/M"
_symmetry_group_IT_number 12
_symmetry_cell_setting 'monoclinic'
loop_
_space_group_symop_operation_xyz
x,y,z
-x,y,-z
-x,-y,-z
x,-y,z
1/2+x,1/2+y,z
1/2-x,1/2+y,-z
1/2-x,1/2-y,-z
1/2+x,1/2-y,z
loop_
_atom_site_type_symbol
_atom_site_label
_atom_site_fract_x
_atom_site_fract_y
_atom_site_fract_z
Si Si1 0.478131 0.282508 0.843511
Si Si2 0.945371 0.272302 0.659806
Si Si3 0.600051 0.941839 0.056327
Si Si4 0.095237 0.896320 0.757437
Si Si5 0.975954 0.385914 0.344390
O O1 0.669513 0.265902 0.813636
O O2 0.545175 0.268786 0.678962
O O3 0.479088 0.342012 0.846911
O O4 0.250000 0.250000 0.000000
O O5 0.000364 0.326367 0.674468
O O6 0.000000 0.272490 0.500000
O O7 0.483318 0.910839 0.223460
O O8 0.550181 0.000000 0.101781
O O9 0.500000 0.926426 0.000000
O O10 0.878376 0.933083 0.889749
O O11 0.248079 0.896924 0.554895
O O12 0.292072 0.903429 0.730553
#
# Coordination Sequence:
#
# PCOD9212721 Si02
#       5
#     8   8   8   8   8
#     4  11  22  36  59  93 127 169 211 257 307 367
#     4  11  21  39  60  88 130 168 207 258 307 366
#     4  11  26  45  65  95 130 164 209 269 336 397
#     4  10  22  42  65  98 128 166 218 266 314 380
#     4  10  21  43  69  92 127 171 215 269 319 371
#
# _framework density 20.865285
#
# number of rings (size 3 to 8) (size 9 to 14) (size 15 to 20)
#    0.000    1.400    4.000    3.000    0.000    9.600 
#    0.000    4.000    0.000    0.000    0.000    0.000 
#    0.000    0.000    0.000    0.000    0.000    0.000 
#
# Total GULP energy -111690.677996 kJ/mol
# GULP energy per Si atom -5584.533900 kJ/mol
# Density = 2.081779 g / cm^3
# Si number density = 20.865285 Si / 1000 Ang^3
#
#
#
# Elastic Constant Matrix: (Units=GPa)
#
#
# Indices 1 2 3 4 5 6 
#
# 1 80.2196 38.1371 32.5933 0.0000 31.1595 0.0000
# 2 38.1371 26.7326 23.0373 0.0000 18.5106 0.0000
# 3 32.5933 23.0373 110.4179 0.0000 12.3057 0.0000
# 4 0.0000 0.0000 0.0000 23.3397 0.0000 9.1079
# 5 31.1595 18.5106 12.3057 0.0000 35.2156 0.0000
# 6 0.0000 0.0000 0.0000 9.1079 0.0000 33.4071
#
#
#
# Elastic Compliance Matrix: (Units=1/GPa)
#
#
# Indices 1 2 3 4 5 6 
#
# 1 0.040320 -0.051378 -0.000225 0.000000 -0.008591 0.000000
# 2 -0.051378 0.134838 -0.010545 0.000000 -0.021731 0.000000
# 3 -0.000225 -0.010545 0.011116 0.000000 0.001857 0.000000
# 4 0.000000 0.000000 0.000000 0.047947 0.000000 -0.013072
# 5 -0.008591 -0.021731 0.001857 0.000000 0.046771 0.000000
# 6 0.000000 0.000000 0.000000 -0.013072 0.000000 0.033498
#
#
# Mechanical properties :
#
#
# Convention : Reuss Voigt Hill
#
# Bulk Modulus (GPa) = 16.13454 44.98948 30.56201
# Shear Modulus (GPa) = 10.88272 26.63264 18.75768
#
# Velocity S-wave (km/s) = 2.28627 3.57656 3.00157
# Velocity P-wave (km/s) = 3.83652 6.21807 5.16640
#
# Compressibility (1/GPa) = 0.06197883
#
# Stress axis : x y z
#
# Youngs Moduli (GPa) = 24.80180 7.41629 89.96150
#
# Poissons Ratio (x) = 0.38104 0.02022
# Poissons Ratio (y) = 1.27427 0.94860
# Poissons Ratio (z) = 0.00558 0.07820
#
# Static dielectric constant tensor:
#      x y z
#    x 1.733640 0.000000 -0.045670 
#    y 0.000000 1.697120 0.000000 
#    z -0.045670 0.000000 2.106340 
# 
# From -- ./inp_files/208909.got.cif
#   From: 2010.05.17/outbox.cif.g08.bks.cpg/sg12_105_cif.got.tgz:208909.got - 2010.06.03 13:09:07.
