data_PCOD9212789
_publ_section_title
;
Structure prediction by ZEFSAII (Michael W. Deem and Ramdas Pophale) SiO2 
 PCOD9212789
Probable space group: C 2/M
;
_chemical_formula_sum "Si O2"
_cell_formula_units_Z 44
_cell_length_a 28.960095
_cell_length_b 8.348706
_cell_length_c 24.102068
_cell_angle_alpha 90.000000
_cell_angle_beta 21.741111
_cell_angle_gamma 90.000000
_cell_volume 2158.539849
_symmetry_space_group_name_H-M "C 2/M"
_symmetry_group_IT_number 12
_symmetry_cell_setting 'monoclinic'
loop_
_space_group_symop_operation_xyz
x,y,z
-x,y,-z
-x,-y,-z
x,-y,z
1/2+x,1/2+y,z
1/2-x,1/2+y,-z
1/2-x,1/2-y,-z
1/2+x,1/2-y,z
loop_
_atom_site_type_symbol
_atom_site_label
_atom_site_fract_x
_atom_site_fract_y
_atom_site_fract_z
Si Si1 0.566429 0.668903 0.706424
Si Si2 0.219412 0.500000 0.278928
Si Si3 0.351500 0.825515 0.172445
Si Si4 0.711988 0.000000 0.157126
Si Si5 0.567737 0.000000 0.553962
Si Si6 0.249590 0.246661 0.405177
Si Si7 0.187259 0.313444 0.013373
O O1 0.496963 0.500000 0.779516
O O2 0.636709 0.678490 0.686696
O O3 0.671806 0.665877 0.541518
O O4 0.463220 0.804321 0.814583
O O5 0.293650 0.663694 0.211452
O O6 0.192502 0.500000 0.244508
O O7 0.100691 0.500000 0.452051
O O8 0.312373 0.829134 0.281002
O O9 0.311525 0.000000 0.192983
O O10 0.500000 0.815139 0.000000
O O11 0.774996 0.827954 0.071906
O O12 0.578786 0.000000 0.274511
O O13 0.641601 0.145530 0.498998
O O14 0.223406 0.500000 0.961915
O O15 0.250000 0.250000 0.000000
#
# Coordination Sequence:
#
# PCOD9212789 Si02
#       7
#     8   4   8   4   4   8   8
#     4  11  22  38  63  98 138 173 224 273 335 405
#     4  10  24  42  66  98 128 175 223 275 329 393
#     4  10  22  40  65  93 134 175 220 271 335 396
#     4  12  25  44  72  98 136 176 224 282 325 396
#     4  10  21  44  68  92 134 178 227 271 339 393
#     4  10  22  37  65  97 133 179 220 278 336 393
#     4  12  26  44  67  98 135 180 220 268 335 399
#
# _framework density 20.384149000000001
#
# number of rings (size 3 to 8) (size 9 to 14) (size 15 to 20)
#    0.000    1.273    2.727    2.182    3.818    2.182 
#    0.000    3.636    0.000    5.455    0.000    0.000 
#    0.000    0.000    0.000    0.000    0.000    0.000 
#
# Total GULP energy -122504.486424 kJ/mol
# GULP energy per Si atom -5568.385747 kJ/mol
# Density = 2.033775 g / cm^3
# Si number density = 20.384149 Si / 1000 Ang^3
#
#
#
# Elastic Constant Matrix: (Units=GPa)
#
#
# Indices 1 2 3 4 5 6 
#
# 1 97.1469 34.0716 20.8494 0.0000 9.7723 -0.0007
# 2 34.0716 160.0403 39.2904 0.0128 0.5688 0.0003
# 3 20.8494 39.2904 89.2196 0.0052 -9.8118 -0.0005
# 4 0.0000 0.0128 0.0052 185.9133 -0.0006 26.5626
# 5 9.7723 0.5688 -9.8118 -0.0006 25.0024 0.0000
# 6 -0.0007 0.0003 -0.0005 26.5626 0.0000 22.7116
#
#
#
# Elastic Compliance Matrix: (Units=1/GPa)
#
#
# Indices 1 2 3 4 5 6 
#
# 1 0.012100 -0.001914 -0.002613 0.000000 -0.005711 0.000000
# 2 -0.001914 0.007358 -0.002852 0.000000 -0.000538 0.000000
# 3 -0.002613 -0.002852 0.013789 0.000000 0.006498 0.000001
# 4 0.000000 0.000000 0.000000 0.006458 0.000000 -0.007553
# 5 -0.005711 -0.000538 0.006498 0.000000 0.044791 0.000000
# 6 0.000000 0.000000 0.000001 -0.007553 0.000000 0.052864
#
#
# Mechanical properties :
#
#
# Convention : Reuss Voigt Hill
#
# Bulk Modulus (GPa) = 54.08525 59.42552 56.75538
# Shear Modulus (GPa) = 31.58915 63.53848 47.56381
#
# Velocity S-wave (km/s) = 3.94088 5.58911 4.83574
# Velocity P-wave (km/s) = 6.87735 8.41826 7.68652
#
# Compressibility (1/GPa) = 0.01848933
#
# Stress axis : x y z
#
# Youngs Moduli (GPa) = 82.64221 135.90417 72.51906
#
# Poissons Ratio (x) = 0.26017 0.18947
# Poissons Ratio (y) = 0.15821 0.20684
# Poissons Ratio (z) = 0.21592 0.38763
#
# Static dielectric constant tensor:
#      x y z
#    x 1.688800 0.000000 0.016520 
#    y 0.000000 1.791040 0.000000 
#    z 0.016520 0.000000 1.714440 
# 
# From -- ./inp_files/353229.got.cif
#   From: 2010.05.17/outbox.cif.g08.bks.cpg/sg12_177_cif.got.tgz:353229.got - 2010.06.03 13:09:07.
