data_PCOD9212396
_publ_section_title
;
Structure prediction by ZEFSAII (Michael W. Deem and Ramdas Pophale) SiO2 
 PCOD9212396
Probable space group: C 2/M
;
_chemical_formula_sum "Si O2"
_cell_formula_units_Z 56
_cell_length_a 10.182462
_cell_length_b 30.570754
_cell_length_c 9.853630
_cell_angle_alpha 90.000000
_cell_angle_beta 118.739501
_cell_angle_gamma 90.000000
_cell_volume 2689.447739
_symmetry_space_group_name_H-M "C 2/M"
_symmetry_group_IT_number 12
_symmetry_cell_setting 'monoclinic'
loop_
_space_group_symop_operation_xyz
x,y,z
-x,y,-z
-x,-y,-z
x,-y,z
1/2+x,1/2+y,z
1/2-x,1/2+y,-z
1/2-x,1/2-y,-z
1/2+x,1/2-y,z
loop_
_atom_site_type_symbol
_atom_site_label
_atom_site_fract_x
_atom_site_fract_y
_atom_site_fract_z
Si Si1 0.666042 0.000000 0.896587
Si Si2 0.245533 0.870487 0.386053
Si Si3 0.576667 0.740918 0.889884
Si Si4 0.891791 0.852811 0.223232
Si Si5 0.607269 0.781442 0.433327
Si Si6 0.322790 0.583666 0.407614
Si Si7 0.319344 0.592947 0.928778
Si Si8 0.662239 0.000000 0.217883
O O1 0.751182 0.044462 0.899128
O O2 0.491241 0.000000 0.772330
O O3 0.651676 0.000000 0.051335
O O4 0.335642 0.828917 0.486616
O O5 0.268098 0.911054 0.497764
O O6 0.258785 0.881028 0.234053
O O7 0.066541 0.865432 0.317042
O O8 0.590409 0.697439 0.805683
O O9 0.483074 0.776048 0.753616
O O10 0.500000 0.733631 0.000000
O O11 0.750000 0.750000 0.000000
O O12 0.816090 0.870023 0.323086
O O13 0.808279 0.878914 0.061038
O O14 0.500000 0.765068 0.500000
O O15 0.750000 0.750000 0.500000
O O16 0.500000 0.573350 0.500000
O O17 0.250081 0.544041 0.293466
O O18 0.500000 0.589780 0.000000
#
# Coordination Sequence:
#
# PCOD9212396 Si02
#       8
#     4   8   8   8   8   8   8   4
#     4  11  23  41  67  95 138 175 224 278 356 405
#     4  10  23  41  66 101 128 178 226 284 345 400
#     4  12  27  45  69 104 140 184 236 292 349 414
#     4  10  21  41  69  91 138 174 231 277 336 409
#     4  12  27  45  70  98 141 183 231 291 351 416
#     4  10  22  41  69  96 132 180 225 279 334 421
#     4  10  21  41  69  98 131 177 229 282 333 417
#     4  11  23  43  61 103 136 173 218 288 344 409
#
# _framework density 20.822120000000002
#
# number of rings (size 3 to 8) (size 9 to 14) (size 15 to 20)
#    0.000    1.286    2.857    2.571    6.000    1.714 
#    0.000    0.714    0.000    0.000    0.000    0.000 
#    0.000    0.000    0.000    0.000    0.000    0.000 
#
# Total GULP energy -156124.556787 kJ/mol
# GULP energy per Si atom -5575.877028 kJ/mol
# Density = 2.077473 g / cm^3
# Si number density = 20.822120 Si / 1000 Ang^3
#
#
#
# Elastic Constant Matrix: (Units=GPa)
#
#
# Indices 1 2 3 4 5 6 
#
# 1 70.9877 13.3554 28.3523 0.0000 6.7040 0.0000
# 2 13.3554 84.8068 41.8183 0.0000 13.6843 0.0000
# 3 28.3523 41.8183 118.7212 0.0000 2.8213 0.0000
# 4 0.0000 0.0000 0.0000 27.7109 0.0000 -35.6969
# 5 6.7040 13.6843 2.8213 0.0000 21.3820 0.0000
# 6 0.0000 0.0000 0.0000 -35.6969 0.0000 -67.2428
#
#
#
# Elastic Compliance Matrix: (Units=1/GPa)
#
#
# Indices 1 2 3 4 5 6 
#
# 1 0.015997 0.000057 -0.003732 0.000000 -0.004560 0.000000
# 2 0.000057 0.015995 -0.005421 0.000000 -0.009539 0.000000
# 3 -0.003732 -0.005421 0.011149 0.000000 0.003168 0.000000
# 4 0.000000 0.000000 0.000000 0.021431 0.000000 -0.011377
# 5 -0.004560 -0.009539 0.003168 0.000000 0.053885 0.000000
# 6 0.000000 0.000000 0.000000 -0.011377 0.000000 -0.008832
#
#
# Mechanical properties :
#
#
# Convention : Reuss Voigt Hill
#
# Bulk Modulus (GPa) = 40.08271 49.06307 44.57289
# Shear Modulus (GPa) = 36.72866 9.10266 22.91566
#
# Velocity S-wave (km/s) = 4.20447 2.09311 3.32104
# Velocity P-wave (km/s) = 6.54690 5.42730 6.01322
#
# Compressibility (1/GPa) = 0.02494842
#
# Stress axis : x y z
#
# Youngs Moduli (GPa) = 62.50992 62.52018 89.69800
#
# Poissons Ratio (x) = -0.00355 0.33476
# Poissons Ratio (y) = -0.00355 0.48624
# Poissons Ratio (z) = 0.23329 0.33891
#
# Static dielectric constant tensor:
#      x y z
#    x 1.697190 0.000000 -0.176920 
#    y 0.000000 1.484810 0.000000 
#    z -0.176920 0.000000 0.120270 
# 
# From -- ./inp_files/54867.got.cif
#   From: 2010.05.17/outbox.cif.g08.bks.cpg/sg12_28_cif.got.tgz:54867.got - 2010.06.03 13:09:07.
