data_PCOD9212919
_publ_section_title
;
Structure prediction by ZEFSAII (Michael W. Deem and Ramdas Pophale) SiO2 
 PCOD9212919
Probable space group: C 2/M
;
_chemical_formula_sum "Si O2"
_cell_formula_units_Z 46
_cell_length_a 14.388100
_cell_length_b 13.874167
_cell_length_c 19.526910
_cell_angle_alpha 90.000000
_cell_angle_beta 34.338787
_cell_angle_gamma 90.000000
_cell_volume 2198.814343
_symmetry_space_group_name_H-M "C 2/M"
_symmetry_group_IT_number 12
_symmetry_cell_setting 'monoclinic'
loop_
_space_group_symop_operation_xyz
x,y,z
-x,y,-z
-x,-y,-z
x,-y,z
1/2+x,1/2+y,z
1/2-x,1/2+y,-z
1/2-x,1/2-y,-z
1/2+x,1/2-y,z
loop_
_atom_site_type_symbol
_atom_site_label
_atom_site_fract_x
_atom_site_fract_y
_atom_site_fract_z
Si Si1 0.562618 0.799715 0.391618
Si Si2 0.043624 0.500000 0.191740
Si Si3 0.498700 0.205620 0.720973
Si Si4 0.000000 0.500000 0.500000
Si Si5 0.069243 0.804985 0.807974
Si Si6 0.556931 0.500000 0.044816
Si Si7 0.154865 0.291880 0.957602
Si Si8 0.878192 0.500000 0.009764
O O1 0.500000 0.751339 0.500000
O O2 0.467255 0.779509 0.379835
O O3 0.755196 0.776805 0.267894
O O4 0.550419 0.913880 0.414963
O O5 0.972006 0.597073 0.269796
O O6 0.244108 0.500000 0.076203
O O7 0.022405 0.500000 0.122135
O O8 0.581317 0.285648 0.719717
O O9 0.301791 0.222505 0.848696
O O10 0.014534 0.907655 0.871145
O O11 0.926775 0.734244 0.920683
O O12 0.500000 0.500000 0.000000
O O13 0.220119 0.400822 0.923933
O O14 0.000000 0.285386 0.000000
O O15 0.000000 0.500000 0.000000
#
# Coordination Sequence:
#
# PCOD9212919 Si02
#       8
#     8   4   8   2   8   4   8   4
#     4  10  23  42  62  85 115 158 205 261 311 357
#     4  12  21  35  54  92 128 161 194 240 305 367
#     4  12  23  37  62  91 125 159 207 253 303 372
#     4   8  20  46  64  86 120 140 214 262 320 364
#     4  12  22  38  62  90 123 163 205 245 310 370
#     4  12  23  35  56  93 133 159 193 247 308 367
#     4  11  20  38  58  91 125 166 197 242 300 376
#     4  10  22  35  54  81 130 166 199 230 288 363
#
# _framework density 20.920365
#
# number of rings (size 3 to 8) (size 9 to 14) (size 15 to 20)
#    0.522    0.348    5.217    4.174    0.000    0.696 
#    0.000    0.000    0.000    0.000    0.000    4.870 
#    0.000    0.000    0.000    0.000    0.000    0.000 
#
# Total GULP energy -128094.326431 kJ/mol
# GULP energy per Si atom -5569.318540 kJ/mol
# Density = 2.087275 g / cm^3
# Si number density = 20.920365 Si / 1000 Ang^3
#
#
#
# Elastic Constant Matrix: (Units=GPa)
#
#
# Indices 1 2 3 4 5 6 
#
# 1 121.3364 14.2030 29.4873 -0.0002 42.6345 0.0000
# 2 14.2030 94.6807 8.2527 -0.0002 11.3494 0.0000
# 3 29.4873 8.2527 52.1306 -0.0007 31.0938 0.0001
# 4 -0.0002 -0.0002 -0.0007 16.1122 0.0003 5.9542
# 5 42.6345 11.3494 31.0938 0.0003 40.6877 0.0000
# 6 0.0000 0.0000 0.0001 5.9542 0.0000 16.5875
#
#
#
# Elastic Compliance Matrix: (Units=1/GPa)
#
#
# Indices 1 2 3 4 5 6 
#
# 1 0.013112 -0.000324 0.001425 0.000001 -0.014738 0.000000
# 2 -0.000324 0.010936 0.000127 0.000000 -0.002807 0.000000
# 3 0.001425 0.000127 0.035408 0.000003 -0.028588 -0.000001
# 4 0.000001 0.000000 0.000003 0.071557 -0.000003 -0.025686
# 5 -0.014738 -0.002807 -0.028588 -0.000003 0.062650 0.000001
# 6 0.000000 0.000000 -0.000001 -0.025686 0.000001 0.069507
#
#
# Mechanical properties :
#
#
# Convention : Reuss Voigt Hill
#
# Bulk Modulus (GPa) = 16.15237 41.33707 28.74472
# Shear Modulus (GPa) = 17.77142 29.09112 23.43127
#
# Velocity S-wave (km/s) = 2.91774 3.73307 3.35030
# Velocity P-wave (km/s) = 4.36905 6.19542 5.36059
#
# Compressibility (1/GPa) = 0.06191043
#
# Stress axis : x y z
#
# Youngs Moduli (GPa) = 76.26835 91.44141 28.24246
#
# Poissons Ratio (x) = 0.02967 -0.04025
# Poissons Ratio (y) = 0.02475 -0.00358
# Poissons Ratio (z) = -0.10871 -0.01159
#
# Static dielectric constant tensor:
#      x y z
#    x 1.844480 0.000000 0.044330 
#    y 0.000000 1.765630 0.000000 
#    z 0.044330 0.000000 1.776490 
# 
# From -- ./inp_files/270160.got.cif
#   From: 2010.05.17/outbox.cif.g08.bks.cpg/sg12_136_cif.got.tgz:270160.got - 2010.06.03 13:09:07.
