data_PCOD9212890
_publ_section_title
;
Structure prediction by ZEFSAII (Michael W. Deem and Ramdas Pophale) SiO2 
 PCOD9212890
Probable space group: C 2/M
;
_chemical_formula_sum "Si O2"
_cell_formula_units_Z 64
_cell_length_a 14.387588
_cell_length_b 25.467433
_cell_length_c 18.473485
_cell_angle_alpha 90.000000
_cell_angle_beta 152.076315
_cell_angle_gamma 90.000000
_cell_volume 3169.871207
_symmetry_space_group_name_H-M "C 2/M"
_symmetry_group_IT_number 12
_symmetry_cell_setting 'monoclinic'
loop_
_space_group_symop_operation_xyz
x,y,z
-x,y,-z
-x,-y,-z
x,-y,z
1/2+x,1/2+y,z
1/2-x,1/2+y,-z
1/2-x,1/2-y,-z
1/2+x,1/2-y,z
loop_
_atom_site_type_symbol
_atom_site_label
_atom_site_fract_x
_atom_site_fract_y
_atom_site_fract_z
Si Si1 0.521758 0.841462 0.762166
Si Si2 0.523315 0.558507 0.245673
Si Si3 0.775991 0.839816 0.073789
Si Si4 0.548094 0.058558 0.386809
Si Si5 0.635508 0.416311 0.165656
Si Si6 0.373497 0.277915 0.477780
Si Si7 0.765340 0.249995 0.175081
Si Si8 0.869251 0.199522 0.777767
O O1 0.488328 0.894325 0.694172
O O2 0.315255 0.810891 0.627905
O O3 0.682177 0.802992 0.833475
O O4 0.604933 0.853094 0.899097
O O5 0.462712 0.500000 0.228069
O O6 0.385670 0.607062 0.174442
O O7 0.748992 0.567704 0.428797
O O8 0.526996 0.559522 0.160584
O O9 0.709706 0.800675 0.090454
O O10 0.937174 0.806561 0.137944
O O11 0.349977 0.059112 0.299152
O O12 0.564166 0.000000 0.365067
O O13 0.673684 0.356846 0.217770
O O14 0.500000 0.418579 0.000000
O O15 0.500000 0.304347 0.500000
O O16 0.521401 0.265596 0.643815
O O17 0.293269 0.223867 0.387353
O O18 0.629078 0.263503 0.150589
#
# Coordination Sequence:
#
# PCOD9212890 Si02
#       8
#     8   8   8   8   8   8   8   8
#     4  12  23  38  60  85 120 155 199 250 297 357
#     4  10  23  39  57  80 116 159 205 249 295 359
#     4  11  24  38  58  90 124 161 199 248 299 361
#     4  11  23  38  58  84 113 158 206 249 298 355
#     4  11  22  34  54  83 121 162 200 247 293 351
#     4  10  23  39  58  87 115 162 200 246 299 361
#     4  11  22  37  60  83 122 161 195 248 295 354
#     4  10  22  34  57  86 123 159 204 232 295 350
#
# _framework density 20.190094999999999
#
# number of rings (size 3 to 8) (size 9 to 14) (size 15 to 20)
#    0.000    1.250    2.500    3.750    3.500    5.500 
#    2.250    0.000    0.000    0.375    0.000    2.625 
#    0.000   10.000    0.000    0.000    0.000    0.000 
#
# Total GULP energy -178870.909969 kJ/mol
# GULP energy per Si atom -5589.715937 kJ/mol
# Density = 2.014414 g / cm^3
# Si number density = 20.190095 Si / 1000 Ang^3
#
#
#
# Elastic Constant Matrix: (Units=GPa)
#
#
# Indices 1 2 3 4 5 6 
#
# 1 48.0249 38.3570 2.8268 -0.0002 3.4216 0.0001
# 2 38.3570 136.5130 48.7827 -0.0004 -3.2283 0.0003
# 3 2.8268 48.7827 64.5329 -0.0006 -15.4060 0.0008
# 4 -0.0002 -0.0004 -0.0006 15.1378 -0.0003 0.2145
# 5 3.4216 -3.2283 -15.4060 -0.0003 29.8510 0.0004
# 6 0.0001 0.0003 0.0008 0.2145 0.0004 4.1690
#
#
#
# Elastic Compliance Matrix: (Units=1/GPa)
#
#
# Indices 1 2 3 4 5 6 
#
# 1 0.028825 -0.010379 0.006303 0.000000 -0.001173 -0.000001
# 2 -0.010379 0.014054 -0.010861 0.000000 -0.002895 0.000002
# 3 0.006303 -0.010861 0.026206 0.000001 0.011628 -0.000006
# 4 0.000000 0.000000 0.000001 0.066108 0.000001 -0.003401
# 5 -0.001173 -0.002895 0.011628 0.000001 0.039322 -0.000006
# 6 -0.000001 0.000002 -0.000006 -0.003401 -0.000006 0.240043
#
#
# Mechanical properties :
#
#
# Convention : Reuss Voigt Hill
#
# Bulk Modulus (GPa) = 25.50272 47.66711 36.58492
# Shear Modulus (GPa) = 10.92892 20.43852 15.68372
#
# Velocity S-wave (km/s) = 2.32911 3.18512 2.79014
# Velocity P-wave (km/s) = 4.46002 6.09812 5.34223
#
# Compressibility (1/GPa) = 0.03921151
#
# Stress axis : x y z
#
# Youngs Moduli (GPa) = 34.69210 71.15281 38.15968
#
# Poissons Ratio (x) = 0.73852 -0.24054
# Poissons Ratio (y) = 0.36008 0.41444
# Poissons Ratio (z) = -0.21868 0.77277
#
# Static dielectric constant tensor:
#      x y z
#    x 1.723680 0.000000 -0.004780 
#    y 0.000000 1.724880 0.000000 
#    z -0.004780 0.000000 1.765820 
# 
# From -- ./inp_files/272846.got.cif
#   From: 2010.05.17/outbox.cif.g08.bks.cpg/sg12_137_cif.got.tgz:272846.got - 2010.06.03 13:09:07.
