data_PCOD9212239
_publ_section_title
;
Structure prediction by ZEFSAII (Michael W. Deem and Ramdas Pophale) SiO2 
 PCOD9212239
Probable space group: C 2/M
;
_chemical_formula_sum "Si O2"
_cell_formula_units_Z 58
_cell_length_a 20.024035
_cell_length_b 7.580614
_cell_length_c 17.937908
_cell_angle_alpha 90.000000
_cell_angle_beta 116.621348
_cell_angle_gamma 90.000000
_cell_volume 2434.216160
_symmetry_space_group_name_H-M "C 2/M"
_symmetry_group_IT_number 12
_symmetry_cell_setting 'monoclinic'
loop_
_space_group_symop_operation_xyz
x,y,z
-x,y,-z
-x,-y,-z
x,-y,z
1/2+x,1/2+y,z
1/2-x,1/2+y,-z
1/2-x,1/2-y,-z
1/2+x,1/2-y,z
loop_
_atom_site_type_symbol
_atom_site_label
_atom_site_fract_x
_atom_site_fract_y
_atom_site_fract_z
Si Si1 0.481752 0.706532 0.809143
Si Si2 0.246796 0.298996 0.882962
Si Si3 0.600079 0.714875 0.993470
Si Si4 0.314561 0.796242 0.760029
Si Si5 0.094297 0.286709 0.745368
Si Si6 0.419088 0.786287 0.431352
Si Si7 0.767130 0.200169 0.424472
Si Si8 0.000000 0.500000 0.000000
O O1 0.471686 0.500000 0.817595
O O2 0.547986 0.767798 0.897631
O O3 0.402218 0.791017 0.784714
O O4 0.516809 0.737080 0.745620
O O5 0.233145 0.500000 0.898515
O O6 0.287932 0.297409 0.822306
O O7 0.165824 0.215663 0.827542
O O8 0.313021 0.234156 0.969885
O O9 0.594668 0.500000 0.002797
O O10 0.564261 0.842147 0.037247
O O11 0.273737 0.713250 0.667057
O O12 0.291749 0.000000 0.760091
O O13 0.099188 0.500000 0.747245
O O14 0.096780 0.227328 0.661164
O O15 0.500000 0.730031 0.500000
O O16 0.354400 0.719459 0.452456
O O17 0.417165 0.000000 0.431133
O O18 0.750000 0.250000 0.500000
O O19 0.741802 0.000000 0.406213
#
# Coordination Sequence:
#
# PCOD9212239 Si02
#       8
#     8   8   8   8   8   8   8   2
#     4  11  25  42  61  91 134 173 208 272 324 373
#     4  10  21  41  66  91 126 169 211 272 322 377
#     4  10  24  41  59  96 134 169 226 275 323 394
#     4  11  24  40  63  93 127 162 213 265 314 382
#     4  10  22  41  66  93 126 169 216 256 320 392
#     4  10  22  42  67  94 126 163 206 258 316 384
#     4  11  25  43  65  96 129 164 208 264 316 381
#     4  12  22  36  68  94 124 180 210 270 344 382
#
# _framework density 23.826972999999999
#
# number of rings (size 3 to 8) (size 9 to 14) (size 15 to 20)
#    0.000    1.517    1.379    2.276    6.759    5.793 
#    0.000    0.000    0.000    0.000    0.000    0.000 
#    0.000    0.000    0.000    0.000    0.000    0.000 
#
# Total GULP energy -161843.819955 kJ/mol
# GULP energy per Si atom -5580.821378 kJ/mol
# Density = 2.377274 g / cm^3
# Si number density = 23.826973 Si / 1000 Ang^3
#
#
#
# Elastic Constant Matrix: (Units=GPa)
#
#
# Indices 1 2 3 4 5 6 
#
# 1 108.5904 -11.3760 18.7565 0.0000 -3.5310 0.0000
# 2 -11.3760 71.6217 1.9771 0.0000 3.3893 0.0000
# 3 18.7565 1.9771 73.6936 0.0000 7.1220 0.0000
# 4 0.0000 0.0000 0.0000 2.2311 0.0000 1.9923
# 5 -3.5310 3.3893 7.1220 0.0000 39.9253 0.0000
# 6 0.0000 0.0000 0.0000 1.9923 0.0000 19.0958
#
#
#
# Elastic Compliance Matrix: (Units=1/GPa)
#
#
# Indices 1 2 3 4 5 6 
#
# 1 0.009876 0.001585 -0.002674 0.000000 0.001216 0.000000
# 2 0.001585 0.014278 -0.000695 0.000000 -0.000948 0.000000
# 3 -0.002674 -0.000695 0.014537 0.000000 -0.002771 0.000000
# 4 0.000000 0.000000 0.000000 0.494261 0.000000 -0.051566
# 5 0.001216 -0.000948 -0.002771 0.000000 0.025729 0.000000
# 6 0.000000 0.000000 0.000000 -0.051566 0.000000 0.057747
#
#
# Mechanical properties :
#
#
# Convention : Reuss Voigt Hill
#
# Bulk Modulus (GPa) = 28.47077 30.29120 29.38098
# Shear Modulus (GPa) = 7.91511 28.55364 18.23437
#
# Velocity S-wave (km/s) = 1.82459 3.46551 2.76938
# Velocity P-wave (km/s) = 4.05139 5.36224 4.75223
#
# Compressibility (1/GPa) = 0.03512374
#
# Stress axis : x y z
#
# Youngs Moduli (GPa) = 101.25222 70.03766 68.79174
#
# Poissons Ratio (x) = -0.11101 0.18393
# Poissons Ratio (y) = -0.16048 0.04780
# Poissons Ratio (z) = 0.27072 0.04867
#
# Static dielectric constant tensor:
#      x y z
#    x 1.902260 0.000000 -0.011280 
#    y 0.000000 1.914400 0.000000 
#    z -0.011280 0.000000 2.030370 
# 
# From -- ./inp_files/282250.got.cif
#   From: 2010.05.17/outbox.cif.g08.bks.cpg/sg12_142_cif.got.tgz:282250.got - 2010.06.03 13:09:07.
