data_PCOD9212968
_publ_section_title
;
Structure prediction by ZEFSAII (Michael W. Deem and Ramdas Pophale) SiO2 
 PCOD9212968
Probable space group: C 2/M
;
_chemical_formula_sum "Si O2"
_cell_formula_units_Z 40
_cell_length_a 26.643479
_cell_length_b 10.039294
_cell_length_c 9.123782
_cell_angle_alpha 90.000000
_cell_angle_beta 128.593718
_cell_angle_gamma 90.000000
_cell_volume 1907.424567
_symmetry_space_group_name_H-M "C 2/M"
_symmetry_group_IT_number 12
_symmetry_cell_setting 'monoclinic'
loop_
_space_group_symop_operation_xyz
x,y,z
-x,y,-z
-x,-y,-z
x,-y,z
1/2+x,1/2+y,z
1/2-x,1/2+y,-z
1/2-x,1/2-y,-z
1/2+x,1/2-y,z
loop_
_atom_site_type_symbol
_atom_site_label
_atom_site_fract_x
_atom_site_fract_y
_atom_site_fract_z
Si Si1 0.029465 0.000000 0.769308
Si Si2 0.245500 0.000000 0.230393
Si Si3 0.450384 0.283346 0.773575
Si Si4 0.815075 0.280545 0.203674
Si Si5 0.129789 0.000000 0.226030
Si Si6 0.096548 0.500000 0.759510
Si Si7 0.143396 0.000000 0.767461
Si Si8 0.533350 0.000000 0.326143
O O1 0.985990 0.129782 0.713625
O O2 0.072541 0.000000 0.705003
O O3 0.080609 0.000000 0.997656
O O4 0.292096 0.873690 0.294410
O O5 0.201028 0.000000 0.291279
O O6 0.194997 0.000000 0.998839
O O7 0.389849 0.368931 0.718491
O O8 0.442377 0.133386 0.706831
O O9 0.500000 0.280468 0.000000
O O10 0.859462 0.368198 0.174927
O O11 0.845516 0.138415 0.295476
O O12 0.750000 0.250000 0.000000
O O13 0.059887 0.500000 0.538359
O O14 0.044579 0.500000 0.794970
#
# Coordination Sequence:
#
# PCOD9212968 Si02
#       8
#     4   4   8   8   4   4   4   4
#     4   8  14  26  46  69  98 127 161 212 262 303
#     4   8  15  27  45  70 100 126 155 212 274 302
#     4   9  17  30  49  74 101 136 180 216 249 303
#     4   9  17  31  51  73  97 131 177 220 254 302
#     4   8  15  29  48  70  97 131 169 216 265 296
#     4  10  22  36  51  75 113 148 165 204 283 332
#     4   9  14  24  45  73  95 121 163 211 256 301
#     4  11  21  34  51  77 114 145 168 209 270 332
#
# _framework density 20.970686000000001
#
# number of rings (size 3 to 8) (size 9 to 14) (size 15 to 20)
#    0.000    3.000    0.000    3.300    0.000    1.600 
#    0.000    3.000    0.000   12.000    0.000    0.000 
#    0.000    0.000    0.000    0.000    0.000    0.000 
#
# Total GULP energy -111616.806101 kJ/mol
# GULP energy per Si atom -5580.840305 kJ/mol
# Density = 2.092296 g / cm^3
# Si number density = 20.970686 Si / 1000 Ang^3
#
#
#
# Elastic Constant Matrix: (Units=GPa)
#
#
# Indices 1 2 3 4 5 6 
#
# 1 165.3975 108.4560 13.9389 0.0000 17.0067 0.0000
# 2 108.4560 228.3125 11.2671 0.0000 8.1624 0.0000
# 3 13.9389 11.2671 44.6647 0.0000 3.4920 0.0000
# 4 0.0000 0.0000 0.0000 47.1770 0.0000 97.0596
# 5 17.0067 8.1624 3.4920 0.0000 21.8215 0.0000
# 6 0.0000 0.0000 0.0000 97.0596 0.0000 163.4302
#
#
#
# Elastic Compliance Matrix: (Units=1/GPa)
#
#
# Indices 1 2 3 4 5 6 
#
# 1 0.009538 -0.004258 -0.001464 0.000000 -0.005607 0.000000
# 2 -0.004258 0.006385 -0.000359 0.000000 0.000988 0.000000
# 3 -0.001464 -0.000359 0.023126 0.000000 -0.002425 0.000000
# 4 0.000000 0.000000 0.000000 -0.095549 0.000000 0.056746
# 5 -0.005607 0.000988 -0.002425 0.000000 0.050215 0.000000
# 6 0.000000 0.000000 0.000000 0.056746 0.000000 -0.027582
#
#
# Mechanical properties :
#
#
# Convention : Reuss Voigt Hill
#
# Bulk Modulus (GPa) = 37.19322 78.41098 57.80210
# Shear Modulus (GPa) = -392.39761 66.79991 -162.79885
#
# Velocity S-wave (km/s) = -13.69392 5.65005 -8.82044
# Velocity P-wave (km/s) = 15.23998 8.94629 8.72413
#
# Compressibility (1/GPa) = 0.02688662
#
# Stress axis : x y z
#
# Youngs Moduli (GPa) = 104.84180 156.61261 43.24112
#
# Poissons Ratio (x) = 0.66690 0.06331
# Poissons Ratio (y) = 0.44644 0.01553
# Poissons Ratio (z) = 0.15350 0.05623
#
# Static dielectric constant tensor:
#      x y z
#    x 1.742120 0.000000 0.007040 
#    y 0.000000 1.738540 0.000000 
#    z 0.007040 0.000000 1.786570 
# 
# From -- ./inp_files/180338.got.cif
#   From: 2010.05.17/outbox.cif.g08.bks.cpg/sg12_91_cif.got.tgz:180338.got - 2010.06.03 13:09:07.
