data_PCOD9212392
_publ_section_title
;
Structure prediction by ZEFSAII (Michael W. Deem and Ramdas Pophale) SiO2 
 PCOD9212392
Probable space group: C 2/M
;
_chemical_formula_sum "Si O2"
_cell_formula_units_Z 50
_cell_length_a 13.778590
_cell_length_b 14.694291
_cell_length_c 11.755591
_cell_angle_alpha 90.000000
_cell_angle_beta 121.215077
_cell_angle_gamma 90.000000
_cell_volume 2035.540508
_symmetry_space_group_name_H-M "C 2/M"
_symmetry_group_IT_number 12
_symmetry_cell_setting 'monoclinic'
loop_
_space_group_symop_operation_xyz
x,y,z
-x,y,-z
-x,-y,-z
x,-y,z
1/2+x,1/2+y,z
1/2-x,1/2+y,-z
1/2-x,1/2-y,-z
1/2+x,1/2-y,z
loop_
_atom_site_type_symbol
_atom_site_label
_atom_site_fract_x
_atom_site_fract_y
_atom_site_fract_z
Si Si1 0.284044 0.602684 0.104992
Si Si2 0.459068 0.165745 0.631856
Si Si3 0.005673 0.130284 0.374061
Si Si4 0.131667 0.111357 0.079108
Si Si5 0.738221 0.604609 0.384661
Si Si6 0.000000 0.500000 0.500000
Si Si7 0.903304 0.605031 0.846192
O O1 0.235612 0.500000 0.058251
O O2 0.408329 0.593794 0.233468
O O3 0.205013 0.645541 0.153698
O O4 0.301070 0.644692 0.991156
O O5 0.513913 0.261576 0.639892
O O6 0.334239 0.164833 0.499216
O O7 0.519887 0.080954 0.609863
O O8 0.442475 0.154173 0.756280
O O9 0.000000 0.099255 0.500000
O O10 0.127294 0.106342 0.395619
O O11 0.195456 0.131968 0.234633
O O12 0.127397 0.000000 0.069141
O O13 0.000000 0.142663 0.000000
O O14 0.787925 0.500000 0.410829
O O15 0.877543 0.500000 0.795630
O O16 0.000000 0.604840 0.000000
#
# Coordination Sequence:
#
# PCOD9212392 Si02
#       7
#     8   8   8   8   8   2   8
#     4  10  21  41  69 103 139 180 220 276 349 416
#     4  12  25  46  66  96 133 175 241 285 331 404
#     4  12  25  40  64  98 139 172 223 288 342 403
#     4   9  17  35  63 100 139 171 224 270 330 420
#     4  11  22  40  70  99 134 184 217 283 348 402
#     4  12  24  48  74  84 130 188 238 284 330 400
#     4  10  22  44  71  97 133 177 226 283 339 407
#
# _framework density 24.563500999999999
#
# number of rings (size 3 to 8) (size 9 to 14) (size 15 to 20)
#    0.000    1.280    4.000    1.920    0.000    3.840 
#    5.760    0.800    0.000    0.000    0.000    0.000 
#    0.000    0.000    0.000    0.000    0.000    0.000 
#
# Total GULP energy -139848.822223 kJ/mol
# GULP energy per Si atom -5593.952889 kJ/mol
# Density = 2.450759 g / cm^3
# Si number density = 24.563501 Si / 1000 Ang^3
#
#
#
# Elastic Constant Matrix: (Units=GPa)
#
#
# Indices 1 2 3 4 5 6 
#
# 1 79.5414 12.5840 26.0659 0.0000 -28.6453 0.0000
# 2 12.5840 118.0586 14.8685 0.0000 -11.9310 0.0000
# 3 26.0659 14.8685 151.3814 0.0000 -39.2621 0.0000
# 4 0.0000 0.0000 0.0000 22.8731 0.0000 4.8417
# 5 -28.6453 -11.9310 -39.2621 0.0000 60.3747 0.0000
# 6 0.0000 0.0000 0.0000 4.8417 0.0000 74.9121
#
#
#
# Elastic Compliance Matrix: (Units=1/GPa)
#
#
# Indices 1 2 3 4 5 6 
#
# 1 0.015351 -0.000866 -0.000858 0.000000 0.006554 0.000000
# 2 -0.000866 0.008722 -0.000442 0.000000 0.001026 0.000000
# 3 -0.000858 -0.000442 0.008022 0.000000 0.004722 0.000000
# 4 0.000000 0.000000 0.000000 0.044326 0.000000 -0.002865
# 5 0.006554 0.001026 0.004722 0.000000 0.022946 0.000000
# 6 0.000000 0.000000 0.000000 -0.002865 0.000000 0.013534
#
#
# Mechanical properties :
#
#
# Convention : Reuss Voigt Hill
#
# Bulk Modulus (GPa) = 36.01929 50.66868 43.34399
# Shear Modulus (GPa) = 39.53000 51.32951 45.42975
#
# Velocity S-wave (km/s) = 4.01596 4.57625 4.30523
# Velocity P-wave (km/s) = 6.01660 6.97102 6.51132
#
# Compressibility (1/GPa) = 0.02776290
#
# Stress axis : x y z
#
# Youngs Moduli (GPa) = 65.14400 114.65360 124.66176
#
# Poissons Ratio (x) = 0.09927 0.10700
# Poissons Ratio (y) = 0.05640 0.05505
# Poissons Ratio (z) = 0.05591 0.05063
#
# Static dielectric constant tensor:
#      x y z
#    x 1.710070 0.000000 -0.037860 
#    y 0.000000 1.995570 0.000000 
#    z -0.037860 0.000000 1.854080 
# 
# From -- ./inp_files/143811.got.cif
#   From: 2010.05.17/outbox.cif.g08.bks.cpg/sg12_72_cif.got.tgz:143811.got - 2010.06.03 13:09:07.
