data_PCOD9212952
_publ_section_title
;
Structure prediction by ZEFSAII (Michael W. Deem and Ramdas Pophale) SiO2 
 PCOD9212952
Probable space group: C 2/M
;
_chemical_formula_sum "Si O2"
_cell_formula_units_Z 36
_cell_length_a 26.814398
_cell_length_b 14.988918
_cell_length_c 11.902686
_cell_angle_alpha 90.000000
_cell_angle_beta 156.632141
_cell_angle_gamma 90.000000
_cell_volume 1897.457928
_symmetry_space_group_name_H-M "C 2/M"
_symmetry_group_IT_number 12
_symmetry_cell_setting 'monoclinic'
loop_
_space_group_symop_operation_xyz
x,y,z
-x,y,-z
-x,-y,-z
x,-y,z
1/2+x,1/2+y,z
1/2-x,1/2+y,-z
1/2-x,1/2-y,-z
1/2+x,1/2-y,z
loop_
_atom_site_type_symbol
_atom_site_label
_atom_site_fract_x
_atom_site_fract_y
_atom_site_fract_z
Si Si1 0.828805 0.500000 0.544187
Si Si2 0.012627 0.104205 0.656124
Si Si3 0.500000 0.342014 0.000000
Si Si4 0.813004 0.865877 0.426301
Si Si5 0.106493 0.500000 0.059096
Si Si6 0.187810 0.816163 0.200564
O O1 0.866526 0.500000 0.752371
O O2 0.750610 0.410518 0.360204
O O3 0.957156 0.500000 0.737165
O O4 0.881802 0.112554 0.452753
O O5 0.000000 0.128426 0.500000
O O6 0.052804 0.000000 0.745516
O O7 0.107516 0.165863 0.922479
O O8 0.591324 0.393941 0.275280
O O9 0.593624 0.291090 0.108521
O O10 0.788134 0.761271 0.390892
O O11 0.680849 0.915512 0.163638
#
# Coordination Sequence:
#
# PCOD9212952 Si02
#       6
#     4   8   4   8   4   8
#     4  11  24  36  56  89 131 159 187 233 300 361
#     4  10  22  42  67  87 110 153 207 255 293 338
#     4  10  22  35  62  89 122 150 202 235 294 341
#     4  11  23  38  62  88 122 156 196 243 293 356
#     4  11  24  36  56  89 131 159 187 233 300 361
#     4  11  23  38  62  88 122 156 196 243 293 356
#
# _framework density 18.972753000000001
#
# number of rings (size 3 to 8) (size 9 to 14) (size 15 to 20)
#    0.000    1.333    4.444    0.667    6.222    1.778 
#    0.000    0.000    0.000    1.333    0.000    0.000 
#    0.000    0.000    0.000    0.000    0.000    0.000 
#
# Total GULP energy -100490.348891 kJ/mol
# GULP energy per Si atom -5582.797161 kJ/mol
# Density = 1.892957 g / cm^3
# Si number density = 18.972753 Si / 1000 Ang^3
#
#
#
# Elastic Constant Matrix: (Units=GPa)
#
#
# Indices 1 2 3 4 5 6 
#
# 1 144.4940 20.0201 51.0380 0.0000 -13.1263 0.0000
# 2 20.0201 90.9308 20.2685 0.0000 -1.9247 0.0000
# 3 51.0380 20.2685 72.6145 0.0000 6.8064 0.0000
# 4 0.0000 0.0000 0.0000 20.2665 0.0000 7.6212
# 5 -13.1263 -1.9247 6.8064 0.0000 29.2334 0.0000
# 6 0.0000 0.0000 0.0000 7.6212 0.0000 15.7580
#
#
#
# Elastic Compliance Matrix: (Units=1/GPa)
#
#
# Indices 1 2 3 4 5 6 
#
# 1 0.010281 -0.000410 -0.007710 0.000000 0.006384 0.000000
# 2 -0.000410 0.011814 -0.003134 0.000000 0.001323 0.000000
# 3 -0.007710 -0.003134 0.020864 0.000000 -0.008526 0.000000
# 4 0.000000 0.000000 0.000000 0.060312 0.000000 -0.029169
# 5 0.006384 0.001323 -0.008526 0.000000 0.039146 0.000000
# 6 0.000000 0.000000 0.000000 -0.029169 0.000000 0.077567
#
#
# Mechanical properties :
#
#
# Convention : Reuss Voigt Hill
#
# Bulk Modulus (GPa) = 48.89430 54.52138 51.70784
# Shear Modulus (GPa) = 20.05549 27.49910 23.77729
#
# Velocity S-wave (km/s) = 3.25479 3.81123 3.54394
# Velocity P-wave (km/s) = 6.32073 6.94020 6.63769
#
# Compressibility (1/GPa) = 0.02045228
#
# Stress axis : x y z
#
# Youngs Moduli (GPa) = 97.26876 84.64470 47.92880
#
# Poissons Ratio (x) = 0.03469 0.36953
# Poissons Ratio (y) = 0.03986 0.15019
# Poissons Ratio (z) = 0.74994 0.26524
#
# Static dielectric constant tensor:
#      x y z
#    x 1.642150 0.000000 0.020390 
#    y 0.000000 1.663760 0.000000 
#    z 0.020390 0.000000 1.665510 
# 
# From -- ./inp_files/184410.got.cif
#   From: 2010.05.17/outbox.cif.g08.bks.cpg/sg12_93_cif.got.tgz:184410.got - 2010.06.03 13:09:07.
