data_PCOD9212474
_publ_section_title
;
Structure prediction by ZEFSAII (Michael W. Deem and Ramdas Pophale) SiO2 
 PCOD9212474
Probable space group: C 2/M
;
_chemical_formula_sum "Si O2"
_cell_formula_units_Z 60
_cell_length_a 23.959041
_cell_length_b 9.292376
_cell_length_c 21.275386
_cell_angle_alpha 90.000000
_cell_angle_beta 39.851119
_cell_angle_gamma 90.000000
_cell_volume 3035.237661
_symmetry_space_group_name_H-M "C 2/M"
_symmetry_group_IT_number 12
_symmetry_cell_setting 'monoclinic'
loop_
_space_group_symop_operation_xyz
x,y,z
-x,y,-z
-x,-y,-z
x,-y,z
1/2+x,1/2+y,z
1/2-x,1/2+y,-z
1/2-x,1/2-y,-z
1/2+x,1/2-y,z
loop_
_atom_site_type_symbol
_atom_site_label
_atom_site_fract_x
_atom_site_fract_y
_atom_site_fract_z
Si Si1 0.291812 0.665613 0.906434
Si Si2 0.874391 0.772993 0.430503
Si Si3 0.981073 0.840077 0.797087
Si Si4 0.376421 0.327717 0.123036
Si Si5 0.726417 0.000000 0.535491
Si Si6 0.305151 0.830475 0.770048
Si Si7 0.984308 0.672949 0.920102
Si Si8 0.483272 0.667527 0.588877
O O1 0.262270 0.500000 0.929289
O O2 0.395590 0.666818 0.827787
O O3 0.271674 0.750995 0.861132
O O4 0.250000 0.750000 0.000000
O O5 0.834794 0.622895 0.444539
O O6 0.935372 0.823119 0.319271
O O7 0.936873 0.776130 0.437571
O O8 0.792344 0.877159 0.508081
O O9 0.972320 0.721459 0.858804
O O10 0.982720 0.000000 0.825582
O O11 0.395693 0.500000 0.107828
O O12 0.272469 0.311672 0.212868
O O13 0.423215 0.239684 0.137797
O O14 0.417380 0.255141 0.024661
O O15 0.396389 0.758897 0.675023
O O16 0.315421 0.000000 0.772881
O O17 0.980258 0.500000 0.931385
O O18 0.500000 0.672252 0.500000
O O19 0.468770 0.500000 0.619654
#
# Coordination Sequence:
#
# PCOD9212474 Si02
#       8
#     8   8   8   8   4   8   8   8
#     4  11  23  38  62  94 131 171 212 260 315 382
#     4  11  22  46  67  99 129 170 215 272 340 398
#     4  11  22  39  62  88 127 168 207 255 323 389
#     4  10  21  42  62  86 128 172 213 256 317 384
#     4  10  24  42  72  96 128 166 212 270 326 396
#     4  11  24  41  64  94 125 167 216 263 318 385
#     4  11  23  37  61  93 125 166 215 266 313 372
#     4  11  24  45  69  95 131 174 217 274 341 402
#
# _framework density 19.767810999999998
#
# number of rings (size 3 to 8) (size 9 to 14) (size 15 to 20)
#    0.000    1.200    2.667    4.000    1.867    6.667 
#    4.800    0.000    0.000    0.000    0.000    0.000 
#    0.000    0.000    0.000    0.000    0.000    0.000 
#
# Total GULP energy -167027.434178 kJ/mol
# GULP energy per Si atom -5567.581139 kJ/mol
# Density = 1.972282 g / cm^3
# Si number density = 19.767811 Si / 1000 Ang^3
#
#
#
# Elastic Constant Matrix: (Units=GPa)
#
#
# Indices 1 2 3 4 5 6 
#
# 1 97.0859 37.8006 13.4706 0.0003 -33.3584 -0.0004
# 2 37.8006 122.7923 24.8969 0.0002 -32.2527 -0.0005
# 3 13.4706 24.8969 17.2689 0.0001 -9.0220 -0.0001
# 4 0.0003 0.0002 0.0001 44.1838 0.0000 -7.3309
# 5 -33.3584 -32.2527 -9.0220 0.0000 28.3581 0.0000
# 6 -0.0004 -0.0005 -0.0001 -7.3309 0.0000 24.5182
#
#
#
# Elastic Compliance Matrix: (Units=1/GPa)
#
#
# Indices 1 2 3 4 5 6 
#
# 1 0.017498 0.000748 -0.004233 0.000000 0.020088 0.000000
# 2 0.000748 0.014070 -0.014451 0.000000 0.012285 0.000000
# 3 -0.004233 -0.014451 0.084980 0.000000 0.005621 0.000000
# 4 0.000000 0.000000 0.000000 0.023814 0.000000 0.007120
# 5 0.020088 0.012285 0.005621 0.000000 0.074653 0.000000
# 6 0.000000 0.000000 0.000000 0.007120 0.000000 0.042915
#
#
# Mechanical properties :
#
#
# Convention : Reuss Voigt Hill
#
# Bulk Modulus (GPa) = 12.39515 43.27594 27.83554
# Shear Modulus (GPa) = 15.59111 30.14393 22.86752
#
# Velocity S-wave (km/s) = 2.81145 3.90923 3.40487
# Velocity P-wave (km/s) = 4.10158 6.50506 5.43777
#
# Compressibility (1/GPa) = 0.08067674
#
# Stress axis : x y z
#
# Youngs Moduli (GPa) = 57.14822 71.07129 11.76747
#
# Poissons Ratio (x) = -0.05314 0.04981
# Poissons Ratio (y) = -0.04273 0.17005
# Poissons Ratio (z) = 0.24191 1.02703
#
# Static dielectric constant tensor:
#      x y z
#    x 1.712260 0.000000 0.007770 
#    y 0.000000 1.674870 0.000000 
#    z 0.007770 0.000000 1.737890 
# 
# From -- ./inp_files/320490.got.cif
#   From: 2010.05.17/outbox.cif.g08.bks.cpg/sg12_161_cif.got.tgz:320490.got - 2010.06.03 13:09:07.
