data_PCOD9212188
_publ_section_title
;
Structure prediction by ZEFSAII (Michael W. Deem and Ramdas Pophale) SiO2 
 PCOD9212188
Probable space group: C 2/M
;
_chemical_formula_sum "Si O2"
_cell_formula_units_Z 44
_cell_length_a 8.900131
_cell_length_b 18.346444
_cell_length_c 12.368967
_cell_angle_alpha 90.000000
_cell_angle_beta 90.024745
_cell_angle_gamma 90.000000
_cell_volume 2019.675927
_symmetry_space_group_name_H-M "C 2/M"
_symmetry_group_IT_number 12
_symmetry_cell_setting 'monoclinic'
loop_
_space_group_symop_operation_xyz
x,y,z
-x,y,-z
-x,-y,-z
x,-y,z
1/2+x,1/2+y,z
1/2-x,1/2+y,-z
1/2-x,1/2-y,-z
1/2+x,1/2-y,z
loop_
_atom_site_type_symbol
_atom_site_label
_atom_site_fract_x
_atom_site_fract_y
_atom_site_fract_z
Si Si1 0.658478 0.160031 0.769515
Si Si2 0.957849 0.781940 0.728609
Si Si3 0.000000 0.840709 0.500000
Si Si4 0.333623 0.085717 0.453392
Si Si5 0.176487 0.582828 0.987507
Si Si6 0.436089 0.415281 0.123361
O O1 0.510866 0.207536 0.781456
O O2 0.652355 0.100110 0.675744
O O3 0.711791 0.131002 0.884357
O O4 0.779416 0.217653 0.727650
O O5 0.006934 0.854494 0.794588
O O6 0.012906 0.792424 0.607014
O O7 0.834159 0.882062 0.512325
O O8 0.500000 0.111681 0.500000
O O9 0.325687 0.000000 0.477978
O O10 0.220391 0.500000 0.960009
O O11 0.260866 0.599243 0.098388
O O12 0.000000 0.585618 0.000000
O O13 0.458155 0.500000 0.158283
O O14 0.500000 0.407807 0.000000
#
# Coordination Sequence:
#
# PCOD9212188 Si02
#       6
#     8   8   4   8   8   8
#     4  11  25  41  62  92 130 169 211 263 317 389
#     4  11  26  41  65  94 125 176 209 265 322 378
#     4  10  25  44  66  96 131 170 224 268 321 386
#     4  10  23  42  68  96 127 169 216 273 325 378
#     4  10  22  40  64  93 126 165 209 267 323 379
#     4  10  21  41  65  90 122 161 210 260 317 379
#
# _framework density 21.785674
#
# number of rings (size 3 to 8) (size 9 to 14) (size 15 to 20)
#    0.000    1.636    1.818    0.818    6.364    6.545 
#    0.000    3.636    0.000    0.000    0.000    0.000 
#    0.000    0.000    0.000    0.000    0.000    0.000 
#
# Total GULP energy -122574.186787 kJ/mol
# GULP energy per Si atom -5571.553945 kJ/mol
# Density = 2.173609 g / cm^3
# Si number density = 21.785674 Si / 1000 Ang^3
#
#
#
# Elastic Constant Matrix: (Units=GPa)
#
#
# Indices 1 2 3 4 5 6 
#
# 1 105.2290 16.0517 3.3318 0.0000 17.3414 0.0000
# 2 16.0517 40.7510 21.8044 0.0000 -6.3136 0.0000
# 3 3.3318 21.8044 62.9922 0.0000 2.5167 0.0000
# 4 0.0000 0.0000 0.0000 13.6560 0.0000 12.2658
# 5 17.3414 -6.3136 2.5167 0.0000 25.0966 0.0000
# 6 0.0000 0.0000 0.0000 12.2658 0.0000 16.7550
#
#
#
# Elastic Compliance Matrix: (Units=1/GPa)
#
#
# Indices 1 2 3 4 5 6 
#
# 1 0.012413 -0.007911 0.002514 0.000000 -0.010820 0.000000
# 2 -0.007911 0.037157 -0.013087 0.000000 0.016126 0.000000
# 3 0.002514 -0.013087 0.020555 0.000000 -0.007091 0.000000
# 4 0.000000 0.000000 0.000000 0.213831 0.000000 -0.156539
# 5 -0.010820 0.016126 -0.007091 0.000000 0.052090 0.000000
# 6 0.000000 0.000000 0.000000 -0.156539 0.000000 0.174281
#
#
# Mechanical properties :
#
#
# Convention : Reuss Voigt Hill
#
# Bulk Modulus (GPa) = 30.15998 32.37198 31.26598
# Shear Modulus (GPa) = 8.95497 22.28713 15.62105
#
# Velocity S-wave (km/s) = 2.02963 3.20193 2.68065
# Velocity P-wave (km/s) = 4.40074 5.34429 4.89530
#
# Compressibility (1/GPa) = 0.03315652
#
# Stress axis : x y z
#
# Youngs Moduli (GPa) = 80.55877 26.91317 48.64892
#
# Poissons Ratio (x) = 0.21291 -0.12231
# Poissons Ratio (y) = 0.63731 0.63669
# Poissons Ratio (z) = -0.20253 0.35222
#
# Static dielectric constant tensor:
#      x y z
#    x 1.963980 0.000000 0.022170 
#    y 0.000000 1.771900 0.000000 
#    z 0.022170 0.000000 1.781330 
# 
# From -- ./inp_files/120826.got.cif
#   From: 2010.05.17/outbox.cif.g08.bks.cpg/sg12_61_cif.got.tgz:120826.got - 2010.06.03 13:09:07.
