data_PCOD9212458
_publ_section_title
;
Structure prediction by ZEFSAII (Michael W. Deem and Ramdas Pophale) SiO2 
 PCOD9212458
Probable space group: C 2/M
;
_chemical_formula_sum "Si O2"
_cell_formula_units_Z 30
_cell_length_a 5.119265
_cell_length_b 35.474047
_cell_length_c 7.691020
_cell_angle_alpha 90.000000
_cell_angle_beta 99.814616
_cell_angle_gamma 90.000000
_cell_volume 1376.255848
_symmetry_space_group_name_H-M "C 2/M"
_symmetry_group_IT_number 12
_symmetry_cell_setting 'monoclinic'
loop_
_space_group_symop_operation_xyz
x,y,z
-x,y,-z
-x,-y,-z
x,-y,z
1/2+x,1/2+y,z
1/2-x,1/2+y,-z
1/2-x,1/2-y,-z
1/2+x,1/2-y,z
loop_
_atom_site_type_symbol
_atom_site_label
_atom_site_fract_x
_atom_site_fract_y
_atom_site_fract_z
Si Si1 0.500000 0.334661 0.000000
Si Si2 0.500000 0.500000 0.500000
Si Si3 0.722032 0.000000 0.877970
Si Si4 0.075098 0.437237 0.327307
Si Si5 0.419542 0.724987 0.294466
Si Si6 0.500000 0.115128 0.000000
O O1 0.453892 0.308306 0.161955
O O2 0.761514 0.360036 0.048414
O O3 0.306519 0.466991 0.391037
O O4 0.674337 0.963824 0.753764
O O5 0.500000 0.000000 0.000000
O O6 0.000000 0.000000 0.000000
O O7 0.000000 0.417398 0.500000
O O8 0.117578 0.410426 0.168688
O O9 0.500000 0.713745 0.500000
O O10 0.123749 0.741730 0.264498
#
# Coordination Sequence:
#
# PCOD9212458 Si02
#       6
#     4   2   4   8   8   4
#     4  12  26  45  66 101 148 191 220 271 346 419
#     4  10  24  46  74 100 118 176 248 316 354 398
#     4  11  24  41  71  97 126 160 225 307 355 404
#     4  11  27  43  69  97 129 177 236 298 358 414
#     4  10  21  41  75 108 136 177 234 283 322 383
#     4  12  30  44  66  98 146 193 226 273 360 436
#
# _framework density 21.798272999999998
#
# number of rings (size 3 to 8) (size 9 to 14) (size 15 to 20)
#    0.000    1.067    1.333    4.000   13.067    2.133 
#    0.000    0.000    0.000    0.000    0.000    0.000 
#    0.000    0.000    0.000    0.000    0.000    0.000 
#
# Total GULP energy -83726.022190 kJ/mol
# GULP energy per Si atom -5581.734813 kJ/mol
# Density = 2.174866 g / cm^3
# Si number density = 21.798273 Si / 1000 Ang^3
#
#
#
# Elastic Constant Matrix: (Units=GPa)
#
#
# Indices 1 2 3 4 5 6 
#
# 1 107.5655 16.6212 46.6334 0.0000 6.9178 0.0000
# 2 16.6212 81.6605 62.6094 0.0000 -7.9523 0.0000
# 3 46.6334 62.6094 148.7501 0.0000 -14.4067 0.0000
# 4 0.0000 0.0000 0.0000 -4.3933 0.0000 17.9857
# 5 6.9178 -7.9523 -14.4067 0.0000 51.2927 0.0000
# 6 0.0000 0.0000 0.0000 17.9857 0.0000 -1.3321
#
#
#
# Elastic Compliance Matrix: (Units=1/GPa)
#
#
# Indices 1 2 3 4 5 6 
#
# 1 0.011086 0.000517 -0.003937 0.000000 -0.002521 0.000000
# 2 0.000517 0.018128 -0.007737 0.000000 0.000568 0.000000
# 3 -0.003937 -0.007737 0.011461 0.000000 0.002550 0.000000
# 4 0.000000 0.000000 0.000000 0.004194 0.000000 0.056624
# 5 -0.002521 0.000568 0.002550 0.000000 0.020640 0.000000
# 6 0.000000 0.000000 0.000000 0.056624 0.000000 0.013831
#
#
# Mechanical properties :
#
#
# Convention : Reuss Voigt Hill
#
# Bulk Modulus (GPa) = 54.46817 65.52267 59.99542
# Shear Modulus (GPa) = 46.39320 23.25429 34.82375
#
# Velocity S-wave (km/s) = 4.61835 3.26973 4.00127
# Velocity P-wave (km/s) = 7.31304 6.66174 6.99497
#
# Compressibility (1/GPa) = 0.01835935
#
# Stress axis : x y z
#
# Youngs Moduli (GPa) = 90.20562 55.16316 87.25599
#
# Poissons Ratio (x) = -0.02850 0.34353
# Poissons Ratio (y) = -0.04660 0.67511
# Poissons Ratio (z) = 0.35514 0.42680
#
# Static dielectric constant tensor:
#      x y z
#    x 1.896410 0.000000 -0.087540 
#    y 0.000000 1.565890 0.000000 
#    z -0.087540 0.000000 1.864790 
# 
# From -- ./inp_files/34416.got.cif
#   From: 2010.05.17/outbox.cif.g08.bks.cpg/sg12_18_cif.got.tgz:34416.got - 2010.06.03 13:09:07.
