data_PCOD9212730
_publ_section_title
;
Structure prediction by ZEFSAII (Michael W. Deem and Ramdas Pophale) SiO2 
 PCOD9212730
Probable space group: C 2/M
;
_chemical_formula_sum "Si O2"
_cell_formula_units_Z 34
_cell_length_a 8.175703
_cell_length_b 25.170778
_cell_length_c 6.958285
_cell_angle_alpha 90.000000
_cell_angle_beta 72.073994
_cell_angle_gamma 90.000000
_cell_volume 1362.423480
_symmetry_space_group_name_H-M "C 2/M"
_symmetry_group_IT_number 12
_symmetry_cell_setting 'monoclinic'
loop_
_space_group_symop_operation_xyz
x,y,z
-x,y,-z
-x,-y,-z
x,-y,z
1/2+x,1/2+y,z
1/2-x,1/2+y,-z
1/2-x,1/2-y,-z
1/2+x,1/2-y,z
loop_
_atom_site_type_symbol
_atom_site_label
_atom_site_fract_x
_atom_site_fract_y
_atom_site_fract_z
Si Si1 0.936890 0.079611 0.729803
Si Si2 0.000000 0.500000 0.500000
Si Si3 0.157430 0.307792 0.305247
Si Si4 0.470714 0.303291 0.782673
Si Si5 0.712720 0.922236 0.147876
O O1 0.895755 0.142355 0.728975
O O2 0.000000 0.059302 0.500000
O O3 0.109527 0.073344 0.794022
O O4 0.774098 0.059274 0.912794
O O5 0.927135 0.454276 0.679836
O O6 0.333256 0.301560 0.360698
O O7 0.124281 0.251370 0.218216
O O8 0.167809 0.359552 0.165777
O O9 0.000000 0.317927 0.500000
O O10 0.500000 0.309508 0.000000
#
# Coordination Sequence:
#
# PCOD9212730 Si02
#       5
#     8   2   8   8   8
#     4  10  21  43  69  98 134 173 218 271 325 409
#     4  12  24  50  74  88 136 172 216 300 338 372
#     4  11  21  38  59  96 136 177 217 267 322 409
#     4  11  21  37  61  95 144 179 220 256 327 404
#     4  10  23  44  68  97 129 174 228 272 339 391
#
# _framework density 24.955528000000001
#
# number of rings (size 3 to 8) (size 9 to 14) (size 15 to 20)
#    0.000    1.412    5.882    2.118    0.000    3.765 
#    0.000    4.706    0.000    0.000    0.000    0.000 
#    0.000    0.000    0.000    0.000    0.000    0.000 
#
# Total GULP energy -94725.267123 kJ/mol
# GULP energy per Si atom -5572.074537 kJ/mol
# Density = 2.489873 g / cm^3
# Si number density = 24.955528 Si / 1000 Ang^3
#
#
#
# Elastic Constant Matrix: (Units=GPa)
#
#
# Indices 1 2 3 4 5 6 
#
# 1 24.8107 17.7756 25.1592 0.0000 -12.9266 0.0000
# 2 17.7756 208.0216 54.0579 0.0000 -7.8085 0.0000
# 3 25.1592 54.0579 252.1126 0.0000 -23.1373 0.0000
# 4 0.0000 0.0000 0.0000 -606.3942 0.0000 990.5776
# 5 -12.9266 -7.8085 -23.1373 0.0000 40.9211 0.0000
# 6 0.0000 0.0000 0.0000 990.5776 0.0000-1656.4189
#
#
#
# Elastic Compliance Matrix: (Units=1/GPa)
#
#
# Indices 1 2 3 4 5 6 
#
# 1 0.053452 -0.003160 -0.003335 0.000000 0.014396 0.000000
# 2 -0.003160 0.005283 -0.000861 0.000000 -0.000477 0.000000
# 3 -0.003335 -0.000861 0.004612 0.000000 0.001389 0.000000
# 4 0.000000 0.000000 0.000000 -0.071401 0.000000 -0.042699
# 5 0.014396 -0.000477 0.001389 0.000000 0.029679 0.000000
# 6 0.000000 0.000000 0.000000 -0.042699 0.000000 -0.026139
#
#
# Mechanical properties :
#
#
# Convention : Reuss Voigt Hill
#
# Bulk Modulus (GPa) = 20.56225 75.43671 47.99948
# Shear Modulus (GPa) = 189.31370 -418.51492 -114.60061
#
# Velocity S-wave (km/s) = 8.71924 -12.96412 -6.78392
# Velocity P-wave (km/s) = 10.47016 13.92110 6.48740
#
# Compressibility (1/GPa) = 0.04863280
#
# Stress axis : x y z
#
# Youngs Moduli (GPa) = 18.70836 189.28126 216.84911
#
# Poissons Ratio (x) = 0.59820 0.72326
# Poissons Ratio (y) = 0.05913 0.18675
# Poissons Ratio (z) = 0.06240 0.16301
#
# Static dielectric constant tensor:
#      x y z
#    x 1.984280 0.000000 -0.018180 
#    y 0.000000 1.959980 0.000000 
#    z -0.018180 0.000000 2.095920 
# 
# From -- ./inp_files/40161.got.cif
#   From: 2010.05.17/outbox.cif.g08.bks.cpg/sg12_21_cif.got.tgz:40161.got - 2010.06.03 13:09:07.
