data_PCOD9212346
_publ_section_title
;
Structure prediction by ZEFSAII (Michael W. Deem and Ramdas Pophale) SiO2 
 PCOD9212346
Probable space group: C 2/M
;
_chemical_formula_sum "Si O2"
_cell_formula_units_Z 58
_cell_length_a 27.236846
_cell_length_b 7.729260
_cell_length_c 11.799533
_cell_angle_alpha 90.000000
_cell_angle_beta 95.891674
_cell_angle_gamma 90.000000
_cell_volume 2470.924161
_symmetry_space_group_name_H-M "C 2/M"
_symmetry_group_IT_number 12
_symmetry_cell_setting 'monoclinic'
loop_
_space_group_symop_operation_xyz
x,y,z
-x,y,-z
-x,-y,-z
x,-y,z
1/2+x,1/2+y,z
1/2-x,1/2+y,-z
1/2-x,1/2-y,-z
1/2+x,1/2-y,z
loop_
_atom_site_type_symbol
_atom_site_label
_atom_site_fract_x
_atom_site_fract_y
_atom_site_fract_z
Si Si1 0.309531 0.199777 0.748028
Si Si2 0.704649 0.712308 0.754154
Si Si3 0.091540 0.699800 0.340151
Si Si4 0.000000 0.000000 0.000000
Si Si5 0.893745 0.205571 0.401055
Si Si6 0.176594 0.206745 0.993192
Si Si7 0.483218 0.303933 0.249925
Si Si8 0.564940 0.189628 0.978200
O O1 0.255267 0.272350 0.706737
O O2 0.360317 0.276639 0.711754
O O3 0.309744 0.000000 0.709826
O O4 0.311102 0.207125 0.884603
O O5 0.704800 0.500000 0.755421
O O6 0.654143 0.766061 0.680763
O O7 0.703943 0.767170 0.885890
O O8 0.086058 0.500000 0.303759
O O9 0.101894 0.708673 0.476225
O O10 0.038893 0.786282 0.303736
O O11 0.959307 0.154411 0.959637
O O12 0.944338 0.223144 0.342082
O O13 0.887413 0.000000 0.418305
O O14 0.119622 0.252889 0.959154
O O15 0.182495 0.000000 0.005704
O O16 0.475698 0.500000 0.197908
O O17 0.465528 0.182949 0.145510
O O18 0.565111 0.000000 0.032283
#
# Coordination Sequence:
#
# PCOD9212346 Si02
#       8
#     8   8   8   2   8   8   8   8
#     4  10  23  41  61  91 129 174 217 271 338 408
#     4   9  19  40  68  91 124 168 219 276 340 402
#     4  11  25  40  58  92 133 169 216 276 335 403
#     4  12  26  44  60  98 142 184 226 272 332 410
#     4  10  21  41  68  91 120 167 220 277 341 402
#     4  11  21  40  65  95 130 169 220 278 331 399
#     4  11  22  42  66  93 127 169 222 275 331 403
#     4  12  25  41  66  98 135 181 225 277 335 395
#
# _framework density 23.472998
#
# number of rings (size 3 to 8) (size 9 to 14) (size 15 to 20)
#    0.000    1.379    2.759    2.276    1.931    4.414 
#    0.000    1.379    0.000    0.000    0.000    0.000 
#    0.000    0.000    0.000    0.000    0.000    0.000 
#
# Total GULP energy -161961.676055 kJ/mol
# GULP energy per Si atom -5584.885381 kJ/mol
# Density = 2.341957 g / cm^3
# Si number density = 23.472998 Si / 1000 Ang^3
#
#
#
# Elastic Constant Matrix: (Units=GPa)
#
#
# Indices 1 2 3 4 5 6 
#
# 1 184.8186 15.1054 20.7998 0.0000 -16.9444 0.0000
# 2 15.1054 85.0615 10.9476 0.0000 -13.0695 0.0000
# 3 20.7998 10.9476 72.2799 0.0000 5.0879 0.0000
# 4 0.0000 0.0000 0.0000 23.1828 0.0000 5.9510
# 5 -16.9444 -13.0695 5.0879 0.0000 14.8505 0.0000
# 6 0.0000 0.0000 0.0000 5.9510 0.0000 11.0718
#
#
#
# Elastic Compliance Matrix: (Units=1/GPa)
#
#
# Indices 1 2 3 4 5 6 
#
# 1 0.006452 0.000517 -0.002547 0.000000 0.008689 0.000000
# 2 0.000517 0.014289 -0.003320 0.000000 0.014303 0.000000
# 3 -0.002547 -0.003320 0.015864 0.000000 -0.011262 0.000000
# 4 0.000000 0.000000 0.000000 0.050040 0.000000 -0.026896
# 5 0.008689 0.014303 -0.011262 0.000000 0.093698 0.000000
# 6 0.000000 0.000000 0.000000 -0.026896 0.000000 0.104776
#
#
# Mechanical properties :
#
#
# Convention : Reuss Voigt Hill
#
# Bulk Modulus (GPa) = 38.60140 48.42950 43.51545
# Shear Modulus (GPa) = 16.42292 29.50815 22.96554
#
# Velocity S-wave (km/s) = 2.64796 3.54942 3.13130
# Velocity P-wave (km/s) = 5.08229 6.12165 5.62603
#
# Compressibility (1/GPa) = 0.02590580
#
# Stress axis : x y z
#
# Youngs Moduli (GPa) = 154.99923 69.98255 63.03774
#
# Poissons Ratio (x) = -0.03619 0.16053
# Poissons Ratio (y) = -0.08015 0.20928
# Poissons Ratio (z) = 0.39471 0.23233
#
# Static dielectric constant tensor:
#      x y z
#    x 1.914660 0.000000 0.016040 
#    y 0.000000 1.877150 0.000000 
#    z 0.016040 0.000000 1.788030 
# 
# From -- ./inp_files/180955.got.cif
#   From: 2010.05.17/outbox.cif.g08.bks.cpg/sg12_91_cif.got.tgz:180955.got - 2010.06.03 13:09:07.
