data_PCOD9212195
_publ_section_title
;
Structure prediction by ZEFSAII (Michael W. Deem and Ramdas Pophale) SiO2 
 PCOD9212195
Probable space group: C 2/M
;
_chemical_formula_sum "Si O2"
_cell_formula_units_Z 24
_cell_length_a 8.223826
_cell_length_b 15.764676
_cell_length_c 7.268211
_cell_angle_alpha 90.000000
_cell_angle_beta 79.102157
_cell_angle_gamma 90.000000
_cell_volume 925.300645
_symmetry_space_group_name_H-M "C 2/M"
_symmetry_group_IT_number 12
_symmetry_cell_setting 'monoclinic'
loop_
_space_group_symop_operation_xyz
x,y,z
-x,y,-z
-x,-y,-z
x,-y,z
1/2+x,1/2+y,z
1/2-x,1/2+y,-z
1/2-x,1/2-y,-z
1/2+x,1/2-y,z
loop_
_atom_site_type_symbol
_atom_site_label
_atom_site_fract_x
_atom_site_fract_y
_atom_site_fract_z
Si Si1 0.224341 0.595998 0.042993
Si Si2 0.371126 0.634165 0.376675
Si Si3 0.885757 0.667653 0.285438
O O1 0.205773 0.500000 0.979219
O O2 0.359271 0.597378 0.175678
O O3 0.056103 0.628040 0.178580
O O4 0.239615 0.655909 0.861610
O O5 0.500000 0.601822 0.500000
O O6 0.197003 0.624434 0.521002
O O7 0.401987 0.734209 0.334718
#
# Coordination Sequence:
#
# PCOD9212195 Si02
#       3
#     8   8   8
#     4  11  24  42  67  95 126 166 210 261 314 370
#     4  11  23  39  63  95 129 165 206 258 316 373
#     4  10  21  41  65  91 123 167 219 257 298 369
#
# _framework density 25.937517
#
# number of rings (size 3 to 8) (size 9 to 14) (size 15 to 20)
#    0.000    1.333    0.000    8.000    0.000    8.667 
#    0.000    1.667    0.000    0.000    0.000    0.000 
#    0.000    0.000    0.000    0.000    0.000    0.000 
#
# Total GULP energy -67208.039151 kJ/mol
# GULP energy per Si atom -5600.669929 kJ/mol
# Density = 2.587848 g / cm^3
# Si number density = 25.937517 Si / 1000 Ang^3
#
#
#
# Elastic Constant Matrix: (Units=GPa)
#
#
# Indices 1 2 3 4 5 6 
#
# 1 76.9455 15.4103 49.9560 0.0000 28.4522 0.0000
# 2 15.4103 74.0155 18.1495 0.0000 3.8369 0.0000
# 3 49.9560 18.1495 189.3631 0.0000 33.3094 0.0000
# 4 0.0000 0.0000 0.0000 40.8844 0.0000 32.9315
# 5 28.4522 3.8369 33.3094 0.0000 75.1416 0.0000
# 6 0.0000 0.0000 0.0000 32.9315 0.0000 29.5463
#
#
#
# Elastic Compliance Matrix: (Units=1/GPa)
#
#
# Indices 1 2 3 4 5 6 
#
# 1 0.017644 -0.002549 -0.003534 0.000000 -0.004984 0.000000
# 2 -0.002549 0.014205 -0.000793 0.000000 0.000591 0.000000
# 3 -0.003534 -0.000793 0.006558 0.000000 -0.001529 0.000000
# 4 0.000000 0.000000 0.000000 0.239248 0.000000 -0.266659
# 5 -0.004984 0.000591 -0.001529 0.000000 0.015843 0.000000
# 6 0.000000 0.000000 0.000000 -0.266659 0.000000 0.331056
#
#
# Mechanical properties :
#
#
# Convention : Reuss Voigt Hill
#
# Bulk Modulus (GPa) = 40.55781 56.37284 48.46533
# Shear Modulus (GPa) = 7.73367 46.23499 26.98433
#
# Velocity S-wave (km/s) = 1.72862 4.22661 3.22896
# Velocity P-wave (km/s) = 4.43338 6.75280 5.71205
#
# Compressibility (1/GPa) = 0.02465616
#
# Stress axis : x y z
#
# Youngs Moduli (GPa) = 56.67704 70.39695 152.48630
#
# Poissons Ratio (x) = 0.17942 0.53883
# Poissons Ratio (y) = 0.14445 0.12094
# Poissons Ratio (z) = 0.20028 0.05583
#
# Static dielectric constant tensor:
#      x y z
#    x 2.227550 0.000000 0.074590 
#    y 0.000000 1.925960 0.000000 
#    z 0.074590 0.000000 1.963930 
# 
# From -- ./inp_files/35763.got.cif
#   From: 2010.05.17/outbox.cif.g08.bks.cpg/sg12_18_cif.got.tgz:35763.got - 2010.06.03 13:09:07.
