data_PCOD9212805
_publ_section_title
;
Structure prediction by ZEFSAII (Michael W. Deem and Ramdas Pophale) SiO2 
 PCOD9212805
Probable space group: C 2/M
;
_chemical_formula_sum "Si O2"
_cell_formula_units_Z 36
_cell_length_a 13.678240
_cell_length_b 12.522162
_cell_length_c 8.246921
_cell_angle_alpha 90.000000
_cell_angle_beta 100.364229
_cell_angle_gamma 90.000000
_cell_volume 1389.494945
_symmetry_space_group_name_H-M "C 2/M"
_symmetry_group_IT_number 12
_symmetry_cell_setting 'monoclinic'
loop_
_space_group_symop_operation_xyz
x,y,z
-x,y,-z
-x,-y,-z
x,-y,z
1/2+x,1/2+y,z
1/2-x,1/2+y,-z
1/2-x,1/2-y,-z
1/2+x,1/2-y,z
loop_
_atom_site_type_symbol
_atom_site_label
_atom_site_fract_x
_atom_site_fract_y
_atom_site_fract_z
Si Si1 0.295007 0.115374 0.412905
Si Si2 0.972626 0.153209 0.179026
Si Si3 0.116180 0.000000 0.428072
Si Si4 0.742333 0.312704 0.829881
Si Si5 0.443305 0.117851 0.740261
O O1 0.270621 0.216522 0.301664
O O2 0.393835 0.124194 0.546701
O O3 0.293667 0.000000 0.319455
O O4 0.200004 0.091806 0.498942
O O5 0.859756 0.123273 0.182305
O O6 0.987922 0.280617 0.207614
O O7 0.042902 0.091591 0.325640
O O8 0.000000 0.128760 0.000000
O O9 0.845927 0.370651 0.825051
O O10 0.750000 0.250000 0.000000
O O11 0.487856 0.000000 0.774646
#
# Coordination Sequence:
#
# PCOD9212805 Si02
#       5
#     8   8   4   8   8
#     4   9  21  44  71  91 133 181 217 272 339 392
#     4  12  25  43  66 103 135 175 225 277 334 398
#     4  10  21  44  71  91 132 174 225 276 330 387
#     4  12  24  42  68  99 136 177 226 272 340 396
#     4  11  24  46  67  98 140 176 219 278 335 402
#
# _framework density 25.908694000000001
#
# number of rings (size 3 to 8) (size 9 to 14) (size 15 to 20)
#    0.667    0.444    4.444    1.000    1.556    3.111 
#    0.000    3.333    0.000    0.000    0.000    0.000 
#    0.000    0.000    0.000    0.000    0.000    0.000 
#
# Total GULP energy -100281.188704 kJ/mol
# GULP energy per Si atom -5571.177150 kJ/mol
# Density = 2.584972 g / cm^3
# Si number density = 25.908694 Si / 1000 Ang^3
#
#
#
# Elastic Constant Matrix: (Units=GPa)
#
#
# Indices 1 2 3 4 5 6 
#
# 1 117.4935 11.1507 -0.3826 0.0000 -4.9214 0.0000
# 2 11.1507 196.2576 28.6013 0.0000 -3.4883 0.0000
# 3 -0.3826 28.6013 55.5361 0.0000 -8.0207 0.0000
# 4 0.0000 0.0000 0.0000 -17.9748 0.0000 34.5402
# 5 -4.9214 -3.4883 -8.0207 0.0000 32.6242 0.0000
# 6 0.0000 0.0000 0.0000 34.5402 0.0000 5.3798
#
#
#
# Elastic Compliance Matrix: (Units=1/GPa)
#
#
# Indices 1 2 3 4 5 6 
#
# 1 0.008622 -0.000544 0.000538 0.000000 0.001375 0.000000
# 2 -0.000544 0.005543 -0.002887 0.000000 -0.000199 0.000000
# 3 0.000538 -0.002887 0.020181 0.000000 0.004734 0.000000
# 4 0.000000 0.000000 0.000000 -0.004171 0.000000 0.026781
# 5 0.001375 -0.000199 0.004734 0.000000 0.032002 0.000000
# 6 0.000000 0.000000 0.000000 0.026781 0.000000 0.013937
#
#
# Mechanical properties :
#
#
# Convention : Reuss Voigt Hill
#
# Bulk Modulus (GPa) = 35.01429 49.78067 42.39748
# Shear Modulus (GPa) = 54.69242 26.00037 40.34640
#
# Velocity S-wave (km/s) = 4.59951 3.17130 3.95049
# Velocity P-wave (km/s) = 6.46152 5.71534 6.09985
#
# Compressibility (1/GPa) = 0.02855977
#
# Stress axis : x y z
#
# Youngs Moduli (GPa) = 115.98161 180.39147 49.55225
#
# Poissons Ratio (x) = 0.09811 -0.02666
# Poissons Ratio (y) = 0.06308 0.14308
# Poissons Ratio (z) = -0.06240 0.52087
#
# Static dielectric constant tensor:
#      x y z
#    x 2.012340 0.000000 -0.298770 
#    y 0.000000 1.985640 0.000000 
#    z -0.298770 0.000000 1.658330 
# 
# From -- ./inp_files/58547.got.cif
#   From: 2010.05.17/outbox.cif.g08.bks.cpg/sg12_30_cif.got.tgz:58547.got - 2010.06.03 13:09:07.
