data_PCOD9212226
_publ_section_title
;
Structure prediction by ZEFSAII (Michael W. Deem and Ramdas Pophale) SiO2 
 PCOD9212226
Probable space group: C 2/M
;
_chemical_formula_sum "Si O2"
_cell_formula_units_Z 64
_cell_length_a 30.104921
_cell_length_b 7.904352
_cell_length_c 22.695888
_cell_angle_alpha 90.000000
_cell_angle_beta 147.433317
_cell_angle_gamma 90.000000
_cell_volume 2907.099157
_symmetry_space_group_name_H-M "C 2/M"
_symmetry_group_IT_number 12
_symmetry_cell_setting 'monoclinic'
loop_
_space_group_symop_operation_xyz
x,y,z
-x,y,-z
-x,-y,-z
x,-y,z
1/2+x,1/2+y,z
1/2-x,1/2+y,-z
1/2-x,1/2-y,-z
1/2+x,1/2-y,z
loop_
_atom_site_type_symbol
_atom_site_label
_atom_site_fract_x
_atom_site_fract_y
_atom_site_fract_z
Si Si1 0.367983 0.293092 0.015199
Si Si2 0.681748 0.197869 0.790606
Si Si3 0.486115 0.704740 0.739929
Si Si4 0.919050 0.206434 0.943401
Si Si5 0.492051 0.300969 0.365003
Si Si6 0.267988 0.697536 0.693343
Si Si7 0.821722 0.699440 0.625425
Si Si8 0.380446 0.693630 0.404354
O O1 0.365812 0.500000 0.012813
O O2 0.427539 0.238763 0.134528
O O3 0.272963 0.235366 0.907848
O O4 0.410395 0.240445 0.001148
O O5 0.605795 0.281857 0.739378
O O6 0.660925 0.218078 0.697945
O O7 0.680624 0.000000 0.803636
O O8 0.488256 0.500000 0.739827
O O9 0.477652 0.769753 0.663640
O O10 0.409399 0.752905 0.695120
O O11 0.838487 0.256820 0.817092
O O12 0.921197 0.000000 0.945447
O O13 0.000000 0.266696 0.000000
O O14 0.512483 0.500000 0.388686
O O15 0.537195 0.230976 0.473819
O O16 0.250477 0.500000 0.685122
O O17 0.302555 0.715451 0.666433
O O18 0.185431 0.798093 0.616029
O O19 0.819215 0.500000 0.632185
O O20 0.750000 0.750000 0.500000
O O21 0.395283 0.500000 0.401739
#
# Coordination Sequence:
#
# PCOD9212226 Si02
#       8
#     8   8   8   8   8   8   8   8
#     4   9  18  35  59  89 121 156 202 249 299 364
#     4  11  22  38  61  89 119 156 204 255 305 367
#     4  10  21  41  66  88 119 163 206 250 304 366
#     4   9  16  29  54  85 115 150 194 238 285 351
#     4  10  23  40  59  86 117 155 201 251 312 372
#     4  11  21  36  61  90 121 158 200 244 299 362
#     4  12  25  41  61  89 125 162 206 253 301 358
#     4  11  22  38  59  86 125 161 198 255 314 367
#
# _framework density 22.015072
#
# number of rings (size 3 to 8) (size 9 to 14) (size 15 to 20)
#    0.000    1.625    1.250    4.125    0.000    6.500 
#    0.000    1.250    0.000    1.500    0.000    0.000 
#    0.000    0.000    0.000    0.000    0.000    0.000 
#
# Total GULP energy -178881.907404 kJ/mol
# GULP energy per Si atom -5590.059606 kJ/mol
# Density = 2.196496 g / cm^3
# Si number density = 22.015072 Si / 1000 Ang^3
#
#
#
# Elastic Constant Matrix: (Units=GPa)
#
#
# Indices 1 2 3 4 5 6 
#
# 1 63.7471 -9.9414 -1.3826 0.0000 3.2025 0.0000
# 2 -9.9414 34.0455 4.3616 0.0000 -2.4565 0.0000
# 3 -1.3826 4.3616 105.8935 0.0000 4.4419 0.0000
# 4 0.0000 0.0000 0.0000 12.4712 0.0000 9.8839
# 5 3.2025 -2.4565 4.4419 0.0000 41.4796 0.0000
# 6 0.0000 0.0000 0.0000 9.8839 0.0000 24.1147
#
#
#
# Elastic Compliance Matrix: (Units=1/GPa)
#
#
# Indices 1 2 3 4 5 6 
#
# 1 0.016476 0.004731 0.000062 0.000000 -0.000999 0.000000
# 2 0.004731 0.031035 -0.001284 0.000000 0.001610 0.000000
# 3 0.000062 -0.001284 0.009543 0.000000 -0.001103 0.000000
# 4 0.000000 0.000000 0.000000 0.118764 0.000000 -0.048678
# 5 -0.000999 0.001610 -0.001103 0.000000 0.024399 0.000000
# 6 0.000000 0.000000 0.000000 -0.048678 0.000000 0.061420
#
#
# Mechanical properties :
#
#
# Convention : Reuss Voigt Hill
#
# Bulk Modulus (GPa) = 15.60723 21.08458 18.34590
# Shear Modulus (GPa) = 18.11749 29.65633 23.88691
#
# Velocity S-wave (km/s) = 2.87184 3.67426 3.29755
# Velocity P-wave (km/s) = 4.25457 5.25341 4.78015
#
# Compressibility (1/GPa) = 0.06407286
#
# Stress axis : x y z
#
# Youngs Moduli (GPa) = 60.69312 32.22208 104.78432
#
# Poissons Ratio (x) = -0.15245 -0.00651
# Poissons Ratio (y) = -0.28715 0.13455
# Poissons Ratio (z) = -0.00377 0.04137
#
# Static dielectric constant tensor:
#      x y z
#    x 1.801950 0.000000 -0.003610 
#    y 0.000000 1.788300 0.000000 
#    z -0.003610 0.000000 1.814920 
# 
# From -- ./inp_files/249867.got.cif
#   From: 2010.05.17/outbox.cif.g08.bks.cpg/sg12_125_cif.got.tgz:249867.got - 2010.06.03 13:09:07.
