data_PCOD9212710
_publ_section_title
;
Structure prediction by ZEFSAII (Michael W. Deem and Ramdas Pophale) SiO2 
 PCOD9212710
Probable space group: C 2/M
;
_chemical_formula_sum "Si O2"
_cell_formula_units_Z 52
_cell_length_a 20.650148
_cell_length_b 18.221980
_cell_length_c 8.317828
_cell_angle_alpha 90.000000
_cell_angle_beta 132.477333
_cell_angle_gamma 90.000000
_cell_volume 2308.431166
_symmetry_space_group_name_H-M "C 2/M"
_symmetry_group_IT_number 12
_symmetry_cell_setting 'monoclinic'
loop_
_space_group_symop_operation_xyz
x,y,z
-x,y,-z
-x,-y,-z
x,-y,z
1/2+x,1/2+y,z
1/2-x,1/2+y,-z
1/2-x,1/2-y,-z
1/2+x,1/2-y,z
loop_
_atom_site_type_symbol
_atom_site_label
_atom_site_fract_x
_atom_site_fract_y
_atom_site_fract_z
Si Si1 0.386436 0.085061 0.972061
Si Si2 0.563199 0.586612 0.368431
Si Si3 0.151027 0.278389 0.298497
Si Si4 0.870936 0.911515 0.193786
Si Si5 0.194617 0.583221 0.817661
Si Si6 0.541238 0.175115 0.405198
Si Si7 0.500000 0.686840 0.000000
O O1 0.322467 0.083114 0.019371
O O2 0.473380 0.123654 0.192927
O O3 0.401224 0.000000 0.947540
O O4 0.349099 0.138417 0.771182
O O5 0.578363 0.500000 0.368501
O O6 0.624569 0.614441 0.614990
O O7 0.464543 0.597271 0.270259
O O8 0.560817 0.631638 0.204102
O O9 0.250000 0.250000 0.500000
O O10 0.092936 0.275332 0.364760
O O11 0.080129 0.236584 0.062213
O O12 0.858056 0.000000 0.181935
O O13 0.790023 0.881204 0.957646
O O14 0.194395 0.500000 0.757851
O O15 0.116482 0.623877 0.603070
O O16 0.500000 0.209870 0.500000
#
# Coordination Sequence:
#
# PCOD9212710 Si02
#       7
#     8   8   8   8   8   8   4
#     4  10  21  43  71  96 127 173 220 271 333 393
#     4   9  19  37  63  89 121 170 216 259 313 380
#     4  12  28  47  63  96 139 176 215 272 338 399
#     4   8  16  34  57  92 128 157 208 267 318 377
#     4   9  18  33  62  99 127 157 212 278 324 379
#     4  10  21  43  68  95 127 167 221 272 329 389
#     4  12  25  44  61  88 134 172 218 272 323 398
#
# _framework density 22.526122000000001
#
# number of rings (size 3 to 8) (size 9 to 14) (size 15 to 20)
#    0.000    2.154    1.538    1.615    4.308    3.692 
#    2.769    3.846    0.000    0.000    0.000    0.000 
#    0.000    0.000    0.000    0.000    0.000    0.000 
#
# Total GULP energy -144887.097976 kJ/mol
# GULP energy per Si atom -5572.580691 kJ/mol
# Density = 2.247485 g / cm^3
# Si number density = 22.526122 Si / 1000 Ang^3
#
#
#
# Elastic Constant Matrix: (Units=GPa)
#
#
# Indices 1 2 3 4 5 6 
#
# 1 45.5581 18.1884 30.3007 0.0000 17.7014 0.0000
# 2 18.1884 74.6204 33.6058 0.0000 -3.1925 0.0000
# 3 30.3007 33.6058 96.8961 0.0000 29.1774 0.0000
# 4 0.0000 0.0000 0.0000 18.2460 0.0000 -2.6235
# 5 17.7014 -3.1925 29.1774 0.0000 38.9755 0.0000
# 6 0.0000 0.0000 0.0000 -2.6235 0.0000 19.4873
#
#
#
# Elastic Compliance Matrix: (Units=1/GPa)
#
#
# Indices 1 2 3 4 5 6 
#
# 1 0.031903 -0.006404 -0.004176 0.000000 -0.011888 0.000000
# 2 -0.006404 0.018800 -0.007562 0.000000 0.010109 0.000000
# 3 -0.004176 -0.007562 0.017899 0.000000 -0.012122 0.000000
# 4 0.000000 0.000000 0.000000 0.055888 0.000000 0.007524
# 5 -0.011888 0.010109 -0.012122 0.000000 0.040959 0.000000
# 6 0.000000 0.000000 0.000000 0.007524 0.000000 0.052328
#
#
# Mechanical properties :
#
#
# Convention : Reuss Voigt Hill
#
# Bulk Modulus (GPa) = 30.94175 42.36271 36.65223
# Shear Modulus (GPa) = 18.87970 24.34039 21.61004
#
# Velocity S-wave (km/s) = 2.89818 3.29072 3.10067
# Velocity P-wave (km/s) = 4.99650 5.76935 5.39678
#
# Compressibility (1/GPa) = 0.03231879
#
# Stress axis : x y z
#
# Youngs Moduli (GPa) = 31.34492 53.19093 55.86911
#
# Poissons Ratio (x) = 0.34065 0.23329
# Poissons Ratio (y) = 0.20074 0.42247
# Poissons Ratio (z) = 0.13089 0.40222
#
# Static dielectric constant tensor:
#      x y z
#    x 1.939280 0.000000 -0.055390 
#    y 0.000000 1.887240 0.000000 
#    z -0.055390 0.000000 1.932990 
# 
# From -- ./inp_files/99165.got.cif
#   From: 2010.05.17/outbox.cif.g08.bks.cpg/sg12_50_cif.got.tgz:99165.got - 2010.06.03 13:09:07.
