data_PCOD9212295
_publ_section_title
;
Structure prediction by ZEFSAII (Michael W. Deem and Ramdas Pophale) SiO2 
 PCOD9212295
Probable space group: C 2/M
;
_chemical_formula_sum "Si O2"
_cell_formula_units_Z 56
_cell_length_a 21.830129
_cell_length_b 8.663662
_cell_length_c 18.684136
_cell_angle_alpha 90.000000
_cell_angle_beta 123.095885
_cell_angle_gamma 90.000000
_cell_volume 2960.393029
_symmetry_space_group_name_H-M "C 2/M"
_symmetry_group_IT_number 12
_symmetry_cell_setting 'monoclinic'
loop_
_space_group_symop_operation_xyz
x,y,z
-x,y,-z
-x,-y,-z
x,-y,z
1/2+x,1/2+y,z
1/2-x,1/2+y,-z
1/2-x,1/2-y,-z
1/2+x,1/2-y,z
loop_
_atom_site_type_symbol
_atom_site_label
_atom_site_fract_x
_atom_site_fract_y
_atom_site_fract_z
Si Si1 0.609524 0.182787 0.733030
Si Si2 0.265093 0.314851 0.088741
Si Si3 0.466632 0.318319 0.705644
Si Si4 0.982722 0.687093 0.872635
Si Si5 0.413890 0.813313 0.441782
Si Si6 0.884882 0.686901 0.942025
Si Si7 0.172903 0.816968 0.477153
O O1 0.661941 0.260188 0.825007
O O2 0.526557 0.222545 0.700402
O O3 0.618783 0.233638 0.656459
O O4 0.621141 0.000000 0.744156
O O5 0.265247 0.500000 0.084531
O O6 0.196466 0.261467 0.093386
O O7 0.250000 0.250000 0.000000
O O8 0.482800 0.500000 0.708168
O O9 0.472072 0.267335 0.790839
O O10 0.386945 0.288655 0.622838
O O11 0.981557 0.500000 0.863781
O O12 0.920587 0.734134 0.889986
O O13 0.059638 0.730147 0.958878
O O14 0.500000 0.763814 0.500000
O O15 0.363999 0.751639 0.474493
O O16 0.414260 0.000000 0.445241
O O17 0.885080 0.500000 0.941120
O O18 0.250000 0.750000 0.500000
O O19 0.180828 0.000000 0.492415
#
# Coordination Sequence:
#
# PCOD9212295 Si02
#       7
#     8   8   8   8   8   8   8
#     4  11  23  39  62  89 117 158 205 251 306 368
#     4  11  22  37  57  86 124 160 201 249 300 356
#     4  11  23  38  57  87 119 149 192 247 301 362
#     4   9  17  34  60  83 108 149 196 238 287 354
#     4  10  21  41  67  92 121 160 208 259 312 374
#     4   8  17  34  55  80 111 150 194 238 286 345
#     4  11  25  42  63  90 125 162 201 254 316 376
#
# _framework density 18.916407
#
# number of rings (size 3 to 8) (size 9 to 14) (size 15 to 20)
#    0.000    1.857    1.429    3.429    0.000    5.429 
#    0.000    6.429    0.000    0.000    0.000    0.000 
#    0.000    0.000    0.000    0.000    0.000    0.000 
#
# Total GULP energy -156330.985781 kJ/mol
# GULP energy per Si atom -5583.249492 kJ/mol
# Density = 1.887335 g / cm^3
# Si number density = 18.916407 Si / 1000 Ang^3
#
#
#
# Elastic Constant Matrix: (Units=GPa)
#
#
# Indices 1 2 3 4 5 6 
#
# 1 100.7192 20.8608 31.9367 0.0000 1.2380 0.0000
# 2 20.8608 27.3290 24.6064 0.0000 1.0483 0.0000
# 3 31.9367 24.6064 82.2730 0.0000 -19.7954 0.0000
# 4 0.0000 0.0000 0.0000 27.1074 0.0000 -2.8582
# 5 1.2380 1.0483 -19.7954 0.0000 29.9821 0.0000
# 6 0.0000 0.0000 0.0000 -2.8582 0.0000 27.1478
#
#
#
# Elastic Compliance Matrix: (Units=1/GPa)
#
#
# Indices 1 2 3 4 5 6 
#
# 1 0.012371 -0.006063 -0.003639 0.000000 -0.002701 0.000000
# 2 -0.006063 0.058392 -0.018476 0.000000 -0.013990 0.000000
# 3 -0.003639 -0.018476 0.022927 0.000000 0.015934 0.000000
# 4 0.000000 0.000000 0.000000 0.037304 0.000000 0.003928
# 5 -0.002701 -0.013990 0.015934 0.000000 0.044474 0.000000
# 6 0.000000 0.000000 0.000000 0.003928 0.000000 0.037249
#
#
# Mechanical properties :
#
#
# Convention : Reuss Voigt Hill
#
# Bulk Modulus (GPa) = 26.78605 40.56986 33.67795
# Shear Modulus (GPa) = 17.76078 25.70862 21.73470
#
# Velocity S-wave (km/s) = 3.06749 3.69055 3.39335
# Velocity P-wave (km/s) = 5.17078 6.29712 5.76154
#
# Compressibility (1/GPa) = 0.03733287
#
# Stress axis : x y z
#
# Youngs Moduli (GPa) = 80.83112 17.12565 43.61695
#
# Poissons Ratio (x) = 0.10384 0.15871
# Poissons Ratio (y) = 0.49012 0.80588
# Poissons Ratio (z) = 0.29413 0.31642
#
# Static dielectric constant tensor:
#      x y z
#    x 1.652850 0.000000 -0.001940 
#    y 0.000000 1.642470 0.000000 
#    z -0.001940 0.000000 1.639580 
# 
# From -- ./inp_files/281732.got.cif
#   From: 2010.05.17/outbox.cif.g08.bks.cpg/sg12_141_cif.got.tgz:281732.got - 2010.06.03 13:09:07.
