data_PCOD9212006
_publ_section_title
;
Structure prediction by ZEFSAII (Michael W. Deem and Ramdas Pophale) SiO2 
 PCOD9212006
Probable space group: C 2/M
;
_chemical_formula_sum "Si O2"
_cell_formula_units_Z 32
_cell_length_a 8.659380
_cell_length_b 13.551673
_cell_length_c 20.954255
_cell_angle_alpha 90.000000
_cell_angle_beta 31.797716
_cell_angle_gamma 90.000000
_cell_volume 1295.681323
_symmetry_space_group_name_H-M "C 2/M"
_symmetry_group_IT_number 12
_symmetry_cell_setting 'monoclinic'
loop_
_space_group_symop_operation_xyz
x,y,z
-x,y,-z
-x,-y,-z
x,-y,z
1/2+x,1/2+y,z
1/2-x,1/2+y,-z
1/2-x,1/2-y,-z
1/2+x,1/2-y,z
loop_
_atom_site_type_symbol
_atom_site_label
_atom_site_fract_x
_atom_site_fract_y
_atom_site_fract_z
Si Si1 0.666557 0.300092 0.121408
Si Si2 0.844957 0.117356 0.360685
Si Si3 0.718741 0.611892 0.854380
Si Si4 0.112006 0.112564 0.397408
O O1 0.481366 0.331766 0.249569
O O2 0.486810 0.333253 0.123392
O O3 0.712866 0.181861 0.109315
O O4 0.000000 0.341691 0.000000
O O5 0.500000 0.124771 0.500000
O O6 0.019455 0.155273 0.362011
O O7 0.904244 0.000000 0.330679
O O8 0.618680 0.500000 0.899135
O O9 0.045008 0.604583 0.712132
O O10 0.000000 0.164720 0.500000
O O11 0.987455 0.000000 0.439196
#
# Coordination Sequence:
#
# PCOD9212006 Si02
#       4
#     8   8   8   8
#     4  12  26  46  71 105 145 190 244 297 358 433
#     4  10  21  40  70 108 147 190 242 299 362 431
#     4  11  25  45  70 102 144 191 240 298 360 425
#     4   9  18  36  64  99 139 182 232 291 353 419
#
# _framework density 24.697431000000002
#
# number of rings (size 3 to 8) (size 9 to 14) (size 15 to 20)
#    0.000    1.500    0.000    4.500    0.000    7.500 
#    0.000    8.750    0.000    0.000    0.000    0.000 
#    0.000    0.000    0.000    0.000    0.000    0.000 
#
# Total GULP energy -89433.191017 kJ/mol
# GULP energy per Si atom -5589.574439 kJ/mol
# Density = 2.464122 g / cm^3
# Si number density = 24.697431 Si / 1000 Ang^3
#
#
#
# Elastic Constant Matrix: (Units=GPa)
#
#
# Indices 1 2 3 4 5 6 
#
# 1 200.6297 71.2780 68.4176 0.0006 -0.2136 0.0008
# 2 71.2780 173.7329 13.3258 0.0006 5.3524 0.0007
# 3 68.4176 13.3258 125.6601 -0.0051 8.9286 0.0016
# 4 0.0006 0.0006 -0.0051 3.4200 -0.0029 -8.2315
# 5 -0.2136 5.3524 8.9286 -0.0029 57.1980 -0.0001
# 6 0.0008 0.0007 0.0016 -8.2315 -0.0001 31.1830
#
#
#
# Elastic Compliance Matrix: (Units=1/GPa)
#
#
# Indices 1 2 3 4 5 6 
#
# 1 0.007205 -0.002699 -0.003697 -0.000015 0.000857 -0.000004
# 2 -0.002699 0.006826 0.000801 -0.000001 -0.000774 0.000000
# 3 -0.003697 0.000801 0.010004 0.000036 -0.001650 0.000009
# 4 -0.000015 -0.000001 0.000036 0.801896 0.000035 0.211680
# 5 0.000857 -0.000774 -0.001650 0.000035 0.017816 0.000009
# 6 -0.000004 0.000000 0.000009 0.211680 0.000009 0.087947
#
#
# Mechanical properties :
#
#
# Convention : Reuss Voigt Hill
#
# Bulk Modulus (GPa) = 77.86600 89.56282 83.71441
# Shear Modulus (GPa) = 5.27891 41.49362 23.38626
#
# Velocity S-wave (km/s) = 1.46358 4.10332 3.08053
# Velocity P-wave (km/s) = 5.86963 7.66762 6.82806
#
# Compressibility (1/GPa) = 0.01284258
#
# Stress axis : x y z
#
# Youngs Moduli (GPa) = 138.79414 146.50659 99.96500
#
# Poissons Ratio (x) = 0.39539 0.36962
# Poissons Ratio (y) = 0.37457 -0.08003
# Poissons Ratio (z) = 0.51319 -0.11728
#
# Static dielectric constant tensor:
#      x y z
#    x 1.926060 0.000000 0.047920 
#    y 0.000000 2.009010 0.000000 
#    z 0.047920 0.000000 2.034200 
# 
# From -- ./inp_files/117436.got.cif
#   From: 2010.05.17/outbox.cif.g08.bks.cpg/sg12_59_cif.got.tgz:117436.got - 2010.06.03 13:09:07.
