data_PCOD9212928
_publ_section_title
;
Structure prediction by ZEFSAII (Michael W. Deem and Ramdas Pophale) SiO2 
 PCOD9212928
Probable space group: C 2/M
;
_chemical_formula_sum "Si O2"
_cell_formula_units_Z 48
_cell_length_a 9.840558
_cell_length_b 21.698117
_cell_length_c 21.869538
_cell_angle_alpha 90.000000
_cell_angle_beta 144.233908
_cell_angle_gamma 90.000000
_cell_volume 2729.287193
_symmetry_space_group_name_H-M "C 2/M"
_symmetry_group_IT_number 12
_symmetry_cell_setting 'monoclinic'
loop_
_space_group_symop_operation_xyz
x,y,z
-x,y,-z
-x,-y,-z
x,-y,z
1/2+x,1/2+y,z
1/2-x,1/2+y,-z
1/2-x,1/2-y,-z
1/2+x,1/2-y,z
loop_
_atom_site_type_symbol
_atom_site_label
_atom_site_fract_x
_atom_site_fract_y
_atom_site_fract_z
Si Si1 0.056726 0.871371 0.613546
Si Si2 0.154556 0.322549 0.386112
Si Si3 0.230116 0.500000 0.671478
Si Si4 0.481795 0.712602 0.065564
Si Si5 0.424979 0.296107 0.259396
Si Si6 0.355048 0.369595 0.771362
Si Si7 0.682809 0.500000 0.442893
O O1 0.851647 0.830345 0.508723
O O2 0.265081 0.865505 0.641165
O O3 0.122072 0.841423 0.701562
O O4 0.952804 0.939205 0.584657
O O5 0.122166 0.253394 0.350141
O O6 0.907623 0.344003 0.321120
O O7 0.328203 0.440205 0.741871
O O8 0.301075 0.500000 0.625405
O O9 0.946858 0.500000 0.565552
O O10 0.697350 0.756886 0.161038
O O11 0.519580 0.651079 0.120024
O O12 0.500000 0.700139 0.000000
O O13 0.250000 0.750000 0.000000
O O14 0.509655 0.333960 0.232388
#
# Coordination Sequence:
#
# PCOD9212928 Si02
#       7
#     8   8   4   8   8   8   4
#     4  11  22  37  55  87 126 165 205 240 293 359
#     4  10  22  35  55  88 128 160 197 253 300 354
#     4  11  22  41  59  89 121 168 210 241 289 361
#     4  11  23  42  66  93 119 153 199 259 321 364
#     4  11  22  38  61  91 120 158 200 248 311 365
#     4  11  22  39  64  89 119 161 206 249 299 365
#     4  11  22  38  61  81 125 177 207 235 283 365
#
# _framework density 17.587008999999998
#
# number of rings (size 3 to 8) (size 9 to 14) (size 15 to 20)
#    0.000    1.167    5.000    2.500    2.333    4.000 
#    0.000    0.417    0.000    3.000    0.000    0.000 
#    0.000    0.000    0.000    0.000    0.000    0.000 
#
# Total GULP energy -134007.625913 kJ/mol
# GULP energy per Si atom -5583.651080 kJ/mol
# Density = 1.754698 g / cm^3
# Si number density = 17.587009 Si / 1000 Ang^3
#
#
#
# Elastic Constant Matrix: (Units=GPa)
#
#
# Indices 1 2 3 4 5 6 
#
# 1 102.4412 29.4177 36.8913 0.0005 -17.1568 0.0001
# 2 29.4177 123.7727 42.7865 0.0000 -15.0776 -0.0004
# 3 36.8913 42.7865 82.1104 0.0024 -19.9249 0.0012
# 4 0.0005 0.0000 0.0024 24.1812 0.0013 -7.2234
# 5 -17.1568 -15.0776 -19.9249 0.0013 32.1830 0.0010
# 6 0.0001 -0.0004 0.0012 -7.2234 0.0010 40.3281
#
#
#
# Elastic Compliance Matrix: (Units=1/GPa)
#
#
# Indices 1 2 3 4 5 6 
#
# 1 0.012101 -0.001056 -0.004050 0.000000 0.003449 0.000000
# 2 -0.001056 0.010025 -0.004409 0.000000 0.001404 0.000000
# 3 -0.004050 -0.004409 0.017970 -0.000002 0.006901 -0.000001
# 4 0.000000 0.000000 -0.000002 0.043692 -0.000003 0.007826
# 5 0.003449 0.001404 0.006901 -0.000003 0.037842 -0.000002
# 6 0.000000 0.000000 -0.000001 0.007826 -0.000002 0.026198
#
#
# Mechanical properties :
#
#
# Convention : Reuss Voigt Hill
#
# Bulk Modulus (GPa) = 47.46620 58.50170 52.98395
# Shear Modulus (GPa) = 28.75540 32.62037 30.68788
#
# Velocity S-wave (km/s) = 4.04795 4.31141 4.18175
# Velocity P-wave (km/s) = 6.99255 7.62369 7.31493
#
# Compressibility (1/GPa) = 0.02106762
#
# Stress axis : x y z
#
# Youngs Moduli (GPa) = 82.63808 99.74582 55.64765
#
# Poissons Ratio (x) = 0.10534 0.22535
# Poissons Ratio (y) = 0.08727 0.24534
# Poissons Ratio (z) = 0.33465 0.43977
#
# Static dielectric constant tensor:
#      x y z
#    x 1.603610 0.000000 -0.013050 
#    y 0.000000 1.584440 0.000000 
#    z -0.013050 0.000000 1.587050 
# 
# From -- ./inp_files/247123.got.cif
#   From: 2010.05.17/outbox.cif.g08.bks.cpg/sg12_124_cif.got.tgz:247123.got - 2010.06.03 13:09:07.
