data_PCOD9212951
_publ_section_title
;
Structure prediction by ZEFSAII (Michael W. Deem and Ramdas Pophale) SiO2 
 PCOD9212951
Probable space group: C 2/M
;
_chemical_formula_sum "Si O2"
_cell_formula_units_Z 64
_cell_length_a 9.158395
_cell_length_b 31.898067
_cell_length_c 16.123755
_cell_angle_alpha 90.000000
_cell_angle_beta 139.716604
_cell_angle_gamma 90.000000
_cell_volume 3045.542242
_symmetry_space_group_name_H-M "C 2/M"
_symmetry_group_IT_number 12
_symmetry_cell_setting 'monoclinic'
loop_
_space_group_symop_operation_xyz
x,y,z
-x,y,-z
-x,-y,-z
x,-y,z
1/2+x,1/2+y,z
1/2-x,1/2+y,-z
1/2-x,1/2-y,-z
1/2+x,1/2-y,z
loop_
_atom_site_type_symbol
_atom_site_label
_atom_site_fract_x
_atom_site_fract_y
_atom_site_fract_z
Si Si1 0.885105 0.680496 0.538160
Si Si2 0.639308 0.681033 0.978118
Si Si3 0.490444 0.048329 0.802519
Si Si4 0.523308 0.744354 0.318974
Si Si5 0.732896 0.594138 0.548040
Si Si6 0.523230 0.547752 0.705500
Si Si7 0.764689 0.401135 0.949375
Si Si8 0.924637 0.268934 0.830538
O O1 0.663501 0.708893 0.425679
O O2 0.826580 0.639222 0.562884
O O3 0.000000 0.670956 0.500000
O O4 0.030445 0.713299 0.654145
O O5 0.642935 0.642452 0.917318
O O6 0.538480 0.725364 0.905634
O O7 0.500000 0.669474 0.000000
O O8 0.902311 0.693110 0.103412
O O9 0.415195 0.069780 0.683695
O O10 0.256051 0.046938 0.753157
O O11 0.565208 0.000000 0.824091
O O12 0.662097 0.075147 0.933817
O O13 0.279455 0.724321 0.194659
O O14 0.659122 0.760807 0.299105
O O15 0.500000 0.598368 0.500000
O O16 0.660382 0.570045 0.432597
O O17 0.456934 0.500000 0.693978
O O18 0.595083 0.571732 0.819731
O O19 0.000000 0.394956 0.000000
#
# Coordination Sequence:
#
# PCOD9212951 Si02
#       8
#     8   8   8   8   8   8   8   8
#     4  11  25  40  58  90 121 161 207 255 309 366
#     4  11  25  40  58  90 121 161 207 255 309 366
#     4   9  18  36  60  90 122 155 199 252 306 362
#     4  11  24  41  63  84 119 164 207 255 305 363
#     4  10  22  35  61  92 120 158 203 253 304 363
#     4   9  18  36  60  90 122 155 199 252 306 362
#     4  10  22  35  61  92 120 158 203 253 304 363
#     4  11  24  41  63  84 119 164 207 255 305 363
#
# _framework density 21.014320000000001
#
# number of rings (size 3 to 8) (size 9 to 14) (size 15 to 20)
#    0.000    1.750    2.500    0.750    7.000    4.000 
#    0.000    0.000    0.000    4.500    0.000    0.000 
#    0.000    0.000    0.000    0.000    0.000    0.000 
#
# Total GULP energy -178597.100943 kJ/mol
# GULP energy per Si atom -5581.159404 kJ/mol
# Density = 2.096649 g / cm^3
# Si number density = 21.014320 Si / 1000 Ang^3
#
#
#
# Elastic Constant Matrix: (Units=GPa)
#
#
# Indices 1 2 3 4 5 6 
#
# 1 55.8583 35.7264 16.3388 0.0000 -6.5393 0.0000
# 2 35.7264 122.9526 41.7504 0.0000 -9.5812 0.0000
# 3 16.3388 41.7504 95.3166 0.0000 -17.0443 0.0000
# 4 0.0000 0.0000 0.0000 17.2534 0.0000 -18.2289
# 5 -6.5393 -9.5812 -17.0443 0.0000 22.1453 0.0000
# 6 0.0000 0.0000 0.0000 -18.2289 0.0000 20.8244
#
#
#
# Elastic Compliance Matrix: (Units=1/GPa)
#
#
# Indices 1 2 3 4 5 6 
#
# 1 0.022334 -0.006024 -0.000552 0.000000 0.003563 0.000000
# 2 -0.006024 0.011201 -0.003856 0.000000 0.000100 0.000000
# 3 -0.000552 -0.003856 0.013854 0.000000 0.008832 0.000000
# 4 0.000000 0.000000 0.000000 0.771328 0.000000 0.675193
# 5 0.003563 0.000100 0.008832 0.000000 0.053049 0.000000
# 6 0.000000 0.000000 0.000000 0.675193 0.000000 0.639060
#
#
# Mechanical properties :
#
#
# Convention : Reuss Voigt Hill
#
# Bulk Modulus (GPa) = 37.70140 51.30652 44.50396
# Shear Modulus (GPa) = 3.24563 24.06541 13.65552
#
# Velocity S-wave (km/s) = 1.24412 3.38774 2.55192
# Velocity P-wave (km/s) = 4.47700 6.30638 5.46873
#
# Compressibility (1/GPa) = 0.02652422
#
# Stress axis : x y z
#
# Youngs Moduli (GPa) = 44.77400 89.27975 72.18051
#
# Poissons Ratio (x) = 0.53786 0.03988
# Poissons Ratio (y) = 0.26974 0.27830
# Poissons Ratio (z) = 0.02473 0.34423
#
# Static dielectric constant tensor:
#      x y z
#    x 1.771920 0.000000 0.002700 
#    y 0.000000 1.717660 0.000000 
#    z 0.002700 0.000000 1.836380 
# 
# From -- ./inp_files/201290.got.cif
#   From: 2010.05.17/outbox.cif.g08.bks.cpg/sg12_101_cif.got.tgz:201290.got - 2010.06.03 13:09:07.
