data_PCOD9212308
_publ_section_title
;
Structure prediction by ZEFSAII (Michael W. Deem and Ramdas Pophale) SiO2 
 PCOD9212308
Probable space group: C 2/M
;
_chemical_formula_sum "Si O2"
_cell_formula_units_Z 56
_cell_length_a 11.908836
_cell_length_b 18.625810
_cell_length_c 14.445534
_cell_angle_alpha 90.000000
_cell_angle_beta 116.898066
_cell_angle_gamma 90.000000
_cell_volume 2857.536494
_symmetry_space_group_name_H-M "C 2/M"
_symmetry_group_IT_number 12
_symmetry_cell_setting 'monoclinic'
loop_
_space_group_symop_operation_xyz
x,y,z
-x,y,-z
-x,-y,-z
x,-y,z
1/2+x,1/2+y,z
1/2-x,1/2+y,-z
1/2-x,1/2-y,-z
1/2+x,1/2-y,z
loop_
_atom_site_type_symbol
_atom_site_label
_atom_site_fract_x
_atom_site_fract_y
_atom_site_fract_z
Si Si1 0.269126 0.417722 0.668473
Si Si2 0.622394 0.584402 0.979024
Si Si3 0.391036 0.816922 0.714659
Si Si4 0.995922 0.833378 0.219407
Si Si5 0.107061 0.830580 0.610374
Si Si6 0.870411 0.584788 0.194674
Si Si7 0.621696 0.818908 0.506819
O O1 0.250988 0.500000 0.638848
O O2 0.409030 0.400333 0.751590
O O3 0.178847 0.397740 0.720228
O O4 0.241146 0.367212 0.571361
O O5 0.624731 0.500000 0.949488
O O6 0.750851 0.597119 0.083818
O O7 0.500000 0.592124 0.000000
O O8 0.609334 0.643399 0.893250
O O9 0.424706 0.739401 0.772189
O O10 0.253742 0.853082 0.677653
O O11 0.506689 0.869131 0.781215
O O12 0.392870 0.802724 0.605016
O O13 0.946177 0.827709 0.305694
O O14 0.127420 0.752136 0.571118
O O15 0.000000 0.863853 0.500000
O O16 0.899336 0.500000 0.203376
O O17 0.500000 0.860555 0.500000
#
# Coordination Sequence:
#
# PCOD9212308 Si02
#       7
#     8   8   8   8   8   8   8
#     4  11  21  35  60  92 123 158 210 267 311 367
#     4  10  21  41  67  93 125 165 209 265 324 372
#     4  12  23  39  64  91 129 171 212 260 317 374
#     4  12  22  36  64  94 126 162 214 260 315 377
#     4  11  22  39  60  91 127 173 203 249 315 386
#     4  10  22  41  63  91 124 161 212 269 318 367
#     4  11  19  36  59  89 123 163 203 253 316 371
#
# _framework density 19.597300000000001
#
# number of rings (size 3 to 8) (size 9 to 14) (size 15 to 20)
#    0.000    1.000    7.143    1.714    0.000    1.429 
#    0.000    2.143    0.000    4.714    0.000    0.000 
#    0.000    0.000    0.000    0.000    0.000    0.000 
#
# Total GULP energy -156078.257749 kJ/mol
# GULP energy per Si atom -5574.223491 kJ/mol
# Density = 1.955270 g / cm^3
# Si number density = 19.597300 Si / 1000 Ang^3
#
#
#
# Elastic Constant Matrix: (Units=GPa)
#
#
# Indices 1 2 3 4 5 6 
#
# 1 102.1338 16.0386 22.0616 0.0000 23.7745 0.0000
# 2 16.0386 36.3212 41.2650 0.0000 17.5287 0.0000
# 3 22.0616 41.2650 104.5489 0.0000 23.2720 0.0000
# 4 0.0000 0.0000 0.0000 26.1624 0.0000 8.7755
# 5 23.7745 17.5287 23.2720 0.0000 30.9047 0.0000
# 6 0.0000 0.0000 0.0000 8.7755 0.0000 24.7122
#
#
#
# Elastic Compliance Matrix: (Units=1/GPa)
#
#
# Indices 1 2 3 4 5 6 
#
# 1 0.011967 -0.000838 -0.000302 0.000000 -0.008504 0.000000
# 2 -0.000838 0.057769 -0.018590 0.000000 -0.018122 0.000000
# 3 -0.000302 -0.018590 0.017501 0.000000 -0.002402 0.000000
# 4 0.000000 0.000000 0.000000 0.043391 0.000000 -0.015408
# 5 -0.008504 -0.018122 -0.002402 0.000000 0.050987 0.000000
# 6 0.000000 0.000000 0.000000 -0.015408 0.000000 0.045937
#
#
# Mechanical properties :
#
#
# Convention : Reuss Voigt Hill
#
# Bulk Modulus (GPa) = 20.93047 44.63713 32.78380
# Shear Modulus (GPa) = 17.67174 27.26512 22.46843
#
# Velocity S-wave (km/s) = 3.00616 3.73402 3.38968
# Velocity P-wave (km/s) = 4.76999 6.43562 5.66436
#
# Compressibility (1/GPa) = 0.04777723
#
# Stress axis : x y z
#
# Youngs Moduli (GPa) = 83.56075 17.31046 57.14001
#
# Poissons Ratio (x) = 0.01450 0.01724
# Poissons Ratio (y) = 0.06999 1.06226
# Poissons Ratio (z) = 0.02522 0.32181
#
# Static dielectric constant tensor:
#      x y z
#    x 1.760090 0.000000 0.046520 
#    y 0.000000 1.681390 0.000000 
#    z 0.046520 0.000000 1.728270 
# 
# From -- ./inp_files/206226.got.cif
#   From: 2010.05.17/outbox.cif.g08.bks.cpg/sg12_104_cif.got.tgz:206226.got - 2010.06.03 13:09:07.
