data_PCOD9212786
_publ_section_title
;
Structure prediction by ZEFSAII (Michael W. Deem and Ramdas Pophale) SiO2 
 PCOD9212786
Probable space group: C 2/M
;
_chemical_formula_sum "Si O2"
_cell_formula_units_Z 36
_cell_length_a 12.029631
_cell_length_b 23.896117
_cell_length_c 5.811414
_cell_angle_alpha 90.000000
_cell_angle_beta 122.808398
_cell_angle_gamma 90.000000
_cell_volume 1404.082280
_symmetry_space_group_name_H-M "C 2/M"
_symmetry_group_IT_number 12
_symmetry_cell_setting 'monoclinic'
loop_
_space_group_symop_operation_xyz
x,y,z
-x,y,-z
-x,-y,-z
x,-y,z
1/2+x,1/2+y,z
1/2-x,1/2+y,-z
1/2-x,1/2-y,-z
1/2+x,1/2-y,z
loop_
_atom_site_type_symbol
_atom_site_label
_atom_site_fract_x
_atom_site_fract_y
_atom_site_fract_z
Si Si1 0.881535 0.500000 0.104704
Si Si2 0.630857 0.609996 0.503682
Si Si3 0.240176 0.000000 0.440069
Si Si4 0.877070 0.627164 0.130127
Si Si5 0.700895 0.297529 0.265172
Si Si6 0.000000 0.714101 0.000000
O O1 0.789510 0.500000 0.232251
O O2 0.935309 0.563685 0.201492
O O3 0.833368 0.500000 0.780623
O O4 0.500000 0.599710 0.500000
O O5 0.658597 0.555956 0.383089
O O6 0.612078 0.662632 0.321539
O O7 0.760085 0.622007 0.806563
O O8 0.796919 0.660120 0.239620
O O9 0.998203 0.667672 0.199506
O O10 0.750000 0.250000 0.500000
O O11 0.609460 0.255967 0.017185
#
# Coordination Sequence:
#
# PCOD9212786 Si02
#       6
#     4   8   4   8   8   4
#     4  10  22  45  77  97 145 182 239 300 359 422
#     4  11  23  42  69  99 137 183 230 292 355 421
#     4  10  21  44  68 106 135 185 235 303 358 419
#     4  11  25  47  67 103 137 180 239 290 352 423
#     4  12  25  42  67  97 141 181 232 284 353 418
#     4  12  26  43  70  99 142 186 232 288 348 436
#
# _framework density 25.639520999999998
#
# number of rings (size 3 to 8) (size 9 to 14) (size 15 to 20)
#    0.000    0.889    4.444    2.333    3.111    0.444 
#    0.000    2.222    0.000    4.000    0.000    0.000 
#    0.000    0.000    0.000    0.000    0.000    0.000 
#
# Total GULP energy -100209.375554 kJ/mol
# GULP energy per Si atom -5567.187531 kJ/mol
# Density = 2.558116 g / cm^3
# Si number density = 25.639521 Si / 1000 Ang^3
#
#
#
# Elastic Constant Matrix: (Units=GPa)
#
#
# Indices 1 2 3 4 5 6 
#
# 1 79.9722 32.2361 30.7979 0.0000 -24.8727 0.0000
# 2 32.2361 242.4662 29.4531 0.0000 -3.5340 0.0000
# 3 30.7979 29.4531 49.6498 0.0000 0.6825 0.0000
# 4 0.0000 0.0000 0.0000 30.3342 0.0000 -30.0052
# 5 -24.8727 -3.5340 0.6825 0.0000 38.0781 0.0000
# 6 0.0000 0.0000 0.0000 -30.0052 0.0000 51.7251
#
#
#
# Elastic Compliance Matrix: (Units=1/GPa)
#
#
# Indices 1 2 3 4 5 6 
#
# 1 0.022996 -0.001162 -0.013784 0.000000 0.015160 0.000000
# 2 -0.001162 0.004511 -0.001951 0.000000 -0.000305 0.000000
# 3 -0.013784 -0.001951 0.029982 0.000000 -0.009722 0.000000
# 4 0.000000 0.000000 0.000000 0.077349 0.000000 0.044869
# 5 0.015160 -0.000305 -0.009722 0.000000 0.036310 0.000000
# 6 0.000000 0.000000 0.000000 0.044869 0.000000 0.045361
#
#
# Mechanical properties :
#
#
# Convention : Reuss Voigt Hill
#
# Bulk Modulus (GPa) = 42.20130 61.89583 52.04856
# Shear Modulus (GPa) = 19.36471 42.66756 31.01613
#
# Velocity S-wave (km/s) = 2.75120 4.08380 3.48185
# Velocity P-wave (km/s) = 5.15629 6.81394 6.04223
#
# Compressibility (1/GPa) = 0.02369595
#
# Stress axis : x y z
#
# Youngs Moduli (GPa) = 43.48591 221.66330 33.35317
#
# Poissons Ratio (x) = 0.25758 0.45972
# Poissons Ratio (y) = 0.05053 0.06508
# Poissons Ratio (z) = 0.59939 0.43251
#
# Static dielectric constant tensor:
#      x y z
#    x 2.234950 0.000000 0.263890 
#    y 0.000000 1.961540 0.000000 
#    z 0.263890 0.000000 2.438430 
# 
# From -- ./inp_files/7085.got.cif
#   From: 2010.05.17/outbox.cif.g08.bks.cpg/sg12_4_cif.got.tgz:7085.got - 2010.06.03 13:09:07.
