data_PCOD9212286
_publ_section_title
;
Structure prediction by ZEFSAII (Michael W. Deem and Ramdas Pophale) SiO2 
 PCOD9212286
Probable space group: C 2/M
;
_chemical_formula_sum "Si O2"
_cell_formula_units_Z 40
_cell_length_a 9.608743
_cell_length_b 24.339998
_cell_length_c 9.261240
_cell_angle_alpha 90.000000
_cell_angle_beta 64.431720
_cell_angle_gamma 90.000000
_cell_volume 1953.877196
_symmetry_space_group_name_H-M "C 2/M"
_symmetry_group_IT_number 12
_symmetry_cell_setting 'monoclinic'
loop_
_space_group_symop_operation_xyz
x,y,z
-x,y,-z
-x,-y,-z
x,-y,z
1/2+x,1/2+y,z
1/2-x,1/2+y,-z
1/2-x,1/2-y,-z
1/2+x,1/2-y,z
loop_
_atom_site_type_symbol
_atom_site_label
_atom_site_fract_x
_atom_site_fract_y
_atom_site_fract_z
Si Si1 0.184925 0.194306 0.830611
Si Si2 0.972196 0.629437 0.667488
Si Si3 0.662825 0.936316 0.010100
Si Si4 0.896822 0.155147 0.822327
Si Si5 0.731838 0.791998 0.644153
O O1 0.358663 0.181951 0.705069
O O2 0.138067 0.254322 0.799369
O O3 0.074837 0.152106 0.791966
O O4 0.169675 0.187937 0.008280
O O5 0.880810 0.590164 0.816542
O O6 0.000000 0.603434 0.500000
O O7 0.132486 0.654716 0.649371
O O8 0.705985 0.000000 0.001045
O O9 0.500000 0.931860 0.000000
O O10 0.797395 0.900667 0.874746
O O11 0.872262 0.185880 0.681503
O O12 0.750000 0.750000 0.500000
#
# Coordination Sequence:
#
# PCOD9212286 Si02
#       5
#     8   8   8   8   8
#     4  10  22  36  57  86 128 161 191 243 298 355
#     4  11  22  39  57  90 123 155 205 242 293 363
#     4  10  21  41  67  87 110 154 205 260 304 341
#     4  10  22  39  57  89 120 155 204 246 293 358
#     4  12  22  36  57  88 125 169 190 234 290 365
#
# _framework density 20.472117000000001
#
# number of rings (size 3 to 8) (size 9 to 14) (size 15 to 20)
#    0.000    1.400    4.000    1.800    0.000    5.200 
#    0.000    8.000    0.000    0.000    0.000    4.200 
#    0.000    0.000    0.000    0.000    0.000    0.000 
#
# Total GULP energy -111493.554272 kJ/mol
# GULP energy per Si atom -5574.677714 kJ/mol
# Density = 2.042552 g / cm^3
# Si number density = 20.472117 Si / 1000 Ang^3
#
#
#
# Elastic Constant Matrix: (Units=GPa)
#
#
# Indices 1 2 3 4 5 6 
#
# 1 77.5405 11.6651 29.1854 0.0000 23.1834 0.0000
# 2 11.6651 94.7630 31.9787 0.0000 16.9443 0.0000
# 3 29.1854 31.9787 100.1760 0.0000 19.0852 0.0000
# 4 0.0000 0.0000 0.0000 20.3402 0.0000 -0.7407
# 5 23.1834 16.9443 19.0852 0.0000 28.0428 0.0000
# 6 0.0000 0.0000 0.0000 -0.7407 0.0000 21.8069
#
#
#
# Elastic Compliance Matrix: (Units=1/GPa)
#
#
# Indices 1 2 3 4 5 6 
#
# 1 0.017878 0.001230 -0.003038 0.000000 -0.013456 0.000000
# 2 0.001230 0.012627 -0.003150 0.000000 -0.006503 0.000000
# 3 -0.003038 -0.003150 0.012676 0.000000 -0.004212 0.000000
# 4 0.000000 0.000000 0.000000 0.049225 0.000000 0.001672
# 5 -0.013456 -0.006503 -0.004212 0.000000 0.053579 0.000000
# 6 0.000000 0.000000 0.000000 0.001672 0.000000 0.045914
#
#
# Mechanical properties :
#
#
# Convention : Reuss Voigt Hill
#
# Bulk Modulus (GPa) = 30.06177 46.45976 38.26077
# Shear Modulus (GPa) = 23.48495 27.34801 25.41648
#
# Velocity S-wave (km/s) = 3.39066 3.65892 3.52734
# Velocity P-wave (km/s) = 5.48132 6.37131 5.94300
#
# Compressibility (1/GPa) = 0.03326484
#
# Stress axis : x y z
#
# Youngs Moduli (GPa) = 55.93506 79.19497 78.89198
#
# Poissons Ratio (x) = -0.09744 0.23966
# Poissons Ratio (y) = -0.06882 0.24855
# Poissons Ratio (z) = 0.16992 0.24950
#
# Static dielectric constant tensor:
#      x y z
#    x 1.809810 0.000000 0.017860 
#    y 0.000000 1.707510 0.000000 
#    z 0.017860 0.000000 1.768670 
# 
# From -- ./inp_files/40329.got.cif
#   From: 2010.05.17/outbox.cif.g08.bks.cpg/sg12_21_cif.got.tgz:40329.got - 2010.06.03 13:09:07.
