data_PCOD9212242
_publ_section_title
;
Structure prediction by ZEFSAII (Michael W. Deem and Ramdas Pophale) SiO2 
 PCOD9212242
Probable space group: C 2/M
;
_chemical_formula_sum "Si O2"
_cell_formula_units_Z 32
_cell_length_a 11.885482
_cell_length_b 18.791832
_cell_length_c 7.683730
_cell_angle_alpha 90.000000
_cell_angle_beta 123.286446
_cell_angle_gamma 90.000000
_cell_volume 1434.602806
_symmetry_space_group_name_H-M "C 2/M"
_symmetry_group_IT_number 12
_symmetry_cell_setting 'monoclinic'
loop_
_space_group_symop_operation_xyz
x,y,z
-x,y,-z
-x,-y,-z
x,-y,z
1/2+x,1/2+y,z
1/2-x,1/2+y,-z
1/2-x,1/2-y,-z
1/2+x,1/2-y,z
loop_
_atom_site_type_symbol
_atom_site_label
_atom_site_fract_x
_atom_site_fract_y
_atom_site_fract_z
Si Si1 0.394065 0.579451 0.565394
Si Si2 0.894865 0.416284 0.624668
Si Si3 0.941310 0.200732 0.126762
Si Si4 0.644586 0.159297 0.781310
O O1 0.500000 0.577678 0.500000
O O2 0.394032 0.500000 0.647687
O O3 0.240249 0.593842 0.377729
O O4 0.448881 0.642210 0.730696
O O5 0.908290 0.500000 0.601698
O O6 0.861794 0.373887 0.417189
O O7 0.039645 0.387491 0.804264
O O8 0.912848 0.260696 0.246526
O O9 0.797896 0.163148 0.972624
O O10 0.000000 0.235312 0.000000
#
# Coordination Sequence:
#
# PCOD9212242 Si02
#       4
#     8   8   8   8
#     4  10  23  41  63  91 122 162 209 254 303 362
#     4  10  21  41  66  92 122 163 209 251 307 364
#     4  11  23  40  59  92 129 163 202 248 310 369
#     4  10  22  37  61  93 123 157 204 253 301 367
#
# _framework density 22.305826
#
# number of rings (size 3 to 8) (size 9 to 14) (size 15 to 20)
#    0.000    1.750    2.500    1.500    3.500    7.500 
#    0.000    0.000    0.000    7.500    0.000    0.000 
#    0.000    0.000    0.000    0.000    0.000    0.000 
#
# Total GULP energy -89263.285942 kJ/mol
# GULP energy per Si atom -5578.955371 kJ/mol
# Density = 2.225506 g / cm^3
# Si number density = 22.305826 Si / 1000 Ang^3
#
#
#
# Elastic Constant Matrix: (Units=GPa)
#
#
# Indices 1 2 3 4 5 6 
#
# 1 145.8244 28.6311 32.4841 0.0000 48.6792 0.0000
# 2 28.6311 95.5496 31.3493 0.0000 14.6596 0.0000
# 3 32.4841 31.3493 50.8439 0.0000 29.1443 0.0000
# 4 0.0000 0.0000 0.0000 55.1859 0.0000 -14.6327
# 5 48.6792 14.6596 29.1443 0.0000 43.8182 0.0000
# 6 0.0000 0.0000 0.0000 -14.6327 0.0000 46.8549
#
#
#
# Elastic Compliance Matrix: (Units=1/GPa)
#
#
# Indices 1 2 3 4 5 6 
#
# 1 0.011141 -0.001803 0.001200 0.000000 -0.012572 0.000000
# 2 -0.001803 0.013482 -0.009250 0.000000 0.003645 0.000000
# 3 0.001200 -0.009250 0.038134 0.000000 -0.023602 0.000000
# 4 0.000000 0.000000 0.000000 0.019757 0.000000 0.006170
# 5 -0.012572 0.003645 -0.023602 0.000000 0.051267 0.000000
# 6 0.000000 0.000000 0.000000 0.006170 0.000000 0.023269
#
#
# Mechanical properties :
#
#
# Convention : Reuss Voigt Hill
#
# Bulk Modulus (GPa) = 23.22857 53.01632 38.12244
# Shear Modulus (GPa) = 26.16358 42.48869 34.32614
#
# Velocity S-wave (km/s) = 3.42855 4.36916 3.92712
# Velocity P-wave (km/s) = 5.10975 7.01942 6.13929
#
# Compressibility (1/GPa) = 0.04305044
#
# Stress axis : x y z
#
# Youngs Moduli (GPa) = 89.75819 74.17460 26.22359
#
# Poissons Ratio (x) = 0.13376 -0.03148
# Poissons Ratio (y) = 0.16187 0.24257
# Poissons Ratio (z) = -0.10774 0.68611
#
# Static dielectric constant tensor:
#      x y z
#    x 1.892390 0.000000 -0.029220 
#    y 0.000000 1.825680 0.000000 
#    z -0.029220 0.000000 1.837830 
# 
# From -- ./inp_files/46443.got.cif
#   From: 2010.05.17/outbox.cif.g08.bks.cpg/sg12_24_cif.got.tgz:46443.got - 2010.06.03 13:09:07.
