data_PCOD9212727
_publ_section_title
;
Structure prediction by ZEFSAII (Michael W. Deem and Ramdas Pophale) SiO2 
 PCOD9212727
Probable space group: C 2/M
;
_chemical_formula_sum "Si O2"
_cell_formula_units_Z 42
_cell_length_a 29.375419
_cell_length_b 7.748549
_cell_length_c 10.347870
_cell_angle_alpha 90.000000
_cell_angle_beta 125.865544
_cell_angle_gamma 90.000000
_cell_volume 1908.761645
_symmetry_space_group_name_H-M "C 2/M"
_symmetry_group_IT_number 12
_symmetry_cell_setting 'monoclinic'
loop_
_space_group_symop_operation_xyz
x,y,z
-x,y,-z
-x,-y,-z
x,-y,z
1/2+x,1/2+y,z
1/2-x,1/2+y,-z
1/2-x,1/2-y,-z
1/2+x,1/2-y,z
loop_
_atom_site_type_symbol
_atom_site_label
_atom_site_fract_x
_atom_site_fract_y
_atom_site_fract_z
Si Si1 0.703954 0.707052 0.532132
Si Si2 0.896850 0.289068 0.035481
Si Si3 0.000000 0.500000 0.500000
Si Si4 0.229192 0.292975 0.107839
Si Si5 0.916062 0.301349 0.772352
Si Si6 0.011662 0.188656 0.339515
O O1 0.696245 0.500000 0.523727
O O2 0.750000 0.750000 0.500000
O O3 0.728732 0.768886 0.710220
O O4 0.645083 0.788536 0.394465
O O5 0.900426 0.500000 0.051482
O O6 0.834368 0.233173 0.970534
O O7 0.909239 0.239374 0.907944
O O8 0.945180 0.213342 0.205653
O O9 0.028782 0.347119 0.457992
O O10 0.227272 0.500000 0.117607
O O11 0.250000 0.250000 0.000000
O O12 0.934413 0.500000 0.809786
O O13 0.959397 0.206474 0.752180
O O14 0.026007 0.000000 0.414551
#
# Coordination Sequence:
#
# PCOD9212727 Si02
#       6
#     8   8   2   8   8   8
#     4  11  22  40  64  97 135 178 233 290 343 416
#     4  10  21  43  69  97 138 181 222 286 352 417
#     4  12  26  52  66  94 144 184 226 282 344 414
#     4  10  23  42  64  94 135 182 229 277 348 415
#     4  11  22  42  71 101 137 179 225 286 360 415
#     4  12  26  45  73 104 134 180 233 284 347 419
#
# _framework density 22.003795
#
# number of rings (size 3 to 8) (size 9 to 14) (size 15 to 20)
#    0.000    1.143    3.810    2.000    0.000    7.619 
#    0.000    1.905    0.000    0.000    0.000    0.000 
#    0.000    0.000    0.000    0.000    0.000    0.000 
#
# Total GULP energy -117229.400174 kJ/mol
# GULP energy per Si atom -5582.352389 kJ/mol
# Density = 2.195371 g / cm^3
# Si number density = 22.003795 Si / 1000 Ang^3
#
#
#
# Elastic Constant Matrix: (Units=GPa)
#
#
# Indices 1 2 3 4 5 6 
#
# 1 86.2079 16.8061 29.8938 0.0000 -16.3269 0.0000
# 2 16.8061 112.8757 9.2958 0.0000 -10.4702 0.0000
# 3 29.8938 9.2958 84.1167 0.0000 -10.0753 0.0000
# 4 0.0000 0.0000 0.0000 5.6874 0.0000 2.2016
# 5 -16.3269 -10.4702 -10.0753 0.0000 48.3943 0.0000
# 6 0.0000 0.0000 0.0000 2.2016 0.0000 29.5438
#
#
#
# Elastic Compliance Matrix: (Units=1/GPa)
#
#
# Indices 1 2 3 4 5 6 
#
# 1 0.014075 -0.001404 -0.004425 0.000000 0.003524 0.000000
# 2 -0.001404 0.009232 -0.000347 0.000000 0.001451 0.000000
# 3 -0.004425 -0.000347 0.013652 0.000000 0.001274 0.000000
# 4 0.000000 0.000000 0.000000 0.181048 0.000000 -0.013492
# 5 0.003524 0.001451 0.001274 0.000000 0.022432 0.000000
# 6 0.000000 0.000000 0.000000 -0.013492 0.000000 0.034853
#
#
# Mechanical properties :
#
#
# Convention : Reuss Voigt Hill
#
# Bulk Modulus (GPa) = 40.64122 43.91017 42.27569
# Shear Modulus (GPa) = 16.90061 31.87209 24.38635
#
# Velocity S-wave (km/s) = 2.77443 3.81002 3.33269
# Velocity P-wave (km/s) = 5.36409 6.27328 5.83642
#
# Compressibility (1/GPa) = 0.02460556
#
# Stress axis : x y z
#
# Youngs Moduli (GPa) = 71.04600 108.32337 73.25048
#
# Poissons Ratio (x) = 0.15213 0.32413
# Poissons Ratio (y) = 0.09978 0.02544
# Poissons Ratio (z) = 0.31437 0.03762
#
# Static dielectric constant tensor:
#      x y z
#    x 1.736460 0.000000 0.035390 
#    y 0.000000 1.955170 0.000000 
#    z 0.035390 0.000000 1.759280 
# 
# From -- ./inp_files/108525.got.cif
#   From: 2010.05.17/outbox.cif.g08.bks.cpg/sg12_55_cif.got.tgz:108525.got - 2010.06.03 13:09:07.
