data_PCOD9212632
_publ_section_title
;
Structure prediction by ZEFSAII (Michael W. Deem and Ramdas Pophale) SiO2 
 PCOD9212632
Probable space group: C 2/M
;
_chemical_formula_sum "Si O2"
_cell_formula_units_Z 64
_cell_length_a 11.965953
_cell_length_b 14.374235
_cell_length_c 27.605396
_cell_angle_alpha 90.000000
_cell_angle_beta 38.670538
_cell_angle_gamma 90.000000
_cell_volume 2966.850898
_symmetry_space_group_name_H-M "C 2/M"
_symmetry_group_IT_number 12
_symmetry_cell_setting 'monoclinic'
loop_
_space_group_symop_operation_xyz
x,y,z
-x,y,-z
-x,-y,-z
x,-y,z
1/2+x,1/2+y,z
1/2-x,1/2+y,-z
1/2-x,1/2-y,-z
1/2+x,1/2-y,z
loop_
_atom_site_type_symbol
_atom_site_label
_atom_site_fract_x
_atom_site_fract_y
_atom_site_fract_z
Si Si1 0.039554 0.267933 0.612883
Si Si2 0.712219 0.395784 0.317923
Si Si3 0.926910 0.335268 0.752295
Si Si4 0.741643 0.344893 0.196642
Si Si5 0.831151 0.387714 0.520680
Si Si6 0.892512 0.247785 0.908847
Si Si7 0.697953 0.395425 0.911038
Si Si8 0.307742 0.099581 0.071494
O O1 0.116912 0.343759 0.549304
O O2 0.181634 0.190684 0.585973
O O3 0.906173 0.195687 0.630708
O O4 0.947363 0.327297 0.687246
O O5 0.645206 0.500000 0.353299
O O6 0.723209 0.390409 0.255337
O O7 0.901429 0.381187 0.280481
O O8 0.916342 0.224308 0.765856
O O9 0.753388 0.383607 0.835911
O O10 0.778508 0.407025 0.138235
O O11 0.912203 0.276959 0.142731
O O12 0.780963 0.500000 0.535646
O O13 0.000000 0.382533 0.500000
O O14 0.827389 0.323833 0.892853
O O15 0.859164 0.149685 0.895586
O O16 0.750000 0.250000 0.000000
O O17 0.742105 0.500000 0.910611
O O18 0.500000 0.377891 0.000000
O O19 0.328897 0.000000 0.039962
O O20 0.500000 0.150293 0.000000
#
# Coordination Sequence:
#
# PCOD9212632 Si02
#       8
#     8   8   8   8   8   8   8   8
#     4  10  23  40  67 102 134 173 218 261 315 385
#     4  11  22  38  62  91 126 167 210 259 315 380
#     4  11  22  39  62  90 130 165 217 273 328 380
#     4  11  21  37  58  80 111 158 204 254 318 389
#     4  10  21  42  70 101 139 177 212 256 314 384
#     4  12  22  37  60  79 114 153 207 265 333 388
#     4  11  23  39  60  86 121 168 221 276 335 395
#     4  11  22  36  54  79 107 141 193 256 316 379
#
# _framework density 21.571694999999998
#
# number of rings (size 3 to 8) (size 9 to 14) (size 15 to 20)
#    0.000    1.125    3.750    3.000    0.000    2.000 
#    0.000    1.250    0.000    8.625    0.000    0.000 
#    0.000    0.000    0.000    0.000    0.000    0.000 
#
# Total GULP energy -178184.395184 kJ/mol
# GULP energy per Si atom -5568.262349 kJ/mol
# Density = 2.152260 g / cm^3
# Si number density = 21.571695 Si / 1000 Ang^3
#
#
#
# Elastic Constant Matrix: (Units=GPa)
#
#
# Indices 1 2 3 4 5 6 
#
# 1 54.8956 35.7768 7.6991 0.0003 -6.3320 -0.0006
# 2 35.7768 104.8669 13.3217 0.0000 -1.4353 -0.0002
# 3 7.6991 13.3217 79.2957 0.0010 11.1537 -0.0030
# 4 0.0003 0.0000 0.0010 -0.4006 -0.0001 52.5951
# 5 -6.3320 -1.4353 11.1537 -0.0001 31.4155 0.0005
# 6 -0.0006 -0.0002 -0.0030 52.5951 0.0005 -174.3460
#
#
#
# Elastic Compliance Matrix: (Units=1/GPa)
#
#
# Indices 1 2 3 4 5 6 
#
# 1 0.024257 -0.007984 -0.001737 0.000000 0.005141 0.000000
# 2 -0.007984 0.012407 -0.001224 0.000000 -0.000608 0.000000
# 3 -0.001737 -0.001224 0.013728 0.000000 -0.005280 0.000000
# 4 0.000000 0.000000 0.000000 0.064659 0.000000 0.019506
# 5 0.005141 -0.000608 -0.005280 0.000000 0.034714 0.000000
# 6 0.000000 0.000000 0.000000 0.019506 0.000000 0.000149
#
#
# Mechanical properties :
#
#
# Convention : Reuss Voigt Hill
#
# Bulk Modulus (GPa) = 35.08571 39.18369 37.13470
# Shear Modulus (GPa) = 27.57798 -16.51553 5.53122
#
# Velocity S-wave (km/s) = 3.57940 -2.76997 1.60302
# Velocity P-wave (km/s) = 5.77778 2.82374 4.54732
#
# Compressibility (1/GPa) = 0.02850163
#
# Stress axis : x y z
#
# Youngs Moduli (GPa) = 41.22576 80.59939 72.84430
#
# Poissons Ratio (x) = 0.64355 0.12652
# Poissons Ratio (y) = 0.32917 0.08913
# Poissons Ratio (z) = 0.07160 0.09862
#
# Static dielectric constant tensor:
#      x y z
#    x 1.792150 0.000000 -0.015990 
#    y 0.000000 1.733710 0.000000 
#    z -0.015990 0.000000 1.887840 
# 
# From -- ./inp_files/374080.got.cif
#   From: 2010.05.17/outbox.cif.g08.bks.cpg/sg12_188_cif.got.tgz:374080.got - 2010.06.03 13:09:07.
