data_PCOD9212932
_publ_section_title
;
Structure prediction by ZEFSAII (Michael W. Deem and Ramdas Pophale) SiO2 
 PCOD9212932
Probable space group: C 2/M
;
_chemical_formula_sum "Si O2"
_cell_formula_units_Z 58
_cell_length_a 17.743966
_cell_length_b 20.470133
_cell_length_c 9.042370
_cell_angle_alpha 90.000000
_cell_angle_beta 61.442951
_cell_angle_gamma 90.000000
_cell_volume 2884.809064
_symmetry_space_group_name_H-M "C 2/M"
_symmetry_group_IT_number 12
_symmetry_cell_setting 'monoclinic'
loop_
_space_group_symop_operation_xyz
x,y,z
-x,y,-z
-x,-y,-z
x,-y,z
1/2+x,1/2+y,z
1/2-x,1/2+y,-z
1/2-x,1/2-y,-z
1/2+x,1/2-y,z
loop_
_atom_site_type_symbol
_atom_site_label
_atom_site_fract_x
_atom_site_fract_y
_atom_site_fract_z
Si Si1 0.379253 0.608302 0.457144
Si Si2 0.254417 0.572350 0.078327
Si Si3 0.000000 0.000000 0.500000
Si Si4 0.748363 0.219569 0.166961
Si Si5 0.906308 0.703111 0.161015
Si Si6 0.417670 0.246930 0.484024
Si Si7 0.202208 0.424840 0.785898
Si Si8 0.909949 0.924425 0.109431
O O1 0.443859 0.555743 0.463560
O O2 0.424039 0.677097 0.440543
O O3 0.287258 0.598472 0.620287
O O4 0.363502 0.602689 0.296140
O O5 0.228013 0.500000 0.164707
O O6 0.231054 0.641589 0.171603
O O7 0.356720 0.574799 0.008859
O O8 0.227627 0.573618 0.934563
O O9 0.836657 0.245157 0.159616
O O10 0.668612 0.243372 0.338412
O O11 0.750000 0.250000 0.000000
O O12 0.910554 0.711257 0.333697
O O13 0.870081 0.630158 0.164569
O O14 0.000000 0.711908 0.000000
O O15 0.500000 0.224421 0.500000
O O16 0.180418 0.500000 0.763083
O O17 0.924815 0.000000 0.136273
O O18 0.000000 0.890268 0.000000
#
# Coordination Sequence:
#
# PCOD9212932 Si02
#       8
#     8   8   2   8   8   8   8   8
#     4  12  23  40  64  97 137 183 222 275 340 422
#     4  10  23  40  66  97 133 176 223 277 347 414
#     4  12  24  36  66 100 142 176 226 270 346 428
#     4  12  23  45  71 100 140 181 226 284 349 413
#     4  12  27  47  72 101 138 186 241 289 341 410
#     4  12  27  43  70 101 139 182 233 283 349 418
#     4  11  24  44  70  98 133 182 235 284 349 408
#     4  10  22  35  56  92 139 178 218 270 334 406
#
# _framework density 20.105315999999998
#
# number of rings (size 3 to 8) (size 9 to 14) (size 15 to 20)
#    0.000    0.690    4.828    2.069    3.862    3.586 
#    0.000    0.000    0.000    0.828    0.000    0.000 
#    0.000    0.000    0.000    0.000    0.000    0.000 
#
# Total GULP energy -161566.413204 kJ/mol
# GULP energy per Si atom -5571.255628 kJ/mol
# Density = 2.005956 g / cm^3
# Si number density = 20.105316 Si / 1000 Ang^3
#
#
#
# Elastic Constant Matrix: (Units=GPa)
#
#
# Indices 1 2 3 4 5 6 
#
# 1 131.1670 40.1140 65.0549 0.0000 12.0704 0.0000
# 2 40.1140 111.1847 13.5717 0.0000 15.9892 0.0000
# 3 65.0549 13.5717 86.4835 0.0000 8.7704 0.0000
# 4 0.0000 0.0000 0.0000 10.9715 0.0000 8.3329
# 5 12.0704 15.9892 8.7704 0.0000 24.9935 0.0000
# 6 0.0000 0.0000 0.0000 8.3329 0.0000 25.1430
#
#
#
# Elastic Compliance Matrix: (Units=1/GPa)
#
#
# Indices 1 2 3 4 5 6 
#
# 1 0.013526 -0.003589 -0.009520 0.000000 -0.000895 0.000000
# 2 -0.003589 0.010933 0.001574 0.000000 -0.005813 0.000000
# 3 -0.009520 0.001574 0.018782 0.000000 -0.002999 0.000000
# 4 0.000000 0.000000 0.000000 0.121807 0.000000 -0.040369
# 5 -0.000895 -0.005813 -0.002999 0.000000 0.045214 0.000000
# 6 0.000000 0.000000 0.000000 -0.040369 0.000000 0.053152
#
#
# Mechanical properties :
#
#
# Convention : Reuss Voigt Hill
#
# Bulk Modulus (GPa) = 49.58230 62.92404 56.25317
# Shear Modulus (GPa) = 17.05282 26.22790 21.64036
#
# Velocity S-wave (km/s) = 2.91550 3.61574 3.28434
# Velocity P-wave (km/s) = 6.00403 6.98546 6.51325
#
# Compressibility (1/GPa) = 0.02016849
#
# Stress axis : x y z
#
# Youngs Moduli (GPa) = 73.93360 91.46796 53.24382
#
# Poissons Ratio (x) = 0.32828 0.50690
# Poissons Ratio (y) = 0.26535 -0.08378
# Poissons Ratio (z) = 0.70387 -0.14393
#
# Static dielectric constant tensor:
#      x y z
#    x 1.717020 0.000000 -0.011790 
#    y 0.000000 1.778670 0.000000 
#    z -0.011790 0.000000 1.637500 
# 
# From -- ./inp_files/78017.got.cif
#   From: 2010.05.17/outbox.cif.g08.bks.cpg/sg12_40_cif.got.tgz:78017.got - 2010.06.03 13:09:07.
