data_PCOD9212316
_publ_section_title
;
Structure prediction by ZEFSAII (Michael W. Deem and Ramdas Pophale) SiO2 
 PCOD9212316
Probable space group: C 2/M
;
_chemical_formula_sum "Si O2"
_cell_formula_units_Z 60
_cell_length_a 8.155752
_cell_length_b 22.484689
_cell_length_c 15.557543
_cell_angle_alpha 90.000000
_cell_angle_beta 74.324507
_cell_angle_gamma 90.000000
_cell_volume 2746.827120
_symmetry_space_group_name_H-M "C 2/M"
_symmetry_group_IT_number 12
_symmetry_cell_setting 'monoclinic'
loop_
_space_group_symop_operation_xyz
x,y,z
-x,y,-z
-x,-y,-z
x,-y,z
1/2+x,1/2+y,z
1/2-x,1/2+y,-z
1/2-x,1/2-y,-z
1/2+x,1/2-y,z
loop_
_atom_site_type_symbol
_atom_site_label
_atom_site_fract_x
_atom_site_fract_y
_atom_site_fract_z
Si Si1 0.793980 0.687890 0.680132
Si Si2 0.009147 0.860003 0.099689
Si Si3 0.120713 0.364279 0.901704
Si Si4 0.788379 0.067264 0.252607
Si Si5 0.964916 0.737560 0.212179
Si Si6 0.304293 0.572540 0.549955
Si Si7 0.500000 0.859984 0.500000
Si Si8 0.601805 0.934058 0.737457
O O1 0.685276 0.626101 0.693478
O O2 0.665507 0.742695 0.694910
O O3 0.887877 0.700589 0.759336
O O4 0.931148 0.680425 0.587068
O O5 0.195431 0.884340 0.093340
O O6 0.871883 0.908379 0.152300
O O7 0.003171 0.798915 0.156126
O O8 0.000000 0.846828 0.000000
O O9 0.119028 0.302877 0.849001
O O10 0.065431 0.408329 0.835225
O O11 0.000000 0.359386 0.000000
O O12 0.582797 0.064719 0.281122
O O13 0.848021 0.000000 0.265530
O O14 0.500000 0.588201 0.500000
O O15 0.292176 0.500000 0.548309
O O16 0.159040 0.599752 0.508911
O O17 0.240700 0.594101 0.653891
O O18 0.666253 0.000000 0.741829
#
# Coordination Sequence:
#
# PCOD9212316 Si02
#       8
#     8   8   8   8   8   8   4   8
#     4  11  24  43  69  99 132 179 227 278 345 415
#     4  11  25  40  64  99 129 173 229 281 334 401
#     4  12  24  39  68  94 131 176 223 287 340 405
#     4  10  21  41  67  93 134 177 215 271 334 401
#     4  11  23  44  65  93 130 173 229 278 337 406
#     4  10  22  41  69 105 143 185 238 288 336 414
#     4  12  23  42  68 100 140 180 229 286 360 412
#     4  10  21  42  66  95 139 181 220 275 341 405
#
# _framework density 21.843384
#
# number of rings (size 3 to 8) (size 9 to 14) (size 15 to 20)
#    0.000    1.200    4.000    1.400    1.867    5.333 
#    2.400    1.333    0.000    0.000    0.000    0.000 
#    0.000    0.000    0.000    0.000    0.000    0.000 
#
# Total GULP energy -167193.565319 kJ/mol
# GULP energy per Si atom -5573.118844 kJ/mol
# Density = 2.179367 g / cm^3
# Si number density = 21.843384 Si / 1000 Ang^3
#
#
#
# Elastic Constant Matrix: (Units=GPa)
#
#
# Indices 1 2 3 4 5 6 
#
# 1 79.3371 23.7894 12.9998 0.0000 -15.3841 0.0000
# 2 23.7894 70.5333 49.5558 0.0000 -15.7161 0.0000
# 3 12.9998 49.5558 106.5954 0.0000 -20.7889 0.0000
# 4 0.0000 0.0000 0.0000 -25.7293 0.0000 -3.5275
# 5 -15.3841 -15.7161 -20.7889 0.0000 31.9495 0.0000
# 6 0.0000 0.0000 0.0000 -3.5275 0.0000 12.8374
#
#
#
# Elastic Compliance Matrix: (Units=1/GPa)
#
#
# Indices 1 2 3 4 5 6 
#
# 1 0.014928 -0.004835 0.001564 0.000000 0.005827 0.000000
# 2 -0.004835 0.023219 -0.009657 0.000000 0.002810 0.000000
# 3 0.001564 -0.009657 0.014775 0.000000 0.005617 0.000000
# 4 0.000000 0.000000 0.000000 -0.037455 0.000000 -0.010292
# 5 0.005827 0.002810 0.005617 0.000000 0.039142 0.000000
# 6 0.000000 0.000000 0.000000 -0.010292 0.000000 0.075069
#
#
# Mechanical properties :
#
#
# Convention : Reuss Voigt Hill
#
# Bulk Modulus (GPa) = 36.94657 47.68397 42.31527
# Shear Modulus (GPa) = 30.38444 15.15292 22.76868
#
# Velocity S-wave (km/s) = 3.73368 2.63669 3.23206
# Velocity P-wave (km/s) = 5.96139 5.58094 5.77430
#
# Compressibility (1/GPa) = 0.02706611
#
# Stress axis : x y z
#
# Youngs Moduli (GPa) = 66.98834 43.06735 67.67987
#
# Poissons Ratio (x) = 0.20824 -0.10584
# Poissons Ratio (y) = 0.32390 0.65358
# Poissons Ratio (z) = -0.10475 0.41590
#
# Static dielectric constant tensor:
#      x y z
#    x 1.853090 0.000000 0.019120 
#    y 0.000000 1.871840 0.000000 
#    z 0.019120 0.000000 1.904620 
# 
# From -- ./inp_files/198856.got.cif
#   From: 2010.05.17/outbox.cif.g08.bks.cpg/sg12_100_cif.got.tgz:198856.got - 2010.06.03 13:09:07.
