data_PCOD9212285
_publ_section_title
;
Structure prediction by ZEFSAII (Michael W. Deem and Ramdas Pophale) SiO2 
 PCOD9212285
Probable space group: C 2/M
;
_chemical_formula_sum "Si O2"
_cell_formula_units_Z 36
_cell_length_a 5.745025
_cell_length_b 18.369682
_cell_length_c 14.365787
_cell_angle_alpha 90.000000
_cell_angle_beta 100.861651
_cell_angle_gamma 90.000000
_cell_volume 1488.922481
_symmetry_space_group_name_H-M "C 2/M"
_symmetry_group_IT_number 12
_symmetry_cell_setting 'monoclinic'
loop_
_space_group_symop_operation_xyz
x,y,z
-x,y,-z
-x,-y,-z
x,-y,z
1/2+x,1/2+y,z
1/2-x,1/2+y,-z
1/2-x,1/2-y,-z
1/2+x,1/2-y,z
loop_
_atom_site_type_symbol
_atom_site_label
_atom_site_fract_x
_atom_site_fract_y
_atom_site_fract_z
Si Si1 0.000000 0.693102 0.000000
Si Si2 0.731953 0.664167 0.463749
Si Si3 0.133420 0.923083 0.911619
Si Si4 0.230802 0.586062 0.726715
Si Si5 0.482033 0.217011 0.202428
O O1 0.183457 0.639298 0.062110
O O2 0.907043 0.729116 0.087855
O O3 0.500000 0.636294 0.500000
O O4 0.750000 0.750000 0.500000
O O5 0.694206 0.633395 0.357025
O O6 0.000000 0.636173 0.500000
O O7 0.942819 0.911572 0.817361
O O8 0.257361 0.000000 0.903987
O O9 0.000000 0.925889 0.000000
O O10 0.178676 0.500000 0.704658
O O11 0.025995 0.633911 0.761113
O O12 0.750672 0.246297 0.235538
#
# Coordination Sequence:
#
# PCOD9212285 Si02
#       5
#     4   8   8   8   8
#     4  12  23  42  68 108 155 220 274 316 368 456
#     4  10  25  49  81 113 153 197 256 326 410 476
#     4  10  21  41  67 107 160 210 255 317 387 454
#     4  11  26  49  80 117 156 206 271 326 389 472
#     4  12  28  45  73 105 158 207 261 318 382 454
#
# _framework density 24.178557000000001
#
# number of rings (size 3 to 8) (size 9 to 14) (size 15 to 20)
#    0.000    1.111    2.222    2.333    6.222    3.556 
#    0.000    5.556    0.000    0.000    0.000    0.000 
#    0.000    0.000    0.000    0.000    0.000    0.000 
#
# Total GULP energy -100399.202292 kJ/mol
# GULP energy per Si atom -5577.733461 kJ/mol
# Density = 2.412353 g / cm^3
# Si number density = 24.178557 Si / 1000 Ang^3
#
#
#
# Elastic Constant Matrix: (Units=GPa)
#
#
# Indices 1 2 3 4 5 6 
#
# 1 138.9118 64.7358 43.4356 0.0000 -21.3504 0.0000
# 2 64.7358 162.4436 59.6806 0.0000 -9.7359 0.0000
# 3 43.4356 59.6806 152.6327 0.0000 -16.3087 0.0000
# 4 0.0000 0.0000 0.0000 52.2228 0.0000 -3.2097
# 5 -21.3504 -9.7359 -16.3087 0.0000 34.4308 0.0000
# 6 0.0000 0.0000 0.0000 -3.2097 0.0000 19.9057
#
#
#
# Elastic Compliance Matrix: (Units=1/GPa)
#
#
# Indices 1 2 3 4 5 6 
#
# 1 0.009734 -0.003229 -0.001011 0.000000 0.004644 0.000000
# 2 -0.003229 0.008278 -0.002403 0.000000 -0.000800 0.000000
# 3 -0.001011 -0.002403 0.008047 0.000000 0.002505 0.000000
# 4 0.000000 0.000000 0.000000 0.019340 0.000000 0.003119
# 5 0.004644 -0.000800 0.002505 0.000000 0.032884 0.000000
# 6 0.000000 0.000000 0.000000 0.003119 0.000000 0.050740
#
#
# Mechanical properties :
#
#
# Convention : Reuss Voigt Hill
#
# Bulk Modulus (GPa) = 78.30188 87.74356 83.02272
# Shear Modulus (GPa) = 34.11435 40.38759 37.25097
#
# Velocity S-wave (km/s) = 3.76032 4.09147 3.92938
# Velocity P-wave (km/s) = 7.16299 7.66086 7.41611
#
# Compressibility (1/GPa) = 0.01277109
#
# Stress axis : x y z
#
# Youngs Moduli (GPa) = 102.73749 120.80478 124.27363
#
# Poissons Ratio (x) = 0.39010 0.12566
# Poissons Ratio (y) = 0.33175 0.29866
# Poissons Ratio (z) = 0.10388 0.29032
#
# Static dielectric constant tensor:
#      x y z
#    x 1.744710 0.000000 0.416340 
#    y 0.000000 2.061000 0.000000 
#    z 0.416340 0.000000 1.432250 
# 
# From -- ./inp_files/191214.got.cif
#   From: 2010.05.17/outbox.cif.g08.bks.cpg/sg12_96_cif.got.tgz:191214.got - 2010.06.03 13:09:07.
