data_PCOD9212135
_publ_section_title
;
Structure prediction by ZEFSAII (Michael W. Deem and Ramdas Pophale) SiO2 
 PCOD9212135
Probable space group: C 2/M
;
_chemical_formula_sum "Si O2"
_cell_formula_units_Z 56
_cell_length_a 22.111238
_cell_length_b 9.070631
_cell_length_c 14.773970
_cell_angle_alpha 90.000000
_cell_angle_beta 68.768107
_cell_angle_gamma 90.000000
_cell_volume 2761.981080
_symmetry_space_group_name_H-M "C 2/M"
_symmetry_group_IT_number 12
_symmetry_cell_setting 'monoclinic'
loop_
_space_group_symop_operation_xyz
x,y,z
-x,y,-z
-x,-y,-z
x,-y,z
1/2+x,1/2+y,z
1/2-x,1/2+y,-z
1/2-x,1/2-y,-z
1/2+x,1/2-y,z
loop_
_atom_site_type_symbol
_atom_site_label
_atom_site_fract_x
_atom_site_fract_y
_atom_site_fract_z
Si Si1 0.043219 0.322855 0.563999
Si Si2 0.773858 0.825625 0.746342
Si Si3 0.435642 0.167852 0.942894
Si Si4 0.301424 0.168132 0.908902
Si Si5 0.196946 0.322299 0.460955
Si Si6 0.030418 0.173393 0.757204
Si Si7 0.121805 0.673072 0.832483
O O1 0.038798 0.500000 0.572559
O O2 0.120399 0.285768 0.518628
O O3 0.016107 0.251614 0.670178
O O4 0.000000 0.277901 0.500000
O O5 0.810947 0.755633 0.810756
O O6 0.788114 0.739777 0.646725
O O7 0.697571 0.806835 0.810303
O O8 0.786825 0.000000 0.729452
O O9 0.367345 0.163155 0.928999
O O10 0.480210 0.275153 0.861226
O O11 0.462125 0.000000 0.926713
O O12 0.419536 0.208437 0.055067
O O13 0.280290 0.000000 0.901374
O O14 0.250000 0.250000 0.000000
O O15 0.203079 0.500000 0.462282
O O16 0.250000 0.250000 0.500000
O O17 0.098481 0.231894 0.760582
O O18 0.030749 0.000000 0.745731
O O19 0.112746 0.500000 0.816326
#
# Coordination Sequence:
#
# PCOD9212135 Si02
#       7
#     8   8   8   8   8   8   8
#     4  10  24  47  70  90 121 169 220 263 315 391
#     4  11  23  40  64  95 129 166 208 257 315 378
#     4  10  22  41  63  87 123 171 214 247 299 379
#     4  11  22  39  62  91 126 166 210 257 309 372
#     4  11  24  43  68  99 128 166 216 270 327 386
#     4  12  26  40  61  95 127 158 204 265 321 364
#     4  10  21  41  64  89 124 171 212 245 299 378
#
# _framework density 20.275302
#
# number of rings (size 3 to 8) (size 9 to 14) (size 15 to 20)
#    0.000    1.286    1.429    3.857    2.000    9.429 
#    0.000    0.000    0.000    0.000    0.000    0.000 
#    0.000    0.000    0.000    0.000    0.000    0.000 
#
# Total GULP energy -156529.047739 kJ/mol
# GULP energy per Si atom -5590.323134 kJ/mol
# Density = 2.022915 g / cm^3
# Si number density = 20.275302 Si / 1000 Ang^3
#
#
#
# Elastic Constant Matrix: (Units=GPa)
#
#
# Indices 1 2 3 4 5 6 
#
# 1 98.7278 39.3317 29.5232 0.0000 19.5966 0.0000
# 2 39.3317 62.0289 39.7129 0.0000 6.9648 0.0000
# 3 29.5232 39.7129 103.6748 0.0000 22.5870 0.0000
# 4 0.0000 0.0000 0.0000 33.4485 0.0000 1.2227
# 5 19.5966 6.9648 22.5870 0.0000 41.5399 0.0000
# 6 0.0000 0.0000 0.0000 1.2227 0.0000 24.7989
#
#
#
# Elastic Compliance Matrix: (Units=1/GPa)
#
#
# Indices 1 2 3 4 5 6 
#
# 1 0.014695 -0.009001 0.000505 0.000000 -0.005697 0.000000
# 2 -0.009001 0.026909 -0.008719 0.000000 0.004476 0.000000
# 3 0.000505 -0.008719 0.014265 0.000000 -0.006533 0.000000
# 4 0.000000 0.000000 0.000000 0.029951 0.000000 -0.001477
# 5 -0.005697 0.004476 -0.006533 0.000000 0.029563 0.000000
# 6 0.000000 0.000000 0.000000 -0.001477 0.000000 0.040397
#
#
# Mechanical properties :
#
#
# Convention : Reuss Voigt Hill
#
# Bulk Modulus (GPa) = 46.64848 53.50743 50.07795
# Shear Modulus (GPa) = 25.33484 30.34837 27.84161
#
# Velocity S-wave (km/s) = 3.53872 3.87307 3.70966
# Velocity P-wave (km/s) = 6.30509 6.81532 6.56517
#
# Compressibility (1/GPa) = 0.02143693
#
# Stress axis : x y z
#
# Youngs Moduli (GPa) = 68.05146 37.16254 70.10129
#
# Poissons Ratio (x) = 0.33450 -0.03537
# Poissons Ratio (y) = 0.61253 0.61124
# Poissons Ratio (z) = -0.03434 0.32403
#
# Static dielectric constant tensor:
#      x y z
#    x 1.743470 0.000000 -0.019870 
#    y 0.000000 1.682710 0.000000 
#    z -0.019870 0.000000 1.697670 
# 
# From -- ./inp_files/238237.got.cif
#   From: 2010.05.17/outbox.cif.g08.bks.cpg/sg12_120_cif.got.tgz:238237.got - 2010.06.03 13:09:07.
