data_PCOD9212642
_publ_section_title
;
Structure prediction by ZEFSAII (Michael W. Deem and Ramdas Pophale) SiO2 
 PCOD9212642
Probable space group: C 2/M
;
_chemical_formula_sum "Si O2"
_cell_formula_units_Z 56
_cell_length_a 8.283365
_cell_length_b 27.608535
_cell_length_c 13.288250
_cell_angle_alpha 90.000000
_cell_angle_beta 117.100047
_cell_angle_gamma 90.000000
_cell_volume 2705.276160
_symmetry_space_group_name_H-M "C 2/M"
_symmetry_group_IT_number 12
_symmetry_cell_setting 'monoclinic'
loop_
_space_group_symop_operation_xyz
x,y,z
-x,y,-z
-x,-y,-z
x,-y,z
1/2+x,1/2+y,z
1/2-x,1/2+y,-z
1/2-x,1/2-y,-z
1/2+x,1/2-y,z
loop_
_atom_site_type_symbol
_atom_site_label
_atom_site_fract_x
_atom_site_fract_y
_atom_site_fract_z
Si Si1 0.349907 0.907278 0.526341
Si Si2 0.605143 0.716572 0.633787
Si Si3 0.168366 0.138294 0.105347
Si Si4 0.750374 0.446318 0.704689
Si Si5 0.110882 0.555659 0.930508
Si Si6 0.466014 0.628720 0.708902
Si Si7 0.004174 0.683411 0.693665
O O1 0.500000 0.933198 0.500000
O O2 0.255513 0.937794 0.587048
O O3 0.196157 0.886209 0.410879
O O4 0.453825 0.863330 0.612527
O O5 0.500000 0.704760 0.500000
O O6 0.519016 0.683735 0.696871
O O7 0.813706 0.701840 0.682910
O O8 0.582233 0.773094 0.648935
O O9 0.234376 0.092892 0.057033
O O10 0.095953 0.122926 0.194500
O O11 0.346977 0.169673 0.180664
O O12 0.000000 0.162703 0.000000
O O13 0.681852 0.500000 0.710482
O O14 0.633475 0.405628 0.726592
O O15 0.957878 0.443191 0.800528
O O16 0.174840 0.500000 0.960811
O O17 0.000000 0.568920 0.000000
#
# Coordination Sequence:
#
# PCOD9212642 Si02
#       7
#     8   8   8   8   8   8   8
#     4  12  22  40  64  93 138 169 220 279 336 399
#     4  12  23  40  71 102 136 172 224 287 340 392
#     4  12  26  44  67  95 137 179 224 278 342 399
#     4  11  23  41  64  98 139 178 218 271 345 414
#     4  10  21  42  70  97 128 174 233 287 330 389
#     4  12  23  41  65  99 133 178 224 276 334 407
#     4  12  24  42  64 103 131 170 226 279 341 395
#
# _framework density 20.700289999999999
#
# number of rings (size 3 to 8) (size 9 to 14) (size 15 to 20)
#    0.000    0.429    5.714    3.000    0.000    2.286 
#    0.000    2.857    0.000    0.857    0.000    0.000 
#    0.000    0.000    0.000    0.000    0.000    0.000 
#
# Total GULP energy -156607.130940 kJ/mol
# GULP energy per Si atom -5593.111819 kJ/mol
# Density = 2.065317 g / cm^3
# Si number density = 20.700290 Si / 1000 Ang^3
#
#
#
# Elastic Constant Matrix: (Units=GPa)
#
#
# Indices 1 2 3 4 5 6 
#
# 1 97.0157 18.0630 27.0422 0.0000 3.2728 0.0000
# 2 18.0630 72.8710 8.9393 0.0000 -2.8681 0.0000
# 3 27.0422 8.9393 99.3760 0.0000 11.5294 0.0000
# 4 0.0000 0.0000 0.0000 16.8314 0.0000 -13.2667
# 5 3.2728 -2.8681 11.5294 0.0000 49.3654 0.0000
# 6 0.0000 0.0000 0.0000 -13.2667 0.0000 14.8802
#
#
#
# Elastic Compliance Matrix: (Units=1/GPa)
#
#
# Indices 1 2 3 4 5 6 
#
# 1 0.011595 -0.002528 -0.002900 0.000000 -0.000238 0.000000
# 2 -0.002528 0.014488 -0.000753 0.000000 0.001185 0.000000
# 3 -0.002900 -0.000753 0.011206 0.000000 -0.002469 0.000000
# 4 0.000000 0.000000 0.000000 0.199873 0.000000 0.178200
# 5 -0.000238 0.001185 -0.002469 0.000000 0.020918 0.000000
# 6 0.000000 0.000000 0.000000 0.178200 0.000000 0.226080
#
#
# Mechanical properties :
#
#
# Convention : Reuss Voigt Hill
#
# Bulk Modulus (GPa) = 40.11602 41.92798 41.02200
# Shear Modulus (GPa) = 9.90431 30.56327 20.23379
#
# Velocity S-wave (km/s) = 2.18975 3.84665 3.12983
# Velocity P-wave (km/s) = 5.08083 6.32674 5.73771
#
# Compressibility (1/GPa) = 0.02492770
#
# Stress axis : x y z
#
# Youngs Moduli (GPa) = 86.24671 69.02049 89.23697
#
# Poissons Ratio (x) = 0.17446 0.25880
# Poissons Ratio (y) = 0.21800 0.06719
# Poissons Ratio (z) = 0.25013 0.05197
#
# Static dielectric constant tensor:
#      x y z
#    x 1.755350 0.000000 -0.000840 
#    y 0.000000 1.729230 0.000000 
#    z -0.000840 0.000000 1.739210 
# 
# From -- ./inp_files/124342.got.cif
#   From: 2010.05.17/outbox.cif.g08.bks.cpg/sg12_63_cif.got.tgz:124342.got - 2010.06.03 13:09:07.
