data_PCOD9212657
_publ_section_title
;
Structure prediction by ZEFSAII (Michael W. Deem and Ramdas Pophale) SiO2 
 PCOD9212657
Probable space group: C 2/M
;
_chemical_formula_sum "Si O2"
_cell_formula_units_Z 28
_cell_length_a 17.445177
_cell_length_b 7.623005
_cell_length_c 13.748418
_cell_angle_alpha 90.000000
_cell_angle_beta 144.591938
_cell_angle_gamma 90.000000
_cell_volume 1059.326171
_symmetry_space_group_name_H-M "C 2/M"
_symmetry_group_IT_number 12
_symmetry_cell_setting 'monoclinic'
loop_
_space_group_symop_operation_xyz
x,y,z
-x,y,-z
-x,-y,-z
x,-y,z
1/2+x,1/2+y,z
1/2-x,1/2+y,-z
1/2-x,1/2-y,-z
1/2+x,1/2-y,z
loop_
_atom_site_type_symbol
_atom_site_label
_atom_site_fract_x
_atom_site_fract_y
_atom_site_fract_z
Si Si1 0.000211 0.203281 0.384781
Si Si2 0.327282 0.000000 0.539240
Si Si3 0.500879 0.000000 0.885162
Si Si4 0.351382 0.500000 0.806912
Si Si5 0.704584 0.698828 0.077230
O O1 0.096418 0.332733 0.427016
O O2 0.000000 0.245573 0.500000
O O3 0.847471 0.233455 0.194267
O O4 0.034695 0.000000 0.409097
O O5 0.182655 0.000000 0.340889
O O6 0.359574 0.000000 0.686317
O O7 0.585684 0.168246 0.939654
O O8 0.500000 0.000000 0.000000
O O9 0.500000 0.500000 0.000000
O O10 0.290248 0.666830 0.799632
O O11 0.683144 0.500000 0.018890
#
# Coordination Sequence:
#
# PCOD9212657 Si02
#       5
#     8   4   4   4   8
#     4  11  20  39  74 113 143 180 236 300 374 441
#     4  12  24  44  73 107 149 191 241 299 367 429
#     4  12  28  46  65 104 150 203 250 292 345 431
#     4  10  21  43  74  96 139 196 243 290 364 425
#     4  10  21  42  71  95 145 186 232 296 370 413
#
# _framework density 26.431895999999998
#
# number of rings (size 3 to 8) (size 9 to 14) (size 15 to 20)
#    0.857    0.286    5.714    1.286    0.000    2.286 
#    0.000    5.714    0.000    0.000    0.000    0.000 
#    0.000    0.000    0.000    0.000    0.000    0.000 
#
# Total GULP energy -78426.498960 kJ/mol
# GULP energy per Si atom -5601.892783 kJ/mol
# Density = 2.637174 g / cm^3
# Si number density = 26.431896 Si / 1000 Ang^3
#
#
#
# Elastic Constant Matrix: (Units=GPa)
#
#
# Indices 1 2 3 4 5 6 
#
# 1 78.0840 19.3437 59.5287 0.0000 -2.7796 0.0000
# 2 19.3437 139.0055 38.4970 0.0000 0.4947 0.0000
# 3 59.5287 38.4970 206.9976 0.0000 -5.1629 0.0000
# 4 0.0000 0.0000 0.0000 38.6896 0.0000 -51.4337
# 5 -2.7796 0.4947 -5.1629 0.0000 56.3342 0.0000
# 6 0.0000 0.0000 0.0000 -51.4337 0.0000 211.2516
#
#
#
# Elastic Compliance Matrix: (Units=1/GPa)
#
#
# Indices 1 2 3 4 5 6 
#
# 1 0.016553 -0.001043 -0.004556 0.000000 0.000408 0.000000
# 2 -0.001043 0.007653 -0.001129 0.000000 -0.000222 0.000000
# 3 -0.004556 -0.001129 0.006360 0.000000 0.000368 0.000000
# 4 0.000000 0.000000 0.000000 0.038216 0.000000 0.009305
# 5 0.000408 -0.000222 0.000368 0.000000 0.017807 0.000000
# 6 0.000000 0.000000 0.000000 0.009305 0.000000 0.006999
#
#
# Mechanical properties :
#
#
# Convention : Reuss Voigt Hill
#
# Bulk Modulus (GPa) = 58.44583 73.20289 65.82436
# Shear Modulus (GPa) = 44.34680 81.70293 63.02486
#
# Velocity S-wave (km/s) = 4.10051 5.56577 4.88835
# Velocity P-wave (km/s) = 6.67673 8.31016 7.53782
#
# Compressibility (1/GPa) = 0.01710986
#
# Stress axis : x y z
#
# Youngs Moduli (GPa) = 60.41139 130.67597 157.22387
#
# Poissons Ratio (x) = 0.13631 0.71634
# Poissons Ratio (y) = 0.06302 0.17747
# Poissons Ratio (z) = 0.27525 0.14750
#
# Static dielectric constant tensor:
#      x y z
#    x 2.124350 0.000000 -0.055250 
#    y 0.000000 1.996160 0.000000 
#    z -0.055250 0.000000 2.147320 
# 
# From -- ./inp_files/162949.got.cif
#   From: 2010.05.17/outbox.cif.g08.bks.cpg/sg12_82_cif.got.tgz:162949.got - 2010.06.03 13:09:07.
