data_PCOD9212367
_publ_section_title
;
Structure prediction by ZEFSAII (Michael W. Deem and Ramdas Pophale) SiO2 
 PCOD9212367
Probable space group: C 2/M
;
_chemical_formula_sum "Si O2"
_cell_formula_units_Z 52
_cell_length_a 21.271041
_cell_length_b 9.395232
_cell_length_c 15.923287
_cell_angle_alpha 90.000000
_cell_angle_beta 47.358699
_cell_angle_gamma 90.000000
_cell_volume 2340.863000
_symmetry_space_group_name_H-M "C 2/M"
_symmetry_group_IT_number 12
_symmetry_cell_setting 'monoclinic'
loop_
_space_group_symop_operation_xyz
x,y,z
-x,y,-z
-x,-y,-z
x,-y,z
1/2+x,1/2+y,z
1/2-x,1/2+y,-z
1/2-x,1/2-y,-z
1/2+x,1/2-y,z
loop_
_atom_site_type_symbol
_atom_site_label
_atom_site_fract_x
_atom_site_fract_y
_atom_site_fract_z
Si Si1 0.879165 0.235115 0.360743
Si Si2 0.260926 0.666655 0.757163
Si Si3 0.236282 0.500000 0.535071
Si Si4 0.429336 0.332574 0.495044
Si Si5 0.903248 0.165341 0.077662
Si Si6 0.057302 0.840222 0.148996
Si Si7 0.811587 0.330144 0.878637
O O1 0.832718 0.376970 0.376282
O O2 0.923564 0.250177 0.413181
O O3 0.956031 0.182619 0.232099
O O4 0.805731 0.120274 0.441339
O O5 0.249416 0.500000 0.789760
O O6 0.334275 0.672437 0.620421
O O7 0.295964 0.759149 0.802854
O O8 0.170954 0.739121 0.816504
O O9 0.500000 0.286713 0.500000
O O10 0.447794 0.500000 0.459738
O O11 0.895287 0.165358 0.983337
O O12 0.897335 0.000000 0.110539
O O13 0.000000 0.217325 0.000000
O O14 0.095917 0.718558 0.172369
O O15 0.071663 0.000000 0.171212
O O16 0.800283 0.500000 0.888275
O O17 0.750000 0.250000 0.000000
#
# Coordination Sequence:
#
# PCOD9212367 Si02
#       7
#     8   8   4   8   8   8   8
#     4  11  22  45  65 100 129 171 221 277 324 390
#     4  11  23  41  65  97 128 171 213 262 332 388
#     4  10  24  40  68  92 134 170 226 264 326 384
#     4  10  21  41  68  95 129 170 216 268 331 396
#     4  10  23  42  61  92 130 173 218 261 322 387
#     4  11  22  40  68  95 128 171 214 264 324 385
#     4  12  24  40  66  94 131 166 210 266 318 386
#
# _framework density 22.214029
#
# number of rings (size 3 to 8) (size 9 to 14) (size 15 to 20)
#    0.000    1.231    3.077    2.769    1.077    4.000 
#    5.538    0.385    0.000    0.000    0.000    0.000 
#    0.000    0.000    0.000    0.000    0.000    0.000 
#
# Total GULP energy -144848.214156 kJ/mol
# GULP energy per Si atom -5571.085160 kJ/mol
# Density = 2.216347 g / cm^3
# Si number density = 22.214029 Si / 1000 Ang^3
#
#
#
# Elastic Constant Matrix: (Units=GPa)
#
#
# Indices 1 2 3 4 5 6 
#
# 1 53.8306 31.7968 17.2924 0.0000 -17.4024 0.0000
# 2 31.7968 139.1393 34.7952 0.0001 -13.4056 0.0000
# 3 17.2924 34.7952 97.3773 0.0000 -17.6441 0.0000
# 4 0.0000 0.0001 0.0000 14.9243 0.0000 -28.9278
# 5 -17.4024 -13.4056 -17.6441 0.0000 37.1449 0.0000
# 6 0.0000 0.0000 0.0000 -28.9278 0.0000 4.3868
#
#
#
# Elastic Compliance Matrix: (Units=1/GPa)
#
#
# Indices 1 2 3 4 5 6 
#
# 1 0.024587 -0.004444 -0.001074 0.000000 0.009405 0.000000
# 2 -0.004444 0.008789 -0.002357 0.000000 -0.000030 0.000000
# 3 -0.001074 -0.002357 0.012098 0.000000 0.004393 0.000000
# 4 0.000000 0.000000 0.000000 -0.005687 0.000000 -0.037503
# 5 0.009405 -0.000030 0.004393 0.000000 0.033404 0.000000
# 6 0.000000 0.000000 0.000000 -0.037503 0.000000 -0.019348
#
#
# Mechanical properties :
#
#
# Convention : Reuss Voigt Hill
#
# Bulk Modulus (GPa) = 33.64194 50.90178 42.27186
# Shear Modulus (GPa) = 62.89219 25.05540 43.97379
#
# Velocity S-wave (km/s) = 5.32667 3.36208 4.45404
# Velocity P-wave (km/s) = 7.28069 6.16729 6.74700
#
# Compressibility (1/GPa) = 0.02972480
#
# Stress axis : x y z
#
# Youngs Moduli (GPa) = 40.67127 113.77683 82.65720
#
# Poissons Ratio (x) = 0.50563 0.08879
# Poissons Ratio (y) = 0.18075 0.19480
# Poissons Ratio (z) = 0.04369 0.26814
#
# Static dielectric constant tensor:
#      x y z
#    x 1.926070 0.000000 0.013130 
#    y 0.000000 1.744430 0.000000 
#    z 0.013130 0.000000 1.819860 
# 
# From -- ./inp_files/282077.got.cif
#   From: 2010.05.17/outbox.cif.g08.bks.cpg/sg12_142_cif.got.tgz:282077.got - 2010.06.03 13:09:07.
