data_PCOD9212476
_publ_section_title
;
Structure prediction by ZEFSAII (Michael W. Deem and Ramdas Pophale) SiO2 
 PCOD9212476
Probable space group: C 2/M
;
_chemical_formula_sum "Si O2"
_cell_formula_units_Z 50
_cell_length_a 19.102852
_cell_length_b 14.554552
_cell_length_c 8.961795
_cell_angle_alpha 90.000000
_cell_angle_beta 66.789946
_cell_angle_gamma 90.000000
_cell_volume 2290.017768
_symmetry_space_group_name_H-M "C 2/M"
_symmetry_group_IT_number 12
_symmetry_cell_setting 'monoclinic'
loop_
_space_group_symop_operation_xyz
x,y,z
-x,y,-z
-x,-y,-z
x,-y,z
1/2+x,1/2+y,z
1/2-x,1/2+y,-z
1/2-x,1/2-y,-z
1/2+x,1/2-y,z
loop_
_atom_site_type_symbol
_atom_site_label
_atom_site_fract_x
_atom_site_fract_y
_atom_site_fract_z
Si Si1 0.769689 0.602917 0.783106
Si Si2 0.381216 0.606095 0.261822
Si Si3 0.921379 0.349870 0.503075
Si Si4 0.000000 0.000000 0.500000
Si Si5 0.283308 0.111193 0.105229
Si Si6 0.926900 0.696865 0.153903
Si Si7 0.118243 0.143414 0.388103
O O1 0.746010 0.500000 0.842999
O O2 0.700707 0.634702 0.737883
O O3 0.846043 0.601127 0.623569
O O4 0.783442 0.645666 0.933320
O O5 0.401579 0.500000 0.204344
O O6 0.431614 0.692137 0.168619
O O7 0.375998 0.607599 0.445681
O O8 0.925363 0.342811 0.322217
O O9 0.908929 0.247598 0.580482
O O10 0.000000 0.388006 0.500000
O O11 0.052735 0.079995 0.375282
O O12 0.350504 0.162713 0.136199
O O13 0.200228 0.132235 0.243708
O O14 0.296125 0.000000 0.103480
O O15 0.000000 0.664913 0.000000
#
# Coordination Sequence:
#
# PCOD9212476 Si02
#       7
#     8   8   8   2   8   8   8
#     4  10  23  41  63  91 122 163 213 255 313 370
#     4  10  21  42  62  90 125 164 203 254 309 371
#     4  11  23  39  61  90 125 164 206 260 312 364
#     4  12  20  40  64 102 124 164 204 254 292 388
#     4  11  23  42  65  91 124 166 209 260 308 370
#     4  11  25  41  62  94 125 165 212 255 310 369
#     4  11  22  39  66  93 126 166 208 247 308 373
#
# _framework density 21.833891999999999
#
# number of rings (size 3 to 8) (size 9 to 14) (size 15 to 20)
#    0.000    1.280    2.400    2.880    0.000    9.280 
#    0.000    0.000    0.000    0.000    0.000    0.000 
#    0.000    0.000    0.000    0.000    0.000    0.000 
#
# Total GULP energy -139383.319282 kJ/mol
# GULP energy per Si atom -5575.332771 kJ/mol
# Density = 2.178420 g / cm^3
# Si number density = 21.833892 Si / 1000 Ang^3
#
#
#
# Elastic Constant Matrix: (Units=GPa)
#
#
# Indices 1 2 3 4 5 6 
#
# 1 72.4848 -7.7245 43.8618 0.0000 -0.3604 0.0000
# 2 -7.7245 77.7329 10.8780 0.0000 3.4211 0.0000
# 3 43.8618 10.8780 127.2998 0.0000 -13.3685 0.0000
# 4 0.0000 0.0000 0.0000 15.4419 0.0000 2.7278
# 5 -0.3604 3.4211 -13.3685 0.0000 35.9823 0.0000
# 6 0.0000 0.0000 0.0000 2.7278 0.0000 11.5592
#
#
#
# Elastic Compliance Matrix: (Units=1/GPa)
#
#
# Indices 1 2 3 4 5 6 
#
# 1 0.018198 0.002874 -0.006790 0.000000 -0.002614 0.000000
# 2 0.002874 0.013577 -0.002376 0.000000 -0.002145 0.000000
# 3 -0.006790 -0.002376 0.010838 0.000000 0.004184 0.000000
# 4 0.000000 0.000000 0.000000 0.067576 0.000000 -0.015947
# 5 -0.002614 -0.002145 0.004184 0.000000 0.029524 0.000000
# 6 0.000000 0.000000 0.000000 -0.015947 0.000000 0.090275
#
#
# Mechanical properties :
#
#
# Convention : Reuss Voigt Hill
#
# Bulk Modulus (GPa) = 33.30196 41.28313 37.29254
# Shear Modulus (GPa) = 19.79564 27.96348 23.87956
#
# Velocity S-wave (km/s) = 3.01433 3.58262 3.31069
# Velocity P-wave (km/s) = 5.23454 6.00520 5.63306
#
# Compressibility (1/GPa) = 0.03002826
#
# Stress axis : x y z
#
# Youngs Moduli (GPa) = 54.95060 73.65428 92.27204
#
# Poissons Ratio (x) = -0.21166 0.62656
# Poissons Ratio (y) = -0.15791 0.21920
# Poissons Ratio (z) = 0.37313 0.17497
#
# Static dielectric constant tensor:
#      x y z
#    x 1.840970 0.000000 0.036160 
#    y 0.000000 1.853000 0.000000 
#    z 0.036160 0.000000 1.742620 
# 
# From -- ./inp_files/75773.got.cif
#   From: 2010.05.17/outbox.cif.g08.bks.cpg/sg12_38_cif.got.tgz:75773.got - 2010.06.03 13:09:07.
