data_PCOD9212506
_publ_section_title
;
Structure prediction by ZEFSAII (Michael W. Deem and Ramdas Pophale) SiO2 
 PCOD9212506
Probable space group: C 2/M
;
_chemical_formula_sum "Si O2"
_cell_formula_units_Z 36
_cell_length_a 17.099814
_cell_length_b 18.100697
_cell_length_c 5.576694
_cell_angle_alpha 90.000000
_cell_angle_beta 114.548172
_cell_angle_gamma 90.000000
_cell_volume 1570.072910
_symmetry_space_group_name_H-M "C 2/M"
_symmetry_group_IT_number 12
_symmetry_cell_setting 'monoclinic'
loop_
_space_group_symop_operation_xyz
x,y,z
-x,y,-z
-x,-y,-z
x,-y,z
1/2+x,1/2+y,z
1/2-x,1/2+y,-z
1/2-x,1/2-y,-z
1/2+x,1/2-y,z
loop_
_atom_site_type_symbol
_atom_site_label
_atom_site_fract_x
_atom_site_fract_y
_atom_site_fract_z
Si Si1 0.787889 0.315450 0.877268
Si Si2 0.095885 0.199358 0.023765
Si Si3 0.000000 0.853212 0.500000
Si Si4 0.949347 0.588421 0.187466
Si Si5 0.845660 0.084821 0.581903
O O1 0.848379 0.263576 0.789176
O O2 0.721389 0.366414 0.653683
O O3 0.750000 0.250000 0.000000
O O4 0.858892 0.368670 0.086124
O O5 0.143205 0.122933 0.144896
O O6 0.071147 0.198645 0.714510
O O7 0.000000 0.202404 0.000000
O O8 0.941086 0.904749 0.591530
O O9 0.935071 0.500000 0.160102
O O10 0.000000 0.604401 0.500000
O O11 0.000000 0.607175 0.000000
O O12 0.820752 0.000000 0.558990
#
# Coordination Sequence:
#
# PCOD9212506 Si02
#       5
#     8   8   4   8   8
#     4  12  24  42  68 101 139 176 231 292 359 420
#     4  10  23  41  67  94 129 174 223 273 341 409
#     4  10  21  42  64  90 127 172 214 264 329 392
#     4  10  24  47  75 105 142 192 243 298 363 433
#     4  11  24  42  65  95 131 173 223 275 336 411
#
# _framework density 22.92887
#
# number of rings (size 3 to 8) (size 9 to 14) (size 15 to 20)
#    0.000    1.333    2.222    2.333    1.556    8.444 
#    0.000    2.222    0.000    0.000    0.000    0.000 
#    0.000    0.000    0.000    0.000    0.000    0.000 
#
# Total GULP energy -100306.584083 kJ/mol
# GULP energy per Si atom -5572.588005 kJ/mol
# Density = 2.287668 g / cm^3
# Si number density = 22.928870 Si / 1000 Ang^3
#
#
#
# Elastic Constant Matrix: (Units=GPa)
#
#
# Indices 1 2 3 4 5 6 
#
# 1 72.4690 51.4993 55.7764 0.0000 30.7008 0.0000
# 2 51.4993 155.8983 68.4591 0.0000 32.8943 0.0000
# 3 55.7764 68.4591 129.6355 0.0000 26.1696 0.0000
# 4 0.0000 0.0000 0.0000 34.7436 0.0000 13.9604
# 5 30.7008 32.8943 26.1696 0.0000 33.5600 0.0000
# 6 0.0000 0.0000 0.0000 13.9604 0.0000 34.8000
#
#
#
# Elastic Compliance Matrix: (Units=1/GPa)
#
#
# Indices 1 2 3 4 5 6 
#
# 1 0.029105 -0.002432 -0.007530 0.000000 -0.018370 0.000000
# 2 -0.002432 0.009560 -0.003038 0.000000 -0.004776 0.000000
# 3 -0.007530 -0.003038 0.012540 0.000000 0.000087 0.000000
# 4 0.000000 0.000000 0.000000 0.034313 0.000000 -0.013765
# 5 -0.018370 -0.004776 0.000087 0.000000 0.051216 0.000000
# 6 0.000000 0.000000 0.000000 -0.013765 0.000000 0.034258
#
#
# Mechanical properties :
#
#
# Convention : Reuss Voigt Hill
#
# Bulk Modulus (GPa) = 39.67373 78.83027 59.25200
# Shear Modulus (GPa) = 24.34364 32.77194 28.55779
#
# Velocity S-wave (km/s) = 3.26191 3.78469 3.53299
# Velocity P-wave (km/s) = 5.61492 7.31803 6.52230
#
# Compressibility (1/GPa) = 0.02520559
#
# Stress axis : x y z
#
# Youngs Moduli (GPa) = 34.35858 104.60724 79.74255
#
# Poissons Ratio (x) = 0.25439 0.60046
# Poissons Ratio (y) = 0.08356 0.24224
# Poissons Ratio (z) = 0.25872 0.31777
#
# Static dielectric constant tensor:
#      x y z
#    x 2.068190 0.000000 -0.137320 
#    y 0.000000 1.877150 0.000000 
#    z -0.137320 0.000000 1.957650 
# 
# From -- ./inp_files/15941.got.cif
#   From: 2010.05.17/outbox.cif.g08.bks.cpg/sg12_8_cif.got.tgz:15941.got - 2010.06.03 13:09:07.
