data_PCOD9212899
_publ_section_title
;
Structure prediction by ZEFSAII (Michael W. Deem and Ramdas Pophale) SiO2 
 PCOD9212899
Probable space group: C 2/M
;
_chemical_formula_sum "Si O2"
_cell_formula_units_Z 48
_cell_length_a 10.699758
_cell_length_b 18.173912
_cell_length_c 10.564449
_cell_angle_alpha 90.000000
_cell_angle_beta 96.112212
_cell_angle_gamma 90.000000
_cell_volume 2042.647078
_symmetry_space_group_name_H-M "C 2/M"
_symmetry_group_IT_number 12
_symmetry_cell_setting 'monoclinic'
loop_
_space_group_symop_operation_xyz
x,y,z
-x,y,-z
-x,-y,-z
x,-y,z
1/2+x,1/2+y,z
1/2-x,1/2+y,-z
1/2-x,1/2-y,-z
1/2+x,1/2-y,z
loop_
_atom_site_type_symbol
_atom_site_label
_atom_site_fract_x
_atom_site_fract_y
_atom_site_fract_z
Si Si1 0.105898 0.157739 0.412437
Si Si2 0.629128 0.836703 0.446377
Si Si3 0.247435 0.760443 0.147504
Si Si4 0.872700 0.582980 0.816483
Si Si5 0.170640 0.583398 0.900697
Si Si6 0.502914 0.318145 0.849648
O O1 0.249239 0.138340 0.460402
O O2 0.116671 0.247869 0.428787
O O3 0.053713 0.133207 0.269459
O O4 0.000000 0.133553 0.500000
O O5 0.500000 0.861308 0.500000
O O6 0.650686 0.870211 0.310282
O O7 0.278580 0.846646 0.169919
O O8 0.367206 0.711977 0.196994
O O9 0.099828 0.751937 0.159382
O O10 0.250000 0.750000 0.000000
O O11 0.834153 0.500000 0.781780
O O12 0.021645 0.583085 0.860468
O O13 0.809677 0.599048 0.946429
O O14 0.216949 0.500000 0.879548
O O15 0.500000 0.342585 0.000000
#
# Coordination Sequence:
#
# PCOD9212899 Si02
#       6
#     8   8   8   8   8   8
#     4  10  23  38  54  82 123 164 192 238 308 364
#     4  10  22  35  57  81 118 155 198 243 295 362
#     4  10  22  34  59  93 127 156 196 254 308 363
#     4   9  19  34  57  86 119 155 198 253 306 355
#     4   9  19  35  58  91 124 160 203 255 313 364
#     4  10  23  37  57  91 123 159 202 254 308 365
#
# _framework density 23.498919999999998
#
# number of rings (size 3 to 8) (size 9 to 14) (size 15 to 20)
#    0.000    2.333    0.000    2.000   21.000    1.667 
#    0.000    0.000    0.000    5.000    0.000    0.000 
#    0.000    0.000    0.000    0.000    0.000    0.000 
#
# Total GULP energy -133667.711924 kJ/mol
# GULP energy per Si atom -5569.487997 kJ/mol
# Density = 2.344544 g / cm^3
# Si number density = 23.498920 Si / 1000 Ang^3
#
#
#
# Elastic Constant Matrix: (Units=GPa)
#
#
# Indices 1 2 3 4 5 6 
#
# 1 116.6597 -2.1665 27.0448 0.0000 9.6751 0.0000
# 2 -2.1665 56.5456 2.2629 0.0000 10.6097 0.0000
# 3 27.0448 2.2629 140.8924 0.0000 16.4452 0.0000
# 4 0.0000 0.0000 0.0000 16.1061 0.0000 2.1365
# 5 9.6751 10.6097 16.4452 0.0000 29.1112 0.0000
# 6 0.0000 0.0000 0.0000 2.1365 0.0000 14.6855
#
#
#
# Elastic Compliance Matrix: (Units=1/GPa)
#
#
# Indices 1 2 3 4 5 6 
#
# 1 0.009140 0.000883 -0.001474 0.000000 -0.002527 0.000000
# 2 0.000883 0.019107 0.000397 0.000000 -0.007481 0.000000
# 3 -0.001474 0.000397 0.007852 0.000000 -0.004090 0.000000
# 4 0.000000 0.000000 0.000000 0.063310 0.000000 -0.009211
# 5 -0.002527 -0.007481 -0.004090 0.000000 0.040228 0.000000
# 6 0.000000 0.000000 0.000000 -0.009211 0.000000 0.069435
#
#
# Mechanical properties :
#
#
# Convention : Reuss Voigt Hill
#
# Bulk Modulus (GPa) = 28.00295 40.93112 34.46704
# Shear Modulus (GPa) = 22.58756 31.11100 26.84928
#
# Velocity S-wave (km/s) = 3.10371 3.64254 3.38387
# Velocity P-wave (km/s) = 4.97862 5.92848 5.47419
#
# Compressibility (1/GPa) = 0.03571052
#
# Stress axis : x y z
#
# Youngs Moduli (GPa) = 109.41476 52.33820 127.36372
#
# Poissons Ratio (x) = -0.04623 0.18768
# Poissons Ratio (y) = -0.09664 -0.05054
# Poissons Ratio (z) = 0.16123 -0.02077
#
# Static dielectric constant tensor:
#      x y z
#    x 2.144180 0.000000 -0.009940 
#    y 0.000000 1.947400 0.000000 
#    z -0.009940 0.000000 1.957830 
# 
# From -- ./inp_files/131215.got.cif
#   From: 2010.05.17/outbox.cif.g08.bks.cpg/sg12_66_cif.got.tgz:131215.got - 2010.06.03 13:09:07.
