data_PCOD9212472
_publ_section_title
;
Structure prediction by ZEFSAII (Michael W. Deem and Ramdas Pophale) SiO2 
 PCOD9212472
Probable space group: C 2/M
;
_chemical_formula_sum "Si O2"
_cell_formula_units_Z 50
_cell_length_a 8.817253
_cell_length_b 21.263632
_cell_length_c 18.495047
_cell_angle_alpha 90.000000
_cell_angle_beta 52.615437
_cell_angle_gamma 90.000000
_cell_volume 2755.261692
_symmetry_space_group_name_H-M "C 2/M"
_symmetry_group_IT_number 12
_symmetry_cell_setting 'monoclinic'
loop_
_space_group_symop_operation_xyz
x,y,z
-x,y,-z
-x,-y,-z
x,-y,z
1/2+x,1/2+y,z
1/2-x,1/2+y,-z
1/2-x,1/2-y,-z
1/2+x,1/2-y,z
loop_
_atom_site_type_symbol
_atom_site_label
_atom_site_fract_x
_atom_site_fract_y
_atom_site_fract_z
Si Si1 0.418215 0.428950 0.238152
Si Si2 0.346060 0.819086 0.228064
Si Si3 0.146140 0.428976 0.891952
Si Si4 0.866967 0.686233 0.468856
Si Si5 0.833897 0.315675 0.747556
Si Si6 0.989538 0.892880 0.386196
Si Si7 0.000000 0.000000 0.500000
O O1 0.341185 0.500000 0.252065
O O2 0.634179 0.427236 0.146147
O O3 0.296013 0.375814 0.233725
O O4 0.439958 0.414890 0.318247
O O5 0.371407 0.871563 0.158678
O O6 0.287835 0.748812 0.220446
O O7 0.541866 0.817789 0.215900
O O8 0.162154 0.843159 0.327636
O O9 0.119187 0.500000 0.867658
O O10 0.000000 0.422409 0.000000
O O11 0.750000 0.750000 0.500000
O O12 0.705999 0.633805 0.524207
O O13 0.000000 0.684267 0.500000
O O14 0.004694 0.683635 0.361029
O O15 0.049389 0.946274 0.424153
#
# Coordination Sequence:
#
# PCOD9212472 Si02
#       7
#     8   8   8   8   8   8   2
#     4  10  21  42  62  85 125 159 200 251 314 362
#     4  11  23  39  63  88 123 158 208 250 311 363
#     4   9  20  42  72  96 121 158 197 244 307 381
#     4  12  23  37  57  84 118 163 217 253 297 351
#     4  12  23  40  60  90 123 167 204 256 305 359
#     4  11  22  40  55  83 119 162 208 258 296 357
#     4  12  24  36  58  80 118 160 208 252 308 344
#
# _framework density 18.147096999999999
#
# number of rings (size 3 to 8) (size 9 to 14) (size 15 to 20)
#    0.000    1.120    4.000    3.840    2.240    0.640 
#    4.320    5.200    0.000    2.880    0.000    0.000 
#    0.000    0.000    0.000    0.000    0.000    0.000 
#
# Total GULP energy -139230.133991 kJ/mol
# GULP energy per Si atom -5569.205360 kJ/mol
# Density = 1.810579 g / cm^3
# Si number density = 18.147097 Si / 1000 Ang^3
#
#
#
# Elastic Constant Matrix: (Units=GPa)
#
#
# Indices 1 2 3 4 5 6 
#
# 1 111.1382 84.0723 28.8164 0.0000 5.3035 0.0000
# 2 84.0723 172.9838 44.5024 0.0000 -0.3640 0.0000
# 3 28.8164 44.5024 74.4583 0.0000 -16.5139 0.0000
# 4 0.0000 0.0000 0.0000 26.6783 0.0000 10.5814
# 5 5.3035 -0.3640 -16.5139 0.0000 18.3204 0.0000
# 6 0.0000 0.0000 0.0000 10.5814 0.0000 53.1092
#
#
#
# Elastic Compliance Matrix: (Units=1/GPa)
#
#
# Indices 1 2 3 4 5 6 
#
# 1 0.015242 -0.006442 -0.003819 0.000000 -0.007983 0.000000
# 2 -0.006442 0.009854 -0.003674 0.000000 -0.001251 0.000000
# 3 -0.003819 -0.003674 0.021664 0.000000 0.020561 0.000000
# 4 0.000000 0.000000 0.000000 0.040700 0.000000 -0.008109
# 5 -0.007983 -0.001251 0.020561 0.000000 0.075403 0.000000
# 6 0.000000 0.000000 0.000000 -0.008109 0.000000 0.020445
#
#
# Mechanical properties :
#
#
# Convention : Reuss Voigt Hill
#
# Bulk Modulus (GPa) = 52.93704 74.81806 63.87755
# Shear Modulus (GPa) = 22.99101 33.03421 28.01261
#
# Velocity S-wave (km/s) = 3.56325 4.27119 3.93318
# Velocity P-wave (km/s) = 6.79437 8.10199 7.47682
#
# Compressibility (1/GPa) = 0.01889037
#
# Stress axis : x y z
#
# Youngs Moduli (GPa) = 65.60678 101.47685 46.15881
#
# Poissons Ratio (x) = 0.65374 0.17628
# Poissons Ratio (y) = 0.42266 0.16959
# Poissons Ratio (z) = 0.25056 0.37283
#
# Static dielectric constant tensor:
#      x y z
#    x 1.598650 0.000000 0.027870 
#    y 0.000000 1.658680 0.000000 
#    z 0.027870 0.000000 1.597400 
# 
# From -- ./inp_files/197136.got.cif
#   From: 2010.05.17/outbox.cif.g08.bks.cpg/sg12_99_cif.got.tgz:197136.got - 2010.06.03 13:09:07.
