data_PCOD9212233
_publ_section_title
;
Structure prediction by ZEFSAII (Michael W. Deem and Ramdas Pophale) SiO2 
 PCOD9212233
Probable space group: C 2/M
;
_chemical_formula_sum "Si O2"
_cell_formula_units_Z 50
_cell_length_a 24.753193
_cell_length_b 7.455308
_cell_length_c 12.532849
_cell_angle_alpha 90.000000
_cell_angle_beta 61.266788
_cell_angle_gamma 90.000000
_cell_volume 2028.059413
_symmetry_space_group_name_H-M "C 2/M"
_symmetry_group_IT_number 12
_symmetry_cell_setting 'monoclinic'
loop_
_space_group_symop_operation_xyz
x,y,z
-x,y,-z
-x,-y,-z
x,-y,z
1/2+x,1/2+y,z
1/2-x,1/2+y,-z
1/2-x,1/2-y,-z
1/2+x,1/2-y,z
loop_
_atom_site_type_symbol
_atom_site_label
_atom_site_fract_x
_atom_site_fract_y
_atom_site_fract_z
Si Si1 0.916569 0.281699 0.000499
Si Si2 0.220396 0.298402 0.860901
Si Si3 0.351160 0.716779 0.706789
Si Si4 0.300133 0.287518 0.360611
Si Si5 0.526982 0.789207 0.274365
Si Si6 0.000000 0.000000 0.000000
Si Si7 0.890196 0.792513 0.441920
O O1 0.918770 0.500000 0.014091
O O2 0.956434 0.224930 0.859489
O O3 0.846088 0.225622 0.043456
O O4 0.946451 0.159463 0.062218
O O5 0.221849 0.500000 0.903341
O O6 0.287332 0.214807 0.818520
O O7 0.215546 0.302798 0.736246
O O8 0.345861 0.500000 0.707540
O O9 0.413045 0.757805 0.711451
O O10 0.360871 0.786547 0.577048
O O11 0.301938 0.500000 0.335702
O O12 0.250000 0.250000 0.500000
O O13 0.362906 0.219896 0.357428
O O14 0.463653 0.711912 0.378232
O O15 0.516494 0.000000 0.277530
O O16 0.870805 0.000000 0.459279
#
# Coordination Sequence:
#
# PCOD9212233 Si02
#       7
#     8   8   8   8   8   2   8
#     4  10  26  46  67 102 137 170 221 274 324 395
#     4  10  22  43  65  92 131 170 212 273 332 377
#     4  10  21  41  66  90 124 172 219 269 324 392
#     4  11  22  37  61  93 128 164 213 260 322 397
#     4  11  25  42  61  93 131 168 215 271 330 386
#     4  12  26  44  76  94 134 180 216 260 334 396
#     4  10  22  39  61  91 125 167 219 268 320 394
#
# _framework density 24.654111
#
# number of rings (size 3 to 8) (size 9 to 14) (size 15 to 20)
#    0.000    1.600    1.600    1.680    5.600    5.120 
#    0.000    0.000    0.000    0.000    0.000    0.000 
#    0.000    0.000    0.000    0.000    0.000    0.000 
#
# Total GULP energy -139494.999400 kJ/mol
# GULP energy per Si atom -5579.799976 kJ/mol
# Density = 2.459800 g / cm^3
# Si number density = 24.654111 Si / 1000 Ang^3
#
#
#
# Elastic Constant Matrix: (Units=GPa)
#
#
# Indices 1 2 3 4 5 6 
#
# 1 115.3967 -4.8965 2.4381 0.0000 -27.1210 0.0000
# 2 -4.8965 94.8597 9.0916 0.0000 -4.2187 0.0000
# 3 2.4381 9.0916 58.8767 0.0000 -24.7669 0.0000
# 4 0.0000 0.0000 0.0000 7.8088 0.0000 -5.3101
# 5 -27.1210 -4.2187 -24.7669 0.0000 47.7736 0.0000
# 6 0.0000 0.0000 0.0000 -5.3101 0.0000 5.8186
#
#
#
# Elastic Compliance Matrix: (Units=1/GPa)
#
#
# Indices 1 2 3 4 5 6 
#
# 1 0.010337 0.000614 0.002518 0.000000 0.007228 0.000000
# 2 0.000614 0.010737 -0.001455 0.000000 0.000542 0.000000
# 3 0.002518 -0.001455 0.022576 0.000000 0.013004 0.000000
# 4 0.000000 0.000000 0.000000 0.337525 0.000000 0.308028
# 5 0.007228 0.000542 0.013004 0.000000 0.031825 0.000000
# 6 0.000000 0.000000 0.000000 0.308028 0.000000 0.452970
#
#
# Mechanical properties :
#
#
# Convention : Reuss Voigt Hill
#
# Bulk Modulus (GPa) = 21.27570 31.37772 26.32671
# Shear Modulus (GPa) = 5.69291 29.78018 17.73654
#
# Velocity S-wave (km/s) = 1.52122 3.47928 2.68510
# Velocity P-wave (km/s) = 3.42548 5.37544 4.50718
#
# Compressibility (1/GPa) = 0.04700199
#
# Stress axis : x y z
#
# Youngs Moduli (GPa) = 96.73666 93.13446 44.29575
#
# Poissons Ratio (x) = -0.05716 -0.11152
# Poissons Ratio (y) = -0.05937 0.06447
# Poissons Ratio (z) = -0.24355 0.13555
#
# Static dielectric constant tensor:
#      x y z
#    x 2.025890 0.000000 0.016120 
#    y 0.000000 1.922650 0.000000 
#    z 0.016120 0.000000 1.984750 
# 
# From -- ./inp_files/243561.got.cif
#   From: 2010.05.17/outbox.cif.g08.bks.cpg/sg12_122_cif.got.tgz:243561.got - 2010.06.03 13:09:07.
