data_PCOD9212159
_publ_section_title
;
Structure prediction by ZEFSAII (Michael W. Deem and Ramdas Pophale) SiO2 
 PCOD9212159
Probable space group: C 2/M
;
_chemical_formula_sum "Si O2"
_cell_formula_units_Z 40
_cell_length_a 27.839258
_cell_length_b 8.058491
_cell_length_c 24.724304
_cell_angle_alpha 90.000000
_cell_angle_beta 160.637823
_cell_angle_gamma 90.000000
_cell_volume 1838.947365
_symmetry_space_group_name_H-M "C 2/M"
_symmetry_group_IT_number 12
_symmetry_cell_setting 'monoclinic'
loop_
_space_group_symop_operation_xyz
x,y,z
-x,y,-z
-x,-y,-z
x,-y,z
1/2+x,1/2+y,z
1/2-x,1/2+y,-z
1/2-x,1/2-y,-z
1/2+x,1/2-y,z
loop_
_atom_site_type_symbol
_atom_site_label
_atom_site_fract_x
_atom_site_fract_y
_atom_site_fract_z
Si Si1 0.622802 0.000000 0.204444
Si Si2 0.697990 0.801003 0.004534
Si Si3 0.295999 0.000000 0.835241
Si Si4 0.640648 0.183941 0.718159
Si Si5 0.092464 0.302853 0.350709
Si Si6 0.889330 0.814572 0.509992
O O1 0.715421 0.158449 0.324289
O O2 0.657452 0.000000 0.177584
O O3 0.451480 0.000000 0.032155
O O4 0.528393 0.755741 0.821340
O O5 0.715979 0.000000 0.030313
O O6 0.750000 0.750000 0.000000
O O7 0.779778 0.708388 0.139281
O O8 0.203826 0.835648 0.750493
O O9 0.470552 0.203293 0.552534
O O10 0.669119 0.000000 0.726766
O O11 0.084918 0.500000 0.348136
O O12 0.250000 0.250000 0.500000
O O13 0.065579 0.229772 0.381533
O O14 0.945565 0.000000 0.557604
#
# Coordination Sequence:
#
# PCOD9212159 Si02
#       6
#     4   8   4   8   8   8
#     4   9  25  45  77  91 131 175 215 283 358 389
#     4  11  22  37  58  91 130 175 217 259 315 384
#     4  11  23  51  71  99 129 169 225 287 342 403
#     4  12  24  40  68 101 133 174 225 274 328 399
#     4  11  24  37  57  91 134 177 220 262 322 389
#     4  10  21  41  64  94 127 170 218 267 333 387
#
# _framework density 21.751571999999999
#
# number of rings (size 3 to 8) (size 9 to 14) (size 15 to 20)
#    0.600    0.600    4.000    1.800    2.800    4.000 
#    0.000    6.000    0.000    0.000    0.000    0.000 
#    0.000    0.000    0.000    0.000    0.000    0.000 
#
# Total GULP energy -111695.449857 kJ/mol
# GULP energy per Si atom -5584.772493 kJ/mol
# Density = 2.170206 g / cm^3
# Si number density = 21.751572 Si / 1000 Ang^3
#
#
#
# Elastic Constant Matrix: (Units=GPa)
#
#
# Indices 1 2 3 4 5 6 
#
# 1 54.7630 18.5892 -6.1978 0.0000 7.6577 0.0000
# 2 18.5892 108.3091 10.4842 -0.0001 9.6170 0.0000
# 3 -6.1978 10.4842 92.5536 -0.0002 9.0748 -0.0001
# 4 0.0000 -0.0001 -0.0002 25.2963 -0.0001 3.1566
# 5 7.6577 9.6170 9.0748 -0.0001 35.1458 0.0000
# 6 0.0000 0.0000 -0.0001 3.1566 0.0000 14.8675
#
#
#
# Elastic Compliance Matrix: (Units=1/GPa)
#
#
# Indices 1 2 3 4 5 6 
#
# 1 0.020190 -0.003312 0.002123 0.000000 -0.004041 0.000000
# 2 -0.003312 0.010070 -0.001193 0.000000 -0.001726 0.000000
# 3 0.002123 -0.001193 0.011383 0.000000 -0.003075 0.000000
# 4 0.000000 0.000000 0.000000 0.040607 0.000000 -0.008621
# 5 -0.004041 -0.001726 -0.003075 0.000000 0.030600 0.000000
# 6 0.000000 0.000000 0.000000 -0.008621 0.000000 0.069091
#
#
# Mechanical properties :
#
#
# Convention : Reuss Voigt Hill
#
# Bulk Modulus (GPa) = 27.11505 33.48635 30.30070
# Shear Modulus (GPa) = 25.12575 30.57858 27.85217
#
# Velocity S-wave (km/s) = 3.40240 3.75348 3.58224
# Velocity P-wave (km/s) = 5.28469 5.84920 5.57410
#
# Compressibility (1/GPa) = 0.03687988
#
# Stress axis : x y z
#
# Youngs Moduli (GPa) = 49.52913 99.30470 87.84688
#
# Poissons Ratio (x) = 0.32890 -0.18653
# Poissons Ratio (y) = 0.16404 0.10483
# Poissons Ratio (z) = -0.10517 0.11850
#
# Static dielectric constant tensor:
#      x y z
#    x 1.780830 0.000000 -0.004900 
#    y 0.000000 1.798110 0.000000 
#    z -0.004900 0.000000 1.879010 
# 
# From -- ./inp_files/370477.got.cif
#   From: 2010.05.17/outbox.cif.g08.bks.cpg/sg12_186_cif.got.tgz:370477.got - 2010.06.03 13:09:07.
