data_PCOD9212404
_publ_section_title
;
Structure prediction by ZEFSAII (Michael W. Deem and Ramdas Pophale) SiO2 
 PCOD9212404
Probable space group: C 2/M
;
_chemical_formula_sum "Si O2"
_cell_formula_units_Z 40
_cell_length_a 17.891336
_cell_length_b 14.499339
_cell_length_c 16.239371
_cell_angle_alpha 90.000000
_cell_angle_beta 154.456151
_cell_angle_gamma 90.000000
_cell_volume 1816.522041
_symmetry_space_group_name_H-M "C 2/M"
_symmetry_group_IT_number 12
_symmetry_cell_setting 'monoclinic'
loop_
_space_group_symop_operation_xyz
x,y,z
-x,y,-z
-x,-y,-z
x,-y,z
1/2+x,1/2+y,z
1/2-x,1/2+y,-z
1/2-x,1/2-y,-z
1/2+x,1/2-y,z
loop_
_atom_site_type_symbol
_atom_site_label
_atom_site_fract_x
_atom_site_fract_y
_atom_site_fract_z
Si Si1 0.836675 0.000000 0.538385
Si Si2 0.882326 0.164276 0.710345
Si Si3 0.658836 0.500000 0.749432
Si Si4 0.830383 0.794925 0.279340
Si Si5 0.066706 0.500000 0.831847
Si Si6 0.500000 0.678085 0.000000
Si Si7 0.012243 0.698746 0.715379
O O1 0.885510 0.911635 0.641943
O O2 0.627920 0.000000 0.321497
O O3 0.958484 0.000000 0.580196
O O4 0.984172 0.252696 0.775924
O O5 0.680474 0.192423 0.515498
O O6 0.957199 0.128658 0.871114
O O7 0.694980 0.404318 0.740576
O O8 0.782563 0.500000 0.951946
O O9 0.665513 0.741655 0.148408
O O10 0.000000 0.770180 0.500000
O O11 0.871154 0.761678 0.227050
O O12 0.078006 0.594463 0.791222
#
# Coordination Sequence:
#
# PCOD9212404 Si02
#       7
#     4   8   4   8   4   4   8
#     4  10  22  42  67 100 132 172 221 273 333 389
#     4  10  21  41  69  97 131 176 221 272 331 398
#     4  12  25  41  70 100 130 176 226 269 330 406
#     4  12  26  45  65  99 139 177 219 275 337 391
#     4  10  24  39  66 104 125 171 225 277 321 392
#     4  12  26  40  68 100 134 178 220 278 332 390
#     4  10  21  44  68  92 136 177 223 269 332 396
#
# _framework density 22.020102999999999
#
# number of rings (size 3 to 8) (size 9 to 14) (size 15 to 20)
#    0.000    1.200    4.000    1.500    2.800    4.000 
#    0.000    2.500    0.000    0.000    0.000    0.000 
#    0.000    0.000    0.000    0.000    0.000    0.000 
#
# Total GULP energy -111886.253087 kJ/mol
# GULP energy per Si atom -5594.312654 kJ/mol
# Density = 2.196998 g / cm^3
# Si number density = 22.020103 Si / 1000 Ang^3
#
#
#
# Elastic Constant Matrix: (Units=GPa)
#
#
# Indices 1 2 3 4 5 6 
#
# 1 24.5849 2.0738 11.9217 0.0019 0.6202 -0.0003
# 2 2.0738 81.4739 -2.7308 0.0027 8.6192 0.0007
# 3 11.9217 -2.7308 110.8446 0.0048 -0.8805 0.0038
# 4 0.0019 0.0027 0.0048 4.1260 0.0022 6.0298
# 5 0.6202 8.6192 -0.8805 0.0022 30.9342 0.0011
# 6 -0.0003 0.0007 0.0038 6.0298 0.0011 -10.2748
#
#
#
# Elastic Compliance Matrix: (Units=1/GPa)
#
#
# Indices 1 2 3 4 5 6 
#
# 1 0.043054 -0.001182 -0.004665 -0.000004 -0.000667 -0.000006
# 2 -0.001182 0.012688 0.000412 -0.000004 -0.003500 -0.000002
# 3 -0.004665 0.000412 0.009536 -0.000008 0.000250 -0.000001
# 4 -0.000004 -0.000004 -0.000008 0.130468 -0.000011 0.076566
# 5 -0.000667 -0.003500 0.000250 -0.000011 0.033322 -0.000003
# 6 -0.000006 -0.000002 -0.000001 0.076566 -0.000003 -0.052392
#
#
# Mechanical properties :
#
#
# Convention : Reuss Voigt Hill
#
# Bulk Modulus (GPa) = 18.37967 26.60363 22.49165
# Shear Modulus (GPa) = 24.30943 18.66635 21.48789
#
# Velocity S-wave (km/s) = 3.32620 2.91468 3.12722
# Velocity P-wave (km/s) = 4.80795 4.84096 4.82448
#
# Compressibility (1/GPa) = 0.05440794
#
# Stress axis : x y z
#
# Youngs Moduli (GPa) = 23.22660 78.81455 104.87113
#
# Poissons Ratio (x) = 0.09314 0.48923
# Poissons Ratio (y) = 0.02745 -0.04319
# Poissons Ratio (z) = 0.10835 -0.03246
#
# Static dielectric constant tensor:
#      x y z
#    x 1.811130 0.000000 -0.024690 
#    y 0.000000 1.800940 0.000000 
#    z -0.024690 0.000000 1.818210 
# 
# From -- ./inp_files/112146.got.cif
#   From: 2010.05.17/outbox.cif.g08.bks.cpg/sg12_57_cif.got.tgz:112146.got - 2010.06.03 13:09:07.
