data_PCOD9212690
_publ_section_title
;
Structure prediction by ZEFSAII (Michael W. Deem and Ramdas Pophale) SiO2 
 PCOD9212690
Probable space group: C 2/M
;
_chemical_formula_sum "Si O2"
_cell_formula_units_Z 34
_cell_length_a 14.057952
_cell_length_b 12.576443
_cell_length_c 11.019991
_cell_angle_alpha 90.000000
_cell_angle_beta 55.404340
_cell_angle_gamma 90.000000
_cell_volume 1603.819927
_symmetry_space_group_name_H-M "C 2/M"
_symmetry_group_IT_number 12
_symmetry_cell_setting 'monoclinic'
loop_
_space_group_symop_operation_xyz
x,y,z
-x,y,-z
-x,-y,-z
x,-y,z
1/2+x,1/2+y,z
1/2-x,1/2+y,-z
1/2-x,1/2-y,-z
1/2+x,1/2-y,z
loop_
_atom_site_type_symbol
_atom_site_label
_atom_site_fract_x
_atom_site_fract_y
_atom_site_fract_z
Si Si1 0.152454 0.118376 0.978671
Si Si2 0.083518 0.663293 0.148843
Si Si3 0.000000 0.500000 0.000000
Si Si4 0.199502 0.877604 0.673195
Si Si5 0.919129 0.241679 0.452930
O O1 0.291537 0.122363 0.898069
O O2 0.134340 0.135259 0.848227
O O3 0.111340 0.000000 0.043093
O O4 0.103261 0.215669 0.090119
O O5 0.991821 0.671345 0.324069
O O6 0.037062 0.592187 0.073162
O O7 0.124705 0.845006 0.611061
O O8 0.308138 0.798395 0.591492
O O9 0.236411 0.000000 0.638853
O O10 0.000000 0.197526 0.500000
#
# Coordination Sequence:
#
# PCOD9212690 Si02
#       5
#     8   8   2   8   8
#     4  10  21  43  65  93 126 171 217 265 320 380
#     4  11  23  39  65  96 131 167 215 266 321 382
#     4  12  24  40  60 100 124 168 214 266 316 380
#     4  10  23  41  65  93 127 166 213 266 319 380
#     4  11  23  42  64  95 128 169 212 263 319 385
#
# _framework density 21.199387000000002
#
# number of rings (size 3 to 8) (size 9 to 14) (size 15 to 20)
#    0.000    1.412    3.529    1.412    1.647    1.882 
#    0.000    2.941    0.000    0.000    0.000    0.000 
#    0.000    0.000    0.000    0.000    0.000    0.000 
#
# Total GULP energy -94814.936274 kJ/mol
# GULP energy per Si atom -5577.349193 kJ/mol
# Density = 2.115114 g / cm^3
# Si number density = 21.199387 Si / 1000 Ang^3
#
#
#
# Elastic Constant Matrix: (Units=GPa)
#
#
# Indices 1 2 3 4 5 6 
#
# 1 86.5880 2.4760 9.3244 0.0000 32.6979 0.0000
# 2 2.4760 100.5642 15.1751 0.0000 3.5825 0.0000
# 3 9.3244 15.1751 41.1885 0.0000 4.6758 0.0000
# 4 0.0000 0.0000 0.0000 9.3112 0.0000 4.4478
# 5 32.6979 3.5825 4.6758 0.0000 35.6827 0.0000
# 6 0.0000 0.0000 0.0000 4.4478 0.0000 24.7845
#
#
#
# Elastic Compliance Matrix: (Units=1/GPa)
#
#
# Indices 1 2 3 4 5 6 
#
# 1 0.017881 0.000496 -0.002401 0.000000 -0.016120 0.000000
# 2 0.000496 0.010554 -0.003887 0.000000 -0.001005 0.000000
# 3 -0.002401 -0.003887 0.026352 0.000000 -0.000863 0.000000
# 4 0.000000 0.000000 0.000000 0.117467 0.000000 -0.021080
# 5 -0.016120 -0.001005 -0.000863 0.000000 0.043011 0.000000
# 6 0.000000 0.000000 0.000000 -0.021080 0.000000 0.044131
#
#
# Mechanical properties :
#
#
# Convention : Reuss Voigt Hill
#
# Bulk Modulus (GPa) = 23.14572 31.36574 27.25573
# Shear Modulus (GPa) = 17.52055 27.38002 22.45028
#
# Velocity S-wave (km/s) = 2.87795 3.59771 3.25777
# Velocity P-wave (km/s) = 4.68885 5.66443 5.19957
#
# Compressibility (1/GPa) = 0.04320453
#
# Stress axis : x y z
#
# Youngs Moduli (GPa) = 55.92619 94.75099 37.94770
#
# Poissons Ratio (x) = -0.04702 0.09110
# Poissons Ratio (y) = -0.02776 0.14749
# Poissons Ratio (z) = 0.13426 0.36826
#
# Static dielectric constant tensor:
#      x y z
#    x 1.792260 0.000000 -0.029650 
#    y 0.000000 1.713440 0.000000 
#    z -0.029650 0.000000 1.741440 
# 
# From -- ./inp_files/140048.got.cif
#   From: 2010.05.17/outbox.cif.g08.bks.cpg/sg12_71_cif.got.tgz:140048.got - 2010.06.03 13:09:07.
