data_PCOD9212507
_publ_section_title
;
Structure prediction by ZEFSAII (Michael W. Deem and Ramdas Pophale) SiO2 
 PCOD9212507
Probable space group: C 2/M
;
_chemical_formula_sum "Si O2"
_cell_formula_units_Z 58
_cell_length_a 25.281737
_cell_length_b 7.750493
_cell_length_c 22.292223
_cell_angle_alpha 90.000000
_cell_angle_beta 143.170891
_cell_angle_gamma 90.000000
_cell_volume 2618.353808
_symmetry_space_group_name_H-M "C 2/M"
_symmetry_group_IT_number 12
_symmetry_cell_setting 'monoclinic'
loop_
_space_group_symop_operation_xyz
x,y,z
-x,y,-z
-x,-y,-z
x,-y,z
1/2+x,1/2+y,z
1/2-x,1/2+y,-z
1/2-x,1/2-y,-z
1/2+x,1/2-y,z
loop_
_atom_site_type_symbol
_atom_site_label
_atom_site_fract_x
_atom_site_fract_y
_atom_site_fract_z
Si Si1 0.846762 0.707771 0.111748
Si Si2 0.362582 0.802194 0.260664
Si Si3 0.101992 0.805716 0.146286
Si Si4 0.146983 0.793610 0.403879
Si Si5 0.000000 0.500000 0.000000
Si Si6 0.010177 0.700430 0.180020
Si Si7 0.055986 0.799288 0.444902
Si Si8 0.199353 0.293597 0.671491
O O1 0.858361 0.500000 0.124209
O O2 0.856345 0.775586 0.188482
O O3 0.924945 0.768603 0.138624
O O4 0.750000 0.750000 0.000000
O O5 0.465013 0.798556 0.372448
O O6 0.310367 0.725549 0.269401
O O7 0.331693 0.000000 0.226459
O O8 0.073936 0.653923 0.076986
O O9 0.036230 0.796509 0.143157
O O10 0.200914 0.768397 0.259501
O O11 0.102335 0.000000 0.120861
O O12 0.250000 0.750000 0.500000
O O13 0.092560 0.711085 0.300244
O O14 0.101359 0.738049 0.424621
O O15 0.138256 0.000000 0.390253
O O16 0.995230 0.500000 0.148647
O O17 0.126243 0.782624 0.561594
O O18 0.032550 0.000000 0.416599
O O19 0.183307 0.500000 0.658077
#
# Coordination Sequence:
#
# PCOD9212507 Si02
#       8
#     8   8   8   8   2   8   8   8
#     4  10  23  41  66  96 129 171 223 279 344 400
#     4  10  21  42  64  90 129 174 219 274 329 404
#     4  11  25  46  72 102 137 180 226 282 346 405
#     4  11  23  37  59  92 130 174 221 272 336 407
#     4  12  26  48  72 102 138 172 230 286 340 400
#     4  11  22  42  67  97 134 174 222 282 337 404
#     4  11  23  37  59  94 133 174 218 271 335 403
#     4  10  23  41  65  95 130 174 226 271 333 408
#
# _framework density 22.151323000000001
#
# number of rings (size 3 to 8) (size 9 to 14) (size 15 to 20)
#    0.000    1.379    2.069    2.690    0.966    8.828 
#    0.000    1.379    0.000    0.000    0.000    0.000 
#    0.000    0.000    0.000    0.000    0.000    0.000 
#
# Total GULP energy -161869.062709 kJ/mol
# GULP energy per Si atom -5581.691818 kJ/mol
# Density = 2.210091 g / cm^3
# Si number density = 22.151323 Si / 1000 Ang^3
#
#
#
# Elastic Constant Matrix: (Units=GPa)
#
#
# Indices 1 2 3 4 5 6 
#
# 1 93.8959 10.8914 11.2637 0.0000 1.8671 0.0000
# 2 10.8914 74.5764 11.2952 -0.0001 -3.0336 -0.0001
# 3 11.2637 11.2952 90.6826 0.0000 16.8341 0.0000
# 4 0.0000 -0.0001 0.0000 33.9336 0.0000 1.2941
# 5 1.8671 -3.0336 16.8341 0.0000 20.4653 0.0000
# 6 0.0000 -0.0001 0.0000 1.2941 0.0000 4.9334
#
#
#
# Elastic Compliance Matrix: (Units=1/GPa)
#
#
# Indices 1 2 3 4 5 6 
#
# 1 0.010958 -0.001441 -0.001129 0.000000 -0.000285 0.000000
# 2 -0.001441 0.014146 -0.002356 0.000000 0.004167 0.000000
# 3 -0.001129 -0.002356 0.013581 0.000000 -0.011417 0.000000
# 4 0.000000 0.000000 0.000000 0.029767 0.000000 -0.007809
# 5 -0.000285 0.004167 -0.011417 0.000000 0.058898 0.000000
# 6 0.000000 0.000000 0.000000 -0.007809 0.000000 0.204747
#
#
# Mechanical properties :
#
#
# Convention : Reuss Voigt Hill
#
# Bulk Modulus (GPa) = 34.68321 36.22838 35.45579
# Shear Modulus (GPa) = 14.22228 26.91344 20.56786
#
# Velocity S-wave (km/s) = 2.53662 3.48944 3.05046
# Velocity P-wave (km/s) = 4.92653 5.71186 5.33367
#
# Compressibility (1/GPa) = 0.02883240
#
# Stress axis : x y z
#
# Youngs Moduli (GPa) = 91.25498 70.69173 73.63400
#
# Poissons Ratio (x) = 0.10187 0.08311
# Poissons Ratio (y) = 0.13150 0.17352
# Poissons Ratio (z) = 0.10300 0.16658
#
# Static dielectric constant tensor:
#      x y z
#    x 1.850070 0.000000 -0.024630 
#    y 0.000000 1.815850 0.000000 
#    z -0.024630 0.000000 1.786760 
# 
# From -- ./inp_files/324648.got.cif
#   From: 2010.05.17/outbox.cif.g08.bks.cpg/sg12_163_cif.got.tgz:324648.got - 2010.06.03 13:09:07.
