data_PCOD9212269
_publ_section_title
;
Structure prediction by ZEFSAII (Michael W. Deem and Ramdas Pophale) SiO2 
 PCOD9212269
Probable space group: C 2/M
;
_chemical_formula_sum "Si O2"
_cell_formula_units_Z 60
_cell_length_a 20.545620
_cell_length_b 9.391435
_cell_length_c 18.803058
_cell_angle_alpha 90.000000
_cell_angle_beta 119.538013
_cell_angle_gamma 90.000000
_cell_volume 3156.554743
_symmetry_space_group_name_H-M "C 2/M"
_symmetry_group_IT_number 12
_symmetry_cell_setting 'monoclinic'
loop_
_space_group_symop_operation_xyz
x,y,z
-x,y,-z
-x,-y,-z
x,-y,z
1/2+x,1/2+y,z
1/2-x,1/2+y,-z
1/2-x,1/2-y,-z
1/2+x,1/2-y,z
loop_
_atom_site_type_symbol
_atom_site_label
_atom_site_fract_x
_atom_site_fract_y
_atom_site_fract_z
Si Si1 0.753258 0.000000 0.533051
Si Si2 0.703743 0.332786 0.185992
Si Si3 0.857316 0.170510 0.239342
Si Si4 0.076462 0.166685 0.998455
Si Si5 0.882941 0.340079 0.744137
Si Si6 0.493678 0.330307 0.413723
Si Si7 0.857020 0.273207 0.570195
Si Si8 0.438949 0.830480 0.154165
O O1 0.816088 0.876720 0.551858
O O2 0.688616 0.875712 0.505860
O O3 0.721084 0.500000 0.204372
O O4 0.777731 0.242393 0.211037
O O5 0.645600 0.318402 0.089434
O O6 0.661508 0.272176 0.232390
O O7 0.912947 0.196274 0.335732
O O8 0.895887 0.244858 0.192182
O O9 0.850615 0.000000 0.225326
O O10 0.071560 0.000000 0.973573
O O11 0.083678 0.267263 0.934434
O O12 0.000000 0.199824 0.000000
O O13 0.872619 0.500000 0.768153
O O14 0.854059 0.337203 0.648028
O O15 0.971448 0.308288 0.791108
O O16 0.500000 0.295106 0.500000
O O17 0.507636 0.500000 0.413708
O O18 0.557537 0.246797 0.406104
O O19 0.424622 0.000000 0.151577
#
# Coordination Sequence:
#
# PCOD9212269 Si02
#       8
#     4   8   8   8   8   8   8   8
#     4  10  24  36  64  92 126 156 206 274 320 364
#     4  11  25  43  66  98 134 167 212 273 324 384
#     4  11  24  43  67  95 132 176 220 264 322 388
#     4  10  21  41  66  96 131 169 213 265 328 392
#     4  11  23  40  66  94 130 173 213 267 321 384
#     4  10  22  42  67  89 123 172 217 258 317 385
#     4  11  21  43  62  94 127 166 210 267 320 384
#     4  11  23  39  68  98 128 171 219 267 319 383
#
# _framework density 19.008065999999999
#
# number of rings (size 3 to 8) (size 9 to 14) (size 15 to 20)
#    0.000    1.333    4.000    1.200    0.933    4.533 
#    3.600    0.333    0.000    0.000    0.000    0.000 
#    0.000    0.000    0.000    0.000    0.000    0.000 
#
# Total GULP energy -167078.776448 kJ/mol
# GULP energy per Si atom -5569.292548 kJ/mol
# Density = 1.896480 g / cm^3
# Si number density = 19.008066 Si / 1000 Ang^3
#
#
#
# Elastic Constant Matrix: (Units=GPa)
#
#
# Indices 1 2 3 4 5 6 
#
# 1 118.4114 77.6734 50.9006 0.0000 11.4897 0.0000
# 2 77.6734 133.0369 46.4247 0.0000 3.5784 0.0000
# 3 50.9006 46.4247 61.7546 0.0000 -5.2803 0.0000
# 4 0.0000 0.0000 0.0000 22.6867 0.0000 18.0798
# 5 11.4897 3.5784 -5.2803 0.0000 31.6826 0.0000
# 6 0.0000 0.0000 0.0000 18.0798 0.0000 25.6717
#
#
#
# Elastic Compliance Matrix: (Units=1/GPa)
#
#
# Indices 1 2 3 4 5 6 
#
# 1 0.018091 -0.006683 -0.010533 0.000000 -0.007561 0.000000
# 2 -0.006683 0.012852 -0.004129 0.000000 0.000284 0.000000
# 3 -0.010533 -0.004129 0.028755 0.000000 0.009079 0.000000
# 4 0.000000 0.000000 0.000000 0.100465 0.000000 -0.070755
# 5 -0.007561 0.000284 0.009079 0.000000 0.035786 0.000000
# 6 0.000000 0.000000 0.000000 -0.070755 0.000000 0.088784
#
#
# Mechanical properties :
#
#
# Convention : Reuss Voigt Hill
#
# Bulk Modulus (GPa) = 58.79870 73.68893 66.24382
# Shear Modulus (GPa) = 15.01087 25.22182 20.11634
#
# Velocity S-wave (km/s) = 2.81323 3.64662 3.25669
# Velocity P-wave (km/s) = 6.44616 7.52209 7.00481
#
# Compressibility (1/GPa) = 0.01700718
#
# Stress axis : x y z
#
# Youngs Moduli (GPa) = 55.27762 77.81077 34.77619
#
# Poissons Ratio (x) = 0.52001 0.36631
# Poissons Ratio (y) = 0.36942 0.14358
# Poissons Ratio (z) = 0.58226 0.32126
#
# Static dielectric constant tensor:
#      x y z
#    x 1.629250 0.000000 0.008910 
#    y 0.000000 1.644220 0.000000 
#    z 0.008910 0.000000 1.672390 
# 
# From -- ./inp_files/282230.got.cif
#   From: 2010.05.17/outbox.cif.g08.bks.cpg/sg12_142_cif.got.tgz:282230.got - 2010.06.03 13:09:07.
