data_PCOD9212327
_publ_section_title
;
Structure prediction by ZEFSAII (Michael W. Deem and Ramdas Pophale) SiO2 
 PCOD9212327
Probable space group: C 2/M
;
_chemical_formula_sum "Si O2"
_cell_formula_units_Z 40
_cell_length_a 13.424099
_cell_length_b 13.747985
_cell_length_c 17.440777
_cell_angle_alpha 90.000000
_cell_angle_beta 34.044502
_cell_angle_gamma 90.000000
_cell_volume 1801.985758
_symmetry_space_group_name_H-M "C 2/M"
_symmetry_group_IT_number 12
_symmetry_cell_setting 'monoclinic'
loop_
_space_group_symop_operation_xyz
x,y,z
-x,y,-z
-x,-y,-z
x,-y,z
1/2+x,1/2+y,z
1/2-x,1/2+y,-z
1/2-x,1/2-y,-z
1/2+x,1/2-y,z
loop_
_atom_site_type_symbol
_atom_site_label
_atom_site_fract_x
_atom_site_fract_y
_atom_site_fract_z
Si Si1 0.222055 0.386049 0.228421
Si Si2 0.185016 0.269609 0.955971
Si Si3 0.940124 0.885023 0.685713
Si Si4 0.180232 0.284772 0.742245
Si Si5 0.658980 0.115259 0.594998
O O1 0.262960 0.500000 0.202081
O O2 0.303285 0.328062 0.103485
O O3 0.287106 0.329446 0.262622
O O4 0.009267 0.372053 0.353215
O O5 0.320477 0.343396 0.830034
O O6 0.250000 0.250000 0.000000
O O7 0.985662 0.308716 0.095812
O O8 0.854038 0.838148 0.664536
O O9 0.147800 0.860459 0.561736
O O10 0.924217 0.000000 0.690969
O O11 0.136985 0.321823 0.685819
O O12 0.660492 0.000000 0.615117
#
# Coordination Sequence:
#
# PCOD9212327 Si02
#       5
#     8   8   8   8   8
#     4  10  22  41  66  91 126 169 211 256 310 375
#     4  11  23  40  60  94 126 165 212 255 314 370
#     4  10  22  39  63  94 126 159 204 260 313 370
#     4  11  22  38  65  94 125 160 211 260 311 370
#     4  10  21  41  67  95 125 164 207 256 318 373
#
# _framework density 22.197734000000001
#
# number of rings (size 3 to 8) (size 9 to 14) (size 15 to 20)
#    0.000    1.600    2.000    3.600    0.000    9.600 
#    3.600    0.000    0.000    9.600    0.000    0.000 
#    0.000    0.000    0.000    0.000    0.000    0.000 
#
# Total GULP energy -111865.144659 kJ/mol
# GULP energy per Si atom -5593.257233 kJ/mol
# Density = 2.214721 g / cm^3
# Si number density = 22.197734 Si / 1000 Ang^3
#
#
#
# Elastic Constant Matrix: (Units=GPa)
#
#
# Indices 1 2 3 4 5 6 
#
# 1 51.8826 13.7896 20.2342 -0.0007 -5.9539 0.0003
# 2 13.7896 111.5222 48.0212 -0.0010 5.3484 0.0005
# 3 20.2342 48.0212 127.1953 -0.0013 -24.8398 0.0009
# 4 -0.0007 -0.0010 -0.0013 21.0954 0.0008 -9.1025
# 5 -5.9539 5.3484 -24.8398 0.0008 26.4657 -0.0004
# 6 0.0003 0.0005 0.0009 -9.1025 -0.0004 30.3205
#
#
#
# Elastic Compliance Matrix: (Units=1/GPa)
#
#
# Indices 1 2 3 4 5 6 
#
# 1 0.020920 -0.001886 -0.001987 0.000000 0.003223 0.000000
# 2 -0.001886 0.012166 -0.005946 0.000000 -0.008464 0.000000
# 3 -0.001987 -0.005946 0.012942 0.000000 0.012902 0.000000
# 4 0.000000 0.000000 0.000000 0.054458 -0.000001 0.016349
# 5 0.003223 -0.008464 0.012902 -0.000001 0.052330 0.000000
# 6 0.000000 0.000000 0.000000 0.016349 0.000000 0.037889
#
#
# Mechanical properties :
#
#
# Convention : Reuss Voigt Hill
#
# Bulk Modulus (GPa) = 37.89064 50.52113 44.20589
# Shear Modulus (GPa) = 22.81646 29.48000 26.14823
#
# Velocity S-wave (km/s) = 3.20952 3.64821 3.43588
# Velocity P-wave (km/s) = 5.55350 6.36828 5.97479
#
# Compressibility (1/GPa) = 0.02639174
#
# Stress axis : x y z
#
# Youngs Moduli (GPa) = 47.80078 82.19420 77.26508
#
# Poissons Ratio (x) = 0.15501 0.15349
# Poissons Ratio (y) = 0.09015 0.45943
# Poissons Ratio (z) = 0.09496 0.48874
#
# Static dielectric constant tensor:
#      x y z
#    x 1.863280 0.000000 -0.052100 
#    y 0.000000 1.805020 0.000000 
#    z -0.052100 0.000000 1.843060 
# 
# From -- ./inp_files/270517.got.cif
#   From: 2010.05.17/outbox.cif.g08.bks.cpg/sg12_136_cif.got.tgz:270517.got - 2010.06.03 13:09:07.
