data_PCOD9212834
_publ_section_title
;
Structure prediction by ZEFSAII (Michael W. Deem and Ramdas Pophale) SiO2 
 PCOD9212834
Probable space group: C 2/M
;
_chemical_formula_sum "Si O2"
_cell_formula_units_Z 56
_cell_length_a 10.317387
_cell_length_b 29.073855
_cell_length_c 12.146208
_cell_angle_alpha 90.000000
_cell_angle_beta 132.243298
_cell_angle_gamma 90.000000
_cell_volume 2697.235766
_symmetry_space_group_name_H-M "C 2/M"
_symmetry_group_IT_number 12
_symmetry_cell_setting 'monoclinic'
loop_
_space_group_symop_operation_xyz
x,y,z
-x,y,-z
-x,-y,-z
x,-y,z
1/2+x,1/2+y,z
1/2-x,1/2+y,-z
1/2-x,1/2-y,-z
1/2+x,1/2-y,z
loop_
_atom_site_type_symbol
_atom_site_label
_atom_site_fract_x
_atom_site_fract_y
_atom_site_fract_z
Si Si1 0.296183 0.703608 0.886647
Si Si2 0.552252 0.944885 0.865831
Si Si3 0.706142 0.444665 0.797040
Si Si4 0.691775 0.812861 0.067924
Si Si5 0.293234 0.145065 0.369754
Si Si6 0.506122 0.362479 0.374883
Si Si7 0.157457 0.551355 0.678303
O O1 0.283926 0.758618 0.891008
O O2 0.228599 0.684119 0.733648
O O3 0.500000 0.691346 0.000000
O O4 0.207865 0.682435 0.945137
O O5 0.363062 0.930241 0.802956
O O6 0.582321 0.935889 0.755439
O O7 0.547885 0.000000 0.876115
O O8 0.711080 0.930777 0.036943
O O9 0.681328 0.500000 0.779584
O O10 0.534830 0.416673 0.665871
O O11 0.847071 0.838570 0.218819
O O12 0.500000 0.826998 0.000000
O O13 0.500000 0.140603 0.500000
O O14 0.227094 0.095055 0.288938
O O15 0.185355 0.153041 0.419174
O O16 0.500000 0.351572 0.500000
O O17 0.239160 0.500000 0.731000
O O18 0.000000 0.547704 0.500000
#
# Coordination Sequence:
#
# PCOD9212834 Si02
#       7
#     8   8   8   8   8   8   8
#     4  10  21  46  72  98 130 163 218 259 326 394
#     4   8  16  34  60  90 119 161 218 270 318 377
#     4   9  20  37  61  90 128 172 218 270 322 373
#     4  10  24  43  73 102 125 168 209 268 323 393
#     4  11  26  43  65  92 133 181 213 267 330 380
#     4  12  28  43  61  99 136 168 222 272 322 392
#     4   9  19  34  58  90 128 171 219 261 312 379
#
# _framework density 20.761996
#
# number of rings (size 3 to 8) (size 9 to 14) (size 15 to 20)
#    0.000    2.143    1.429    0.857   10.000    1.429 
#    0.000    1.429    0.000    3.000    0.000    0.000 
#    0.000    0.000    0.000    0.000    0.000    0.000 
#
# Total GULP energy -156268.252970 kJ/mol
# GULP energy per Si atom -5581.009035 kJ/mol
# Density = 2.071474 g / cm^3
# Si number density = 20.761996 Si / 1000 Ang^3
#
#
#
# Elastic Constant Matrix: (Units=GPa)
#
#
# Indices 1 2 3 4 5 6 
#
# 1 148.1711 28.7061 52.9820 0.0000 -24.5777 0.0000
# 2 28.7061 28.9995 11.8804 0.0000 -3.5725 0.0000
# 3 52.9820 11.8804 63.9902 0.0000 -21.7275 0.0000
# 4 0.0000 0.0000 0.0000 26.6978 0.0000 -2.0533
# 5 -24.5777 -3.5725 -21.7275 0.0000 40.4913 0.0000
# 6 0.0000 0.0000 0.0000 -2.0533 0.0000 15.4316
#
#
#
# Elastic Compliance Matrix: (Units=1/GPa)
#
#
# Indices 1 2 3 4 5 6 
#
# 1 0.011164 -0.007903 -0.006985 0.000000 0.002331 0.000000
# 2 -0.007903 0.042925 -0.002163 0.000000 -0.002170 0.000000
# 3 -0.006985 -0.002163 0.024832 0.000000 0.008894 0.000000
# 4 0.000000 0.000000 0.000000 0.037843 0.000000 0.005035
# 5 0.002331 -0.002170 0.008894 0.000000 0.030693 0.000000
# 6 0.000000 0.000000 0.000000 0.005035 0.000000 0.065472
#
#
# Mechanical properties :
#
#
# Convention : Reuss Voigt Hill
#
# Bulk Modulus (GPa) = 22.31146 47.58864 34.95005
# Shear Modulus (GPa) = 19.08606 26.36365 22.72485
#
# Velocity S-wave (km/s) = 3.03525 3.56730 3.31197
# Velocity P-wave (km/s) = 4.80138 6.31967 5.61211
#
# Compressibility (1/GPa) = 0.04482001
#
# Stress axis : x y z
#
# Youngs Moduli (GPa) = 89.57130 23.29655 40.26998
#
# Poissons Ratio (x) = 0.18410 0.28128
# Poissons Ratio (y) = 0.70784 0.08711
# Poissons Ratio (z) = 0.62565 0.05040
#
# Static dielectric constant tensor:
#      x y z
#    x 1.775660 0.000000 0.000020 
#    y 0.000000 1.804060 0.000000 
#    z 0.000020 0.000000 1.705020 
# 
# From -- ./inp_files/125843.got.cif
#   From: 2010.05.17/outbox.cif.g08.bks.cpg/sg12_63_cif.got.tgz:125843.got - 2010.06.03 13:09:07.
