data_PCOD9212802
_publ_section_title
;
Structure prediction by ZEFSAII (Michael W. Deem and Ramdas Pophale) SiO2 
 PCOD9212802
Probable space group: C 2/M
;
_chemical_formula_sum "Si O2"
_cell_formula_units_Z 56
_cell_length_a 25.749551
_cell_length_b 16.371437
_cell_length_c 9.301691
_cell_angle_alpha 90.000000
_cell_angle_beta 141.339577
_cell_angle_gamma 90.000000
_cell_volume 2449.583554
_symmetry_space_group_name_H-M "C 2/M"
_symmetry_group_IT_number 12
_symmetry_cell_setting 'monoclinic'
loop_
_space_group_symop_operation_xyz
x,y,z
-x,y,-z
-x,-y,-z
x,-y,z
1/2+x,1/2+y,z
1/2-x,1/2+y,-z
1/2-x,1/2-y,-z
1/2+x,1/2-y,z
loop_
_atom_site_type_symbol
_atom_site_label
_atom_site_fract_x
_atom_site_fract_y
_atom_site_fract_z
Si Si1 0.676127 0.214583 0.084360
Si Si2 0.080524 0.157647 0.080366
Si Si3 0.913497 0.595941 0.939895
Si Si4 0.890962 0.596903 0.591828
Si Si5 0.684598 0.590929 0.564570
Si Si6 0.471305 0.618392 0.596006
Si Si7 0.082487 0.706222 0.604242
O O1 0.638098 0.276482 0.120463
O O2 0.626721 0.130613 0.006208
O O3 0.766965 0.176667 0.301115
O O4 0.646609 0.239843 0.862394
O O5 0.135852 0.107054 0.310746
O O6 0.000000 0.190432 0.000000
O O7 0.039325 0.103662 0.865589
O O8 0.910318 0.500000 0.919337
O O9 0.860988 0.624943 0.685344
O O10 0.010912 0.613127 0.168616
O O11 0.876407 0.500000 0.538947
O O12 0.870817 0.648140 0.407532
O O13 0.725879 0.500000 0.645949
O O14 0.616249 0.585491 0.541888
O O15 0.500000 0.594116 0.500000
O O16 0.458207 0.716683 0.564056
O O17 0.000000 0.666493 0.500000
#
# Coordination Sequence:
#
# PCOD9212802 Si02
#       7
#     8   8   8   8   8   8   8
#     4  12  22  38  65  95 134 168 206 264 336 385
#     4  10  22  41  71  98 125 169 222 271 317 379
#     4   9  18  30  49  77 119 169 213 252 296 365
#     4   9  18  30  47  80 120 169 217 251 295 359
#     4  11  27  45  64  96 134 173 214 268 330 389
#     4  10  21  44  70  98 123 161 224 278 325 377
#     4  11  20  35  59  93 129 162 212 267 313 387
#
# _framework density 22.861028999999998
#
# number of rings (size 3 to 8) (size 9 to 14) (size 15 to 20)
#    0.000    1.714    4.286    1.714    6.000    4.857 
#    0.000    0.000    0.000    0.000    0.000    0.000 
#    0.000    0.000    0.000    0.000    0.000    0.000 
#
# Total GULP energy -156012.242153 kJ/mol
# GULP energy per Si atom -5571.865791 kJ/mol
# Density = 2.280900 g / cm^3
# Si number density = 22.861029 Si / 1000 Ang^3
#
#
#
# Elastic Constant Matrix: (Units=GPa)
#
#
# Indices 1 2 3 4 5 6 
#
# 1 67.7603 20.3697 38.9224 0.0000 -9.6077 0.0000
# 2 20.3697 70.3119 11.1052 0.0000 -7.3114 0.0000
# 3 38.9224 11.1052 60.3093 0.0000 -14.1927 0.0000
# 4 0.0000 0.0000 0.0000 1.0852 0.0000 6.0291
# 5 -9.6077 -7.3114 -14.1927 0.0000 34.3313 0.0000
# 6 0.0000 0.0000 0.0000 6.0291 0.0000 18.1226
#
#
#
# Elastic Compliance Matrix: (Units=1/GPa)
#
#
# Indices 1 2 3 4 5 6 
#
# 1 0.024950 -0.004851 -0.015297 0.000000 -0.000375 0.000000
# 2 -0.004851 0.015746 0.000777 0.000000 0.002317 0.000000
# 3 -0.015297 0.000777 0.028073 0.000000 0.007490 0.000000
# 4 0.000000 0.000000 0.000000 -1.086316 0.000000 0.361400
# 5 -0.000375 0.002317 0.007490 0.000000 0.032613 0.000000
# 6 0.000000 0.000000 0.000000 0.361400 0.000000 -0.065052
#
#
# Mechanical properties :
#
#
# Convention : Reuss Voigt Hill
#
# Bulk Modulus (GPa) = 33.30442 37.68625 35.49533
# Shear Modulus (GPa) = -4.99384 19.24009 7.12313
#
# Velocity S-wave (km/s) = -1.47959 2.90420 1.76709
# Velocity P-wave (km/s) = 3.41774 5.26940 4.44114
#
# Compressibility (1/GPa) = 0.03002605
#
# Stress axis : x y z
#
# Youngs Moduli (GPa) = 40.08031 63.50830 35.62103
#
# Poissons Ratio (x) = 0.30808 0.54490
# Poissons Ratio (y) = 0.19443 -0.02766
# Poissons Ratio (z) = 0.61311 -0.04932
#
# Static dielectric constant tensor:
#      x y z
#    x 2.099550 0.000000 0.137670 
#    y 0.000000 1.869460 0.000000 
#    z 0.137670 0.000000 2.052170 
# 
# From -- ./inp_files/106034.got.cif
#   From: 2010.05.17/outbox.cif.g08.bks.cpg/sg12_54_cif.got.tgz:106034.got - 2010.06.03 13:09:07.
