data_PCOD9212814
_publ_section_title
;
Structure prediction by ZEFSAII (Michael W. Deem and Ramdas Pophale) SiO2 
 PCOD9212814
Probable space group: C 2/M
;
_chemical_formula_sum "Si O2"
_cell_formula_units_Z 56
_cell_length_a 14.854240
_cell_length_b 27.210400
_cell_length_c 10.446904
_cell_angle_alpha 90.000000
_cell_angle_beta 31.553658
_cell_angle_gamma 90.000000
_cell_volume 2209.637741
_symmetry_space_group_name_H-M "C 2/M"
_symmetry_group_IT_number 12
_symmetry_cell_setting 'monoclinic'
loop_
_space_group_symop_operation_xyz
x,y,z
-x,y,-z
-x,-y,-z
x,-y,z
1/2+x,1/2+y,z
1/2-x,1/2+y,-z
1/2-x,1/2-y,-z
1/2+x,1/2-y,z
loop_
_atom_site_type_symbol
_atom_site_label
_atom_site_fract_x
_atom_site_fract_y
_atom_site_fract_z
Si Si1 0.792819 0.178737 0.559512
Si Si2 0.300827 0.058667 0.727854
Si Si3 0.950953 0.901302 0.750615
Si Si4 0.812977 0.698230 0.870302
Si Si5 0.718134 0.792223 0.369883
Si Si6 0.340720 0.114887 0.051903
Si Si7 0.695516 0.057272 0.574830
O O1 0.767113 0.177439 0.437186
O O2 0.744723 0.234477 0.654184
O O3 0.683222 0.145646 0.789685
O O4 0.983092 0.155730 0.347397
O O5 0.500000 0.075928 0.500000
O O6 0.260040 0.065363 0.628383
O O7 0.298056 0.000000 0.760355
O O8 0.168045 0.084854 0.983042
O O9 0.133569 0.927675 0.555338
O O10 0.830809 0.916119 0.776097
O O11 0.721699 0.690286 0.842710
O O12 0.823078 0.654773 0.960239
O O13 0.014840 0.706336 0.607366
O O14 0.750000 0.750000 0.000000
O O15 0.515347 0.084434 0.824509
O O16 0.662414 0.000000 0.634444
#
# Coordination Sequence:
#
# PCOD9212814 Si02
#       7
#     8   8   8   8   8   8   8
#     4  11  25  49  71 111 159 218 270 325 406 487
#     4  10  21  44  75 108 154 206 264 338 417 487
#     4  12  25  42  76 112 154 205 266 337 406 490
#     4  11  22  42  72 111 155 207 271 334 405 475
#     4  10  24  45  73 107 155 213 268 330 400 486
#     4  12  26  47  79 115 165 217 271 338 404 490
#     4  11  26  48  77 117 161 213 275 346 417 488
#
# _framework density 25.343523000000001
#
# number of rings (size 3 to 8) (size 9 to 14) (size 15 to 20)
#    0.000    1.000    2.857    3.000    2.000    8.571 
#    0.000    3.571    0.000    4.286    0.000    1.000 
#    0.000    0.000    0.000    0.000    0.000    0.000 
#
# Total GULP energy -156569.599748 kJ/mol
# GULP energy per Si atom -5591.771420 kJ/mol
# Density = 2.528584 g / cm^3
# Si number density = 25.343523 Si / 1000 Ang^3
#
#
#
# Elastic Constant Matrix: (Units=GPa)
#
#
# Indices 1 2 3 4 5 6 
#
# 1 184.8424 66.0667 76.8006 -0.0003 4.6444 0.0001
# 2 66.0667 135.9894 71.9934 0.0000 9.7786 0.0000
# 3 76.8006 71.9934 176.7017 -0.0012 -1.9334 0.0006
# 4 -0.0003 0.0000 -0.0012 36.3248 0.0007 4.8216
# 5 4.6444 9.7786 -1.9334 0.0007 50.6112 -0.0004
# 6 0.0001 0.0000 0.0006 4.8216 -0.0004 32.4827
#
#
#
# Elastic Compliance Matrix: (Units=1/GPa)
#
#
# Indices 1 2 3 4 5 6 
#
# 1 0.007141 -0.002299 -0.002170 0.000000 -0.000294 0.000000
# 2 -0.002299 0.010314 -0.003224 0.000000 -0.001905 0.000000
# 3 -0.002170 -0.003224 0.007928 0.000000 0.001125 0.000000
# 4 0.000000 0.000000 0.000000 0.028083 0.000000 -0.004168
# 5 -0.000294 -0.001905 0.001125 0.000000 0.020196 0.000000
# 6 0.000000 0.000000 0.000000 -0.004168 0.000000 0.031404
#
#
# Mechanical properties :
#
#
# Convention : Reuss Voigt Hill
#
# Bulk Modulus (GPa) = 100.02978 103.02832 101.52905
# Shear Modulus (GPa) = 40.39245 42.72858 41.56051
#
# Velocity S-wave (km/s) = 3.99657 4.11052 4.05395
# Velocity P-wave (km/s) = 7.80077 7.95421 7.87786
#
# Compressibility (1/GPa) = 0.00999702
#
# Stress axis : x y z
#
# Youngs Moduli (GPa) = 140.03953 96.95363 126.13104
#
# Poissons Ratio (x) = 0.22291 0.27372
# Poissons Ratio (y) = 0.32197 0.40663
# Poissons Ratio (z) = 0.30390 0.31256
#
# Static dielectric constant tensor:
#      x y z
#    x 2.046500 0.000000 0.009530 
#    y 0.000000 1.840580 0.000000 
#    z 0.009530 0.000000 2.109960 
# 
# From -- ./inp_files/150385.got.cif
#   From: 2010.05.17/outbox.cif.g08.bks.cpg/sg12_76_cif.got.tgz:150385.got - 2010.06.03 13:09:07.
