data_PCOD9212152
_publ_section_title
;
Structure prediction by ZEFSAII (Michael W. Deem and Ramdas Pophale) SiO2 
 PCOD9212152
Probable space group: C 2/M
;
_chemical_formula_sum "Si O2"
_cell_formula_units_Z 40
_cell_length_a 15.979460
_cell_length_b 12.539803
_cell_length_c 9.234815
_cell_angle_alpha 90.000000
_cell_angle_beta 107.569999
_cell_angle_gamma 90.000000
_cell_volume 1764.139261
_symmetry_space_group_name_H-M "C 2/M"
_symmetry_group_IT_number 12
_symmetry_cell_setting 'monoclinic'
loop_
_space_group_symop_operation_xyz
x,y,z
-x,y,-z
-x,-y,-z
x,-y,z
1/2+x,1/2+y,z
1/2-x,1/2+y,-z
1/2-x,1/2-y,-z
1/2+x,1/2-y,z
loop_
_atom_site_type_symbol
_atom_site_label
_atom_site_fract_x
_atom_site_fract_y
_atom_site_fract_z
Si Si1 0.150738 0.206326 0.965103
Si Si2 0.088062 0.000000 0.448834
Si Si3 0.901131 0.000000 0.890482
Si Si4 0.677721 0.314418 0.662391
Si Si5 0.407117 0.124440 0.529597
Si Si6 0.879022 0.375235 0.836397
O O1 0.125090 0.178872 0.787401
O O2 0.250000 0.250000 0.000000
O O3 0.098414 0.300693 0.016724
O O4 0.145519 0.104152 0.066292
O O5 0.087989 0.000000 0.275961
O O6 0.139047 0.895635 0.527460
O O7 0.000000 0.000000 0.500000
O O8 0.000000 0.000000 0.000000
O O9 0.664327 0.197920 0.587016
O O10 0.776435 0.350803 0.747544
O O11 0.500000 0.138346 0.500000
O O12 0.422090 0.152065 0.705562
O O13 0.381029 0.000000 0.510243
O O14 0.890902 0.500000 0.875612
#
# Coordination Sequence:
#
# PCOD9212152 Si02
#       6
#     8   4   4   8   8   8
#     4  10  24  41  66  96 135 175 219 278 336 405
#     4  12  24  40  70 100 135 176 219 286 340 397
#     4  12  26  46  70 104 139 180 229 280 347 411
#     4  11  21  40  63  95 127 166 222 272 327 393
#     4  10  22  39  59  87 126 169 216 271 326 390
#     4  10  21  41  64  92 133 171 218 274 325 399
#
# _framework density 22.673946999999998
#
# number of rings (size 3 to 8) (size 9 to 14) (size 15 to 20)
#    0.000    1.400    1.000    4.200    4.200    4.000 
#    5.400    0.000    0.000    4.200    0.000    0.000 
#    0.000    0.000    0.000    0.000    0.000    0.000 
#
# Total GULP energy -111874.545078 kJ/mol
# GULP energy per Si atom -5593.727254 kJ/mol
# Density = 2.262234 g / cm^3
# Si number density = 22.673947 Si / 1000 Ang^3
#
#
#
# Elastic Constant Matrix: (Units=GPa)
#
#
# Indices 1 2 3 4 5 6 
#
# 1 78.2684 26.7515 38.5032 0.0000 -24.2846 0.0000
# 2 26.7515 101.4743 71.0006 0.0000 -25.1723 0.0000
# 3 38.5032 71.0006 200.2412 0.0000 -43.7299 0.0000
# 4 0.0000 0.0000 0.0000 36.4156 0.0000 -36.9519
# 5 -24.2846 -25.1723 -43.7299 0.0000 45.8956 0.0000
# 6 0.0000 0.0000 0.0000 -36.9519 0.0000 -10.5200
#
#
#
# Elastic Compliance Matrix: (Units=1/GPa)
#
#
# Indices 1 2 3 4 5 6 
#
# 1 0.015908 -0.001915 -0.000973 0.000000 0.006439 0.000000
# 2 -0.001915 0.013794 -0.003904 0.000000 0.002832 0.000000
# 3 -0.000973 -0.003904 0.007558 0.000000 0.004545 0.000000
# 4 0.000000 0.000000 0.000000 0.006016 0.000000 -0.021133
# 5 0.006439 0.002832 0.004545 0.000000 0.031080 0.000000
# 6 0.000000 0.000000 0.000000 -0.021133 0.000000 -0.020826
#
#
# Mechanical properties :
#
#
# Convention : Reuss Voigt Hill
#
# Bulk Modulus (GPa) = 42.24040 72.49941 57.36991
# Shear Modulus (GPa) = 66.66037 30.60681 48.63359
#
# Velocity S-wave (km/s) = 5.42802 3.67804 4.63634
# Velocity P-wave (km/s) = 7.61278 7.07683 7.34969
#
# Compressibility (1/GPa) = 0.02367402
#
# Stress axis : x y z
#
# Youngs Moduli (GPa) = 62.86138 72.49570 132.30898
#
# Poissons Ratio (x) = 0.13885 0.12880
# Poissons Ratio (y) = 0.12040 0.51656
# Poissons Ratio (z) = 0.06119 0.28304
#
# Static dielectric constant tensor:
#      x y z
#    x 1.841510 0.000000 -0.006900 
#    y 0.000000 1.834590 0.000000 
#    z -0.006900 0.000000 1.850160 
# 
# From -- ./inp_files/71450.got.cif
#   From: 2010.05.17/outbox.cif.g08.bks.cpg/sg12_36_cif.got.tgz:71450.got - 2010.06.03 13:09:07.
