data_PCOD9212063
_publ_section_title
;
Structure prediction by ZEFSAII (Michael W. Deem and Ramdas Pophale) SiO2 
 PCOD9212063
Probable space group: C 2/M
;
_chemical_formula_sum "Si O2"
_cell_formula_units_Z 48
_cell_length_a 20.937044
_cell_length_b 14.819166
_cell_length_c 11.584778
_cell_angle_alpha 90.000000
_cell_angle_beta 40.196909
_cell_angle_gamma 90.000000
_cell_volume 2319.887345
_symmetry_space_group_name_H-M "C 2/M"
_symmetry_group_IT_number 12
_symmetry_cell_setting 'monoclinic'
loop_
_space_group_symop_operation_xyz
x,y,z
-x,y,-z
-x,-y,-z
x,-y,z
1/2+x,1/2+y,z
1/2-x,1/2+y,-z
1/2-x,1/2-y,-z
1/2+x,1/2-y,z
loop_
_atom_site_type_symbol
_atom_site_label
_atom_site_fract_x
_atom_site_fract_y
_atom_site_fract_z
Si Si1 0.209653 0.659887 0.994587
Si Si2 0.108932 0.602677 0.361195
Si Si3 0.791194 0.105836 0.258104
Si Si4 0.228364 0.106554 0.441040
Si Si5 0.896302 0.718068 0.082666
Si Si6 0.099704 0.893596 0.416624
O O1 0.126557 0.678562 0.012446
O O2 0.305197 0.620239 0.796963
O O3 0.250000 0.750000 0.000000
O O4 0.161997 0.603836 0.163979
O O5 0.092979 0.500000 0.423956
O O6 0.189405 0.640729 0.339478
O O7 0.000000 0.644633 0.500000
O O8 0.784848 0.111972 0.404531
O O9 0.875152 0.174979 0.102982
O O10 0.806184 0.000000 0.205514
O O11 0.315439 0.170235 0.276321
O O12 0.132720 0.136452 0.498676
O O13 0.248989 0.000000 0.385232
O O14 0.000000 0.700966 0.000000
O O15 0.000000 0.853635 0.500000
O O16 0.082725 0.000000 0.451836
#
# Coordination Sequence:
#
# PCOD9212063 Si02
#       6
#     8   8   8   8   8   8
#     4  11  22  39  57  87 124 154 197 250 296 358
#     4  10  22  40  64  89 117 159 205 252 308 361
#     4  10  21  41  62  86 121 158 202 251 299 360
#     4   9  20  39  60  87 121 155 200 250 298 360
#     4  11  24  39  59  90 123 159 201 246 304 361
#     4   9  19  37  61  86 114 155 199 243 297 353
#
# _framework density 20.690660000000001
#
# number of rings (size 3 to 8) (size 9 to 14) (size 15 to 20)
#    0.000    2.000    1.667    1.000    2.333    3.333 
#    0.000    0.000    0.000    0.000    0.000    0.000 
#    0.000    0.000    0.000    0.000    0.000    0.000 
#
# Total GULP energy -133889.849351 kJ/mol
# GULP energy per Si atom -5578.743723 kJ/mol
# Density = 2.064357 g / cm^3
# Si number density = 20.690660 Si / 1000 Ang^3
#
#
#
# Elastic Constant Matrix: (Units=GPa)
#
#
# Indices 1 2 3 4 5 6 
#
# 1 205.2972 12.9512 57.6822 0.0000 -22.3876 0.0000
# 2 12.9512 55.0557 -7.0721 0.0000 -5.8948 0.0000
# 3 57.6822 -7.0721 43.2764 0.0000 -4.1028 0.0000
# 4 0.0000 0.0000 0.0000 38.8360 0.0000 22.8758
# 5 -22.3876 -5.8948 -4.1028 0.0000 35.3334 0.0000
# 6 0.0000 0.0000 0.0000 22.8758 0.0000 51.3853
#
#
#
# Elastic Compliance Matrix: (Units=1/GPa)
#
#
# Indices 1 2 3 4 5 6 
#
# 1 0.008832 -0.003220 -0.011950 0.000000 0.003671 0.000000
# 2 -0.003220 0.020161 0.007797 0.000000 0.002229 0.000000
# 3 -0.011950 0.007797 0.040157 0.000000 -0.001608 0.000000
# 4 0.000000 0.000000 0.000000 0.034901 0.000000 -0.015537
# 5 0.003671 0.002229 -0.001608 0.000000 0.030813 0.000000
# 6 0.000000 0.000000 0.000000 -0.015537 0.000000 0.026378
#
#
# Mechanical properties :
#
#
# Convention : Reuss Voigt Hill
#
# Bulk Modulus (GPa) = 18.38053 47.86132 33.12093
# Shear Modulus (GPa) = 25.75691 41.11549 33.43620
#
# Velocity S-wave (km/s) = 3.53208 4.46258 4.02432
# Velocity P-wave (km/s) = 5.05340 7.05230 6.13481
#
# Compressibility (1/GPa) = 0.05440540
#
# Stress axis : x y z
#
# Youngs Moduli (GPa) = 113.22348 49.60059 24.90215
#
# Poissons Ratio (x) = 0.15969 0.29759
# Poissons Ratio (y) = 0.36454 -0.19417
# Poissons Ratio (z) = 1.35304 -0.38675
#
# Static dielectric constant tensor:
#      x y z
#    x 1.776300 0.000000 -0.025620 
#    y 0.000000 1.781150 0.000000 
#    z -0.025620 0.000000 1.723270 
# 
# From -- ./inp_files/143508.got.cif
#   From: 2010.05.17/outbox.cif.g08.bks.cpg/sg12_72_cif.got.tgz:143508.got - 2010.06.03 13:09:07.
