data_PCOD9212588
_publ_section_title
;
Structure prediction by ZEFSAII (Michael W. Deem and Ramdas Pophale) SiO2 
 PCOD9212588
Probable space group: C 2/M
;
_chemical_formula_sum "Si O2"
_cell_formula_units_Z 48
_cell_length_a 11.549404
_cell_length_b 21.867340
_cell_length_c 9.596098
_cell_angle_alpha 90.000000
_cell_angle_beta 73.972228
_cell_angle_gamma 90.000000
_cell_volume 2329.332171
_symmetry_space_group_name_H-M "C 2/M"
_symmetry_group_IT_number 12
_symmetry_cell_setting 'monoclinic'
loop_
_space_group_symop_operation_xyz
x,y,z
-x,y,-z
-x,-y,-z
x,-y,z
1/2+x,1/2+y,z
1/2-x,1/2+y,-z
1/2-x,1/2-y,-z
1/2+x,1/2-y,z
loop_
_atom_site_type_symbol
_atom_site_label
_atom_site_fract_x
_atom_site_fract_y
_atom_site_fract_z
Si Si1 0.114280 0.071568 0.358856
Si Si2 0.948089 0.569929 0.873311
Si Si3 0.974715 0.259568 0.662837
Si Si4 0.292058 0.862735 0.715320
Si Si5 0.640635 0.879017 0.612315
Si Si6 0.989190 0.857480 0.168799
O O1 0.225814 0.113072 0.371408
O O2 0.000000 0.078616 0.500000
O O3 0.069877 0.092997 0.222235
O O4 0.149697 0.000000 0.349111
O O5 0.914547 0.500000 0.910611
O O6 0.837781 0.604890 0.839825
O O7 0.054575 0.575592 0.725062
O O8 0.000000 0.596702 0.000000
O O9 0.847183 0.294650 0.702428
O O10 0.000000 0.233423 0.500000
O O11 0.075947 0.312707 0.651726
O O12 0.977073 0.208184 0.777867
O O13 0.350982 0.890824 0.555779
O O14 0.150591 0.866684 0.747646
O O15 0.000000 0.859327 0.000000
#
# Coordination Sequence:
#
# PCOD9212588 Si02
#       6
#     8   8   8   8   8   8
#     4  11  24  43  67  95 130 173 220 264 314 387
#     4  10  22  39  63  93 126 165 208 264 325 374
#     4   9  22  41  68  93 124 164 213 271 320 377
#     4  10  23  42  63  94 125 166 215 263 317 376
#     4  10  21  42  68  95 124 166 216 266 317 376
#     4  12  27  42  62  96 132 175 212 262 328 385
#
# _framework density 20.606764999999999
#
# number of rings (size 3 to 8) (size 9 to 14) (size 15 to 20)
#    0.000    1.667    1.667    2.500    4.667    7.667 
#    0.000    0.000    0.000    0.000    0.000    0.000 
#    0.000    0.000    0.000    0.000    0.000    0.000 
#
# Total GULP energy -134089.114619 kJ/mol
# GULP energy per Si atom -5587.046442 kJ/mol
# Density = 2.055986 g / cm^3
# Si number density = 20.606765 Si / 1000 Ang^3
#
#
#
# Elastic Constant Matrix: (Units=GPa)
#
#
# Indices 1 2 3 4 5 6 
#
# 1 82.8047 -5.3699 3.4326 0.0000 10.6770 0.0000
# 2 -5.3699 34.2296 13.3998 0.0000 8.1685 0.0000
# 3 3.4326 13.3998 87.4454 0.0000 29.4259 0.0000
# 4 0.0000 0.0000 0.0000 -28.0014 0.0000 -42.8691
# 5 10.6770 8.1685 29.4259 0.0000 37.8485 0.0000
# 6 0.0000 0.0000 0.0000 -42.8691 0.0000 -48.0375
#
#
#
# Elastic Compliance Matrix: (Units=1/GPa)
#
#
# Indices 1 2 3 4 5 6 
#
# 1 0.012851 0.002896 0.000653 0.000000 -0.004758 0.000000
# 2 0.002896 0.032201 -0.003297 0.000000 -0.005203 0.000000
# 3 0.000653 -0.003297 0.015897 0.000000 -0.011832 0.000000
# 4 0.000000 0.000000 0.000000 0.097511 0.000000 -0.087019
# 5 -0.004758 -0.005203 -0.011832 0.000000 0.038085 0.000000
# 6 0.000000 0.000000 0.000000 -0.087019 0.000000 0.056840
#
#
# Mechanical properties :
#
#
# Convention : Reuss Voigt Hill
#
# Bulk Modulus (GPa) = 16.27296 25.26721 20.77009
# Shear Modulus (GPa) = 18.29057 5.22972 11.76014
#
# Velocity S-wave (km/s) = 2.98249 1.59480 2.39151
# Velocity P-wave (km/s) = 4.44684 3.95972 4.21033
#
# Compressibility (1/GPa) = 0.06145162
#
# Stress axis : x y z
#
# Youngs Moduli (GPa) = 77.81613 31.05477 62.90586
#
# Poissons Ratio (x) = -0.08993 -0.04106
# Poissons Ratio (y) = -0.22534 0.20741
# Poissons Ratio (z) = -0.05080 0.10239
#
# Static dielectric constant tensor:
#      x y z
#    x 1.742050 0.000000 -0.003550 
#    y 0.000000 1.739250 0.000000 
#    z -0.003550 0.000000 1.726020 
# 
# From -- ./inp_files/51328.got.cif
#   From: 2010.05.17/outbox.cif.g08.bks.cpg/sg12_26_cif.got.tgz:51328.got - 2010.06.03 13:09:07.
