data_PCOD9212258
_publ_section_title
;
Structure prediction by ZEFSAII (Michael W. Deem and Ramdas Pophale) SiO2 
 PCOD9212258
Probable space group: C 2/M
;
_chemical_formula_sum "Si O2"
_cell_formula_units_Z 64
_cell_length_a 17.659551
_cell_length_b 14.604868
_cell_length_c 15.099569
_cell_angle_alpha 90.000000
_cell_angle_beta 129.924283
_cell_angle_gamma 90.000000
_cell_volume 2986.597832
_symmetry_space_group_name_H-M "C 2/M"
_symmetry_group_IT_number 12
_symmetry_cell_setting 'monoclinic'
loop_
_space_group_symop_operation_xyz
x,y,z
-x,y,-z
-x,-y,-z
x,-y,z
1/2+x,1/2+y,z
1/2-x,1/2+y,-z
1/2-x,1/2-y,-z
1/2+x,1/2-y,z
loop_
_atom_site_type_symbol
_atom_site_label
_atom_site_fract_x
_atom_site_fract_y
_atom_site_fract_z
Si Si1 0.743338 0.250174 0.344790
Si Si2 0.065460 0.804732 0.958765
Si Si3 0.277199 0.606284 0.810871
Si Si4 0.300610 0.603966 0.246267
Si Si5 0.913577 0.600206 0.009118
Si Si6 0.392972 0.221432 0.610092
Si Si7 0.041213 0.394176 0.626408
Si Si8 0.491330 0.605965 0.265559
O O1 0.695740 0.331940 0.253139
O O2 0.797539 0.180871 0.319403
O O3 0.659147 0.198659 0.336860
O O4 0.816053 0.291775 0.472660
O O5 0.072027 0.698499 0.934248
O O6 0.026980 0.864692 0.849209
O O7 0.171354 0.845185 0.067630
O O8 0.000000 0.810399 0.000000
O O9 0.306970 0.500000 0.827376
O O10 0.158581 0.611133 0.722389
O O11 0.312619 0.500000 0.290429
O O12 0.390081 0.620362 0.245211
O O13 0.194040 0.606938 0.117981
O O14 0.916991 0.500000 0.058503
O O15 0.000000 0.597766 0.000000
O O16 0.488686 0.163136 0.662166
O O17 0.424765 0.327256 0.634678
O O18 0.011311 0.500000 0.610950
O O19 0.000000 0.361160 0.500000
O O20 0.518066 0.500000 0.292049
#
# Coordination Sequence:
#
# PCOD9212258 Si02
#       8
#     8   8   8   8   8   8   8   8
#     4  11  23  42  62  96 127 165 220 264 327 389
#     4  11  23  41  68  97 131 174 219 269 327 387
#     4  11  22  39  68  96 127 172 216 267 328 386
#     4  10  22  42  65  89 126 167 209 266 319 382
#     4   9  19  37  62  92 126 165 205 255 318 379
#     4  11  25  40  66  92 129 172 211 272 325 382
#     4  10  21  41  66  94 127 163 209 267 327 382
#     4  11  26  44  63  95 132 172 221 266 319 384
#
# _framework density 21.429065000000001
#
# number of rings (size 3 to 8) (size 9 to 14) (size 15 to 20)
#    0.000    1.500    2.500    1.875    1.750    4.000 
#    0.000    4.375    0.000    0.000    0.000    0.000 
#    0.000    0.000    0.000    0.000    0.000    0.000 
#
# Total GULP energy -178844.302331 kJ/mol
# GULP energy per Si atom -5588.884448 kJ/mol
# Density = 2.138029 g / cm^3
# Si number density = 21.429065 Si / 1000 Ang^3
#
#
#
# Elastic Constant Matrix: (Units=GPa)
#
#
# Indices 1 2 3 4 5 6 
#
# 1 68.7450 32.9387 7.7803 0.0000 -15.4141 0.0000
# 2 32.9387 92.3441 11.2767 0.0000 -19.9793 0.0000
# 3 7.7803 11.2767 58.4762 0.0000 3.7667 0.0000
# 4 0.0000 0.0000 0.0000 27.1407 0.0000 9.9668
# 5 -15.4141 -19.9793 3.7667 0.0000 22.8195 0.0000
# 6 0.0000 0.0000 0.0000 9.9668 0.0000 -1.2582
#
#
#
# Elastic Compliance Matrix: (Units=1/GPa)
#
#
# Indices 1 2 3 4 5 6 
#
# 1 0.019046 -0.004506 -0.002264 0.000000 0.009293 0.000000
# 2 -0.004506 0.015115 -0.003004 0.000000 0.010686 0.000000
# 3 -0.002264 -0.003004 0.018445 0.000000 -0.007204 0.000000
# 4 0.000000 0.000000 0.000000 0.009426 0.000000 0.074666
# 5 0.009293 0.010686 -0.007204 0.000000 0.060644 0.000000
# 6 0.000000 0.000000 0.000000 0.074666 0.000000 -0.203322
#
#
# Mechanical properties :
#
#
# Convention : Reuss Voigt Hill
#
# Bulk Modulus (GPa) = 30.24905 35.95078 33.09991
# Shear Modulus (GPa) = -99.84158 20.91170 -39.46494
#
# Velocity S-wave (km/s) = -6.83321 3.12726 -4.29611
# Velocity P-wave (km/s) = 6.93618 5.46377 3.02141
#
# Compressibility (1/GPa) = 0.03305889
#
# Stress axis : x y z
#
# Youngs Moduli (GPa) = 52.50552 66.15847 54.21412
#
# Poissons Ratio (x) = 0.29814 0.12272
# Poissons Ratio (y) = 0.23661 0.16284
# Poissons Ratio (z) = 0.11885 0.19871
#
# Static dielectric constant tensor:
#      x y z
#    x 1.791270 0.000000 0.008210 
#    y 0.000000 1.777750 0.000000 
#    z 0.008210 0.000000 1.745970 
# 
# From -- ./inp_files/225753.got.cif
#   From: 2010.05.17/outbox.cif.g08.bks.cpg/sg12_113_cif.got.tgz:225753.got - 2010.06.03 13:09:07.
