data_PCOD9212088
_publ_section_title
;
Structure prediction by ZEFSAII (Michael W. Deem and Ramdas Pophale) SiO2 
 PCOD9212088
Probable space group: C 2/M
;
_chemical_formula_sum "Si O2"
_cell_formula_units_Z 56
_cell_length_a 11.837024
_cell_length_b 26.215302
_cell_length_c 14.572494
_cell_angle_alpha 90.000000
_cell_angle_beta 42.731043
_cell_angle_gamma 90.000000
_cell_volume 3068.443231
_symmetry_space_group_name_H-M "C 2/M"
_symmetry_group_IT_number 12
_symmetry_cell_setting 'monoclinic'
loop_
_space_group_symop_operation_xyz
x,y,z
-x,y,-z
-x,-y,-z
x,-y,z
1/2+x,1/2+y,z
1/2-x,1/2+y,-z
1/2-x,1/2-y,-z
1/2+x,1/2-y,z
loop_
_atom_site_type_symbol
_atom_site_label
_atom_site_fract_x
_atom_site_fract_y
_atom_site_fract_z
Si Si1 0.438325 0.891428 0.265185
Si Si2 0.071078 0.500000 0.817089
Si Si3 0.639351 0.666990 0.340202
Si Si4 0.993169 0.898655 0.756992
Si Si5 0.778653 0.000000 0.875648
Si Si6 0.636574 0.938499 0.498805
Si Si7 0.192184 0.737839 0.895324
Si Si8 0.719502 0.664609 0.987730
O O1 0.406876 0.948229 0.249036
O O2 0.297170 0.857844 0.298775
O O3 0.420692 0.900992 0.384320
O O4 0.618763 0.870388 0.126772
O O5 0.202173 0.500000 0.820393
O O6 0.882326 0.500000 0.964747
O O7 0.500000 0.674883 0.500000
O O8 0.565603 0.631715 0.300850
O O9 0.703216 0.718604 0.253714
O O10 0.184128 0.916107 0.638039
O O11 0.885412 0.949839 0.825279
O O12 0.938142 0.867084 0.880565
O O13 0.500000 0.936131 0.500000
O O14 0.652975 0.000000 0.512867
O O15 0.250160 0.703507 0.946119
O O16 0.201809 0.797561 0.912328
O O17 0.000000 0.724224 0.000000
#
# Coordination Sequence:
#
# PCOD9212088 Si02
#       8
#     8   4   8   8   4   8   8   8
#     4  12  21  39  63  95 130 164 209 254 308 378
#     4  11  22  31  59 102 136 162 197 259 314 373
#     4  11  22  37  64  99 126 159 198 261 325 374
#     4  11  21  37  62  91 132 160 207 254 305 378
#     4  11  20  31  57 100 134 158 199 255 320 365
#     4  11  25  41  58  86 131 179 211 244 293 369
#     4  10  21  41  63  87 122 159 206 261 312 369
#     4  10  23  38  62  93 119 162 205 257 316 362
#
# _framework density 18.250295999999999
#
# number of rings (size 3 to 8) (size 9 to 14) (size 15 to 20)
#    0.000    1.143    7.143    0.000    0.000    1.143 
#    0.000    5.000    0.000    2.571    0.000    0.000 
#    0.000    0.000    0.000    0.000    0.000    0.000 
#
# Total GULP energy -156072.207390 kJ/mol
# GULP energy per Si atom -5574.007407 kJ/mol
# Density = 1.820876 g / cm^3
# Si number density = 18.250296 Si / 1000 Ang^3
#
#
#
# Elastic Constant Matrix: (Units=GPa)
#
#
# Indices 1 2 3 4 5 6 
#
# 1 63.2350 25.3555 31.9245 0.0000 3.9044 0.0000
# 2 25.3555 86.3095 32.0326 0.0000 21.1096 0.0000
# 3 31.9245 32.0326 90.5943 0.0000 15.9723 0.0000
# 4 0.0000 0.0000 0.0000 15.1854 0.0000 -16.1102
# 5 3.9044 21.1096 15.9723 0.0000 18.0079 0.0000
# 6 0.0000 0.0000 0.0000 -16.1102 0.0000 -31.4111
#
#
#
# Elastic Compliance Matrix: (Units=1/GPa)
#
#
# Indices 1 2 3 4 5 6 
#
# 1 0.021024 -0.005615 -0.006852 0.000000 0.008100 0.000000
# 2 -0.005615 0.018378 -0.001109 0.000000 -0.019342 0.000000
# 3 -0.006852 -0.001109 0.015829 0.000000 -0.011254 0.000000
# 4 0.000000 0.000000 0.000000 0.042647 0.000000 -0.021873
# 5 0.008100 -0.019342 -0.011254 0.000000 0.086430 0.000000
# 6 0.000000 0.000000 0.000000 -0.021873 0.000000 -0.020618
#
#
# Mechanical properties :
#
#
# Convention : Reuss Voigt Hill
#
# Bulk Modulus (GPa) = 35.61278 46.52934 41.07106
# Shear Modulus (GPa) = 24.97461 10.41153 17.69307
#
# Velocity S-wave (km/s) = 3.70327 2.39108 3.11701
# Velocity P-wave (km/s) = 6.15154 5.75964 5.95881
#
# Compressibility (1/GPa) = 0.02807981
#
# Stress axis : x y z
#
# Youngs Moduli (GPa) = 47.56406 54.41238 63.17502
#
# Poissons Ratio (x) = 0.30551 0.43285
# Poissons Ratio (y) = 0.26706 0.07009
# Poissons Ratio (z) = 0.32589 0.06037
#
# Static dielectric constant tensor:
#      x y z
#    x 1.641700 0.000000 0.030500 
#    y 0.000000 1.600860 0.000000 
#    z 0.030500 0.000000 1.624270 
# 
# From -- ./inp_files/80040.got.cif
#   From: 2010.05.17/outbox.cif.g08.bks.cpg/sg12_41_cif.got.tgz:80040.got - 2010.06.03 13:09:07.
