data_PCOD9212570
_publ_section_title
;
Structure prediction by ZEFSAII (Michael W. Deem and Ramdas Pophale) SiO2 
 PCOD9212570
Probable space group: C 2/M
;
_chemical_formula_sum "Si O2"
_cell_formula_units_Z 44
_cell_length_a 27.505540
_cell_length_b 12.840366
_cell_length_c 5.386709
_cell_angle_alpha 90.000000
_cell_angle_beta 100.967936
_cell_angle_gamma 90.000000
_cell_volume 1867.733213
_symmetry_space_group_name_H-M "C 2/M"
_symmetry_group_IT_number 12
_symmetry_cell_setting 'monoclinic'
loop_
_space_group_symop_operation_xyz
x,y,z
-x,y,-z
-x,-y,-z
x,-y,z
1/2+x,1/2+y,z
1/2-x,1/2+y,-z
1/2-x,1/2-y,-z
1/2+x,1/2-y,z
loop_
_atom_site_type_symbol
_atom_site_label
_atom_site_fract_x
_atom_site_fract_y
_atom_site_fract_z
Si Si1 0.887381 0.159149 0.173737
Si Si2 0.500000 0.205779 0.000000
Si Si3 0.447113 0.385643 0.721895
Si Si4 0.602182 0.886692 0.957997
Si Si5 0.693404 0.112459 0.431365
Si Si6 0.716434 0.687636 0.775065
O O1 0.915392 0.118111 0.441528
O O2 0.890075 0.284712 0.196600
O O3 0.829506 0.132236 0.136792
O O4 0.912457 0.128738 0.935085
O O5 0.485554 0.289819 0.772334
O O6 0.547878 0.134774 0.015385
O O7 0.470756 0.500000 0.753075
O O8 0.602576 0.000000 0.836086
O O9 0.646116 0.884668 0.202970
O O10 0.695031 0.221311 0.577439
O O11 0.745313 0.115801 0.333656
O O12 0.691746 0.000000 0.566351
O O13 0.750000 0.750000 0.000000
#
# Coordination Sequence:
#
# PCOD9212570 Si02
#       6
#     8   4   8   8   8   8
#     4  11  24  44  69 100 137 176 219 277 334 398
#     4  10  22  42  72 100 132 176 224 278 338 398
#     4  11  25  45  69 100 136 176 222 278 336 400
#     4  10  21  42  67  98 133 173 223 275 335 399
#     4  10  23  41  64  94 132 177 221 271 334 398
#     4  11  22  40  65  93 134 173 219 276 329 389
#
# _framework density 23.557970000000001
#
# number of rings (size 3 to 8) (size 9 to 14) (size 15 to 20)
#    0.000    1.455    1.818    3.273    2.545    5.818 
#    0.000   10.000    0.000    0.000    0.000    0.000 
#    0.000    0.000    0.000    0.000    0.000    0.000 
#
# Total GULP energy -122940.013057 kJ/mol
# GULP energy per Si atom -5588.182412 kJ/mol
# Density = 2.350435 g / cm^3
# Si number density = 23.557970 Si / 1000 Ang^3
#
#
#
# Elastic Constant Matrix: (Units=GPa)
#
#
# Indices 1 2 3 4 5 6 
#
# 1 147.6893 23.7737 32.9643 0.0000 1.3913 0.0000
# 2 23.7737 157.5664 20.3766 0.0000 2.2723 0.0000
# 3 32.9643 20.3766 100.5700 0.0000 4.1295 0.0000
# 4 0.0000 0.0000 0.0000 554.7582 0.0000 149.0851
# 5 1.3913 2.2723 4.1295 0.0000 37.6965 0.0000
# 6 0.0000 0.0000 0.0000 149.0851 0.0000 35.6345
#
#
#
# Elastic Compliance Matrix: (Units=1/GPa)
#
#
# Indices 1 2 3 4 5 6 
#
# 1 0.007409 -0.000826 -0.002262 0.000000 0.000024 0.000000
# 2 -0.000826 0.006612 -0.001059 0.000000 -0.000252 0.000000
# 3 -0.002262 -0.001059 0.010942 0.000000 -0.001051 0.000000
# 4 0.000000 0.000000 0.000000 -0.014498 0.000000 0.060657
# 5 0.000024 -0.000252 -0.001051 0.000000 0.026657 0.000000
# 6 0.000000 0.000000 0.000000 0.060657 0.000000 -0.225711
#
#
# Mechanical properties :
#
#
# Convention : Reuss Voigt Hill
#
# Bulk Modulus (GPa) = 59.98788 62.22828 61.10808
# Shear Modulus (GPa) = -28.61393 147.53190 59.45898
#
# Velocity S-wave (km/s) = -3.48892 7.92218 5.02934
# Velocity P-wave (km/s) = 3.04781 10.49541 7.72796
#
# Compressibility (1/GPa) = 0.01667003
#
# Stress axis : x y z
#
# Youngs Moduli (GPa) = 134.97945 151.24842 91.38742
#
# Poissons Ratio (x) = 0.12487 0.20672
# Poissons Ratio (y) = 0.11144 0.09674
# Poissons Ratio (z) = 0.30533 0.16011
#
# Static dielectric constant tensor:
#      x y z
#    x 1.983180 0.000000 -0.018780 
#    y 0.000000 1.846820 0.000000 
#    z -0.018780 0.000000 1.953720 
# 
# From -- ./inp_files/31347.got.cif
#   From: 2010.05.17/outbox.cif.g08.bks.cpg/sg12_16_cif.got.tgz:31347.got - 2010.06.03 13:09:07.
