data_PCOD9212484
_publ_section_title
;
Structure prediction by ZEFSAII (Michael W. Deem and Ramdas Pophale) SiO2 
 PCOD9212484
Probable space group: C 2/M
;
_chemical_formula_sum "Si O2"
_cell_formula_units_Z 60
_cell_length_a 20.551850
_cell_length_b 23.080897
_cell_length_c 11.947616
_cell_angle_alpha 90.000000
_cell_angle_beta 147.970041
_cell_angle_gamma 90.000000
_cell_volume 3005.784006
_symmetry_space_group_name_H-M "C 2/M"
_symmetry_group_IT_number 12
_symmetry_cell_setting 'monoclinic'
loop_
_space_group_symop_operation_xyz
x,y,z
-x,y,-z
-x,-y,-z
x,-y,z
1/2+x,1/2+y,z
1/2-x,1/2+y,-z
1/2-x,1/2-y,-z
1/2+x,1/2-y,z
loop_
_atom_site_type_symbol
_atom_site_label
_atom_site_fract_x
_atom_site_fract_y
_atom_site_fract_z
Si Si1 0.045085 0.716542 0.449050
Si Si2 0.040364 0.347682 0.882794
Si Si3 0.500000 0.405823 0.500000
Si Si4 0.387433 0.357248 0.756208
Si Si5 0.447565 0.671766 0.210243
Si Si6 0.329301 0.932463 0.646827
Si Si7 0.680729 0.266692 0.164040
Si Si8 0.735139 0.062393 0.185721
O O1 0.177115 0.747385 0.642622
O O2 0.000000 0.691759 0.500000
O O3 0.036646 0.671346 0.337328
O O4 0.952885 0.766990 0.280085
O O5 0.948313 0.391311 0.811457
O O6 0.092309 0.288953 0.017760
O O7 0.160195 0.384530 0.024799
O O8 0.548770 0.371927 0.681531
O O9 0.622114 0.436606 0.634989
O O10 0.438997 0.341778 0.708270
O O11 0.278849 0.403286 0.584134
O O12 0.343660 0.298105 0.753345
O O13 0.500000 0.378117 0.000000
O O14 0.343067 0.683528 0.965050
O O15 0.283951 0.931728 0.708976
O O16 0.353521 0.000000 0.653055
O O17 0.682927 0.000000 0.074791
#
# Coordination Sequence:
#
# PCOD9212484 Si02
#       8
#     8   8   4   8   8   8   8   8
#     4  11  23  38  60  92 131 167 207 257 323 395
#     4  11  24  41  67  94 126 173 212 268 324 384
#     4  12  21  40  66  92 130 166 213 262 322 382
#     4  10  21  42  62  96 131 164 218 265 321 380
#     4  10  22  36  60  91 128 167 203 261 319 384
#     4  11  23  43  68  94 129 170 218 269 322 374
#     4  10  23  40  63  96 132 165 208 264 328 386
#     4  11  25  42  64  93 125 167 219 269 319 379
#
# _framework density 19.961514000000001
#
# number of rings (size 3 to 8) (size 9 to 14) (size 15 to 20)
#    0.000    1.333    3.333    1.800    1.867    8.267 
#    0.000    0.000    0.000    4.800    0.000    0.000 
#    0.000    0.000    0.000    0.000    0.000    0.000 
#
# Total GULP energy -167252.004542 kJ/mol
# GULP energy per Si atom -5575.066818 kJ/mol
# Density = 1.991608 g / cm^3
# Si number density = 19.961514 Si / 1000 Ang^3
#
#
#
# Elastic Constant Matrix: (Units=GPa)
#
#
# Indices 1 2 3 4 5 6 
#
# 1 112.0583 45.9394 31.0626 0.0000 -2.8154 0.0000
# 2 45.9394 95.3736 26.4254 0.0000 -8.7186 0.0000
# 3 31.0626 26.4254 63.0371 0.0000 4.4555 0.0000
# 4 0.0000 0.0000 0.0000 8.8265 0.0000 6.6227
# 5 -2.8154 -8.7186 4.4555 0.0000 28.3280 0.0000
# 6 0.0000 0.0000 0.0000 6.6227 0.0000 -73.2748
#
#
#
# Elastic Compliance Matrix: (Units=1/GPa)
#
#
# Indices 1 2 3 4 5 6 
#
# 1 0.011923 -0.004607 -0.003972 0.000000 0.000392 0.000000
# 2 -0.004607 0.014234 -0.004019 0.000000 0.004555 0.000000
# 3 -0.003972 -0.004019 0.019841 0.000000 -0.004752 0.000000
# 4 0.000000 0.000000 0.000000 0.106100 0.000000 0.009590
# 5 0.000392 0.004555 -0.004752 0.000000 0.037489 0.000000
# 6 0.000000 0.000000 0.000000 0.009590 0.000000 -0.012781
#
#
# Mechanical properties :
#
#
# Convention : Reuss Voigt Hill
#
# Bulk Modulus (GPa) = 48.06838 53.03599 50.55219
# Shear Modulus (GPa) = 23.93057 3.91202 13.92130
#
# Velocity S-wave (km/s) = 3.46618 1.40144 2.64371
# Velocity P-wave (km/s) = 6.33656 5.40791 5.89056
#
# Compressibility (1/GPa) = 0.02080369
#
# Stress axis : x y z
#
# Youngs Moduli (GPa) = 83.86828 70.25413 50.39943
#
# Poissons Ratio (x) = 0.32366 0.20018
# Poissons Ratio (y) = 0.38638 0.20254
# Poissons Ratio (z) = 0.33312 0.28234
#
# Static dielectric constant tensor:
#      x y z
#    x 1.746160 0.000000 -0.013640 
#    y 0.000000 1.709780 0.000000 
#    z -0.013640 0.000000 1.765350 
# 
# From -- ./inp_files/170400.got.cif
#   From: 2010.05.17/outbox.cif.g08.bks.cpg/sg12_86_cif.got.tgz:170400.got - 2010.06.03 13:09:07.
