data_PCOD9212361
_publ_section_title
;
Structure prediction by ZEFSAII (Michael W. Deem and Ramdas Pophale) SiO2 
 PCOD9212361
Probable space group: C 2/M
;
_chemical_formula_sum "Si O2"
_cell_formula_units_Z 64
_cell_length_a 10.032403
_cell_length_b 25.963995
_cell_length_c 14.648346
_cell_angle_alpha 90.000000
_cell_angle_beta 132.392054
_cell_angle_gamma 90.000000
_cell_volume 2818.021493
_symmetry_space_group_name_H-M "C 2/M"
_symmetry_group_IT_number 12
_symmetry_cell_setting 'monoclinic'
loop_
_space_group_symop_operation_xyz
x,y,z
-x,y,-z
-x,-y,-z
x,-y,z
1/2+x,1/2+y,z
1/2-x,1/2+y,-z
1/2-x,1/2-y,-z
1/2+x,1/2-y,z
loop_
_atom_site_type_symbol
_atom_site_label
_atom_site_fract_x
_atom_site_fract_y
_atom_site_fract_z
Si Si1 0.699168 0.598908 0.186846
Si Si2 0.131569 0.159150 0.319612
Si Si3 0.313296 0.441128 0.014977
Si Si4 0.752216 0.104133 0.178345
Si Si5 0.961678 0.263684 0.272990
Si Si6 0.572322 0.127852 0.408463
Si Si7 0.287701 0.555526 0.381657
Si Si8 0.583603 0.787095 0.133853
O O1 0.635958 0.650488 0.211868
O O2 0.531860 0.560998 0.129367
O O3 0.896950 0.591089 0.319908
O O4 0.720901 0.595871 0.087788
O O5 0.106387 0.217195 0.341707
O O6 0.310279 0.135287 0.446604
O O7 0.955083 0.127980 0.270119
O O8 0.260665 0.500000 0.970325
O O9 0.223785 0.420294 0.065677
O O10 0.747295 0.063005 0.256496
O O11 0.624975 0.152129 0.143301
O O12 0.015167 0.315285 0.349611
O O13 0.778260 0.240407 0.228773
O O14 0.958611 0.276593 0.163324
O O15 0.705840 0.103416 0.396450
O O16 0.500000 0.555706 0.500000
O O17 0.215479 0.500000 0.379709
O O18 0.500000 0.769319 0.000000
#
# Coordination Sequence:
#
# PCOD9212361 Si02
#       8
#     8   8   8   8   8   8   8   8
#     4  10  22  39  63  94 131 164 217 276 340 384
#     4  10  22  42  64  96 130 173 219 273 330 408
#     4  10  22  43  70  93 128 181 229 276 335 406
#     4  10  21  41  68  94 130 173 221 272 333 400
#     4  11  24  43  66  97 132 185 230 272 341 408
#     4  12  23  41  67  96 133 173 222 285 328 405
#     4  11  23  41  65  94 131 173 216 275 342 399
#     4  11  24  42  64  99 141 178 225 277 339 407
#
# _framework density 22.710968999999999
#
# number of rings (size 3 to 8) (size 9 to 14) (size 15 to 20)
#    0.000    1.375    2.500    3.000    1.750    1.000 
#   13.500    1.875    0.000    6.750    0.000    0.000 
#    0.000    0.000    0.000    0.000    0.000    0.000 
#
# Total GULP energy -178716.327730 kJ/mol
# GULP energy per Si atom -5584.885242 kJ/mol
# Density = 2.265928 g / cm^3
# Si number density = 22.710969 Si / 1000 Ang^3
#
#
#
# Elastic Constant Matrix: (Units=GPa)
#
#
# Indices 1 2 3 4 5 6 
#
# 1 45.7030 22.3419 13.2801 0.0000 -11.2970 0.0000
# 2 22.3419 96.1839 28.4031 0.0000 -4.1707 0.0000
# 3 13.2801 28.4031 86.6076 0.0000 -13.6268 0.0000
# 4 0.0000 0.0000 0.0000 56.3505 0.0000 21.4065
# 5 -11.2970 -4.1707 -13.6268 0.0000 43.4015 0.0000
# 6 0.0000 0.0000 0.0000 21.4065 0.0000 30.7164
#
#
#
# Elastic Compliance Matrix: (Units=1/GPa)
#
#
# Indices 1 2 3 4 5 6 
#
# 1 0.026413 -0.005489 -0.001316 0.000000 0.005934 0.000000
# 2 -0.005489 0.012653 -0.003515 0.000000 -0.001317 0.000000
# 3 -0.001316 -0.003515 0.013459 0.000000 0.003545 0.000000
# 4 0.000000 0.000000 0.000000 0.024136 0.000000 -0.016820
# 5 0.005934 -0.001317 0.003545 0.000000 0.025572 0.000000
# 6 0.000000 0.000000 0.000000 -0.016820 0.000000 0.044278
#
#
# Mechanical properties :
#
#
# Convention : Reuss Voigt Hill
#
# Bulk Modulus (GPa) = 31.36390 39.61606 35.48998
# Shear Modulus (GPa) = 28.12474 37.05829 32.59152
#
# Velocity S-wave (km/s) = 3.52288 4.04386 3.79232
# Velocity P-wave (km/s) = 5.51249 6.26779 5.90223
#
# Compressibility (1/GPa) = 0.03188379
#
# Stress axis : x y z
#
# Youngs Moduli (GPa) = 37.85983 79.03456 74.30159
#
# Poissons Ratio (x) = 0.43385 0.09779
# Poissons Ratio (y) = 0.20783 0.26116
# Poissons Ratio (z) = 0.04983 0.27780
#
# Static dielectric constant tensor:
#      x y z
#    x 1.876610 0.000000 0.011090 
#    y 0.000000 1.818550 0.000000 
#    z 0.011090 0.000000 1.850830 
# 
# From -- ./inp_files/209368.got.cif
#   From: 2010.05.17/outbox.cif.g08.bks.cpg/sg12_105_cif.got.tgz:209368.got - 2010.06.03 13:09:07.
