data_PCOD9212561
_publ_section_title
;
Structure prediction by ZEFSAII (Michael W. Deem and Ramdas Pophale) SiO2 
 PCOD9212561
Probable space group: C 2/M
;
_chemical_formula_sum "Si O2"
_cell_formula_units_Z 48
_cell_length_a 21.277503
_cell_length_b 26.703728
_cell_length_c 10.628823
_cell_angle_alpha 90.000000
_cell_angle_beta 25.990733
_cell_angle_gamma 90.000000
_cell_volume 2646.522827
_symmetry_space_group_name_H-M "C 2/M"
_symmetry_group_IT_number 12
_symmetry_cell_setting 'monoclinic'
loop_
_space_group_symop_operation_xyz
x,y,z
-x,y,-z
-x,-y,-z
x,-y,z
1/2+x,1/2+y,z
1/2-x,1/2+y,-z
1/2-x,1/2-y,-z
1/2+x,1/2-y,z
loop_
_atom_site_type_symbol
_atom_site_label
_atom_site_fract_x
_atom_site_fract_y
_atom_site_fract_z
Si Si1 0.203632 0.678944 0.829942
Si Si2 0.238265 0.781257 0.892866
Si Si3 0.638120 0.943164 0.341378
Si Si4 0.654390 0.373332 0.181627
Si Si5 0.392708 0.848521 0.436987
Si Si6 0.834142 0.197065 0.339143
O O1 0.192651 0.738414 0.878911
O O2 0.261027 0.649958 0.850697
O O3 0.309171 0.673134 0.522162
O O4 0.041373 0.661301 0.099071
O O5 0.377086 0.809553 0.584200
O O6 0.250000 0.750000 0.000000
O O7 0.137731 0.827505 0.111748
O O8 0.500000 0.943563 0.500000
O O9 0.611209 0.904382 0.502550
O O10 0.669737 0.000000 0.323133
O O11 0.760616 0.917443 0.037579
O O12 0.500000 0.390562 0.500000
O O13 0.255636 0.835614 0.599237
O O14 0.750000 0.250000 0.500000
O O15 0.000000 0.202040 0.000000
#
# Coordination Sequence:
#
# PCOD9212561 Si02
#       6
#     8   8   8   8   8   8
#     4  11  22  37  56  83 125 163 200 240 292 362
#     4   9  21  30  53  82 124 154 192 233 295 355
#     4  10  21  42  67  91 119 152 199 260 314 362
#     4  10  22  34  57  92 121 154 195 246 307 365
#     4  11  22  39  60  87 118 161 208 243 299 359
#     4  12  26  39  57  85 124 171 207 244 290 353
#
# _framework density 18.137004999999998
#
# number of rings (size 3 to 8) (size 9 to 14) (size 15 to 20)
#    0.000    1.500    3.333    1.500    9.333    0.333 
#    0.000    0.000    0.000    3.500    0.000    0.000 
#    0.000    0.000    0.000    0.000    0.000    0.000 
#
# Total GULP energy -133889.985263 kJ/mol
# GULP energy per Si atom -5578.749386 kJ/mol
# Density = 1.809572 g / cm^3
# Si number density = 18.137005 Si / 1000 Ang^3
#
#
#
# Elastic Constant Matrix: (Units=GPa)
#
#
# Indices 1 2 3 4 5 6 
#
# 1 75.2937 34.6649 29.0098 -0.0004 6.1220 0.0016
# 2 34.6649 139.5218 47.1674 -0.0002 1.6270 0.0003
# 3 29.0098 47.1674 152.0206 -0.0074 4.2272 0.0101
# 4 -0.0004 -0.0002 -0.0074 8.6585 0.0024 -4.2442
# 5 6.1220 1.6270 4.2272 0.0024 31.7967 -0.0041
# 6 0.0016 0.0003 0.0101 -4.2442 -0.0041 15.0659
#
#
#
# Elastic Compliance Matrix: (Units=1/GPa)
#
#
# Indices 1 2 3 4 5 6 
#
# 1 0.015720 -0.003224 -0.001927 -0.000001 -0.002605 -0.000001
# 2 -0.003224 0.008669 -0.002087 -0.000001 0.000455 0.000001
# 3 -0.001927 -0.002087 0.007608 0.000005 -0.000534 -0.000004
# 4 -0.000001 -0.000001 0.000005 0.133996 -0.000006 0.037748
# 5 -0.002605 0.000455 -0.000534 -0.000006 0.031999 0.000008
# 6 -0.000001 0.000001 -0.000004 0.037748 0.000008 0.077009
#
#
# Mechanical properties :
#
#
# Convention : Reuss Voigt Hill
#
# Bulk Modulus (GPa) = 57.07527 65.39116 61.23321
# Shear Modulus (GPa) = 16.93094 28.17049 22.55071
#
# Velocity S-wave (km/s) = 3.05864 3.94535 3.52995
# Velocity P-wave (km/s) = 6.63408 7.54232 7.10273
#
# Compressibility (1/GPa) = 0.01752072
#
# Stress axis : x y z
#
# Youngs Moduli (GPa) = 63.61371 115.35932 131.43743
#
# Poissons Ratio (x) = 0.37190 0.25329
# Poissons Ratio (y) = 0.20508 0.27431
# Poissons Ratio (z) = 0.12259 0.24076
#
# Static dielectric constant tensor:
#      x y z
#    x 1.693270 0.000000 0.014900 
#    y 0.000000 1.598540 0.000000 
#    z 0.014900 0.000000 1.650100 
# 
# From -- ./inp_files/123488.got.cif
#   From: 2010.05.17/outbox.cif.g08.bks.cpg/sg12_62_cif.got.tgz:123488.got - 2010.06.03 13:09:07.
