data_PCOD9212493
_publ_section_title
;
Structure prediction by ZEFSAII (Michael W. Deem and Ramdas Pophale) SiO2 
 PCOD9212493
Probable space group: C 2/M
;
_chemical_formula_sum "Si O2"
_cell_formula_units_Z 48
_cell_length_a 17.399349
_cell_length_b 15.377780
_cell_length_c 17.483988
_cell_angle_alpha 90.000000
_cell_angle_beta 146.309109
_cell_angle_gamma 90.000000
_cell_volume 2594.984838
_symmetry_space_group_name_H-M "C 2/M"
_symmetry_group_IT_number 12
_symmetry_cell_setting 'monoclinic'
loop_
_space_group_symop_operation_xyz
x,y,z
-x,y,-z
-x,-y,-z
x,-y,z
1/2+x,1/2+y,z
1/2-x,1/2+y,-z
1/2-x,1/2-y,-z
1/2+x,1/2-y,z
loop_
_atom_site_type_symbol
_atom_site_label
_atom_site_fract_x
_atom_site_fract_y
_atom_site_fract_z
Si Si1 0.590786 0.665071 0.921379
Si Si2 0.153282 0.600684 0.162784
Si Si3 0.802389 0.807891 0.153003
Si Si4 0.443257 0.818403 0.612261
Si Si5 0.860021 0.000000 0.933417
Si Si6 0.956747 0.500000 0.375583
Si Si7 0.825057 0.731968 0.678864
O O1 0.640271 0.647414 0.876020
O O2 0.429877 0.689998 0.787032
O O3 0.670859 0.750541 0.017778
O O4 0.630756 0.585575 0.007171
O O5 0.168151 0.500000 0.196906
O O6 0.258758 0.627410 0.183228
O O7 0.175760 0.663682 0.253079
O O8 0.000000 0.612694 0.000000
O O9 0.919671 0.740686 0.277086
O O10 0.482408 0.914148 0.615687
O O11 0.323337 0.773122 0.463031
O O12 0.387081 0.813090 0.653323
O O13 0.710962 0.000000 0.768812
O O14 0.000000 0.000000 0.000000
O O15 0.000000 0.500000 0.500000
#
# Coordination Sequence:
#
# PCOD9212493 Si02
#       7
#     8   8   8   8   4   4   8
#     4  10  22  40  65  89 128 166 206 258 310 375
#     4  11  24  38  66  98 123 159 210 268 313 368
#     4  10  21  42  63  94 122 166 209 255 319 368
#     4  10  24  44  67  91 128 174 208 257 316 383
#     4  12  28  40  64  99 131 168 214 267 318 369
#     4  12  28  42  64  97 129 170 218 261 316 385
#     4  10  23  44  67  94 125 168 212 257 324 374
#
# _framework density 18.497218
#
# number of rings (size 3 to 8) (size 9 to 14) (size 15 to 20)
#    0.000    1.500    3.333    0.000    9.333    0.000 
#    0.000    1.667    0.000    0.000    0.000    0.000 
#    0.000    0.000    0.000    0.000    0.000    0.000 
#
# Total GULP energy -134077.693021 kJ/mol
# GULP energy per Si atom -5586.570543 kJ/mol
# Density = 1.845512 g / cm^3
# Si number density = 18.497218 Si / 1000 Ang^3
#
#
#
# Elastic Constant Matrix: (Units=GPa)
#
#
# Indices 1 2 3 4 5 6 
#
# 1 78.1541 58.1215 46.2217 0.0000 -2.4186 0.0000
# 2 58.1215 81.6099 42.3627 0.0000 -9.6181 0.0000
# 3 46.2217 42.3627 125.8157 -0.0002 -4.6040 -0.0001
# 4 0.0000 0.0000 -0.0002 20.4221 -0.0001 -4.3614
# 5 -2.4186 -9.6181 -4.6040 -0.0001 25.1427 0.0000
# 6 0.0000 0.0000 -0.0001 -4.3614 0.0000 10.8385
#
#
#
# Elastic Compliance Matrix: (Units=1/GPa)
#
#
# Indices 1 2 3 4 5 6 
#
# 1 0.029866 -0.019525 -0.004597 0.000000 -0.005438 0.000000
# 2 -0.019525 0.028211 -0.002013 0.000000 0.008545 0.000000
# 3 -0.004597 -0.002013 0.010340 0.000000 0.000681 0.000000
# 4 0.000000 0.000000 0.000000 0.053570 0.000000 0.021557
# 5 -0.005438 0.008545 0.000681 0.000000 0.042643 0.000000
# 6 0.000000 0.000000 0.000000 0.021557 0.000000 0.100938
#
#
# Mechanical properties :
#
#
# Convention : Reuss Voigt Hill
#
# Bulk Modulus (GPa) = 61.93191 64.33240 63.13216
# Shear Modulus (GPa) = 15.46936 20.53890 18.00413
#
# Velocity S-wave (km/s) = 2.89504 3.33585 3.12323
# Velocity P-wave (km/s) = 6.68800 7.04927 6.87101
#
# Compressibility (1/GPa) = 0.01614677
#
# Stress axis : x y z
#
# Youngs Moduli (GPa) = 33.48313 35.44753 96.71494
#
# Poissons Ratio (x) = 0.69210 0.44459
# Poissons Ratio (y) = 0.65375 0.19469
# Poissons Ratio (z) = 0.15392 0.07136
#
# Static dielectric constant tensor:
#      x y z
#    x 1.639510 0.000000 0.004610 
#    y 0.000000 1.596250 0.000000 
#    z 0.004610 0.000000 1.635810 
# 
# From -- ./inp_files/278274.got.cif
#   From: 2010.05.17/outbox.cif.g08.bks.cpg/sg12_140_cif.got.tgz:278274.got - 2010.06.03 13:09:07.
