data_PCOD9212646
_publ_section_title
;
Structure prediction by ZEFSAII (Michael W. Deem and Ramdas Pophale) SiO2 
 PCOD9212646
Probable space group: C 2/M
;
_chemical_formula_sum "Si O2"
_cell_formula_units_Z 34
_cell_length_a 14.351363
_cell_length_b 21.995761
_cell_length_c 4.994336
_cell_angle_alpha 90.000000
_cell_angle_beta 67.584153
_cell_angle_gamma 90.000000
_cell_volume 1457.434043
_symmetry_space_group_name_H-M "C 2/M"
_symmetry_group_IT_number 12
_symmetry_cell_setting 'monoclinic'
loop_
_space_group_symop_operation_xyz
x,y,z
-x,y,-z
-x,-y,-z
x,-y,z
1/2+x,1/2+y,z
1/2-x,1/2+y,-z
1/2-x,1/2-y,-z
1/2+x,1/2-y,z
loop_
_atom_site_type_symbol
_atom_site_label
_atom_site_fract_x
_atom_site_fract_y
_atom_site_fract_z
Si Si1 0.199677 0.571080 0.674454
Si Si2 0.886105 0.635444 0.737846
Si Si3 0.427277 0.736430 0.833195
Si Si4 0.500000 0.500000 0.000000
Si Si5 0.602127 0.398353 0.211068
O O1 0.185928 0.500000 0.634919
O O2 0.182542 0.608697 0.422693
O O3 0.307305 0.582717 0.695349
O O4 0.123490 0.594892 0.986945
O O5 0.859792 0.704823 0.848492
O O6 0.000000 0.635441 0.500000
O O7 0.500000 0.729840 0.500000
O O8 0.381478 0.669572 0.917766
O O9 0.500000 0.751359 0.000000
O O10 0.580779 0.447039 0.005289
O O11 0.500000 0.401494 0.500000
#
# Coordination Sequence:
#
# PCOD9212646 Si02
#       5
#     8   8   8   2   8
#     4  12  27  42  69 103 134 178 230 275 336 406
#     4  11  25  46  69  95 136 178 229 286 332 387
#     4  10  21  42  70  98 130 178 223 272 335 398
#     4  12  22  44  72  98 142 190 200 276 342 404
#     4  11  26  42  71 101 142 176 219 271 339 410
#
# _framework density 23.328673999999999
#
# number of rings (size 3 to 8) (size 9 to 14) (size 15 to 20)
#    0.000    0.941    2.353    4.588    3.294    4.706 
#    0.000    0.000    0.000    0.000    0.000    0.000 
#    0.000    0.000    0.000    0.000    0.000    0.000 
#
# Total GULP energy -94940.462084 kJ/mol
# GULP energy per Si atom -5584.733064 kJ/mol
# Density = 2.327558 g / cm^3
# Si number density = 23.328674 Si / 1000 Ang^3
#
#
#
# Elastic Constant Matrix: (Units=GPa)
#
#
# Indices 1 2 3 4 5 6 
#
# 1 98.9982 82.2700 35.3274 0.0000 22.0645 0.0000
# 2 82.2700 259.5687 51.7663 0.0000 37.7874 0.0000
# 3 35.3274 51.7663 95.1445 0.0000 27.8111 0.0000
# 4 0.0000 0.0000 0.0000 15.5981 0.0000 18.6312
# 5 22.0645 37.7874 27.8111 0.0000 54.7849 0.0000
# 6 0.0000 0.0000 0.0000 18.6312 0.0000 42.0059
#
#
#
# Elastic Compliance Matrix: (Units=1/GPa)
#
#
# Indices 1 2 3 4 5 6 
#
# 1 0.014705 -0.003826 -0.002840 0.000000 -0.001842 0.000000
# 2 -0.003826 0.005533 -0.001086 0.000000 -0.001724 0.000000
# 3 -0.002840 -0.001086 0.013624 0.000000 -0.005023 0.000000
# 4 0.000000 0.000000 0.000000 0.136342 0.000000 -0.060472
# 5 -0.001842 -0.001724 -0.005023 0.000000 0.022734 0.000000
# 6 0.000000 0.000000 0.000000 -0.060472 0.000000 0.050628
#
#
# Mechanical properties :
#
#
# Convention : Reuss Voigt Hill
#
# Bulk Modulus (GPa) = 54.47232 88.04877 71.26055
# Shear Modulus (GPa) = 18.85458 41.43430 30.14444
#
# Velocity S-wave (km/s) = 2.84600 4.21896 3.59857
# Velocity P-wave (km/s) = 5.84810 7.84586 6.91946
#
# Compressibility (1/GPa) = 0.01835795
#
# Stress axis : x y z
#
# Youngs Moduli (GPa) = 68.00550 180.74204 73.40082
#
# Poissons Ratio (x) = 0.69155 0.20845
# Poissons Ratio (y) = 0.26020 0.07969
# Poissons Ratio (z) = 0.19312 0.19622
#
# Static dielectric constant tensor:
#      x y z
#    x 1.857460 0.000000 -0.056220 
#    y 0.000000 1.891590 0.000000 
#    z -0.056220 0.000000 1.890160 
# 
# From -- ./inp_files/10751.got.cif
#   From: 2010.05.17/outbox.cif.g08.bks.cpg/sg12_6_cif.got.tgz:10751.got - 2010.06.03 13:09:07.
