data_PCOD9212096
_publ_section_title
;
Structure prediction by ZEFSAII (Michael W. Deem and Ramdas Pophale) SiO2 
 PCOD9212096
Probable space group: C 2/M
;
_chemical_formula_sum "Si O2"
_cell_formula_units_Z 44
_cell_length_a 16.404565
_cell_length_b 15.306203
_cell_length_c 17.015041
_cell_angle_alpha 90.000000
_cell_angle_beta 148.741733
_cell_angle_gamma 90.000000
_cell_volume 2216.899557
_symmetry_space_group_name_H-M "C 2/M"
_symmetry_group_IT_number 12
_symmetry_cell_setting 'monoclinic'
loop_
_space_group_symop_operation_xyz
x,y,z
-x,y,-z
-x,-y,-z
x,-y,z
1/2+x,1/2+y,z
1/2-x,1/2+y,-z
1/2-x,1/2-y,-z
1/2+x,1/2-y,z
loop_
_atom_site_type_symbol
_atom_site_label
_atom_site_fract_x
_atom_site_fract_y
_atom_site_fract_z
Si Si1 0.135196 0.205417 0.735521
Si Si2 0.821284 0.396731 0.751386
Si Si3 0.678805 0.405682 0.300216
Si Si4 0.181700 0.154859 0.467370
Si Si5 0.454584 0.259296 0.051684
Si Si6 0.500000 0.162231 0.500000
O O1 0.218924 0.144010 0.738886
O O2 0.006660 0.156480 0.680634
O O3 0.037633 0.276165 0.605126
O O4 0.267427 0.252163 0.897221
O O5 0.843926 0.500000 0.780407
O O6 0.741590 0.376732 0.601587
O O7 0.978080 0.338120 0.879768
O O8 0.612201 0.500000 0.223355
O O9 0.726067 0.404038 0.430384
O O10 0.553555 0.327973 0.183888
O O11 0.838989 0.388220 0.384394
O O12 0.250000 0.250000 0.500000
O O13 0.500000 0.284195 0.000000
#
# Coordination Sequence:
#
# PCOD9212096 Si02
#       6
#     8   8   8   8   8   4
#     4  11  21  39  69  90 122 166 203 245 317 363
#     4  11  22  40  66  96 126 158 200 252 308 369
#     4  12  25  41  63  93 124 164 210 256 304 358
#     4  12  21  41  66  88 126 163 204 255 301 362
#     4  10  21  41  63  90 126 163 201 250 309 370
#     4  12  19  44  63  90 116 164 211 258 297 360
#
# _framework density 19.847539000000001
#
# number of rings (size 3 to 8) (size 9 to 14) (size 15 to 20)
#    0.000    0.727    9.091    0.818    0.000    6.545 
#    0.000    0.000    0.000    0.000    0.000    0.000 
#    0.000    0.000    0.000    0.000    0.000    0.000 
#
# Total GULP energy -122786.349624 kJ/mol
# GULP energy per Si atom -5581.197710 kJ/mol
# Density = 1.980236 g / cm^3
# Si number density = 19.847539 Si / 1000 Ang^3
#
#
#
# Elastic Constant Matrix: (Units=GPa)
#
#
# Indices 1 2 3 4 5 6 
#
# 1 57.7259 2.5689 7.5126 -0.0002 -9.5934 0.0000
# 2 2.5689 126.4584 21.3109 -0.0007 -7.6592 -0.0002
# 3 7.5126 21.3109 87.1796 -0.0004 1.7029 -0.0001
# 4 -0.0002 -0.0007 -0.0004 2.1978 -0.0005 -5.2545
# 5 -9.5934 -7.6592 1.7029 -0.0005 22.1476 -0.0002
# 6 0.0000 -0.0002 -0.0001 -5.2545 -0.0002 8.4380
#
#
#
# Elastic Compliance Matrix: (Units=1/GPa)
#
#
# Indices 1 2 3 4 5 6 
#
# 1 0.018968 0.000453 -0.001912 -0.000007 0.008520 -0.000004
# 2 0.000453 0.008464 -0.002172 -0.000007 0.003290 -0.000004
# 3 -0.001912 -0.002172 0.012216 -0.000002 -0.002519 -0.000001
# 4 -0.000007 -0.000007 -0.000002 -0.930889 -0.000029 -0.579681
# 5 0.008520 0.003290 -0.002519 -0.000029 0.050173 -0.000017
# 6 -0.000004 -0.000004 -0.000001 -0.579681 -0.000017 -0.242467
#
#
# Mechanical properties :
#
#
# Convention : Reuss Voigt Hill
#
# Bulk Modulus (GPa) = 30.87850 37.12764 34.00307
# Shear Modulus (GPa) = -4.69273 22.55481 8.93104
#
# Velocity S-wave (km/s) = -1.53932 3.37472 2.12358
# Velocity P-wave (km/s) = 3.52594 5.82511 4.81478
#
# Compressibility (1/GPa) = 0.03238499
#
# Stress axis : x y z
#
# Youngs Moduli (GPa) = 52.72112 118.14900 81.86315
#
# Poissons Ratio (x) = -0.05350 0.15649
# Poissons Ratio (y) = -0.02387 0.17783
# Poissons Ratio (z) = 0.10078 0.25665
#
# Static dielectric constant tensor:
#      x y z
#    x 1.691530 0.000000 -0.006800 
#    y 0.000000 1.733090 0.000000 
#    z -0.006800 0.000000 1.757630 
# 
# From -- ./inp_files/73058.got.cif
#   From: 2010.05.17/outbox.cif.g08.bks.cpg/sg12_37_cif.got.tgz:73058.got - 2010.06.03 13:09:07.
