data_PCOD9212362
_publ_section_title
;
Structure prediction by ZEFSAII (Michael W. Deem and Ramdas Pophale) SiO2 
 PCOD9212362
Probable space group: C 2/M
;
_chemical_formula_sum "Si O2"
_cell_formula_units_Z 48
_cell_length_a 14.739050
_cell_length_b 23.266396
_cell_length_c 13.386612
_cell_angle_alpha 90.000000
_cell_angle_beta 31.254466
_cell_angle_gamma 90.000000
_cell_volume 2381.785492
_symmetry_space_group_name_H-M "C 2/M"
_symmetry_group_IT_number 12
_symmetry_cell_setting 'monoclinic'
loop_
_space_group_symop_operation_xyz
x,y,z
-x,y,-z
-x,-y,-z
x,-y,z
1/2+x,1/2+y,z
1/2-x,1/2+y,-z
1/2-x,1/2-y,-z
1/2+x,1/2-y,z
loop_
_atom_site_type_symbol
_atom_site_label
_atom_site_fract_x
_atom_site_fract_y
_atom_site_fract_z
Si Si1 0.390984 0.392197 0.699020
Si Si2 0.687699 0.205480 0.776364
Si Si3 0.500000 0.401363 0.000000
Si Si4 0.815181 0.667374 0.626236
Si Si5 0.751834 0.124139 0.535446
Si Si6 0.385746 0.000000 0.361006
Si Si7 0.439126 0.500000 0.211510
Si Si8 0.755744 0.000000 0.925690
O O1 0.500000 0.414106 0.500000
O O2 0.294976 0.334772 0.752095
O O3 0.539256 0.377277 0.641248
O O4 0.258114 0.441317 0.859965
O O5 0.785423 0.264319 0.658235
O O6 0.672399 0.167990 0.690202
O O7 0.500000 0.218428 0.000000
O O8 0.331453 0.362051 0.167358
O O9 0.494923 0.444022 0.098463
O O10 0.793378 0.643803 0.534033
O O11 0.000000 0.652600 0.500000
O O12 0.679033 0.060080 0.624712
O O13 0.269469 0.000000 0.572501
O O14 0.595734 0.000000 0.154934
O O15 0.552696 0.500000 0.204284
#
# Coordination Sequence:
#
# PCOD9212362 Si02
#       8
#     8   8   4   8   8   4   4   4
#     4  10  21  41  68  94 137 175 218 279 335 391
#     4  11  24  44  66 101 133 173 226 272 330 404
#     4  11  24  44  68  94 132 175 222 282 328 389
#     4  12  25  45  69  98 134 179 225 273 328 392
#     4  11  23  45  66  95 139 171 220 280 331 387
#     4  12  23  39  64  98 129 169 224 267 330 408
#     4  11  24  43  66  96 133 169 219 278 335 389
#     4  12  22  38  67  98 130 177 219 265 347 400
#
# _framework density 20.152947999999999
#
# number of rings (size 3 to 8) (size 9 to 14) (size 15 to 20)
#    0.000    0.833    4.167    3.250    2.333    2.000 
#    3.000    7.917    0.000    0.000    0.000    0.000 
#    0.000    0.000    0.000    0.000    0.000    0.000 
#
# Total GULP energy -134054.093722 kJ/mol
# GULP energy per Si atom -5585.587238 kJ/mol
# Density = 2.010708 g / cm^3
# Si number density = 20.152948 Si / 1000 Ang^3
#
#
#
# Elastic Constant Matrix: (Units=GPa)
#
#
# Indices 1 2 3 4 5 6 
#
# 1 110.2201 42.4993 46.9585 -0.0298 -8.9288 0.0245
# 2 42.4993 134.6450 35.4389 0.0258 -0.8259 -0.0008
# 3 46.9585 35.4389 119.9647 0.0365 -9.3451 -0.0146
# 4 -0.0298 0.0258 0.0365 38.0904 0.0133 13.4178
# 5 -8.9288 -0.8259 -9.3451 0.0133 21.9906 -0.0065
# 6 0.0245 -0.0008 -0.0146 13.4178 -0.0065 20.7414
#
#
#
# Elastic Compliance Matrix: (Units=1/GPa)
#
#
# Indices 1 2 3 4 5 6 
#
# 1 0.011947 -0.002804 -0.003598 0.000025 0.003217 -0.000032
# 2 -0.002804 0.008723 -0.001595 -0.000009 -0.001489 0.000008
# 3 -0.003598 -0.001595 0.010442 -0.000022 0.002917 0.000027
# 4 0.000025 -0.000009 -0.000022 0.034002 -0.000027 -0.021996
# 5 0.003217 -0.001489 0.002917 -0.000027 0.047964 0.000031
# 6 -0.000032 0.000008 0.000027 -0.021996 0.000031 0.062442
#
#
# Mechanical properties :
#
#
# Convention : Reuss Voigt Hill
#
# Bulk Modulus (GPa) = 66.14411 68.29149 67.21780
# Shear Modulus (GPa) = 25.43829 32.16002 28.79916
#
# Velocity S-wave (km/s) = 3.55669 3.99908 3.78435
# Velocity P-wave (km/s) = 7.05401 7.43530 7.24716
#
# Compressibility (1/GPa) = 0.01511851
#
# Stress axis : x y z
#
# Youngs Moduli (GPa) = 83.69978 114.64184 95.76286
#
# Poissons Ratio (x) = 0.32151 0.34452
# Poissons Ratio (y) = 0.23473 0.15274
# Poissons Ratio (z) = 0.30112 0.18286
#
# Static dielectric constant tensor:
#      x y z
#    x 1.712490 0.000000 0.014060 
#    y 0.000000 1.718690 0.000010 
#    z 0.014060 0.000010 1.714780 
# 
# From -- ./inp_files/218460.got.cif
#   From: 2010.05.17/outbox.cif.g08.bks.cpg/sg12_110_cif.got.tgz:218460.got - 2010.06.03 13:09:07.
