data_PCOD9212328
_publ_section_title
;
Structure prediction by ZEFSAII (Michael W. Deem and Ramdas Pophale) SiO2 
 PCOD9212328
Probable space group: C 2/M
;
_chemical_formula_sum "Si O2"
_cell_formula_units_Z 40
_cell_length_a 17.345665
_cell_length_b 19.033841
_cell_length_c 11.623944
_cell_angle_alpha 90.000000
_cell_angle_beta 32.495623
_cell_angle_gamma 90.000000
_cell_volume 2061.746864
_symmetry_space_group_name_H-M "C 2/M"
_symmetry_group_IT_number 12
_symmetry_cell_setting 'monoclinic'
loop_
_space_group_symop_operation_xyz
x,y,z
-x,y,-z
-x,-y,-z
x,-y,z
1/2+x,1/2+y,z
1/2-x,1/2+y,-z
1/2-x,1/2-y,-z
1/2+x,1/2-y,z
loop_
_atom_site_type_symbol
_atom_site_label
_atom_site_fract_x
_atom_site_fract_y
_atom_site_fract_z
Si Si1 0.758005 0.500000 0.829378
Si Si2 0.760008 0.292466 0.152130
Si Si3 0.533800 0.111290 0.833140
Si Si4 0.181066 0.188906 0.508987
Si Si5 0.038763 0.500000 0.630537
Si Si6 0.355953 0.647645 0.932653
O O1 0.811904 0.500000 0.628605
O O2 0.906597 0.500000 0.711109
O O3 0.679963 0.571924 0.967638
O O4 0.682200 0.292158 0.372601
O O5 0.684283 0.342116 0.152008
O O6 0.768052 0.212131 0.100029
O O7 0.921895 0.323379 0.965206
O O8 0.700910 0.128904 0.627376
O O9 0.516906 0.065709 0.741572
O O10 0.500000 0.078395 0.000000
O O11 0.250000 0.250000 0.500000
O O12 0.022743 0.165590 0.741619
#
# Coordination Sequence:
#
# PCOD9212328 Si02
#       6
#     4   8   8   8   4   8
#     4  11  26  41  67  92 134 172 212 269 318 390
#     4  10  22  41  68  93 122 173 222 263 316 383
#     4  10  21  41  67  95 125 169 214 261 322 383
#     4  11  23  39  65  98 128 163 210 278 323 371
#     4  11  23  45  64  97 128 174 211 258 328 390
#     4  11  23  43  64  96 131 168 220 264 321 386
#
# _framework density 19.401022999999999
#
# number of rings (size 3 to 8) (size 9 to 14) (size 15 to 20)
#    0.000    1.400    4.000    0.900    2.800    0.800 
#    3.600    4.000    0.000    0.000    0.000    0.000 
#    0.000    0.000    0.000    0.000    0.000    0.000 
#
# Total GULP energy -111511.944715 kJ/mol
# GULP energy per Si atom -5575.597236 kJ/mol
# Density = 1.935687 g / cm^3
# Si number density = 19.401023 Si / 1000 Ang^3
#
#
#
# Elastic Constant Matrix: (Units=GPa)
#
#
# Indices 1 2 3 4 5 6 
#
# 1 75.8127 28.7750 35.0159 -0.0001 9.5101 0.0001
# 2 28.7750 114.5434 57.7507 -0.0001 17.3731 0.0000
# 3 35.0159 57.7507 107.2051 -0.0001 2.1620 -0.0001
# 4 -0.0001 -0.0001 -0.0001 -2.4176 -0.0001 -2.7821
# 5 9.5101 17.3731 2.1620 -0.0001 43.8661 0.0000
# 6 0.0001 0.0000 -0.0001 -2.7821 0.0000 30.2341
#
#
#
# Elastic Compliance Matrix: (Units=1/GPa)
#
#
# Indices 1 2 3 4 5 6 
#
# 1 0.016120 -0.001386 -0.004464 0.000000 -0.002726 0.000000
# 2 -0.001386 0.013033 -0.006476 0.000000 -0.004542 0.000000
# 3 -0.004464 -0.006476 0.014218 0.000000 0.002832 0.000000
# 4 0.000000 0.000000 0.000000 -0.374028 -0.000001 -0.034418
# 5 -0.002726 -0.004542 0.002832 -0.000001 0.025047 0.000000
# 6 0.000000 0.000000 0.000000 -0.034418 0.000000 0.029908
#
#
# Mechanical properties :
#
#
# Convention : Reuss Voigt Hill
#
# Bulk Modulus (GPa) = 53.42283 60.07159 56.74721
# Shear Modulus (GPa) = -20.42383 26.07117 2.82367
#
# Velocity S-wave (km/s) = -3.24808 3.66977 1.20772
# Velocity P-wave (km/s) = 3.67820 6.99904 5.59087
#
# Compressibility (1/GPa) = 0.01871859
#
# Stress axis : x y z
#
# Youngs Moduli (GPa) = 62.03483 76.73090 70.33532
#
# Poissons Ratio (x) = 0.10631 0.31397
# Poissons Ratio (y) = 0.08595 0.45552
# Poissons Ratio (z) = 0.27691 0.49694
#
# Static dielectric constant tensor:
#      x y z
#    x 1.740430 0.000000 0.074320 
#    y 0.000000 1.709470 0.000000 
#    z 0.074320 0.000000 1.782090 
# 
# From -- ./inp_files/133665.got.cif
#   From: 2010.05.17/outbox.cif.g08.bks.cpg/sg12_67_cif.got.tgz:133665.got - 2010.06.03 13:09:07.
