data_PCOD9212137
_publ_section_title
;
Structure prediction by ZEFSAII (Michael W. Deem and Ramdas Pophale) SiO2 
 PCOD9212137
Probable space group: C 2/M
;
_chemical_formula_sum "Si O2"
_cell_formula_units_Z 56
_cell_length_a 11.918864
_cell_length_b 27.377400
_cell_length_c 9.669783
_cell_angle_alpha 90.000000
_cell_angle_beta 53.625201
_cell_angle_gamma 90.000000
_cell_volume 2540.523063
_symmetry_space_group_name_H-M "C 2/M"
_symmetry_group_IT_number 12
_symmetry_cell_setting 'monoclinic'
loop_
_space_group_symop_operation_xyz
x,y,z
-x,y,-z
-x,-y,-z
x,-y,z
1/2+x,1/2+y,z
1/2-x,1/2+y,-z
1/2-x,1/2-y,-z
1/2+x,1/2-y,z
loop_
_atom_site_type_symbol
_atom_site_label
_atom_site_fract_x
_atom_site_fract_y
_atom_site_fract_z
Si Si1 0.489461 0.320036 0.845804
Si Si2 0.194152 0.312749 0.388962
Si Si3 0.450841 0.216362 0.768953
Si Si4 0.866394 0.889923 0.703944
Si Si5 0.152722 0.000000 0.256921
Si Si6 0.124862 0.576578 0.495303
Si Si7 0.927793 0.377322 0.184416
Si Si8 0.847288 0.000000 0.406533
O O1 0.648197 0.313053 0.679795
O O2 0.428288 0.266079 0.866687
O O3 0.415052 0.358805 0.800418
O O4 0.500000 0.333687 0.000000
O O5 0.089552 0.285331 0.569326
O O6 0.151748 0.369648 0.415520
O O7 0.171398 0.292306 0.252188
O O8 0.480639 0.170289 0.845126
O O9 0.806537 0.943082 0.793609
O O10 0.734607 0.864760 0.724775
O O11 0.000000 0.895723 0.500000
O O12 0.157664 0.000000 0.422301
O O13 0.011090 0.000000 0.268921
O O14 0.071827 0.586064 0.688430
O O15 0.265725 0.546058 0.404805
O O16 0.000000 0.553710 0.500000
O O17 0.000000 0.400258 0.000000
#
# Coordination Sequence:
#
# PCOD9212137 Si02
#       8
#     8   8   8   8   4   8   8   4
#     4  12  28  39  63 100 133 168 218 271 330 392
#     4  10  21  41  64  89 128 169 222 264 321 385
#     4  10  22  42  64  88 129 175 215 269 316 391
#     4  12  24  44  71  96 127 175 229 269 321 394
#     4  11  20  42  67  96 125 168 226 280 310 380
#     4  11  20  40  62  95 126 166 214 273 321 388
#     4  11  23  40  65  95 132 174 213 266 332 387
#     4  11  19  34  66  98 124 159 220 279 321 374
#
# _framework density 22.042705000000002
#
# number of rings (size 3 to 8) (size 9 to 14) (size 15 to 20)
#    0.000    1.000    5.714    3.643    6.000    0.571 
#    0.000    1.786    0.000    1.714    0.000    0.000 
#    0.000    0.000    0.000    0.000    0.000    0.000 
#
# Total GULP energy -156275.569558 kJ/mol
# GULP energy per Si atom -5581.270341 kJ/mol
# Density = 2.199253 g / cm^3
# Si number density = 22.042705 Si / 1000 Ang^3
#
#
#
# Elastic Constant Matrix: (Units=GPa)
#
#
# Indices 1 2 3 4 5 6 
#
# 1 107.4204 10.7037 24.6334 0.0000 17.8470 0.0000
# 2 10.7037 89.4841 13.4210 0.0000 13.9990 0.0000
# 3 24.6334 13.4210 60.8484 0.0000 12.5244 0.0000
# 4 0.0000 0.0000 0.0000 10.0307 0.0000 4.1581
# 5 17.8470 13.9990 12.5244 0.0000 33.8286 0.0000
# 6 0.0000 0.0000 0.0000 4.1581 0.0000 35.5694
#
#
#
# Elastic Compliance Matrix: (Units=1/GPa)
#
#
# Indices 1 2 3 4 5 6 
#
# 1 0.010844 -0.000089 -0.003464 0.000000 -0.004401 0.000000
# 2 -0.000089 0.012124 -0.001748 0.000000 -0.004323 0.000000
# 3 -0.003464 -0.001748 0.019157 0.000000 -0.004541 0.000000
# 4 0.000000 0.000000 0.000000 0.104771 0.000000 -0.012248
# 5 -0.004401 -0.004323 -0.004541 0.000000 0.035353 0.000000
# 6 0.000000 0.000000 0.000000 -0.012248 0.000000 0.029546
#
#
# Mechanical properties :
#
#
# Convention : Reuss Voigt Hill
#
# Bulk Modulus (GPa) = 31.72393 39.47435 35.59914
# Shear Modulus (GPa) = 21.46786 29.81873 25.64330
#
# Velocity S-wave (km/s) = 3.12416 3.68199 3.41449
# Velocity P-wave (km/s) = 5.23804 6.00192 5.63295
#
# Compressibility (1/GPa) = 0.03152195
#
# Stress axis : x y z
#
# Youngs Moduli (GPa) = 92.21883 82.47874 52.19982
#
# Poissons Ratio (x) = 0.00733 0.18084
# Poissons Ratio (y) = 0.00820 0.09127
# Poissons Ratio (z) = 0.31948 0.14420
#
# Static dielectric constant tensor:
#      x y z
#    x 1.879900 0.000000 -0.040190 
#    y 0.000000 1.825850 0.000000 
#    z -0.040190 0.000000 1.835070 
# 
# From -- ./inp_files/54646.got.cif
#   From: 2010.05.17/outbox.cif.g08.bks.cpg/sg12_28_cif.got.tgz:54646.got - 2010.06.03 13:09:07.
