data_PCOD9212354
_publ_section_title
;
Structure prediction by ZEFSAII (Michael W. Deem and Ramdas Pophale) SiO2 
 PCOD9212354
Probable space group: C 2/M
;
_chemical_formula_sum "Si O2"
_cell_formula_units_Z 42
_cell_length_a 8.751336
_cell_length_b 16.801803
_cell_length_c 14.917540
_cell_angle_alpha 90.000000
_cell_angle_beta 66.798050
_cell_angle_gamma 90.000000
_cell_volume 2016.046695
_symmetry_space_group_name_H-M "C 2/M"
_symmetry_group_IT_number 12
_symmetry_cell_setting 'monoclinic'
loop_
_space_group_symop_operation_xyz
x,y,z
-x,y,-z
-x,-y,-z
x,-y,z
1/2+x,1/2+y,z
1/2-x,1/2+y,-z
1/2-x,1/2-y,-z
1/2+x,1/2-y,z
loop_
_atom_site_type_symbol
_atom_site_label
_atom_site_fract_x
_atom_site_fract_y
_atom_site_fract_z
Si Si1 0.643453 0.818360 0.898922
Si Si2 0.188978 0.595092 0.704133
Si Si3 0.067162 0.091946 0.658393
Si Si4 0.474661 0.650154 0.138900
Si Si5 0.838646 0.664965 0.476906
Si Si6 0.000000 0.000000 0.000000
O O1 0.624908 0.867238 0.811064
O O2 0.614348 0.725397 0.885335
O O3 0.827383 0.832928 0.895328
O O4 0.500000 0.844743 0.000000
O O5 0.163736 0.500000 0.707964
O O6 0.387294 0.612355 0.658990
O O7 0.117586 0.636797 0.632868
O O8 0.207965 0.105324 0.552853
O O9 0.093037 0.140117 0.744065
O O10 0.058166 0.000000 0.686847
O O11 0.457697 0.570743 0.084426
O O12 0.750000 0.750000 0.500000
O O13 0.000000 0.668080 0.500000
#
# Coordination Sequence:
#
# PCOD9212354 Si02
#       6
#     8   8   8   8   8   2
#     4  11  24  43  68  98 135 175 223 273 329 391
#     4  10  23  43  66  97 133 172 217 271 331 397
#     4  10  21  41  68  93 129 170 212 262 331 394
#     4  11  24  44  68 100 132 178 222 274 330 401
#     4  12  25  42  63  94 127 170 220 275 332 392
#     4  12  24  44  70  96 138 172 232 266 334 400
#
# _framework density 20.832850000000001
#
# number of rings (size 3 to 8) (size 9 to 14) (size 15 to 20)
#    0.000    1.143    1.905    4.000    1.333    8.000 
#    0.000    0.000    0.000    0.000    0.000    0.000 
#    0.000    0.000    0.000    0.000    0.000    0.000 
#
# Total GULP energy -117244.651278 kJ/mol
# GULP energy per Si atom -5583.078632 kJ/mol
# Density = 2.078543 g / cm^3
# Si number density = 20.832850 Si / 1000 Ang^3
#
#
#
# Elastic Constant Matrix: (Units=GPa)
#
#
# Indices 1 2 3 4 5 6 
#
# 1 55.8834 39.4179 46.4429 0.0000 13.9517 0.0000
# 2 39.4179 101.1071 29.0036 0.0000 20.8877 0.0000
# 3 46.4429 29.0036 89.0980 0.0000 10.9281 0.0000
# 4 0.0000 0.0000 0.0000 41.0561 0.0000 8.7626
# 5 13.9517 20.8877 10.9281 0.0000 29.4981 0.0000
# 6 0.0000 0.0000 0.0000 8.7626 0.0000 16.5280
#
#
#
# Elastic Compliance Matrix: (Units=1/GPa)
#
#
# Indices 1 2 3 4 5 6 
#
# 1 0.040495 -0.009608 -0.017250 0.000000 -0.005959 0.000000
# 2 -0.009608 0.014626 0.001006 0.000000 -0.006185 0.000000
# 3 -0.017250 0.001006 0.019878 0.000000 0.000082 0.000000
# 4 0.000000 0.000000 0.000000 0.027465 0.000000 -0.014561
# 5 -0.005959 -0.006185 0.000082 0.000000 0.041068 0.000000
# 6 0.000000 0.000000 0.000000 -0.014561 0.000000 0.068223
#
#
# Mechanical properties :
#
#
# Convention : Reuss Voigt Hill
#
# Bulk Modulus (GPa) = 42.92928 52.86858 47.89893
# Shear Modulus (GPa) = 18.43509 26.16472 22.29990
#
# Velocity S-wave (km/s) = 2.97796 3.54776 3.27528
# Velocity P-wave (km/s) = 5.69874 6.49729 6.11107
#
# Compressibility (1/GPa) = 0.02329412
#
# Stress axis : x y z
#
# Youngs Moduli (GPa) = 24.69443 68.37372 50.30805
#
# Poissons Ratio (x) = 0.65695 0.86780
# Poissons Ratio (y) = 0.23727 -0.05061
# Poissons Ratio (z) = 0.42597 -0.06878
#
# Static dielectric constant tensor:
#      x y z
#    x 1.791100 0.000000 -0.029090 
#    y 0.000000 1.757670 0.000000 
#    z -0.029090 0.000000 1.784610 
# 
# From -- ./inp_files/195641.got.cif
#   From: 2010.05.17/outbox.cif.g08.bks.cpg/sg12_98_cif.got.tgz:195641.got - 2010.06.03 13:09:07.
