data_PCOD9212569
_publ_section_title
;
Structure prediction by ZEFSAII (Michael W. Deem and Ramdas Pophale) SiO2 
 PCOD9212569
Probable space group: C 2/M
;
_chemical_formula_sum "Si O2"
_cell_formula_units_Z 34
_cell_length_a 15.330259
_cell_length_b 12.058655
_cell_length_c 15.438837
_cell_angle_alpha 90.000000
_cell_angle_beta 147.133614
_cell_angle_gamma 90.000000
_cell_volume 1548.845788
_symmetry_space_group_name_H-M "C 2/M"
_symmetry_group_IT_number 12
_symmetry_cell_setting 'monoclinic'
loop_
_space_group_symop_operation_xyz
x,y,z
-x,y,-z
-x,-y,-z
x,-y,z
1/2+x,1/2+y,z
1/2-x,1/2+y,-z
1/2-x,1/2-y,-z
1/2+x,1/2-y,z
loop_
_atom_site_type_symbol
_atom_site_label
_atom_site_fract_x
_atom_site_fract_y
_atom_site_fract_z
Si Si1 0.307849 0.374530 0.696946
Si Si2 0.826328 0.788612 0.271260
Si Si3 0.947049 0.626601 0.651202
Si Si4 0.000000 0.000000 0.500000
Si Si5 0.094820 0.731293 0.930070
O O1 0.278258 0.500000 0.701897
O O2 0.221083 0.287012 0.686493
O O3 0.232383 0.365473 0.537550
O O4 0.494779 0.344359 0.855526
O O5 0.906666 0.901810 0.366985
O O6 0.946984 0.713572 0.314353
O O7 0.666647 0.807975 0.080470
O O8 0.000633 0.500000 0.679638
O O9 0.974260 0.652836 0.774974
O O10 0.250000 0.750000 0.000000
#
# Coordination Sequence:
#
# PCOD9212569 Si02
#       5
#     8   8   8   2   8
#     4  11  22  43  72  99 130 170 221 277 326 387
#     4  11  23  43  68  98 130 177 220 266 329 391
#     4  10  21  42  67  98 131 169 217 272 329 391
#     4  12  24  44  68  96 144 172 210 272 332 396
#     4  10  24  41  61  97 133 170 220 266 330 386
#
# _framework density 21.951830000000001
#
# number of rings (size 3 to 8) (size 9 to 14) (size 15 to 20)
#    0.000    1.412    2.353    2.118    1.647    7.529 
#    8.471    1.176    0.000    0.000    0.000    0.000 
#    0.000    0.000    0.000    0.000    0.000    0.000 
#
# Total GULP energy -94695.966963 kJ/mol
# GULP energy per Si atom -5570.350998 kJ/mol
# Density = 2.190187 g / cm^3
# Si number density = 21.951830 Si / 1000 Ang^3
#
#
#
# Elastic Constant Matrix: (Units=GPa)
#
#
# Indices 1 2 3 4 5 6 
#
# 1 16.6564 30.1845 16.3046 0.0000 -5.3107 0.0000
# 2 30.1845 200.0623 65.7529 0.0000 -19.2788 0.0000
# 3 16.3046 65.7529 202.9327 -0.0001 -40.9709 0.0000
# 4 0.0000 0.0000 -0.0001 13.5587 0.0000 1.8586
# 5 -5.3107 -19.2788 -40.9709 0.0000 31.1118 0.0000
# 6 0.0000 0.0000 0.0000 1.8586 0.0000 6.9518
#
#
#
# Elastic Compliance Matrix: (Units=1/GPa)
#
#
# Indices 1 2 3 4 5 6 
#
# 1 0.084633 -0.011641 -0.002135 0.000000 0.004421 0.000000
# 2 -0.011641 0.007245 -0.001235 0.000000 0.000875 0.000000
# 3 -0.002135 -0.001235 0.007181 0.000000 0.008326 0.000000
# 4 0.000000 0.000000 0.000000 0.076559 0.000000 -0.020469
# 5 0.004421 0.000875 0.008326 0.000000 0.044404 0.000000
# 6 0.000000 0.000000 0.000000 -0.020469 0.000000 0.149320
#
#
# Mechanical properties :
#
#
# Convention : Reuss Voigt Hill
#
# Bulk Modulus (GPa) = 14.48548 71.57059 43.02804
# Shear Modulus (GPa) = 11.83776 30.81842 21.32809
#
# Velocity S-wave (km/s) = 2.32472 3.75095 3.12041
# Velocity P-wave (km/s) = 3.71737 7.17173 5.71194
#
# Compressibility (1/GPa) = 0.06903463
#
# Stress axis : x y z
#
# Youngs Moduli (GPa) = 11.81573 138.02177 139.26427
#
# Poissons Ratio (x) = 1.60674 0.29738
# Poissons Ratio (y) = 0.13755 0.17206
# Poissons Ratio (z) = 0.02523 0.17052
#
# Static dielectric constant tensor:
#      x y z
#    x 1.824960 0.000000 -0.003870 
#    y 0.000000 1.763770 0.000000 
#    z -0.003870 0.000000 1.880930 
# 
# From -- ./inp_files/213589.got.cif
#   From: 2010.05.17/outbox.cif.g08.bks.cpg/sg12_107_cif.got.tgz:213589.got - 2010.06.03 13:09:07.
