data_PCOD9212051
_publ_section_title
;
Structure prediction by ZEFSAII (Michael W. Deem and Ramdas Pophale) SiO2 
 PCOD9212051
Probable space group: C 2/M
;
_chemical_formula_sum "Si O2"
_cell_formula_units_Z 38
_cell_length_a 10.389944
_cell_length_b 27.300130
_cell_length_c 5.356537
_cell_angle_alpha 90.000000
_cell_angle_beta 83.391077
_cell_angle_gamma 90.000000
_cell_volume 1509.268296
_symmetry_space_group_name_H-M "C 2/M"
_symmetry_group_IT_number 12
_symmetry_cell_setting 'monoclinic'
loop_
_space_group_symop_operation_xyz
x,y,z
-x,y,-z
-x,-y,-z
x,-y,z
1/2+x,1/2+y,z
1/2-x,1/2+y,-z
1/2-x,1/2-y,-z
1/2+x,1/2-y,z
loop_
_atom_site_type_symbol
_atom_site_label
_atom_site_fract_x
_atom_site_fract_y
_atom_site_fract_z
Si Si1 0.150253 0.902866 0.883704
Si Si2 0.915191 0.000000 0.277565
Si Si3 0.000000 0.500000 0.500000
Si Si4 0.583824 0.196866 0.728007
Si Si5 0.375114 0.086994 0.213101
Si Si6 0.089180 0.198552 0.732261
O O1 0.176245 0.849412 0.762633
O O2 0.159917 0.948940 0.700053
O O3 0.245057 0.918498 0.082876
O O4 0.000000 0.900022 0.000000
O O5 0.000000 0.000000 0.500000
O O6 0.000000 0.000000 0.000000
O O7 0.089544 0.543523 0.609561
O O8 0.500000 0.204116 0.500000
O O9 0.639441 0.142625 0.687322
O O10 0.660189 0.248560 0.724132
O O11 0.500000 0.194799 0.000000
O O12 0.500000 0.086437 0.000000
O O13 0.000000 0.191636 0.500000
O O14 0.000000 0.200875 0.000000
#
# Coordination Sequence:
#
# PCOD9212051 Si02
#       6
#     8   4   2   8   8   8
#     4  10  22  43  65  98 134 175 222 279 338 399
#     4  10  21  41  61  91 129 168 215 267 332 393
#     4  12  24  46  70  96 126 184 222 284 328 406
#     4   9  18  37  63  95 132 177 221 275 332 399
#     4  11  24  45  66  96 134 173 231 276 337 403
#     4   9  18  36  63  97 136 174 223 273 335 401
#
# _framework density 25.177762000000001
#
# number of rings (size 3 to 8) (size 9 to 14) (size 15 to 20)
#    0.000    2.105    1.053    1.579    0.000    0.842 
#   22.737    0.000    0.000   17.684    0.000    0.000 
#    0.000    0.000    0.000    0.000    0.000    0.000 
#
# Total GULP energy -105817.870910 kJ/mol
# GULP energy per Si atom -5569.361627 kJ/mol
# Density = 2.512046 g / cm^3
# Si number density = 25.177762 Si / 1000 Ang^3
#
#
#
# Elastic Constant Matrix: (Units=GPa)
#
#
# Indices 1 2 3 4 5 6 
#
# 1 126.2653 37.1730 68.8715 0.0000 7.1273 0.0000
# 2 37.1730 325.7358 55.4089 0.0000 45.9941 0.0000
# 3 68.8715 55.4089 162.1790 0.0000 15.7455 0.0000
# 4 0.0000 0.0000 0.0000 36.9640 0.0000 37.8223
# 5 7.1273 45.9941 15.7455 0.0000 75.9483 0.0000
# 6 0.0000 0.0000 0.0000 37.8223 0.0000 -38.8053
#
#
#
# Elastic Compliance Matrix: (Units=1/GPa)
#
#
# Indices 1 2 3 4 5 6 
#
# 1 0.010375 -0.000489 -0.004259 0.000000 0.000205 0.000000
# 2 -0.000489 0.003536 -0.000814 0.000000 -0.001927 0.000000
# 3 -0.004259 -0.000814 0.008334 0.000000 -0.000835 0.000000
# 4 0.000000 0.000000 0.000000 0.013545 0.000000 0.013202
# 5 0.000205 -0.001927 -0.000835 0.000000 0.014488 0.000000
# 6 0.000000 0.000000 0.000000 0.013202 0.000000 -0.012902
#
#
# Mechanical properties :
#
#
# Convention : Reuss Voigt Hill
#
# Bulk Modulus (GPa) = 89.90467 104.12078 97.01273
# Shear Modulus (GPa) = 95.77566 45.00318 70.38942
#
# Velocity S-wave (km/s) = 6.17433 4.23237 5.29317
# Velocity P-wave (km/s) = 9.30673 8.08257 8.71617
#
# Compressibility (1/GPa) = 0.01112289
#
# Stress axis : x y z
#
# Youngs Moduli (GPa) = 96.38440 282.78821 119.99434
#
# Poissons Ratio (x) = 0.13815 0.51105
# Poissons Ratio (y) = 0.04708 0.09763
# Poissons Ratio (z) = 0.41050 0.23008
#
# Static dielectric constant tensor:
#      x y z
#    x 1.954440 0.000000 -0.093200 
#    y 0.000000 2.021980 0.000000 
#    z -0.093200 0.000000 2.101760 
# 
# From -- ./inp_files/7651.got.cif
#   From: 2010.05.17/outbox.cif.g08.bks.cpg/sg12_4_cif.got.tgz:7651.got - 2010.06.03 13:09:07.
