data_PCOD9212605
_publ_section_title
;
Structure prediction by ZEFSAII (Michael W. Deem and Ramdas Pophale) SiO2 
 PCOD9212605
Probable space group: C 2/M
;
_chemical_formula_sum "Si O2"
_cell_formula_units_Z 48
_cell_length_a 10.821063
_cell_length_b 27.255834
_cell_length_c 14.077526
_cell_angle_alpha 90.000000
_cell_angle_beta 150.291794
_cell_angle_gamma 90.000000
_cell_volume 2057.653300
_symmetry_space_group_name_H-M "C 2/M"
_symmetry_group_IT_number 12
_symmetry_cell_setting 'monoclinic'
loop_
_space_group_symop_operation_xyz
x,y,z
-x,y,-z
-x,-y,-z
x,-y,z
1/2+x,1/2+y,z
1/2-x,1/2+y,-z
1/2-x,1/2-y,-z
1/2+x,1/2-y,z
loop_
_atom_site_type_symbol
_atom_site_label
_atom_site_fract_x
_atom_site_fract_y
_atom_site_fract_z
Si Si1 0.514116 0.265776 0.278609
Si Si2 0.522627 0.379427 0.238679
Si Si3 0.763259 0.054415 0.772619
Si Si4 0.254212 0.445041 0.458076
Si Si5 0.463706 0.903660 0.872689
Si Si6 0.734673 0.794362 0.266534
O O1 0.750000 0.250000 0.500000
O O2 0.548179 0.321450 0.265974
O O3 0.530268 0.230314 0.198806
O O4 0.287760 0.266856 0.202631
O O5 0.706322 0.403697 0.285031
O O6 0.580023 0.404931 0.378073
O O7 0.243540 0.394011 0.022068
O O8 0.512665 0.057399 0.666155
O O9 0.771228 0.000000 0.731528
O O10 0.000000 0.057334 0.000000
O O11 0.354563 0.500000 0.535713
O O12 0.196050 0.432870 0.310321
O O13 0.343640 0.849937 0.805245
O O14 0.500000 0.927465 0.000000
O O15 0.000000 0.794467 0.500000
#
# Coordination Sequence:
#
# PCOD9212605 Si02
#       6
#     8   8   8   8   8   8
#     4  10  22  41  68  97 135 177 229 283 340 409
#     4  12  24  43  70 102 136 181 224 278 345 413
#     4  10  21  42  69 102 140 174 219 281 344 406
#     4  11  25  44  71 102 136 180 228 282 344 409
#     4  12  26  44  68  95 138 181 229 282 340 405
#     4  10  22  44  68  96 135 185 226 285 346 411
#
# _framework density 23.327545000000001
#
# number of rings (size 3 to 8) (size 9 to 14) (size 15 to 20)
#    0.000    1.167    3.333    3.000    0.000    8.333 
#    0.000    0.833    0.000    0.000    0.000    0.000 
#    0.000    0.000    0.000    0.000    0.000    0.000 
#
# Total GULP energy -134413.596874 kJ/mol
# GULP energy per Si atom -5600.566536 kJ/mol
# Density = 2.327445 g / cm^3
# Si number density = 23.327545 Si / 1000 Ang^3
#
#
#
# Elastic Constant Matrix: (Units=GPa)
#
#
# Indices 1 2 3 4 5 6 
#
# 1 128.1723 24.4519 12.5368 0.0000 -8.7561 0.0000
# 2 24.4519 72.7269 18.8304 0.0000 -9.2882 0.0000
# 3 12.5368 18.8304 94.1395 0.0000 -7.3466 0.0000
# 4 0.0000 0.0000 0.0000 14.9743 0.0000 -10.3721
# 5 -8.7561 -9.2882 -7.3466 0.0000 48.1923 0.0000
# 6 0.0000 0.0000 0.0000 -10.3721 0.0000 42.5970
#
#
#
# Elastic Compliance Matrix: (Units=1/GPa)
#
#
# Indices 1 2 3 4 5 6 
#
# 1 0.008409 -0.002568 -0.000532 0.000000 0.000952 0.000000
# 2 -0.002568 0.015560 -0.002604 0.000000 0.002135 0.000000
# 3 -0.000532 -0.002604 0.011302 0.000000 0.001124 0.000000
# 4 0.000000 0.000000 0.000000 0.080329 0.000000 0.019560
# 5 0.000952 0.002135 0.001124 0.000000 0.021506 0.000000
# 6 0.000000 0.000000 0.000000 0.019560 0.000000 0.028238
#
#
# Mechanical properties :
#
#
# Convention : Reuss Voigt Hill
#
# Bulk Modulus (GPa) = 41.90436 45.18634 43.54535
# Shear Modulus (GPa) = 27.06987 37.10070 32.08528
#
# Velocity S-wave (km/s) = 3.41020 3.99234 3.71270
# Velocity P-wave (km/s) = 5.78864 6.37684 6.08985
#
# Compressibility (1/GPa) = 0.02386386
#
# Stress axis : x y z
#
# Youngs Moduli (GPa) = 118.92106 64.26590 88.48026
#
# Poissons Ratio (x) = 0.16503 0.04706
# Poissons Ratio (y) = 0.30538 0.23039
# Poissons Ratio (z) = 0.06326 0.16734
#
# Static dielectric constant tensor:
#      x y z
#    x 1.930400 0.000000 0.028160 
#    y 0.000000 1.786590 0.000000 
#    z 0.028160 0.000000 1.944170 
# 
# From -- ./inp_files/209457.got.cif
#   From: 2010.05.17/outbox.cif.g08.bks.cpg/sg12_105_cif.got.tgz:209457.got - 2010.06.03 13:09:07.
