data_PCOD9212329
_publ_section_title
;
Structure prediction by ZEFSAII (Michael W. Deem and Ramdas Pophale) SiO2 
 PCOD9212329
Probable space group: C 2/M
;
_chemical_formula_sum "Si O2"
_cell_formula_units_Z 40
_cell_length_a 10.889293
_cell_length_b 25.602598
_cell_length_c 8.302631
_cell_angle_alpha 90.000000
_cell_angle_beta 124.489095
_cell_angle_gamma 90.000000
_cell_volume 1907.875234
_symmetry_space_group_name_H-M "C 2/M"
_symmetry_group_IT_number 12
_symmetry_cell_setting 'monoclinic'
loop_
_space_group_symop_operation_xyz
x,y,z
-x,y,-z
-x,-y,-z
x,-y,z
1/2+x,1/2+y,z
1/2-x,1/2+y,-z
1/2-x,1/2-y,-z
1/2+x,1/2-y,z
loop_
_atom_site_type_symbol
_atom_site_label
_atom_site_fract_x
_atom_site_fract_y
_atom_site_fract_z
Si Si1 0.405006 0.856035 0.571378
Si Si2 0.081041 0.838214 0.232778
Si Si3 0.343592 0.940654 0.795906
Si Si4 0.428524 0.237981 0.128779
Si Si5 0.455589 0.442298 0.279901
O O1 0.500000 0.882362 0.500000
O O2 0.257628 0.831205 0.380497
O O3 0.350076 0.897537 0.662640
O O4 0.511480 0.812725 0.732696
O O5 0.004000 0.789401 0.263445
O O6 0.043320 0.895440 0.267907
O O7 0.000000 0.836955 0.000000
O O8 0.219092 0.929410 0.838295
O O9 0.313231 0.000000 0.712350
O O10 0.500000 0.940695 0.000000
O O11 0.500000 0.232184 0.000000
O O12 0.250000 0.250000 0.000000
O O13 0.500000 0.444348 0.500000
O O14 0.478744 0.500000 0.225875
#
# Coordination Sequence:
#
# PCOD9212329 Si02
#       5
#     8   8   8   8   8
#     4  12  25  42  66  96 133 172 218 271 329 393
#     4  11  25  42  64  96 132 171 217 268 326 390
#     4  10  23  42  67  97 130 172 220 269 328 393
#     4  11  26  46  69  97 132 174 222 277 333 398
#     4  10  21  41  67  95 128 172 221 267 322 390
#
# _framework density 20.965731000000002
#
# number of rings (size 3 to 8) (size 9 to 14) (size 15 to 20)
#    0.000    1.200    2.000    3.600    8.400    1.600 
#    0.000    0.000    0.000    0.000    0.000    0.000 
#    0.000    0.000    0.000    0.000    0.000    0.000 
#
# Total GULP energy -111570.098252 kJ/mol
# GULP energy per Si atom -5578.504913 kJ/mol
# Density = 2.091801 g / cm^3
# Si number density = 20.965731 Si / 1000 Ang^3
#
#
#
# Elastic Constant Matrix: (Units=GPa)
#
#
# Indices 1 2 3 4 5 6 
#
# 1 90.1735 30.6709 31.4441 0.0000 30.1108 0.0000
# 2 30.6709 111.5990 18.4546 0.0000 -7.5206 0.0000
# 3 31.4441 18.4546 88.1559 0.0000 24.8769 0.0000
# 4 0.0000 0.0000 0.0000 24.3140 0.0000 1.7918
# 5 30.1108 -7.5206 24.8769 0.0000 43.5070 0.0000
# 6 0.0000 0.0000 0.0000 1.7918 0.0000 36.6646
#
#
#
# Elastic Compliance Matrix: (Units=1/GPa)
#
#
# Indices 1 2 3 4 5 6 
#
# 1 0.017546 -0.005350 -0.001730 0.000000 -0.012079 0.000000
# 2 -0.005350 0.011312 -0.002452 0.000000 0.007060 0.000000
# 3 -0.001730 -0.002452 0.014614 0.000000 -0.007583 0.000000
# 4 0.000000 0.000000 0.000000 0.041277 0.000000 -0.002017
# 5 -0.012079 0.007060 -0.007583 0.000000 0.036901 0.000000
# 6 0.000000 0.000000 0.000000 -0.002017 0.000000 0.027373
#
#
# Mechanical properties :
#
#
# Convention : Reuss Voigt Hill
#
# Bulk Modulus (GPa) = 40.97047 50.11863 45.54455
# Shear Modulus (GPa) = 28.37302 34.85436 31.61369
#
# Velocity S-wave (km/s) = 3.68272 4.08173 3.88735
# Velocity P-wave (km/s) = 6.13737 6.79492 6.47450
#
# Compressibility (1/GPa) = 0.02440782
#
# Stress axis : x y z
#
# Youngs Moduli (GPa) = 56.99224 88.39885 68.42922
#
# Poissons Ratio (x) = 0.47295 0.11837
# Poissons Ratio (y) = 0.30492 0.16780
# Poissons Ratio (z) = 0.09859 0.21677
#
# Static dielectric constant tensor:
#      x y z
#    x 1.871240 0.000000 0.010960 
#    y 0.000000 1.798690 0.000000 
#    z 0.010960 0.000000 1.808900 
# 
# From -- ./inp_files/52869.got.cif
#   From: 2010.05.17/outbox.cif.g08.bks.cpg/sg12_27_cif.got.tgz:52869.got - 2010.06.03 13:09:07.
