data_PCOD9212230
_publ_section_title
;
Structure prediction by ZEFSAII (Michael W. Deem and Ramdas Pophale) SiO2 
 PCOD9212230
Probable space group: C 2/M
;
_chemical_formula_sum "Si O2"
_cell_formula_units_Z 40
_cell_length_a 23.251209
_cell_length_b 9.159659
_cell_length_c 9.730327
_cell_angle_alpha 90.000000
_cell_angle_beta 70.007689
_cell_angle_gamma 90.000000
_cell_volume 1947.418566
_symmetry_space_group_name_H-M "C 2/M"
_symmetry_group_IT_number 12
_symmetry_cell_setting 'monoclinic'
loop_
_space_group_symop_operation_xyz
x,y,z
-x,y,-z
-x,-y,-z
x,-y,z
1/2+x,1/2+y,z
1/2-x,1/2+y,-z
1/2-x,1/2-y,-z
1/2+x,1/2-y,z
loop_
_atom_site_type_symbol
_atom_site_label
_atom_site_fract_x
_atom_site_fract_y
_atom_site_fract_z
Si Si1 0.259201 0.670968 0.138608
Si Si2 0.903487 0.166338 0.074270
Si Si3 0.424501 0.171782 0.328531
Si Si4 0.545352 0.331013 0.274432
Si Si5 0.842858 0.172943 0.605839
O O1 0.242570 0.500000 0.140116
O O2 0.330455 0.678968 0.119141
O O3 0.216855 0.749476 0.285154
O O4 0.250000 0.750000 0.000000
O O5 0.926436 0.278347 0.168759
O O6 0.918482 0.000000 0.107097
O O7 0.931874 0.187200 0.900685
O O8 0.487453 0.228558 0.344287
O O9 0.368379 0.254874 0.446924
O O10 0.417882 0.000000 0.348618
O O11 0.525940 0.500000 0.309134
O O12 0.602957 0.305442 0.326142
O O13 0.833120 0.000000 0.597352
#
# Coordination Sequence:
#
# PCOD9212230 Si02
#       5
#     8   8   8   8   8
#     4  11  22  40  66  95 124 158 204 254 304 364
#     4  10  22  42  65  90 122 165 207 246 302 371
#     4  12  26  40  58  93 129 162 204 257 313 359
#     4  10  21  41  66  90 120 164 210 249 301 372
#     4  11  23  42  66  92 122 165 208 251 307 366
#
# _framework density 20.540012000000001
#
# number of rings (size 3 to 8) (size 9 to 14) (size 15 to 20)
#    0.000    1.200    2.000    4.200    0.000    9.600 
#    0.000    0.000    0.000    0.000    0.000    0.000 
#    0.000    0.000    0.000    0.000    0.000    0.000 
#
# Total GULP energy -111952.643173 kJ/mol
# GULP energy per Si atom -5597.632159 kJ/mol
# Density = 2.049326 g / cm^3
# Si number density = 20.540012 Si / 1000 Ang^3
#
#
#
# Elastic Constant Matrix: (Units=GPa)
#
#
# Indices 1 2 3 4 5 6 
#
# 1 54.0404 38.6764 3.5062 0.0000 -17.0540 0.0000
# 2 38.6764 115.0566 33.7040 0.0000 -15.6030 0.0000
# 3 3.5062 33.7040 72.4888 0.0000 -13.5012 0.0000
# 4 0.0000 0.0000 0.0000 26.0056 0.0000 -5.1421
# 5 -17.0540 -15.6030 -13.5012 0.0000 38.7152 0.0000
# 6 0.0000 0.0000 0.0000 -5.1421 0.0000 34.5951
#
#
#
# Elastic Compliance Matrix: (Units=1/GPa)
#
#
# Indices 1 2 3 4 5 6 
#
# 1 0.028302 -0.009578 0.005013 0.000000 0.010355 0.000000
# 2 -0.009578 0.013552 -0.005996 0.000000 -0.000848 0.000000
# 3 0.005013 -0.005996 0.017434 0.000000 0.005872 0.000000
# 4 0.000000 0.000000 0.000000 0.039618 0.000000 0.005889
# 5 0.010355 -0.000848 0.005872 0.000000 0.032097 0.000000
# 6 0.000000 0.000000 0.000000 0.005889 0.000000 0.029781
#
#
# Mechanical properties :
#
#
# Convention : Reuss Voigt Hill
#
# Bulk Modulus (GPa) = 26.20060 43.70653 34.95357
# Shear Modulus (GPa) = 25.68995 30.90981 28.29988
#
# Velocity S-wave (km/s) = 3.54040 3.88346 3.71589
# Velocity P-wave (km/s) = 5.43103 6.43687 5.95522
#
# Compressibility (1/GPa) = 0.03816707
#
# Stress axis : x y z
#
# Youngs Moduli (GPa) = 35.33291 73.78748 57.35843
#
# Poissons Ratio (x) = 0.70674 -0.28754
# Poissons Ratio (y) = 0.33842 0.34392
# Poissons Ratio (z) = -0.17713 0.44243
#
# Static dielectric constant tensor:
#      x y z
#    x 1.716160 0.000000 0.008160 
#    y 0.000000 1.687100 0.000000 
#    z 0.008160 0.000000 1.734980 
# 
# From -- ./inp_files/92770.got.cif
#   From: 2010.05.17/outbox.cif.g08.bks.cpg/sg12_47_cif.got.tgz:92770.got - 2010.06.03 13:09:07.
