data_PCOD9212193
_publ_section_title
;
Structure prediction by ZEFSAII (Michael W. Deem and Ramdas Pophale) SiO2 
 PCOD9212193
Probable space group: C 2/M
;
_chemical_formula_sum "Si O2"
_cell_formula_units_Z 36
_cell_length_a 8.555196
_cell_length_b 18.216804
_cell_length_c 11.991013
_cell_angle_alpha 90.000000
_cell_angle_beta 65.212390
_cell_angle_gamma 90.000000
_cell_volume 1696.605261
_symmetry_space_group_name_H-M "C 2/M"
_symmetry_group_IT_number 12
_symmetry_cell_setting 'monoclinic'
loop_
_space_group_symop_operation_xyz
x,y,z
-x,y,-z
-x,-y,-z
x,-y,z
1/2+x,1/2+y,z
1/2-x,1/2+y,-z
1/2-x,1/2-y,-z
1/2+x,1/2-y,z
loop_
_atom_site_type_symbol
_atom_site_label
_atom_site_fract_x
_atom_site_fract_y
_atom_site_fract_z
Si Si1 0.816993 0.000000 0.994900
Si Si2 0.278269 0.341494 0.930807
Si Si3 0.802493 0.500000 0.723019
Si Si4 0.062711 0.369773 0.595126
Si Si5 0.009386 0.284150 0.830383
Si Si6 0.833409 0.000000 0.470600
O O1 0.706303 0.000000 0.140524
O O2 0.793149 0.071951 0.929289
O O3 0.000000 0.000000 0.000000
O O4 0.461332 0.301126 0.862936
O O5 0.155518 0.312532 0.869760
O O6 0.172393 0.320073 0.074554
O O7 0.653824 0.500000 0.670297
O O8 0.911356 0.427800 0.664238
O O9 0.225324 0.425217 0.532585
O O10 0.000000 0.332315 0.500000
O O11 0.065782 0.310943 0.692707
O O12 0.000000 0.000000 0.500000
#
# Coordination Sequence:
#
# PCOD9212193 Si02
#       6
#     4   8   4   8   8   4
#     4  12  25  37  62 103 128 171 224 269 323 383
#     4  10  24  39  64  90 134 174 214 271 324 384
#     4   9  18  36  55  88 133 166 208 266 316 404
#     4   9  18  36  64  90 122 175 214 259 329 399
#     4  10  21  41  65  90 130 171 218 266 331 387
#     4   9  19  34  61  95 134 165 212 273 338 368
#
# _framework density 21.218841999999999
#
# number of rings (size 3 to 8) (size 9 to 14) (size 15 to 20)
#    0.000    2.222    2.222    1.333    6.222    5.333 
#    0.000    3.333    0.000    0.000    0.000    0.778 
#    0.000    0.000    0.000    0.222    0.000    0.000 
#
# Total GULP energy -100325.522867 kJ/mol
# GULP energy per Si atom -5573.640159 kJ/mol
# Density = 2.117055 g / cm^3
# Si number density = 21.218842 Si / 1000 Ang^3
#
#
#
# Elastic Constant Matrix: (Units=GPa)
#
#
# Indices 1 2 3 4 5 6 
#
# 1 121.2244 45.3142 42.2773 0.0000 28.4409 0.0000
# 2 45.3142 133.8465 53.3616 0.0000 20.7708 0.0000
# 3 42.2773 53.3616 101.4261 0.0000 28.9908 0.0000
# 4 0.0000 0.0000 0.0000 29.8159 0.0000 0.5661
# 5 28.4409 20.7708 28.9908 0.0000 22.9536 0.0000
# 6 0.0000 0.0000 0.0000 0.5661 0.0000 8.4779
#
#
#
# Elastic Compliance Matrix: (Units=1/GPa)
#
#
# Indices 1 2 3 4 5 6 
#
# 1 0.012106 -0.001975 -0.000361 0.000000 -0.012758 0.000000
# 2 -0.001975 0.009966 -0.003978 0.000000 -0.001547 0.000000
# 3 -0.000361 -0.003978 0.017130 0.000000 -0.017589 0.000000
# 4 0.000000 0.000000 0.000000 0.033582 0.000000 -0.002242
# 5 -0.012758 -0.001547 -0.017589 0.000000 0.082989 0.000000
# 6 0.000000 0.000000 0.000000 -0.002242 0.000000 0.118103
#
#
# Mechanical properties :
#
#
# Convention : Reuss Voigt Hill
#
# Bulk Modulus (GPa) = 37.62873 70.93369 54.28121
# Shear Modulus (GPa) = 16.92841 26.61907 21.77374
#
# Velocity S-wave (km/s) = 2.82760 3.54574 3.20683
# Velocity P-wave (km/s) = 5.33222 7.08979 6.27287
#
# Compressibility (1/GPa) = 0.02657544
#
# Stress axis : x y z
#
# Youngs Moduli (GPa) = 82.60115 100.34329 58.37713
#
# Poissons Ratio (x) = 0.19819 0.02105
# Poissons Ratio (y) = 0.16314 0.23221
# Poissons Ratio (z) = 0.02978 0.39913
#
# Static dielectric constant tensor:
#      x y z
#    x 1.774800 0.000000 -0.002440 
#    y 0.000000 1.762040 0.000000 
#    z -0.002440 0.000000 1.753940 
# 
# From -- ./inp_files/118806.got.cif
#   From: 2010.05.17/outbox.cif.g08.bks.cpg/sg12_60_cif.got.tgz:118806.got - 2010.06.03 13:09:07.
