data_PCOD9212694
_publ_section_title
;
Structure prediction by ZEFSAII (Michael W. Deem and Ramdas Pophale) SiO2 
 PCOD9212694
Probable space group: C 2/M
;
_chemical_formula_sum "Si O2"
_cell_formula_units_Z 42
_cell_length_a 31.063218
_cell_length_b 7.204130
_cell_length_c 7.410020
_cell_angle_alpha 90.000000
_cell_angle_beta 110.248400
_cell_angle_gamma 90.000000
_cell_volume 1555.762352
_symmetry_space_group_name_H-M "C 2/M"
_symmetry_group_IT_number 12
_symmetry_cell_setting 'monoclinic'
loop_
_space_group_symop_operation_xyz
x,y,z
-x,y,-z
-x,-y,-z
x,-y,z
1/2+x,1/2+y,z
1/2-x,1/2+y,-z
1/2-x,1/2-y,-z
1/2+x,1/2-y,z
loop_
_atom_site_type_symbol
_atom_site_label
_atom_site_fract_x
_atom_site_fract_y
_atom_site_fract_z
Si Si1 0.187247 0.284692 0.259789
Si Si2 0.543241 0.777603 0.275062
Si Si3 0.283804 0.223546 0.302435
Si Si4 0.619668 0.777877 0.661960
Si Si5 0.000000 0.000000 0.500000
Si Si6 0.411923 0.226172 0.015763
O O1 0.177983 0.500000 0.281157
O O2 0.231255 0.276878 0.191456
O O3 0.203927 0.208655 0.476328
O O4 0.139146 0.213012 0.119249
O O5 0.594124 0.746574 0.437393
O O6 0.511818 0.661179 0.361861
O O7 0.449307 0.720347 0.922091
O O8 0.533048 0.000000 0.268898
O O9 0.328012 0.288281 0.255238
O O10 0.283643 0.000000 0.298602
O O11 0.587652 0.708382 0.777120
O O12 0.622284 0.000000 0.685923
O O13 0.413950 0.000000 0.018437
#
# Coordination Sequence:
#
# PCOD9212694 Si02
#       6
#     8   8   8   8   2   8
#     4   9  16  28  46  74 111 153 198 244 285 334
#     4  10  21  43  66  89 121 151 191 245 302 364
#     4   9  16  28  46  74 111 153 198 244 285 334
#     4   9  17  33  59  84 112 156 201 239 290 354
#     4  12  26  44  70  98 116 154 194 244 318 378
#     4   9  17  33  59  84 112 156 201 239 290 354
#
# _framework density 26.996410000000001
#
# number of rings (size 3 to 8) (size 9 to 14) (size 15 to 20)
#    0.000    2.667    1.905    0.286    0.000    0.762 
#    3.429    2.857    0.000    4.571    0.000    0.000 
#    0.000    0.000    0.000    0.000    0.000    0.000 
#
# Total GULP energy -117182.616474 kJ/mol
# GULP energy per Si atom -5580.124594 kJ/mol
# Density = 2.693497 g / cm^3
# Si number density = 26.996410 Si / 1000 Ang^3
#
#
#
# Elastic Constant Matrix: (Units=GPa)
#
#
# Indices 1 2 3 4 5 6 
#
# 1 204.5209 -2.5619 52.2236 0.0000 -15.2585 0.0000
# 2 -2.5619 138.0017 -5.1685 0.0000 -11.4188 0.0000
# 3 52.2236 -5.1685 73.2480 0.0000 -13.9992 0.0000
# 4 0.0000 0.0000 0.0000 -26.3095 0.0000 -2.2386
# 5 -15.2585 -11.4188 -13.9992 0.0000 61.3060 0.0000
# 6 0.0000 0.0000 0.0000 -2.2386 0.0000 17.2941
#
#
#
# Elastic Compliance Matrix: (Units=1/GPa)
#
#
# Indices 1 2 3 4 5 6 
#
# 1 0.005995 0.000000 -0.004171 0.000000 0.000540 0.000000
# 2 0.000000 0.007407 0.000822 0.000000 0.001567 0.000000
# 3 -0.004171 0.000822 0.017269 0.000000 0.003058 0.000000
# 4 0.000000 0.000000 0.000000 -0.037595 0.000000 -0.004866
# 5 0.000540 0.001567 0.003058 0.000000 0.017436 0.000000
# 6 0.000000 0.000000 0.000000 -0.004866 0.000000 0.057193
#
#
# Mechanical properties :
#
#
# Convention : Reuss Voigt Hill
#
# Bulk Modulus (GPa) = 41.71477 56.08411 48.89944
# Shear Modulus (GPa) = 60.68458 35.20994 47.94726
#
# Velocity S-wave (km/s) = 4.74632 3.61535 4.21891
# Velocity P-wave (km/s) = 6.74702 6.18445 6.47185
#
# Compressibility (1/GPa) = 0.02397232
#
# Stress axis : x y z
#
# Youngs Moduli (GPa) = 166.81207 135.01173 57.90863
#
# Poissons Ratio (x) = 0.00004 0.24154
# Poissons Ratio (y) = 0.00005 -0.04762
# Poissons Ratio (z) = 0.69577 -0.11103
#
# Static dielectric constant tensor:
#      x y z
#    x 2.117260 0.000000 0.028410 
#    y 0.000000 2.038290 0.000000 
#    z 0.028410 0.000000 2.112780 
# 
# From -- ./inp_files/108898.got.cif
#   From: 2010.05.17/outbox.cif.g08.bks.cpg/sg12_55_cif.got.tgz:108898.got - 2010.06.03 13:09:07.
