data_PCOD9212857
_publ_section_title
;
Structure prediction by ZEFSAII (Michael W. Deem and Ramdas Pophale) SiO2 
 PCOD9212857
Probable space group: C 2/M
;
_chemical_formula_sum "Si O2"
_cell_formula_units_Z 48
_cell_length_a 8.942263
_cell_length_b 17.878899
_cell_length_c 25.233810
_cell_angle_alpha 90.000000
_cell_angle_beta 139.615774
_cell_angle_gamma 90.000000
_cell_volume 2613.881338
_symmetry_space_group_name_H-M "C 2/M"
_symmetry_group_IT_number 12
_symmetry_cell_setting 'monoclinic'
loop_
_space_group_symop_operation_xyz
x,y,z
-x,y,-z
-x,-y,-z
x,-y,z
1/2+x,1/2+y,z
1/2-x,1/2+y,-z
1/2-x,1/2-y,-z
1/2+x,1/2-y,z
loop_
_atom_site_type_symbol
_atom_site_label
_atom_site_fract_x
_atom_site_fract_y
_atom_site_fract_z
Si Si1 0.411279 0.087331 0.245279
Si Si2 0.999951 0.199291 0.114845
Si Si3 0.000000 0.186421 0.500000
Si Si4 0.590166 0.087117 0.414713
Si Si5 0.217742 0.803639 0.353852
Si Si6 0.796436 0.694590 0.747483
Si Si7 0.500000 0.765953 0.000000
O O1 0.174900 0.134265 0.178675
O O2 0.522106 0.094008 0.333932
O O3 0.578714 0.126186 0.247692
O O4 0.376171 0.000000 0.225108
O O5 0.081907 0.275175 0.166727
O O6 0.013406 0.215222 0.056064
O O7 0.734842 0.186935 0.059004
O O8 0.825241 0.133871 0.485407
O O9 0.846408 0.240624 0.422793
O O10 0.385481 0.126079 0.392019
O O11 0.619198 0.000000 0.434982
O O12 0.183022 0.764121 0.287705
O O13 0.970568 0.820742 0.312276
#
# Coordination Sequence:
#
# PCOD9212857 Si02
#       7
#     8   8   4   8   8   8   4
#     4  11  23  40  62  89 122 159 196 245 301 350
#     4  11  19  38  61  92 116 154 194 246 281 359
#     4  12  21  38  63  84 120 158 204 250 297 350
#     4  11  24  40  59  87 121 159 197 248 306 350
#     4  12  22  36  63  90 111 158 206 251 287 348
#     4  12  20  39  64  86 117 155 206 243 282 356
#     4  10  22  32  66  94 116 148 202 236 300 340
#
# _framework density 18.363496000000001
#
# number of rings (size 3 to 8) (size 9 to 14) (size 15 to 20)
#    0.000    0.667    8.333    0.750    0.000    0.667 
#    0.000    1.250    0.000    0.000    0.000    0.000 
#    0.000    0.000    0.000    0.000    0.000    0.000 
#
# Total GULP energy -134118.255647 kJ/mol
# GULP energy per Si atom -5588.260652 kJ/mol
# Density = 1.832170 g / cm^3
# Si number density = 18.363496 Si / 1000 Ang^3
#
#
#
# Elastic Constant Matrix: (Units=GPa)
#
#
# Indices 1 2 3 4 5 6 
#
# 1 117.4927 53.4479 32.6495 -0.0001 45.6400 0.0000
# 2 53.4479 113.5515 27.4868 -0.0001 20.4873 0.0000
# 3 32.6495 27.4868 58.3695 -0.0002 30.6900 0.0000
# 4 -0.0001 -0.0001 -0.0002 -2.3220 -0.0001 -4.5416
# 5 45.6400 20.4873 30.6900 -0.0001 39.9148 0.0000
# 6 0.0000 0.0000 0.0000 -4.5416 0.0000 23.0077
#
#
#
# Elastic Compliance Matrix: (Units=1/GPa)
#
#
# Indices 1 2 3 4 5 6 
#
# 1 0.018008 -0.005607 0.003157 0.000000 -0.020141 0.000000
# 2 -0.005607 0.011839 -0.004389 0.000000 0.003709 0.000000
# 3 0.003157 -0.004389 0.030461 -0.000001 -0.024778 0.000000
# 4 0.000000 0.000000 -0.000001 -0.310701 0.000000 -0.061331
# 5 -0.020141 0.003709 -0.024778 0.000000 0.065231 0.000000
# 6 0.000000 0.000000 0.000000 -0.061331 0.000000 0.031357
#
#
# Mechanical properties :
#
#
# Convention : Reuss Voigt Hill
#
# Bulk Modulus (GPa) = 21.44499 57.39800 39.42150
# Shear Modulus (GPa) = -40.13365 23.84207 -8.14579
#
# Velocity S-wave (km/s) = -4.68002 3.60716 -2.10843
# Velocity P-wave (km/s) = 4.18330 6.97662 3.94799
#
# Compressibility (1/GPa) = 0.04663093
#
# Stress axis : x y z
#
# Youngs Moduli (GPa) = 55.53103 84.46787 32.82850
#
# Poissons Ratio (x) = 0.47358 -0.10364
# Poissons Ratio (y) = 0.31134 0.14408
# Poissons Ratio (z) = -0.17531 0.37073
#
# Static dielectric constant tensor:
#      x y z
#    x 1.651450 0.000000 -0.015680 
#    y 0.000000 1.594040 0.000000 
#    z -0.015680 0.000000 1.674580 
# 
# From -- ./inp_files/356592.got.cif
#   From: 2010.05.17/outbox.cif.g08.bks.cpg/sg12_179_cif.got.tgz:356592.got - 2010.06.03 13:09:07.
