data_PCOD9212184
_publ_section_title
;
Structure prediction by ZEFSAII (Michael W. Deem and Ramdas Pophale) SiO2 
 PCOD9212184
Probable space group: C 2/M
;
_chemical_formula_sum "Si O2"
_cell_formula_units_Z 64
_cell_length_a 18.410036
_cell_length_b 14.251782
_cell_length_c 19.641151
_cell_angle_alpha 90.000000
_cell_angle_beta 137.788636
_cell_angle_gamma 90.000000
_cell_volume 3462.377213
_symmetry_space_group_name_H-M "C 2/M"
_symmetry_group_IT_number 12
_symmetry_cell_setting 'monoclinic'
loop_
_space_group_symop_operation_xyz
x,y,z
-x,y,-z
-x,-y,-z
x,-y,z
1/2+x,1/2+y,z
1/2-x,1/2+y,-z
1/2-x,1/2-y,-z
1/2+x,1/2-y,z
loop_
_atom_site_type_symbol
_atom_site_label
_atom_site_fract_x
_atom_site_fract_y
_atom_site_fract_z
Si Si1 0.293911 0.754899 0.232465
Si Si2 0.054999 0.776606 0.112862
Si Si3 0.547744 0.101852 0.878813
Si Si4 0.875173 0.223804 0.591020
Si Si5 0.537215 0.890821 0.708670
Si Si6 0.730274 0.669407 0.930572
Si Si7 0.985833 0.891341 0.786632
Si Si8 0.523518 0.391699 0.596356
O O1 0.184457 0.771532 0.197078
O O2 0.361700 0.848715 0.262633
O O3 0.259034 0.715154 0.135338
O O4 0.375310 0.676978 0.319224
O O5 0.011458 0.683899 0.121431
O O6 0.025123 0.861509 0.142408
O O7 0.000000 0.783651 0.000000
O O8 0.553171 0.119241 0.801416
O O9 0.495703 0.000000 0.853683
O O10 0.670809 0.100273 0.989518
O O11 0.750000 0.250000 0.500000
O O12 0.939299 0.321038 0.624938
O O13 0.912599 0.176168 0.688287
O O14 0.922255 0.151699 0.567441
O O15 0.518894 0.000000 0.681241
O O16 0.610886 0.627305 0.853834
O O17 0.750000 0.750000 0.000000
O O18 0.958783 0.000000 0.756931
O O19 0.500000 0.391197 0.500000
O O20 0.543543 0.500000 0.631746
#
# Coordination Sequence:
#
# PCOD9212184 Si02
#       8
#     8   8   8   8   8   8   8   8
#     4  11  22  38  64  85 126 168 200 253 310 364
#     4  12  24  41  58  88 136 170 206 253 308 368
#     4  11  22  37  61  91 123 164 209 257 310 364
#     4  11  23  42  68  94 125 159 200 262 321 369
#     4  10  21  41  65  90 118 160 212 252 301 371
#     4  12  18  40  63  89 122 164 209 252 300 364
#     4  12  25  42  65  93 125 165 215 258 306 375
#     4  10  23  42  66  95 121 156 208 259 318 377
#
# _framework density 18.484408999999999
#
# number of rings (size 3 to 8) (size 9 to 14) (size 15 to 20)
#    0.000    0.875    7.500    0.750    1.750    3.000 
#    0.000    2.500    0.000    1.500    0.000    0.000 
#    0.000    0.000    0.000    0.000    0.000    0.000 
#
# Total GULP energy -178648.156356 kJ/mol
# GULP energy per Si atom -5582.754886 kJ/mol
# Density = 1.844234 g / cm^3
# Si number density = 18.484409 Si / 1000 Ang^3
#
#
#
# Elastic Constant Matrix: (Units=GPa)
#
#
# Indices 1 2 3 4 5 6 
#
# 1 93.9429 36.7150 27.6073 0.0000 18.5406 0.0000
# 2 36.7150 133.3804 30.1987 0.0000 4.1951 0.0000
# 3 27.6073 30.1987 62.9949 0.0000 10.4576 0.0000
# 4 0.0000 0.0000 0.0000 17.4376 0.0000 -8.0467
# 5 18.5406 4.1951 10.4576 0.0000 37.8229 0.0000
# 6 0.0000 0.0000 0.0000 -8.0467 0.0000 2.6683
#
#
#
# Elastic Compliance Matrix: (Units=1/GPa)
#
#
# Indices 1 2 3 4 5 6 
#
# 1 0.013950 -0.002792 -0.003869 0.000000 -0.005459 0.000000
# 2 -0.002792 0.008970 -0.003290 0.000000 0.001283 0.000000
# 3 -0.003869 -0.003290 0.019674 0.000000 -0.003178 0.000000
# 4 0.000000 0.000000 0.000000 -0.146446 0.000000 -0.441628
# 5 -0.005459 0.001283 -0.003178 0.000000 0.029851 0.000000
# 6 0.000000 0.000000 0.000000 -0.441628 0.000000 -0.957024
#
#
# Mechanical properties :
#
#
# Convention : Reuss Voigt Hill
#
# Bulk Modulus (GPa) = 44.06529 53.26225 48.66377
# Shear Modulus (GPa) = -4.98228 24.63891 9.82832
#
# Velocity S-wave (km/s) = -1.64355 3.65493 2.30838
# Velocity P-wave (km/s) = 4.50436 6.83290 5.78696
#
# Compressibility (1/GPa) = 0.02269360
#
# Stress axis : x y z
#
# Youngs Moduli (GPa) = 71.68226 111.47730 50.82741
#
# Poissons Ratio (x) = 0.31129 0.19664
# Poissons Ratio (y) = 0.20017 0.16720
# Poissons Ratio (z) = 0.27733 0.36671
#
# Static dielectric constant tensor:
#      x y z
#    x 1.635560 0.000000 0.004520 
#    y 0.000000 1.654020 0.000000 
#    z 0.004520 0.000000 1.638020 
# 
# From -- ./inp_files/278212.got.cif
#   From: 2010.05.17/outbox.cif.g08.bks.cpg/sg12_140_cif.got.tgz:278212.got - 2010.06.03 13:09:07.
