data_PCOD9212748
_publ_section_title
;
Structure prediction by ZEFSAII (Michael W. Deem and Ramdas Pophale) SiO2 
 PCOD9212748
Probable space group: C 2/M
;
_chemical_formula_sum "Si O2"
_cell_formula_units_Z 48
_cell_length_a 18.492563
_cell_length_b 28.667263
_cell_length_c 8.998762
_cell_angle_alpha 90.000000
_cell_angle_beta 30.722974
_cell_angle_gamma 90.000000
_cell_volume 2437.201915
_symmetry_space_group_name_H-M "C 2/M"
_symmetry_group_IT_number 12
_symmetry_cell_setting 'monoclinic'
loop_
_space_group_symop_operation_xyz
x,y,z
-x,y,-z
-x,-y,-z
x,-y,z
1/2+x,1/2+y,z
1/2-x,1/2+y,-z
1/2-x,1/2-y,-z
1/2+x,1/2-y,z
loop_
_atom_site_type_symbol
_atom_site_label
_atom_site_fract_x
_atom_site_fract_y
_atom_site_fract_z
Si Si1 0.400066 0.697988 0.810371
Si Si2 0.132451 0.630390 0.864554
Si Si3 0.142524 0.741832 0.825449
Si Si4 0.892729 0.944998 0.828100
Si Si5 0.843862 0.626292 0.839391
Si Si6 0.450676 0.621257 0.248814
O O1 0.500000 0.717314 0.500000
O O2 0.500187 0.660172 0.718196
O O3 0.345175 0.732594 0.037135
O O4 0.263480 0.670262 0.988697
O O5 0.132702 0.686731 0.870445
O O6 0.283461 0.615713 0.535896
O O7 0.129117 0.613535 0.038160
O O8 0.000000 0.615473 0.000000
O O9 0.250000 0.750000 0.500000
O O10 0.000000 0.758446 0.000000
O O11 0.973368 0.925518 0.829549
O O12 0.000000 0.934453 0.500000
O O13 0.868369 0.000000 0.874071
O O14 0.747781 0.915840 0.068605
O O15 0.000000 0.635508 0.500000
O O16 0.500000 0.635387 0.000000
#
# Coordination Sequence:
#
# PCOD9212748 Si02
#       6
#     8   8   8   8   8   8
#     4  11  22  42  66  88 123 174 229 271 313 368
#     4  11  24  40  58  88 130 167 212 256 327 378
#     4  11  25  40  59  88 128 173 221 273 321 368
#     4  10  21  43  72  95 122 161 209 265 316 381
#     4  11  24  40  64  95 126 164 209 259 326 385
#     4  11  21  40  67  92 124 167 212 263 311 386
#
# _framework density 19.694718000000002
#
# number of rings (size 3 to 8) (size 9 to 14) (size 15 to 20)
#    0.000    1.167    3.333    3.500    9.333    2.000 
#    0.000    0.000    0.000    1.000    0.000    0.000 
#    0.000    0.000    0.000    0.000    0.000    0.000 
#
# Total GULP energy -134013.783103 kJ/mol
# GULP energy per Si atom -5583.907629 kJ/mol
# Density = 1.964989 g / cm^3
# Si number density = 19.694718 Si / 1000 Ang^3
#
#
#
# Elastic Constant Matrix: (Units=GPa)
#
#
# Indices 1 2 3 4 5 6 
#
# 1 132.7817 23.2055 63.4531 0.0000 -19.8817 0.0000
# 2 23.2055 57.1465 13.4508 0.0000 -6.5527 0.0000
# 3 63.4531 13.4508 165.0252 0.0000 -14.2691 0.0000
# 4 0.0000 0.0000 0.0000 8.6413 0.0000 -0.5735
# 5 -19.8817 -6.5527 -14.2691 0.0000 44.9378 0.0000
# 6 0.0000 0.0000 0.0000 -0.5735 0.0000 14.5348
#
#
#
# Elastic Compliance Matrix: (Units=1/GPa)
#
#
# Indices 1 2 3 4 5 6 
#
# 1 0.010114 -0.002969 -0.003391 0.000000 0.002965 0.000000
# 2 -0.002969 0.018927 -0.000284 0.000000 0.001356 0.000000
# 3 -0.003391 -0.000284 0.007458 0.000000 0.000827 0.000000
# 4 0.000000 0.000000 0.000000 0.116027 0.000000 0.004578
# 5 0.002965 0.001356 0.000827 0.000000 0.024025 0.000000
# 6 0.000000 0.000000 0.000000 0.004578 0.000000 0.068981
#
#
# Mechanical properties :
#
#
# Convention : Reuss Voigt Hill
#
# Bulk Modulus (GPa) = 43.08075 61.68580 52.38327
# Shear Modulus (GPa) = 18.75776 30.61238 24.68507
#
# Velocity S-wave (km/s) = 3.08949 3.94680 3.54416
# Velocity P-wave (km/s) = 5.88628 7.22209 6.58813
#
# Compressibility (1/GPa) = 0.02321222
#
# Stress axis : x y z
#
# Youngs Moduli (GPa) = 98.86954 52.83503 134.08411
#
# Poissons Ratio (x) = 0.15687 0.45463
# Poissons Ratio (y) = 0.29355 0.03805
# Poissons Ratio (z) = 0.33523 0.01499
#
# Static dielectric constant tensor:
#      x y z
#    x 1.721490 0.000000 0.044110 
#    y 0.000000 1.689850 0.000000 
#    z 0.044110 0.000000 1.705510 
# 
# From -- ./inp_files/80566.got.cif
#   From: 2010.05.17/outbox.cif.g08.bks.cpg/sg12_41_cif.got.tgz:80566.got - 2010.06.03 13:09:07.
