data_PCOD9212645
_publ_section_title
;
Structure prediction by ZEFSAII (Michael W. Deem and Ramdas Pophale) SiO2 
 PCOD9212645
Probable space group: C 2/M
;
_chemical_formula_sum "Si O2"
_cell_formula_units_Z 48
_cell_length_a 14.131237
_cell_length_b 14.864319
_cell_length_c 28.919661
_cell_angle_alpha 90.000000
_cell_angle_beta 158.587423
_cell_angle_gamma 90.000000
_cell_volume 2217.725585
_symmetry_space_group_name_H-M "C 2/M"
_symmetry_group_IT_number 12
_symmetry_cell_setting 'monoclinic'
loop_
_space_group_symop_operation_xyz
x,y,z
-x,y,-z
-x,-y,-z
x,-y,z
1/2+x,1/2+y,z
1/2-x,1/2+y,-z
1/2-x,1/2-y,-z
1/2+x,1/2-y,z
loop_
_atom_site_type_symbol
_atom_site_label
_atom_site_fract_x
_atom_site_fract_y
_atom_site_fract_z
Si Si1 0.251952 0.601639 0.217595
Si Si2 0.661546 0.847688 0.530439
Si Si3 0.985691 0.776490 0.074446
Si Si4 0.274949 0.857718 0.609738
Si Si5 0.628819 0.899281 0.691157
Si Si6 0.087974 0.605479 0.844273
O O1 0.175646 0.500000 0.168697
O O2 0.564090 0.607774 0.358087
O O3 0.138827 0.683394 0.134945
O O4 0.126458 0.616330 0.211792
O O5 0.500000 0.887748 0.500000
O O6 0.733528 0.746203 0.577229
O O7 0.469176 0.851084 0.399491
O O8 0.168342 0.841035 0.187722
O O9 0.750000 0.750000 0.000000
O O10 0.838027 0.833942 0.968696
O O11 0.386650 0.904065 0.615524
O O12 0.465862 0.867407 0.739885
O O13 0.000000 0.894976 0.500000
O O14 0.723453 0.000000 0.723817
O O15 0.157351 0.500000 0.875105
#
# Coordination Sequence:
#
# PCOD9212645 Si02
#       6
#     8   8   8   8   8   8
#     4  10  21  42  70  98 130 173 223 273 328 386
#     4  11  25  42  68  94 133 177 227 271 331 385
#     4  10  23  41  70  96 136 177 217 267 329 393
#     4  11  24  40  70 100 137 171 216 269 343 400
#     4  12  25  43  68 100 136 175 220 274 332 398
#     4  10  22  42  70 104 135 170 216 272 335 400
#
# _framework density 21.643796999999999
#
# number of rings (size 3 to 8) (size 9 to 14) (size 15 to 20)
#    0.000    1.333    1.667    3.000    9.333    5.333 
#    0.000    1.667    0.000    1.000    0.000    0.000 
#    0.000    0.000    0.000    0.000    0.000    0.000 
#
# Total GULP energy -134123.946682 kJ/mol
# GULP energy per Si atom -5588.497778 kJ/mol
# Density = 2.159453 g / cm^3
# Si number density = 21.643797 Si / 1000 Ang^3
#
#
#
# Elastic Constant Matrix: (Units=GPa)
#
#
# Indices 1 2 3 4 5 6 
#
# 1 112.2523 20.0658 48.9343 -0.0104 -8.4805 0.0123
# 2 20.0658 137.1542 33.3246 -0.0131 -16.8329 0.0184
# 3 48.9343 33.3246 112.9427 -0.0682 -20.4279 0.0734
# 4 -0.0104 -0.0131 -0.0682 72.1657 -0.0016 -51.5360
# 5 -8.4805 -16.8329 -20.4279 -0.0016 43.6186 -0.0031
# 6 0.0123 0.0184 0.0734 -51.5360 -0.0031 66.4098
#
#
#
# Elastic Compliance Matrix: (Units=1/GPa)
#
#
# Indices 1 2 3 4 5 6 
#
# 1 0.011015 -0.000507 -0.004666 -0.000001 -0.000239 0.000002
# 2 -0.000507 0.008062 -0.001764 -0.000001 0.002187 -0.000001
# 3 -0.004666 -0.001764 0.012137 0.000005 0.004096 -0.000008
# 4 -0.000001 -0.000001 0.000005 0.031083 0.000005 0.024121
# 5 -0.000239 0.002187 0.004096 0.000005 0.025642 0.000000
# 6 0.000002 -0.000001 -0.000008 0.024121 0.000000 0.033777
#
#
# Mechanical properties :
#
#
# Convention : Reuss Voigt Hill
#
# Bulk Modulus (GPa) = 57.66825 62.99983 60.33404
# Shear Modulus (GPa) = 35.36831 53.77380 44.57106
#
# Velocity S-wave (km/s) = 4.04680 4.98987 4.54287
# Velocity P-wave (km/s) = 6.96689 7.89742 7.44670
#
# Compressibility (1/GPa) = 0.01734056
#
# Stress axis : x y z
#
# Youngs Moduli (GPa) = 90.78356 124.03664 82.39271
#
# Poissons Ratio (x) = 0.06291 0.38446
# Poissons Ratio (y) = 0.04604 0.14530
# Poissons Ratio (z) = 0.42361 0.21874
#
# Static dielectric constant tensor:
#      x y z
#    x 1.788390 0.000000 0.028080 
#    y 0.000000 1.824900 0.000000 
#    z 0.028080 0.000000 1.763750 
# 
# From -- ./inp_files/376557.got.cif
#   From: 2010.05.17/outbox.cif.g08.bks.cpg/sg12_189_cif.got.tgz:376557.got - 2010.06.03 13:09:07.
