data_PCOD9212275
_publ_section_title
;
Structure prediction by ZEFSAII (Michael W. Deem and Ramdas Pophale) SiO2 
 PCOD9212275
Probable space group: C 2/M
;
_chemical_formula_sum "Si O2"
_cell_formula_units_Z 48
_cell_length_a 19.226559
_cell_length_b 11.313986
_cell_length_c 15.188487
_cell_angle_alpha 90.000000
_cell_angle_beta 42.559138
_cell_angle_gamma 90.000000
_cell_volume 2234.620319
_symmetry_space_group_name_H-M "C 2/M"
_symmetry_group_IT_number 12
_symmetry_cell_setting 'monoclinic'
loop_
_space_group_symop_operation_xyz
x,y,z
-x,y,-z
-x,-y,-z
x,-y,z
1/2+x,1/2+y,z
1/2-x,1/2+y,-z
1/2-x,1/2-y,-z
1/2+x,1/2-y,z
loop_
_atom_site_type_symbol
_atom_site_label
_atom_site_fract_x
_atom_site_fract_y
_atom_site_fract_z
Si Si1 0.501636 0.500000 0.107999
Si Si2 0.118230 0.128674 0.411516
Si Si3 0.425461 0.000000 0.981987
Si Si4 0.793994 0.270432 0.151669
Si Si5 0.460512 0.000000 0.746223
Si Si6 0.371658 0.818528 0.450330
Si Si7 0.775691 0.000000 0.094944
Si Si8 0.843446 0.801209 0.295033
O O1 0.438787 0.387349 0.197928
O O2 0.500000 0.500000 0.000000
O O3 0.611582 0.500000 0.054004
O O4 0.177179 0.189548 0.276008
O O5 0.123252 0.201317 0.496245
O O6 0.000000 0.119667 0.500000
O O7 0.166011 0.000000 0.379201
O O8 0.357274 0.876961 0.046301
O O9 0.500000 0.000000 0.000000
O O10 0.476756 0.000000 0.836935
O O11 0.838832 0.267408 0.208172
O O12 0.788315 0.131543 0.128619
O O13 0.523545 0.891685 0.643799
O O14 0.337985 0.000000 0.841360
O O15 0.264520 0.870006 0.588495
O O16 0.354585 0.786550 0.365381
#
# Coordination Sequence:
#
# PCOD9212275 Si02
#       8
#     4   8   4   8   4   8   4   8
#     4  12  23  41  67  97 137 181 230 288 334 430
#     4  10  21  41  66  97 131 174 222 278 350 418
#     4  12  28  45  75  99 141 185 235 290 356 412
#     4  11  23  46  68 103 134 184 231 293 340 424
#     4  12  27  47  65 104 146 189 232 290 354 432
#     4  10  23  42  68  98 134 175 228 296 347 411
#     4  12  28  43  70 102 145 192 237 278 363 418
#     4  10  22  41  69 102 132 173 235 292 351 404
#
# _framework density 21.480160000000001
#
# number of rings (size 3 to 8) (size 9 to 14) (size 15 to 20)
#    0.000    1.167    2.500    2.500    5.833    2.667 
#    7.500    4.167    0.000    0.000    0.000    0.000 
#    0.000    0.000    0.000    0.000    0.000    0.000 
#
# Total GULP energy -133641.062683 kJ/mol
# GULP energy per Si atom -5568.377612 kJ/mol
# Density = 2.143127 g / cm^3
# Si number density = 21.480160 Si / 1000 Ang^3
#
#
#
# Elastic Constant Matrix: (Units=GPa)
#
#
# Indices 1 2 3 4 5 6 
#
# 1 65.2517 14.7368 13.3812 0.0000 -22.5366 0.0000
# 2 14.7368 131.2979 42.2579 0.0000 0.1074 0.0000
# 3 13.3812 42.2579 98.8382 0.0000 -21.6658 0.0000
# 4 0.0000 0.0000 0.0000 37.8064 0.0000 -14.4603
# 5 -22.5366 0.1074 -21.6658 0.0000 40.7665 0.0000
# 6 0.0000 0.0000 0.0000 -14.4603 0.0000 23.6001
#
#
#
# Elastic Compliance Matrix: (Units=1/GPa)
#
#
# Indices 1 2 3 4 5 6 
#
# 1 0.019619 -0.002500 0.000896 0.000000 0.011328 0.000000
# 2 -0.002500 0.009344 -0.004488 0.000000 -0.003792 0.000000
# 3 0.000896 -0.004488 0.013612 0.000000 0.007741 0.000000
# 4 0.000000 0.000000 0.000000 0.034547 0.000000 0.021168
# 5 0.011328 -0.003792 0.007741 0.000000 0.034917 0.000000
# 6 0.000000 0.000000 0.000000 0.021168 0.000000 0.055343
#
#
# Mechanical properties :
#
#
# Convention : Reuss Voigt Hill
#
# Bulk Modulus (GPa) = 32.90372 48.45998 40.68185
# Shear Modulus (GPa) = 26.35815 35.43539 30.89677
#
# Velocity S-wave (km/s) = 3.50679 4.06603 3.79672
# Velocity P-wave (km/s) = 5.63455 6.68228 6.18066
#
# Compressibility (1/GPa) = 0.03039170
#
# Stress axis : x y z
#
# Youngs Moduli (GPa) = 50.97193 107.01680 73.46485
#
# Poissons Ratio (x) = 0.26750 -0.06581
# Poissons Ratio (y) = 0.12741 0.32970
# Poissons Ratio (z) = -0.04566 0.48028
#
# Static dielectric constant tensor:
#      x y z
#    x 1.834680 0.000000 -0.071920 
#    y 0.000000 1.892470 0.000000 
#    z -0.071920 0.000000 1.826300 
# 
# From -- ./inp_files/232848.got.cif
#   From: 2010.05.17/outbox.cif.g08.bks.cpg/sg12_117_cif.got.tgz:232848.got - 2010.06.03 13:09:07.
