data_PCOD9212842
_publ_section_title
;
Structure prediction by ZEFSAII (Michael W. Deem and Ramdas Pophale) SiO2 
 PCOD9212842
Probable space group: C 2/M
;
_chemical_formula_sum "Si O2"
_cell_formula_units_Z 56
_cell_length_a 9.874874
_cell_length_b 26.952040
_cell_length_c 15.024482
_cell_angle_alpha 90.000000
_cell_angle_beta 121.198640
_cell_angle_gamma 90.000000
_cell_volume 3420.424875
_symmetry_space_group_name_H-M "C 2/M"
_symmetry_group_IT_number 12
_symmetry_cell_setting 'monoclinic'
loop_
_space_group_symop_operation_xyz
x,y,z
-x,y,-z
-x,-y,-z
x,-y,z
1/2+x,1/2+y,z
1/2-x,1/2+y,-z
1/2-x,1/2-y,-z
1/2+x,1/2-y,z
loop_
_atom_site_type_symbol
_atom_site_label
_atom_site_fract_x
_atom_site_fract_y
_atom_site_fract_z
Si Si1 0.300513 0.942252 0.827990
Si Si2 0.964154 0.707104 0.762384
Si Si3 0.948865 0.193475 0.118785
Si Si4 0.276787 0.348768 0.893701
Si Si5 0.646244 0.656785 0.721034
Si Si6 0.321487 0.943015 0.046967
Si Si7 0.069920 0.766033 0.427727
O O1 0.194175 0.901182 0.742089
O O2 0.489150 0.934667 0.875723
O O3 0.263891 0.000000 0.794482
O O4 0.284831 0.935842 0.929669
O O5 0.999025 0.750224 0.846045
O O6 0.790998 0.685233 0.721852
O O7 0.986166 0.732800 0.674187
O O8 0.097594 0.665754 0.814180
O O9 0.106508 0.162331 0.147962
O O10 0.867310 0.174034 0.180742
O O11 0.837571 0.185651 0.995869
O O12 0.277812 0.404584 0.929278
O O13 0.487175 0.678219 0.619613
O O14 0.288864 0.000000 0.058268
O O15 0.250000 0.750000 0.500000
O O16 0.000000 0.755059 0.500000
#
# Coordination Sequence:
#
# PCOD9212842 Si02
#       7
#     8   8   8   8   8   8   8
#     4   9  17  32  53  80 107 141 187 228 260 309
#     4  11  22  35  55  76 104 145 184 219 263 327
#     4  10  22  32  45  77 115 147 177 220 262 319
#     4  11  20  34  48  75 113 148 183 217 265 310
#     4  11  20  35  57  80 103 143 185 220 272 318
#     4   9  17  31  52  75 107 150 190 221 258 306
#     4  11  23  40  56  80 107 137 177 226 277 333
#
# _framework density 16.372233999999999
#
# number of rings (size 3 to 8) (size 9 to 14) (size 15 to 20)
#    0.000    1.714    4.286    3.000    2.000    1.714 
#    0.000    2.143    0.000    0.429    0.000    0.000 
#    0.000    2.857    0.000    0.000    0.000    0.000 
#
# Total GULP energy -155999.581871 kJ/mol
# GULP energy per Si atom -5571.413638 kJ/mol
# Density = 1.633497 g / cm^3
# Si number density = 16.372234 Si / 1000 Ang^3
#
#
#
# Elastic Constant Matrix: (Units=GPa)
#
#
# Indices 1 2 3 4 5 6 
#
# 1 67.6190 25.4129 21.5697 0.0000 -8.7073 0.0000
# 2 25.4129 111.5061 32.9015 0.0000 3.8874 0.0000
# 3 21.5697 32.9015 57.7110 0.0000 3.2060 0.0000
# 4 0.0000 0.0000 0.0000 21.9559 0.0000 1.8779
# 5 -8.7073 3.8874 3.2060 0.0000 29.5847 0.0000
# 6 0.0000 0.0000 0.0000 1.8779 0.0000 12.0797
#
#
#
# Elastic Compliance Matrix: (Units=1/GPa)
#
#
# Indices 1 2 3 4 5 6 
#
# 1 0.018463 -0.002753 -0.005687 0.000000 0.006412 0.000000
# 2 -0.002753 0.011209 -0.005266 0.000000 -0.001713 0.000000
# 3 -0.005687 -0.005266 0.022647 0.000000 -0.003436 0.000000
# 4 0.000000 0.000000 0.000000 0.046160 0.000000 -0.007176
# 5 0.006412 -0.001713 -0.003436 0.000000 0.036286 0.000000
# 6 0.000000 0.000000 0.000000 -0.007176 0.000000 0.083899
#
#
# Mechanical properties :
#
#
# Convention : Reuss Voigt Hill
#
# Bulk Modulus (GPa) = 40.15187 44.06713 42.10950
# Shear Modulus (GPa) = 19.65571 23.18753 21.42162
#
# Velocity S-wave (km/s) = 3.46866 3.76742 3.62112
# Velocity P-wave (km/s) = 6.37336 6.77487 6.57718
#
# Compressibility (1/GPa) = 0.02490544
#
# Stress axis : x y z
#
# Youngs Moduli (GPa) = 54.16123 89.21232 44.15676
#
# Poissons Ratio (x) = 0.24563 0.25113
# Poissons Ratio (y) = 0.14912 0.23254
# Poissons Ratio (z) = 0.30803 0.46981
#
# Static dielectric constant tensor:
#      x y z
#    x 1.553510 0.000000 0.024400 
#    y 0.000000 1.560270 0.000000 
#    z 0.024400 0.000000 1.561830 
# 
# From -- ./inp_files/199690.got.cif
#   From: 2010.05.17/outbox.cif.g08.bks.cpg/sg12_100_cif.got.tgz:199690.got - 2010.06.03 13:09:07.
