data_PCOD9212377
_publ_section_title
;
Structure prediction by ZEFSAII (Michael W. Deem and Ramdas Pophale) SiO2 
 PCOD9212377
Probable space group: C 2/M
;
_chemical_formula_sum "Si O2"
_cell_formula_units_Z 52
_cell_length_a 23.442165
_cell_length_b 12.113439
_cell_length_c 11.433050
_cell_angle_alpha 90.000000
_cell_angle_beta 50.869679
_cell_angle_gamma 90.000000
_cell_volume 2518.419610
_symmetry_space_group_name_H-M "C 2/M"
_symmetry_group_IT_number 12
_symmetry_cell_setting 'monoclinic'
loop_
_space_group_symop_operation_xyz
x,y,z
-x,y,-z
-x,-y,-z
x,-y,z
1/2+x,1/2+y,z
1/2-x,1/2+y,-z
1/2-x,1/2-y,-z
1/2+x,1/2-y,z
loop_
_atom_site_type_symbol
_atom_site_label
_atom_site_fract_x
_atom_site_fract_y
_atom_site_fract_z
Si Si1 0.665949 0.288420 0.847311
Si Si2 0.427341 0.873836 0.157401
Si Si3 0.096771 0.222667 0.187420
Si Si4 0.344440 0.500000 0.529330
Si Si5 0.608535 0.500000 0.789144
Si Si6 0.173401 0.769102 0.327105
Si Si7 0.458157 0.872266 0.392732
Si Si8 0.506202 0.500000 0.259515
O O1 0.643973 0.192716 0.786113
O O2 0.626049 0.395119 0.845857
O O3 0.752941 0.300610 0.747343
O O4 0.633957 0.254493 0.014743
O O5 0.440772 0.870656 0.277168
O O6 0.420148 0.000000 0.126855
O O7 0.500000 0.825729 0.000000
O O8 0.156020 0.211319 0.213415
O O9 0.038005 0.316186 0.300106
O O10 0.052239 0.108895 0.226497
O O11 0.338554 0.500000 0.395342
O O12 0.316726 0.387152 0.622036
O O13 0.433094 0.500000 0.433698
O O14 0.470844 0.500000 0.173826
O O15 0.103343 0.704028 0.468716
O O16 0.456508 0.000000 0.433862
#
# Coordination Sequence:
#
# PCOD9212377 Si02
#       8
#     8   8   8   4   4   8   8   4
#     4  12  26  43  67 100 140 178 217 280 339 404
#     4  10  21  41  68  97 129 167 224 280 331 386
#     4  12  24  44  70  97 135 180 229 275 321 403
#     4  10  23  45  70 104 122 171 226 282 345 383
#     4  10  25  43  70 104 133 173 222 280 354 391
#     4  12  27  44  66  99 140 182 220 269 340 404
#     4  11  24  43  70  99 129 177 227 276 330 389
#     4  10  22  44  72 102 124 168 229 292 325 395
#
# _framework density 20.647869
#
# number of rings (size 3 to 8) (size 9 to 14) (size 15 to 20)
#    0.462    0.462    3.077    3.692    2.154    4.923 
#    0.000    0.000    0.000    0.000    0.000    0.000 
#    0.000    0.000    0.000    0.000    0.000    0.000 
#
# Total GULP energy -145335.884682 kJ/mol
# GULP energy per Si atom -5589.841719 kJ/mol
# Density = 2.060087 g / cm^3
# Si number density = 20.647869 Si / 1000 Ang^3
#
#
#
# Elastic Constant Matrix: (Units=GPa)
#
#
# Indices 1 2 3 4 5 6 
#
# 1 117.1171 27.9450 25.7021 0.0000 12.3541 0.0000
# 2 27.9450 95.5511 15.1985 0.0000 4.8289 0.0000
# 3 25.7021 15.1985 26.1090 0.0000 4.1957 0.0000
# 4 0.0000 0.0000 0.0000 15.3949 0.0000 2.1808
# 5 12.3541 4.8289 4.1957 0.0000 13.3913 0.0000
# 6 0.0000 0.0000 0.0000 2.1808 0.0000 13.1345
#
#
#
# Elastic Compliance Matrix: (Units=1/GPa)
#
#
# Indices 1 2 3 4 5 6 
#
# 1 0.011767 -0.001561 -0.009500 0.000000 -0.007317 0.000000
# 2 -0.001561 0.011800 -0.005139 0.000000 -0.001205 0.000000
# 3 -0.009500 -0.005139 0.051533 0.000000 -0.005529 0.000000
# 4 0.000000 0.000000 0.000000 0.066521 0.000000 -0.011045
# 5 -0.007317 -0.001205 -0.005529 0.000000 0.083592 0.000000
# 6 0.000000 0.000000 0.000000 -0.011045 0.000000 0.077969
#
#
# Mechanical properties :
#
#
# Convention : Reuss Voigt Hill
#
# Bulk Modulus (GPa) = 23.41849 41.82981 32.62415
# Shear Modulus (GPa) = 14.29323 19.71292 17.00308
#
# Velocity S-wave (km/s) = 2.63390 3.09321 2.87274
# Velocity P-wave (km/s) = 4.54052 5.74977 5.18055
#
# Compressibility (1/GPa) = 0.04270129
#
# Stress axis : x y z
#
# Youngs Moduli (GPa) = 84.98004 84.74293 19.40518
#
# Poissons Ratio (x) = 0.13226 0.18434
# Poissons Ratio (y) = 0.13263 0.09973
# Poissons Ratio (z) = 0.80729 0.43551
#
# Static dielectric constant tensor:
#      x y z
#    x 1.721250 0.000000 -0.008480 
#    y 0.000000 1.765970 0.000000 
#    z -0.008480 0.000000 1.753890 
# 
# From -- ./inp_files/175221.got.cif
#   From: 2010.05.17/outbox.cif.g08.bks.cpg/sg12_88_cif.got.tgz:175221.got - 2010.06.03 13:09:07.
