data_PCOD9212168
_publ_section_title
;
Structure prediction by ZEFSAII (Michael W. Deem and Ramdas Pophale) SiO2 
 PCOD9212168
Probable space group: C 2/M
;
_chemical_formula_sum "Si O2"
_cell_formula_units_Z 36
_cell_length_a 13.298469
_cell_length_b 23.021030
_cell_length_c 5.607909
_cell_angle_alpha 90.000000
_cell_angle_beta 111.974668
_cell_angle_gamma 90.000000
_cell_volume 1592.101470
_symmetry_space_group_name_H-M "C 2/M"
_symmetry_group_IT_number 12
_symmetry_cell_setting 'monoclinic'
loop_
_space_group_symop_operation_xyz
x,y,z
-x,y,-z
-x,-y,-z
x,-y,z
1/2+x,1/2+y,z
1/2-x,1/2+y,-z
1/2-x,1/2-y,-z
1/2+x,1/2-y,z
loop_
_atom_site_type_symbol
_atom_site_label
_atom_site_fract_x
_atom_site_fract_y
_atom_site_fract_z
Si Si1 0.746177 0.500000 0.459735
Si Si2 0.617300 0.115959 0.500154
Si Si3 0.189662 0.825041 0.046927
Si Si4 0.000000 0.903747 0.000000
Si Si5 0.303454 0.792396 0.741799
Si Si6 0.890968 0.000000 0.168444
O O1 0.820580 0.557582 0.520625
O O2 0.675901 0.500000 0.644617
O O3 0.682098 0.500000 0.144591
O O4 0.500000 0.102808 0.500000
O O5 0.695528 0.151051 0.752329
O O6 0.611025 0.162697 0.281947
O O7 0.155889 0.757505 0.044615
O O8 0.103087 0.862715 0.109812
O O9 0.208073 0.829982 0.780649
O O10 0.968532 0.944685 0.193734
O O11 0.250000 0.750000 0.500000
#
# Coordination Sequence:
#
# PCOD9212168 Si02
#       6
#     4   8   8   4   8   4
#     4  12  25  51  69 103 140 185 239 289 355 415
#     4  11  24  42  66  96 132 183 234 285 341 412
#     4  10  21  41  64  98 137 175 231 277 354 410
#     4  11  22  42  70 104 132 189 222 296 348 423
#     4   9  21  41  64  96 137 179 222 287 340 417
#     4  11  26  46  72 103 145 181 233 295 352 420
#
# _framework density 22.611625
#
# number of rings (size 3 to 8) (size 9 to 14) (size 15 to 20)
#    0.000    1.556    2.222    1.667    0.000    8.000 
#    8.000    1.111    0.000    0.000    0.000    0.000 
#    0.000    0.000    0.000    0.000    0.000    0.000 
#
# Total GULP energy -100291.241018 kJ/mol
# GULP energy per Si atom -5571.735612 kJ/mol
# Density = 2.256016 g / cm^3
# Si number density = 22.611625 Si / 1000 Ang^3
#
#
#
# Elastic Constant Matrix: (Units=GPa)
#
#
# Indices 1 2 3 4 5 6 
#
# 1 156.4434 68.1306 70.4312 0.0000 -40.0864 0.0000
# 2 68.1306 157.1348 44.4969 0.0000 -32.3355 0.0000
# 3 70.4312 44.4969 102.3529 0.0000 -35.3521 0.0000
# 4 0.0000 0.0000 0.0000 16.9414 0.0000 -7.8765
# 5 -40.0864 -32.3355 -35.3521 0.0000 40.0304 0.0000
# 6 0.0000 0.0000 0.0000 -7.8765 0.0000 18.9106
#
#
#
# Elastic Compliance Matrix: (Units=1/GPa)
#
#
# Indices 1 2 3 4 5 6 
#
# 1 0.010759 -0.002355 -0.004771 0.000000 0.004659 0.000000
# 2 -0.002355 0.008362 -0.000714 0.000000 0.003766 0.000000
# 3 -0.004771 -0.000714 0.016568 0.000000 0.009277 0.000000
# 4 0.000000 0.000000 0.000000 0.073202 0.000000 0.030489
# 5 0.004659 0.003766 0.009277 0.000000 0.040881 0.000000
# 6 0.000000 0.000000 0.000000 0.030489 0.000000 0.065580
#
#
# Mechanical properties :
#
#
# Convention : Reuss Voigt Hill
#
# Bulk Modulus (GPa) = 49.97731 86.89428 68.43580
# Shear Modulus (GPa) = 21.03475 30.70132 25.86803
#
# Velocity S-wave (km/s) = 3.05333 3.68879 3.38600
# Velocity P-wave (km/s) = 5.88055 7.52697 6.75412
#
# Compressibility (1/GPa) = 0.02000908
#
# Stress axis : x y z
#
# Youngs Moduli (GPa) = 92.94247 119.58420 60.35849
#
# Poissons Ratio (x) = 0.28167 0.28795
# Poissons Ratio (y) = 0.21892 0.04310
# Poissons Ratio (z) = 0.44340 0.08538
#
# Static dielectric constant tensor:
#      x y z
#    x 1.869550 0.000000 0.026500 
#    y 0.000000 1.917670 0.000000 
#    z 0.026500 0.000000 2.004050 
# 
# From -- ./inp_files/6975.got.cif
#   From: 2010.05.17/outbox.cif.g08.bks.cpg/sg12_4_cif.got.tgz:6975.got - 2010.06.03 13:09:07.
