data_PCOD9212945
_publ_section_title
;
Structure prediction by ZEFSAII (Michael W. Deem and Ramdas Pophale) SiO2 
 PCOD9212945
Probable space group: C 2/M
;
_chemical_formula_sum "Si O2"
_cell_formula_units_Z 58
_cell_length_a 26.317275
_cell_length_b 21.037181
_cell_length_c 12.948064
_cell_angle_alpha 90.000000
_cell_angle_beta 23.053563
_cell_angle_gamma 90.000000
_cell_volume 2807.155995
_symmetry_space_group_name_H-M "C 2/M"
_symmetry_group_IT_number 12
_symmetry_cell_setting 'monoclinic'
loop_
_space_group_symop_operation_xyz
x,y,z
-x,y,-z
-x,-y,-z
x,-y,z
1/2+x,1/2+y,z
1/2-x,1/2+y,-z
1/2-x,1/2-y,-z
1/2+x,1/2-y,z
loop_
_atom_site_type_symbol
_atom_site_label
_atom_site_fract_x
_atom_site_fract_y
_atom_site_fract_z
Si Si1 0.365002 0.071978 0.313996
Si Si2 0.737186 0.635163 0.199664
Si Si3 0.369446 0.392134 0.385194
Si Si4 0.500000 0.500000 0.000000
Si Si5 0.472028 0.855880 0.305564
Si Si6 0.258130 0.714524 0.200573
Si Si7 0.468180 0.734195 0.946179
Si Si8 0.637434 0.696784 0.200791
O O1 0.261970 0.109458 0.437600
O O2 0.399885 0.097608 0.361342
O O3 0.311105 0.000000 0.422965
O O4 0.500000 0.070582 0.000000
O O5 0.671103 0.598454 0.418661
O O6 0.726275 0.711029 0.246449
O O7 0.675268 0.636353 0.201021
O O8 0.890562 0.619285 0.910177
O O9 0.439140 0.324816 0.246902
O O10 0.459046 0.444351 0.162425
O O11 0.366330 0.829586 0.582681
O O12 0.507432 0.792579 0.175090
O O13 0.322636 0.710392 0.193057
O O14 0.364620 0.689906 0.918826
O O15 0.500000 0.757780 0.000000
O O16 0.500000 0.719958 0.500000
O O17 0.750000 0.750000 0.000000
#
# Coordination Sequence:
#
# PCOD9212945 Si02
#       8
#     8   8   8   2   8   8   8   8
#     4  11  23  39  58  83 123 163 212 261 314 386
#     4  10  22  37  60  86 126 161 216 260 326 381
#     4  12  22  41  56  88 124 169 217 262 312 387
#     4  12  28  40  62  88 126 174 224 258 322 376
#     4  11  22  36  58  94 121 170 207 263 324 397
#     4  10  22  35  59  91 129 163 210 261 327 386
#     4  11  22  34  56  87 132 167 203 257 314 391
#     4  10  22  37  59  88 127 170 211 269 328 388
#
# _framework density 20.661483
#
# number of rings (size 3 to 8) (size 9 to 14) (size 15 to 20)
#    0.000    1.241    4.138    2.069   11.586    1.103 
#    0.000    0.000    0.000    0.000    1.793    2.414 
#    0.000    0.000    0.000    0.000    0.000    0.000 
#
# Total GULP energy -161550.370617 kJ/mol
# GULP energy per Si atom -5570.702435 kJ/mol
# Density = 2.061446 g / cm^3
# Si number density = 20.661483 Si / 1000 Ang^3
#
#
#
# Elastic Constant Matrix: (Units=GPa)
#
#
# Indices 1 2 3 4 5 6 
#
# 1 86.8492 11.1004 14.5578 0.0000 2.3815 0.0002
# 2 11.1004 32.4479 5.0254 -0.0001 1.6476 0.0004
# 3 14.5578 5.0254 75.8063 0.0000 15.9852 0.0007
# 4 0.0000 -0.0001 0.0000 21.7212 0.0002 2.4126
# 5 2.3815 1.6476 15.9852 0.0002 38.7436 -0.0006
# 6 0.0002 0.0004 0.0007 2.4126 -0.0006 2.0409
#
#
#
# Elastic Compliance Matrix: (Units=1/GPa)
#
#
# Indices 1 2 3 4 5 6 
#
# 1 0.012371 -0.003910 -0.002181 0.000000 0.000306 0.000000
# 2 -0.003910 0.032384 -0.001266 0.000001 -0.000614 -0.000006
# 3 -0.002181 -0.001266 0.014956 0.000001 -0.005983 -0.000008
# 4 0.000000 0.000001 0.000001 0.052997 -0.000002 -0.062651
# 5 0.000306 -0.000614 -0.005983 -0.000002 0.028286 0.000012
# 6 0.000000 -0.000006 -0.000008 -0.062651 0.000012 0.564053
#
#
# Mechanical properties :
#
#
# Convention : Reuss Voigt Hill
#
# Bulk Modulus (GPa) = 22.22423 28.49673 25.36048
# Shear Modulus (GPa) = 6.80494 23.46245 15.13370
#
# Velocity S-wave (km/s) = 1.81678 3.37347 2.70933
# Velocity P-wave (km/s) = 3.89623 5.38478 4.69981
#
# Compressibility (1/GPa) = 0.04499594
#
# Stress axis : x y z
#
# Youngs Moduli (GPa) = 80.83328 30.87988 66.86332
#
# Poissons Ratio (x) = 0.12074 0.14583
# Poissons Ratio (y) = 0.31605 0.08468
# Poissons Ratio (z) = 0.17630 0.03911
#
# Static dielectric constant tensor:
#      x y z
#    x 1.870070 0.000000 -0.005190 
#    y 0.000000 1.701020 0.000000 
#    z -0.005190 0.000000 1.837250 
# 
# From -- ./inp_files/251843.got.cif
#   From: 2010.05.17/outbox.cif.g08.bks.cpg/sg12_126_cif.got.tgz:251843.got - 2010.06.03 13:09:07.
