data_PCOD9212668
_publ_section_title
;
Structure prediction by ZEFSAII (Michael W. Deem and Ramdas Pophale) SiO2 
 PCOD9212668
Probable space group: C 2/M
;
_chemical_formula_sum "Si O2"
_cell_formula_units_Z 64
_cell_length_a 19.052660
_cell_length_b 31.865547
_cell_length_c 11.485982
_cell_angle_alpha 90.000000
_cell_angle_beta 28.871864
_cell_angle_gamma 90.000000
_cell_volume 3367.127284
_symmetry_space_group_name_H-M "C 2/M"
_symmetry_group_IT_number 12
_symmetry_cell_setting 'monoclinic'
loop_
_space_group_symop_operation_xyz
x,y,z
-x,y,-z
-x,-y,-z
x,-y,z
1/2+x,1/2+y,z
1/2-x,1/2+y,-z
1/2-x,1/2-y,-z
1/2+x,1/2-y,z
loop_
_atom_site_type_symbol
_atom_site_label
_atom_site_fract_x
_atom_site_fract_y
_atom_site_fract_z
Si Si1 0.660495 0.613759 0.557979
Si Si2 0.314383 0.760463 0.532214
Si Si3 0.220726 0.358891 0.375173
Si Si4 0.909167 0.770988 0.754710
Si Si5 0.153824 0.547384 0.841077
Si Si6 0.105277 0.616302 0.108148
Si Si7 0.652151 0.184243 0.846601
Si Si8 0.650151 0.635748 0.068830
O O1 0.678691 0.621163 0.669604
O O2 0.741316 0.572077 0.398838
O O3 0.743677 0.653901 0.380808
O O4 0.501810 0.612725 0.732379
O O5 0.250000 0.750000 0.500000
O O6 0.297135 0.809513 0.574829
O O7 0.481397 0.748248 0.308394
O O8 0.224368 0.729781 0.748849
O O9 0.062148 0.380665 0.609617
O O10 0.286131 0.360043 0.152452
O O11 0.888367 0.819906 0.814507
O O12 0.000000 0.765310 0.500000
O O13 0.750000 0.750000 0.000000
O O14 0.200711 0.500000 0.800619
O O15 0.132274 0.577267 0.983554
O O16 0.000000 0.545627 0.000000
O O17 0.130870 0.658977 0.996395
O O18 0.225151 0.615030 0.034265
O O19 0.500000 0.187082 0.000000
#
# Coordination Sequence:
#
# PCOD9212668 Si02
#       8
#     8   8   8   8   8   8   8   8
#     4  11  21  42  63  95 129 168 210 270 340 398
#     4  12  23  38  60  88 120 171 237 287 317 367
#     4  12  23  41  59  89 132 179 224 268 321 398
#     4  12  26  45  60  87 129 182 238 291 339 383
#     4  10  21  42  79 108 122 155 217 276 332 410
#     4  11  22  42  66  93 129 171 213 273 333 393
#     4  11  20  38  63  87 117 168 224 280 337 372
#     4  12  26  38  61  92 132 180 217 262 332 404
#
# _framework density 19.007300000000001
#
# number of rings (size 3 to 8) (size 9 to 14) (size 15 to 20)
#    0.000    0.625    5.000    3.750    1.750    4.000 
#    0.000    1.250    0.000    4.500    0.000    0.000 
#    0.000    0.000    0.000    0.000    0.000    0.000 
#
# Total GULP energy -178878.732931 kJ/mol
# GULP energy per Si atom -5589.960404 kJ/mol
# Density = 1.896404 g / cm^3
# Si number density = 19.007300 Si / 1000 Ang^3
#
#
#
# Elastic Constant Matrix: (Units=GPa)
#
#
# Indices 1 2 3 4 5 6 
#
# 1 68.8124 11.6215 46.4907 -0.0020 -21.3383 0.0026
# 2 11.6215 106.3209 25.9331 -0.0008 -1.2512 0.0009
# 3 46.4907 25.9331 91.0843 -0.0024 -6.5197 0.0031
# 4 -0.0020 -0.0008 -0.0024 -3.6342 0.0017 21.5672
# 5 -21.3383 -1.2512 -6.5197 0.0017 36.6967 -0.0024
# 6 0.0026 0.0009 0.0031 21.5672 -0.0024 -22.0716
#
#
#
# Elastic Compliance Matrix: (Units=1/GPa)
#
#
# Indices 1 2 3 4 5 6 
#
# 1 0.027692 0.000368 -0.013254 0.000000 0.013760 0.000000
# 2 0.000368 0.010113 -0.003066 0.000000 0.000014 0.000000
# 3 -0.013254 -0.003066 0.018290 0.000000 -0.004562 0.000001
# 4 0.000000 0.000000 0.000000 0.057339 0.000001 0.056029
# 5 0.013760 0.000014 -0.004562 0.000001 0.034441 -0.000002
# 6 0.000000 0.000000 0.000001 0.056029 -0.000002 0.009441
#
#
# Mechanical properties :
#
#
# Convention : Reuss Voigt Hill
#
# Bulk Modulus (GPa) = 41.33834 48.25647 44.79740
# Shear Modulus (GPa) = 25.34401 14.34298 19.84350
#
# Velocity S-wave (km/s) = 3.65551 2.74999 3.23459
# Velocity P-wave (km/s) = 6.29388 5.96043 6.12942
#
# Compressibility (1/GPa) = 0.02419062
#
# Stress axis : x y z
#
# Youngs Moduli (GPa) = 36.11206 98.87941 54.67367
#
# Poissons Ratio (x) = -0.03638 0.72465
# Poissons Ratio (y) = -0.01329 0.16764
# Poissons Ratio (z) = 0.47863 0.30318
#
# Static dielectric constant tensor:
#      x y z
#    x 1.964820 0.000000 0.230280 
#    y 0.000000 1.637880 0.000000 
#    z 0.230280 0.000000 1.888650 
# 
# From -- ./inp_files/161206.got.cif
#   From: 2010.05.17/outbox.cif.g08.bks.cpg/sg12_81_cif.got.tgz:161206.got - 2010.06.03 13:09:07.
