data_PCOD9212743
_publ_section_title
;
Structure prediction by ZEFSAII (Michael W. Deem and Ramdas Pophale) SiO2 
 PCOD9212743
Probable space group: C 2/M
;
_chemical_formula_sum "Si O2"
_cell_formula_units_Z 48
_cell_length_a 24.890034
_cell_length_b 13.798893
_cell_length_c 11.781809
_cell_angle_alpha 90.000000
_cell_angle_beta 150.296358
_cell_angle_gamma 90.000000
_cell_volume 2005.106942
_symmetry_space_group_name_H-M "C 2/M"
_symmetry_group_IT_number 12
_symmetry_cell_setting 'monoclinic'
loop_
_space_group_symop_operation_xyz
x,y,z
-x,y,-z
-x,-y,-z
x,-y,z
1/2+x,1/2+y,z
1/2-x,1/2+y,-z
1/2-x,1/2-y,-z
1/2+x,1/2-y,z
loop_
_atom_site_type_symbol
_atom_site_label
_atom_site_fract_x
_atom_site_fract_y
_atom_site_fract_z
Si Si1 0.159006 0.888417 0.892382
Si Si2 0.707771 0.895044 0.198437
Si Si3 0.050770 0.892648 0.940561
Si Si4 0.150226 0.741717 0.681743
Si Si5 0.967899 0.313211 0.752222
Si Si6 0.253780 0.137821 0.477680
O O1 0.117200 0.813080 0.722225
O O2 0.158288 0.000000 0.853245
O O3 0.092115 0.885118 0.886764
O O4 0.278772 0.847134 0.140376
O O5 0.771206 0.809698 0.251257
O O6 0.748643 0.904435 0.401680
O O7 0.720734 0.000000 0.165430
O O8 0.582335 0.865079 0.975129
O O9 0.156130 0.888763 0.214914
O O10 0.000186 0.000000 0.862169
O O11 0.980601 0.795471 0.828856
O O12 0.060435 0.702379 0.431749
O O13 0.869889 0.372869 0.628702
O O14 0.250000 0.250000 0.500000
#
# Coordination Sequence:
#
# PCOD9212743 Si02
#       6
#     8   8   8   8   8   8
#     4  10  21  43  71  95 130 179 223 267 330 397
#     4  12  26  43  67 101 134 174 223 271 328 395
#     4  11  24  43  66  99 131 173 222 269 327 393
#     4  11  23  44  69  95 139 175 216 277 334 384
#     4  12  23  42  66  98 130 171 217 272 328 387
#     4  12  22  44  67  92 134 177 215 271 328 390
#
# _framework density 23.938872
#
# number of rings (size 3 to 8) (size 9 to 14) (size 15 to 20)
#    0.000    0.667    6.667    1.500    0.000    4.667 
#    0.000    2.500    0.000    3.000    0.000    0.000 
#    0.000    0.000    0.000    0.000    0.000    0.000 
#
# Total GULP energy -134419.408452 kJ/mol
# GULP energy per Si atom -5600.808686 kJ/mol
# Density = 2.388439 g / cm^3
# Si number density = 23.938872 Si / 1000 Ang^3
#
#
#
# Elastic Constant Matrix: (Units=GPa)
#
#
# Indices 1 2 3 4 5 6 
#
# 1 103.1911 -8.2873 28.8388 0.0000 -14.7133 0.0000
# 2 -8.2873 72.8762 -23.9461 0.0000 14.7442 0.0000
# 3 28.8388 -23.9461 105.7109 0.0000 -1.1581 0.0000
# 4 0.0000 0.0000 0.0000 4.6929 0.0000 -11.5861
# 5 -14.7133 14.7442 -1.1581 0.0000 29.6490 0.0000
# 6 0.0000 0.0000 0.0000 -11.5861 0.0000 -9.0821
#
#
#
# Elastic Compliance Matrix: (Units=1/GPa)
#
#
# Indices 1 2 3 4 5 6 
#
# 1 0.011381 -0.000995 -0.003264 0.000000 0.006015 0.000000
# 2 -0.000995 0.016650 0.003949 0.000000 -0.008620 0.000000
# 3 -0.003264 0.003949 0.011210 0.000000 -0.003146 0.000000
# 4 0.000000 0.000000 0.000000 0.051352 0.000000 -0.065510
# 5 0.006015 -0.008620 -0.003146 0.000000 0.040877 0.000000
# 6 0.000000 0.000000 0.000000 -0.065510 0.000000 -0.026535
#
#
# Mechanical properties :
#
#
# Convention : Reuss Voigt Hill
#
# Bulk Modulus (GPa) = 25.89379 30.55433 28.22406
# Shear Modulus (GPa) = 42.21895 24.06349 33.14122
#
# Velocity S-wave (km/s) = 4.20410 3.17394 3.72480
# Velocity P-wave (km/s) = 5.86566 5.12084 5.50586
#
# Compressibility (1/GPa) = 0.03861930
#
# Stress axis : x y z
#
# Youngs Moduli (GPa) = 87.86756 60.05953 89.20346
#
# Poissons Ratio (x) = 0.05978 0.29119
# Poissons Ratio (y) = 0.08746 -0.35225
# Poissons Ratio (z) = 0.28683 -0.23716
#
# Static dielectric constant tensor:
#      x y z
#    x 1.948110 0.000000 0.000980 
#    y 0.000000 1.736620 0.000000 
#    z 0.000980 0.000000 1.878610 
# 
# From -- ./inp_files/183890.got.cif
#   From: 2010.05.17/outbox.cif.g08.bks.cpg/sg12_92_cif.got.tgz:183890.got - 2010.06.03 13:09:07.
