data_PCOD9212280
_publ_section_title
;
Structure prediction by ZEFSAII (Michael W. Deem and Ramdas Pophale) SiO2 
 PCOD9212280
Probable space group: C 2/M
;
_chemical_formula_sum "Si O2"
_cell_formula_units_Z 56
_cell_length_a 12.448311
_cell_length_b 14.711066
_cell_length_c 20.235970
_cell_angle_alpha 90.000000
_cell_angle_beta 35.610432
_cell_angle_gamma 90.000000
_cell_volume 2157.763112
_symmetry_space_group_name_H-M "C 2/M"
_symmetry_group_IT_number 12
_symmetry_cell_setting 'monoclinic'
loop_
_space_group_symop_operation_xyz
x,y,z
-x,y,-z
-x,-y,-z
x,-y,z
1/2+x,1/2+y,z
1/2-x,1/2+y,-z
1/2-x,1/2-y,-z
1/2+x,1/2-y,z
loop_
_atom_site_type_symbol
_atom_site_label
_atom_site_fract_x
_atom_site_fract_y
_atom_site_fract_z
Si Si1 0.752905 0.848506 0.332275
Si Si2 0.053375 0.403857 0.307994
Si Si3 0.350080 0.607094 0.900734
Si Si4 0.146357 0.860366 0.374677
Si Si5 0.184706 0.252450 0.877312
Si Si6 0.981866 0.599944 0.138014
Si Si7 0.688607 0.354119 0.544940
O O1 0.607162 0.898323 0.359184
O O2 0.685528 0.745043 0.370202
O O3 0.787666 0.878553 0.389986
O O4 0.941765 0.860134 0.196366
O O5 0.119733 0.500000 0.247171
O O6 0.157622 0.318360 0.223146
O O7 0.833114 0.401369 0.423746
O O8 0.357190 0.500000 0.878951
O O9 0.267614 0.674449 0.887110
O O10 0.200732 0.615090 0.034774
O O11 0.348314 0.902204 0.267290
O O12 0.000000 0.896102 0.500000
O O13 0.023499 0.868019 0.369393
O O14 0.103762 0.317508 0.860371
O O15 0.000000 0.207234 0.000000
O O16 0.962991 0.500000 0.114471
O O17 0.750000 0.250000 0.500000
#
# Coordination Sequence:
#
# PCOD9212280 Si02
#       7
#     8   8   8   8   8   8   8
#     4  12  23  41  72 103 141 182 235 296 352 419
#     4  12  26  44  67 102 144 189 240 292 352 426
#     4  10  22  40  70 107 139 178 235 294 354 418
#     4  12  24  41  71 103 141 187 233 288 350 426
#     4  10  21  42  69 102 140 188 231 293 358 417
#     4  10  21  41  67 100 141 184 233 288 346 419
#     4  12  23  43  67  99 135 185 233 287 353 414
#
# _framework density 25.952801999999998
#
# number of rings (size 3 to 8) (size 9 to 14) (size 15 to 20)
#    0.000    0.857    4.286    3.000    0.000    5.143 
#    0.000    0.000    0.000    0.000    0.000    0.000 
#    0.000    0.000    0.000    0.000    0.000    0.000 
#
# Total GULP energy -156659.422166 kJ/mol
# GULP energy per Si atom -5594.979363 kJ/mol
# Density = 2.589373 g / cm^3
# Si number density = 25.952802 Si / 1000 Ang^3
#
#
#
# Elastic Constant Matrix: (Units=GPa)
#
#
# Indices 1 2 3 4 5 6 
#
# 1 78.9632 5.6228 38.5771 -0.0001 -2.9216 0.0003
# 2 5.6228 156.2976 43.8030 -0.0011 -3.6074 0.0002
# 3 38.5771 43.8030 222.0747 -0.0033 -25.3788 0.0014
# 4 -0.0001 -0.0011 -0.0033 18.9344 0.0004 -14.9367
# 5 -2.9216 -3.6074 -25.3788 0.0004 39.4510 -0.0003
# 6 0.0003 0.0002 0.0014 -14.9367 -0.0003 -81.8075
#
#
#
# Elastic Compliance Matrix: (Units=1/GPa)
#
#
# Indices 1 2 3 4 5 6 
#
# 1 0.013856 0.000192 -0.002510 0.000000 -0.000571 0.000000
# 2 0.000192 0.006778 -0.001401 0.000000 -0.000267 0.000000
# 3 -0.002510 -0.001401 0.005590 0.000001 0.003282 0.000000
# 4 0.000000 0.000000 0.000001 0.046165 0.000000 -0.008429
# 5 -0.000571 -0.000267 0.003282 0.000000 0.027393 0.000000
# 6 0.000000 0.000000 0.000000 -0.008429 0.000000 -0.010685
#
#
# Mechanical properties :
#
#
# Convention : Reuss Voigt Hill
#
# Bulk Modulus (GPa) = 53.23172 70.37125 61.80148
# Shear Modulus (GPa) = 48.64015 19.93774 34.28895
#
# Velocity S-wave (km/s) = 4.33387 2.77470 3.63878
# Velocity P-wave (km/s) = 6.75269 6.11876 6.44353
#
# Compressibility (1/GPa) = 0.01878579
#
# Stress axis : x y z
#
# Youngs Moduli (GPa) = 72.17313 147.54642 178.87866
#
# Poissons Ratio (x) = -0.02830 0.44898
# Poissons Ratio (y) = -0.01384 0.25055
# Poissons Ratio (z) = 0.18115 0.20666
#
# Static dielectric constant tensor:
#      x y z
#    x 2.052520 0.000000 0.070320 
#    y 0.000000 2.085990 0.000000 
#    z 0.070320 0.000000 2.097320 
# 
# From -- ./inp_files/340310.got.cif
#   From: 2010.05.17/outbox.cif.g08.bks.cpg/sg12_171_cif.got.tgz:340310.got - 2010.06.03 13:09:07.
