data_PCOD9212128
_publ_section_title
;
Structure prediction by ZEFSAII (Michael W. Deem and Ramdas Pophale) SiO2 
 PCOD9212128
Probable space group: C 2/M
;
_chemical_formula_sum "Si O2"
_cell_formula_units_Z 60
_cell_length_a 22.389883
_cell_length_b 9.840519
_cell_length_c 13.258000
_cell_angle_alpha 90.000000
_cell_angle_beta 71.691422
_cell_angle_gamma 90.000000
_cell_volume 2773.238470
_symmetry_space_group_name_H-M "C 2/M"
_symmetry_group_IT_number 12
_symmetry_cell_setting 'monoclinic'
loop_
_space_group_symop_operation_xyz
x,y,z
-x,y,-z
-x,-y,-z
x,-y,z
1/2+x,1/2+y,z
1/2-x,1/2+y,-z
1/2-x,1/2-y,-z
1/2+x,1/2-y,z
loop_
_atom_site_type_symbol
_atom_site_label
_atom_site_fract_x
_atom_site_fract_y
_atom_site_fract_z
Si Si1 0.352014 0.152495 0.410403
Si Si2 0.545095 0.346416 0.715544
Si Si3 0.840032 0.729430 0.987778
Si Si4 0.983257 0.651313 0.892109
Si Si5 0.262108 0.500000 0.005215
Si Si6 0.557710 0.347898 0.392324
Si Si7 0.824018 0.341403 0.648583
Si Si8 0.713554 0.843629 0.773265
O O1 0.403459 0.270463 0.379678
O O2 0.311603 0.167803 0.533924
O O3 0.316377 0.157765 0.322447
O O4 0.380395 0.000000 0.403021
O O5 0.565071 0.500000 0.726485
O O6 0.532860 0.253395 0.817393
O O7 0.478464 0.349014 0.694083
O O8 0.816027 0.879069 0.974925
O O9 0.831816 0.704038 0.113203
O O10 0.911676 0.700851 0.919752
O O11 0.793284 0.618896 0.964289
O O12 0.989630 0.500000 0.843508
O O13 0.000000 0.642660 0.000000
O O14 0.500000 0.328064 0.500000
O O15 0.584737 0.500000 0.397325
O O16 0.609467 0.232105 0.370719
O O17 0.823997 0.500000 0.676285
O O18 0.772322 0.257106 0.736611
O O19 0.732582 0.000000 0.787925
#
# Coordination Sequence:
#
# PCOD9212128 Si02
#       8
#     8   8   8   8   4   8   8   8
#     4  10  22  42  65  90 131 170 209 256 310 381
#     4  11  24  40  65  99 126 168 213 260 321 371
#     4  11  23  46  68  95 127 172 213 272 321 383
#     4  11  24  45  69  95 131 174 217 263 325 393
#     4  10  24  42  70  92 130 166 216 266 330 376
#     4  10  21  41  64  87 128 170 209 254 316 385
#     4  11  24  39  62  97 129 162 211 264 314 367
#     4  11  23  42  66  92 123 171 214 253 317 383
#
# _framework density 21.635356999999999
#
# number of rings (size 3 to 8) (size 9 to 14) (size 15 to 20)
#    0.000    1.333    2.667    2.000    1.867    6.933 
#    4.800    0.000    0.000    0.000    0.000    0.000 
#    0.000    0.000    0.000    0.000    0.000    0.000 
#
# Total GULP energy -167195.599317 kJ/mol
# GULP energy per Si atom -5573.186644 kJ/mol
# Density = 2.158611 g / cm^3
# Si number density = 21.635357 Si / 1000 Ang^3
#
#
#
# Elastic Constant Matrix: (Units=GPa)
#
#
# Indices 1 2 3 4 5 6 
#
# 1 44.7252 42.6532 -14.2477 0.0000 -9.3568 0.0000
# 2 42.6532 207.8048 24.1770 0.0000 -18.0852 0.0000
# 3 -14.2477 24.1770 59.6489 0.0000 -13.9594 0.0000
# 4 0.0000 0.0000 0.0000 19.4482 0.0000 -1.4501
# 5 -9.3568 -18.0852 -13.9594 0.0000 22.3312 0.0000
# 6 0.0000 0.0000 0.0000 -1.4501 0.0000 22.9984
#
#
#
# Elastic Compliance Matrix: (Units=1/GPa)
#
#
# Indices 1 2 3 4 5 6 
#
# 1 0.041013 -0.008672 0.018378 0.000000 0.021649 0.000000
# 2 -0.008672 0.007100 -0.005217 0.000000 -0.001145 0.000000
# 3 0.018378 -0.005217 0.028209 0.000000 0.021109 0.000000
# 4 0.000000 0.000000 0.000000 0.051661 0.000000 0.003257
# 5 0.021649 -0.001145 0.021109 0.000000 0.066120 0.000000
# 6 0.000000 0.000000 0.000000 0.003257 0.000000 0.043687
#
#
# Mechanical properties :
#
#
# Convention : Reuss Voigt Hill
#
# Bulk Modulus (GPa) = 11.72349 46.37157 29.04753
# Shear Modulus (GPa) = 19.43673 30.26199 24.84936
#
# Velocity S-wave (km/s) = 3.00055 3.74402 3.39271
# Velocity P-wave (km/s) = 4.17550 6.33798 5.36679
#
# Compressibility (1/GPa) = 0.08529884
#
# Stress axis : x y z
#
# Youngs Moduli (GPa) = 24.38260 140.85427 35.44946
#
# Poissons Ratio (x) = 1.22151 -0.65149
# Poissons Ratio (y) = 0.21145 0.18494
# Poissons Ratio (z) = -0.44810 0.73484
#
# Static dielectric constant tensor:
#      x y z
#    x 1.799780 0.000000 0.032350 
#    y 0.000000 1.767000 0.000000 
#    z 0.032350 0.000000 1.871060 
# 
# From -- ./inp_files/238518.got.cif
#   From: 2010.05.17/outbox.cif.g08.bks.cpg/sg12_120_cif.got.tgz:238518.got - 2010.06.03 13:09:07.
