data_PCOD9212828
_publ_section_title
;
Structure prediction by ZEFSAII (Michael W. Deem and Ramdas Pophale) SiO2 
 PCOD9212828
Probable space group: C 2/M
;
_chemical_formula_sum "Si O2"
_cell_formula_units_Z 38
_cell_length_a 17.413207
_cell_length_b 18.796838
_cell_length_c 5.269165
_cell_angle_alpha 90.000000
_cell_angle_beta 107.512238
_cell_angle_gamma 90.000000
_cell_volume 1644.733743
_symmetry_space_group_name_H-M "C 2/M"
_symmetry_group_IT_number 12
_symmetry_cell_setting 'monoclinic'
loop_
_space_group_symop_operation_xyz
x,y,z
-x,y,-z
-x,-y,-z
x,-y,z
1/2+x,1/2+y,z
1/2-x,1/2+y,-z
1/2-x,1/2-y,-z
1/2+x,1/2-y,z
loop_
_atom_site_type_symbol
_atom_site_label
_atom_site_fract_x
_atom_site_fract_y
_atom_site_fract_z
Si Si1 0.112376 0.119467 0.698708
Si Si2 0.311262 0.000000 0.630493
Si Si3 0.080704 0.363271 0.220986
Si Si4 0.000000 0.753275 0.500000
Si Si5 0.800213 0.000000 0.962558
Si Si6 0.264007 0.795120 0.765259
Si Si7 0.000000 0.000000 0.500000
O O1 0.060071 0.190417 0.698817
O O2 0.196659 0.144743 0.671904
O O3 0.062972 0.063793 0.479569
O O4 0.140597 0.068112 0.954552
O O5 0.369283 0.068225 0.641234
O O6 0.264905 0.000000 0.861931
O O7 0.246435 0.000000 0.343966
O O8 0.052632 0.300814 0.383931
O O9 0.146987 0.325507 0.113883
O O10 0.000000 0.386915 0.000000
O O11 0.250000 0.750000 0.500000
O O12 0.250000 0.750000 0.000000
#
# Coordination Sequence:
#
# PCOD9212828 Si02
#       7
#     8   4   8   4   4   8   2
#     4  10  21  45  77 108 155 192 255 305 388 450
#     4  12  29  49  77 105 149 202 260 310 368 453
#     4  12  28  48  74 113 154 202 257 316 383 452
#     4  11  24  46  76 115 154 198 246 323 392 450
#     4  11  26  47  78 108 143 204 255 311 371 449
#     4  12  26  45  78 110 149 196 250 310 376 454
#     4   8  20  40  74 112 150 196 240 314 370 462
#
# _framework density 23.104043000000001
#
# number of rings (size 3 to 8) (size 9 to 14) (size 15 to 20)
#    0.000    0.842    4.211    1.579    5.895    0.421 
#    3.789    0.000    0.000    5.053    0.000    0.000 
#    0.000    0.000    0.000    0.000    0.000    0.000 
#
# Total GULP energy -105813.162395 kJ/mol
# GULP energy per Si atom -5569.113810 kJ/mol
# Density = 2.305146 g / cm^3
# Si number density = 23.104043 Si / 1000 Ang^3
#
#
#
# Elastic Constant Matrix: (Units=GPa)
#
#
# Indices 1 2 3 4 5 6 
#
# 1 137.5899 57.0748 24.2370 0.0000 8.0590 0.0000
# 2 57.0748 172.8731 41.5581 0.0000 -3.9569 0.0000
# 3 24.2370 41.5581 92.9727 0.0000 4.0335 0.0000
# 4 0.0000 0.0000 0.0000 111.6962 0.0000 109.1053
# 5 8.0590 -3.9569 4.0335 0.0000 30.3860 0.0000
# 6 0.0000 0.0000 0.0000 109.1053 0.0000 118.5974
#
#
#
# Elastic Compliance Matrix: (Units=1/GPa)
#
#
# Indices 1 2 3 4 5 6 
#
# 1 0.008705 -0.002704 -0.000951 0.000000 -0.002535 0.000000
# 2 -0.002704 0.007367 -0.002676 0.000000 0.002032 0.000000
# 3 -0.000951 -0.002676 0.012275 0.000000 -0.001726 0.000000
# 4 0.000000 0.000000 0.000000 0.088314 0.000000 -0.081246
# 5 -0.002535 0.002032 -0.001726 0.000000 0.034076 0.000000
# 6 0.000000 0.000000 0.000000 -0.081246 0.000000 0.083175
#
#
# Mechanical properties :
#
#
# Convention : Reuss Voigt Hill
#
# Bulk Modulus (GPa) = 63.75259 72.13062 67.94160
# Shear Modulus (GPa) = 19.85675 70.84029 45.34852
#
# Velocity S-wave (km/s) = 2.93482 5.54328 4.43515
# Velocity P-wave (km/s) = 6.25602 8.50049 7.46311
#
# Compressibility (1/GPa) = 0.01568564
#
# Stress axis : x y z
#
# Youngs Moduli (GPa) = 114.87074 135.73914 81.46669
#
# Poissons Ratio (x) = 0.36698 0.07747
# Poissons Ratio (y) = 0.31056 0.21804
# Poissons Ratio (z) = 0.10924 0.36329
#
# Static dielectric constant tensor:
#      x y z
#    x 1.972260 0.000000 0.127320 
#    y 0.000000 1.935930 0.000000 
#    z 0.127320 0.000000 2.077430 
# 
# From -- ./inp_files/15936.got.cif
#   From: 2010.05.17/outbox.cif.g08.bks.cpg/sg12_8_cif.got.tgz:15936.got - 2010.06.03 13:09:07.
