data_PCOD9212502
_publ_section_title
;
Structure prediction by ZEFSAII (Michael W. Deem and Ramdas Pophale) SiO2 
 PCOD9212502
Probable space group: C 2/M
;
_chemical_formula_sum "Si O2"
_cell_formula_units_Z 52
_cell_length_a 24.564303
_cell_length_b 9.507933
_cell_length_c 10.639163
_cell_angle_alpha 90.000000
_cell_angle_beta 81.627704
_cell_angle_gamma 90.000000
_cell_volume 2458.356381
_symmetry_space_group_name_H-M "C 2/M"
_symmetry_group_IT_number 12
_symmetry_cell_setting 'monoclinic'
loop_
_space_group_symop_operation_xyz
x,y,z
-x,y,-z
-x,-y,-z
x,-y,z
1/2+x,1/2+y,z
1/2-x,1/2+y,-z
1/2-x,1/2-y,-z
1/2+x,1/2-y,z
loop_
_atom_site_type_symbol
_atom_site_label
_atom_site_fract_x
_atom_site_fract_y
_atom_site_fract_z
Si Si1 0.236265 0.500000 0.465349
Si Si2 0.434175 0.666090 0.258803
Si Si3 0.199908 0.837365 0.070316
Si Si4 0.682681 0.725617 0.595279
Si Si5 0.363981 0.660887 0.658470
Si Si6 0.961882 0.331539 0.721144
Si Si7 0.921748 0.161887 0.973441
O O1 0.269566 0.623144 0.374929
O O2 0.205503 0.377855 0.558967
O O3 0.438230 0.500000 0.289381
O O4 0.372737 0.717870 0.306930
O O5 0.479071 0.758309 0.316939
O O6 0.443630 0.681307 0.106152
O O7 0.177980 0.796748 0.216692
O O8 0.216481 0.000000 0.071757
O O9 0.250000 0.750000 0.000000
O O10 0.144627 0.827438 0.005128
O O11 0.665248 0.661610 0.465115
O O12 0.381962 0.500000 0.680021
O O13 0.415547 0.765866 0.645408
O O14 0.963933 0.500000 0.714148
O O15 0.942511 0.273396 0.864483
O O16 0.935190 0.000000 0.929763
#
# Coordination Sequence:
#
# PCOD9212502 Si02
#       7
#     4   8   8   8   8   8   8
#     4  10  24  42  64  88 128 162 204 252 302 364
#     4  11  22  40  65  93 123 165 211 252 304 382
#     4   9  19  35  55  86 117 157 206 249 296 356
#     4  11  23  44  65  95 124 166 207 251 310 369
#     4  10  21  42  64  86 124 168 204 251 310 375
#     4  11  24  39  62  93 126 161 205 262 319 358
#     4   9  20  40  61  86 125 166 205 250 307 373
#
# _framework density 21.152342999999998
#
# number of rings (size 3 to 8) (size 9 to 14) (size 15 to 20)
#    0.000    1.846    1.538    2.769    2.154    8.000 
#    2.769    2.308    0.000    0.000    0.000    0.000 
#    0.000    0.000    0.000    0.000    0.000    0.000 
#
# Total GULP energy -144747.703663 kJ/mol
# GULP energy per Si atom -5567.219372 kJ/mol
# Density = 2.110420 g / cm^3
# Si number density = 21.152343 Si / 1000 Ang^3
#
#
#
# Elastic Constant Matrix: (Units=GPa)
#
#
# Indices 1 2 3 4 5 6 
#
# 1 51.2185 39.2776 6.3416 0.0000 -16.2425 0.0000
# 2 39.2776 127.8975 -4.4150 0.0000 -27.1956 0.0000
# 3 6.3416 -4.4150 31.0104 0.0000 -6.6520 0.0000
# 4 0.0000 0.0000 0.0000 8.1049 0.0000 -12.7750
# 5 -16.2425 -27.1956 -6.6520 0.0000 38.7016 0.0000
# 6 0.0000 0.0000 0.0000 -12.7750 0.0000 45.5565
#
#
#
# Elastic Compliance Matrix: (Units=1/GPa)
#
#
# Indices 1 2 3 4 5 6 
#
# 1 0.027718 -0.007567 -0.005597 0.000000 0.005353 0.000000
# 2 -0.007567 0.011498 0.004399 0.000000 0.005660 0.000000
# 3 -0.005597 0.004399 0.035486 0.000000 0.006841 0.000000
# 4 0.000000 0.000000 0.000000 0.221117 0.000000 0.062006
# 5 0.005353 0.005660 0.006841 0.000000 0.033238 0.000000
# 6 0.000000 0.000000 0.000000 0.062006 0.000000 0.039339
#
#
# Mechanical properties :
#
#
# Convention : Reuss Voigt Hill
#
# Bulk Modulus (GPa) = 17.49182 32.50386 24.99784
# Shear Modulus (GPa) = 12.34617 29.73408 21.04012
#
# Velocity S-wave (km/s) = 2.41857 3.75335 3.15730
# Velocity P-wave (km/s) = 4.01082 5.84666 5.01349
#
# Compressibility (1/GPa) = 0.05716957
#
# Stress axis : x y z
#
# Youngs Moduli (GPa) = 36.07790 86.97200 28.18049
#
# Poissons Ratio (x) = 0.65813 0.15773
# Poissons Ratio (y) = 0.27301 -0.12395
# Poissons Ratio (z) = 0.20194 -0.38255
#
# Static dielectric constant tensor:
#      x y z
#    x 1.821360 0.000000 0.009680 
#    y 0.000000 1.711690 0.000000 
#    z 0.009680 0.000000 1.780030 
# 
# From -- ./inp_files/179859.got.cif
#   From: 2010.05.17/outbox.cif.g08.bks.cpg/sg12_90_cif.got.tgz:179859.got - 2010.06.03 13:09:07.
