data_PCOD9212120
_publ_section_title
;
Structure prediction by ZEFSAII (Michael W. Deem and Ramdas Pophale) SiO2 
 PCOD9212120
Probable space group: C 2/M
;
_chemical_formula_sum "Si O2"
_cell_formula_units_Z 56
_cell_length_a 9.515263
_cell_length_b 17.788715
_cell_length_c 27.667792
_cell_angle_alpha 90.000000
_cell_angle_beta 39.276751
_cell_angle_gamma 90.000000
_cell_volume 2964.759209
_symmetry_space_group_name_H-M "C 2/M"
_symmetry_group_IT_number 12
_symmetry_cell_setting 'monoclinic'
loop_
_space_group_symop_operation_xyz
x,y,z
-x,y,-z
-x,-y,-z
x,-y,z
1/2+x,1/2+y,z
1/2-x,1/2+y,-z
1/2-x,1/2-y,-z
1/2+x,1/2-y,z
loop_
_atom_site_type_symbol
_atom_site_label
_atom_site_fract_x
_atom_site_fract_y
_atom_site_fract_z
Si Si1 0.059499 0.408304 0.841778
Si Si2 0.111165 0.330594 0.303092
Si Si3 0.731693 0.588239 0.465814
Si Si4 0.519703 0.676660 0.714545
Si Si5 0.265120 0.584870 0.428841
Si Si6 0.268404 0.090131 0.826093
Si Si7 0.353358 0.586184 0.989850
O O1 0.078354 0.500000 0.838300
O O2 0.293630 0.368279 0.785678
O O3 0.948216 0.387970 0.819383
O O4 0.883119 0.383090 0.929967
O O5 0.323489 0.316179 0.280591
O O6 0.036617 0.255602 0.295339
O O7 0.166397 0.387290 0.244846
O O8 0.917394 0.365047 0.388284
O O9 0.500000 0.589368 0.500000
O O10 0.804287 0.500000 0.451010
O O11 0.679944 0.617862 0.533347
O O12 0.650324 0.630018 0.639025
O O13 0.356907 0.500000 0.401698
O O14 0.000000 0.581465 0.500000
O O15 0.024014 0.121156 0.906057
O O16 0.254538 0.000000 0.833422
O O17 0.309446 0.500000 0.986387
O O18 0.500000 0.583161 0.000000
#
# Coordination Sequence:
#
# PCOD9212120 Si02
#       7
#     8   8   8   8   8   8   8
#     4   9  18  35  62  91 117 149 190 233 283 343
#     4  12  26  41  56  82 119 155 196 237 285 338
#     4  10  23  41  64  89 113 144 187 236 284 341
#     4  12  26  40  57  82 117 158 195 237 284 339
#     4  10  21  41  64  86 112 145 186 234 289 339
#     4   9  18  35  62  90 118 150 187 235 286 339
#     4   7  12  28  56  89 117 144 183 231 282 336
#
# _framework density 18.888549000000001
#
# number of rings (size 3 to 8) (size 9 to 14) (size 15 to 20)
#    0.000    2.143    1.429    3.429    4.000    2.857 
#    0.000    1.429    0.000    2.571    0.000    0.000 
#    0.000    0.000    0.000    0.000    0.000    0.000 
#
# Total GULP energy -156126.771273 kJ/mol
# GULP energy per Si atom -5575.956117 kJ/mol
# Density = 1.884556 g / cm^3
# Si number density = 18.888549 Si / 1000 Ang^3
#
#
#
# Elastic Constant Matrix: (Units=GPa)
#
#
# Indices 1 2 3 4 5 6 
#
# 1 100.5321 17.9707 24.8078 0.0253 -7.3715 0.0082
# 2 17.9707 34.3469 14.7170 0.0095 -11.8298 0.0047
# 3 24.8078 14.7170 67.2241 0.0117 -17.5266 0.0064
# 4 0.0253 0.0095 0.0117 -88.0243 0.0093 -30.7845
# 5 -7.3715 -11.8298 -17.5266 0.0093 28.9060 0.0011
# 6 0.0082 0.0047 0.0064 -30.7845 0.0011 16.3990
#
#
#
# Elastic Compliance Matrix: (Units=1/GPa)
#
#
# Indices 1 2 3 4 5 6 
#
# 1 0.011616 -0.004990 -0.003509 0.000002 -0.001208 0.000001
# 2 -0.004990 0.037231 -0.003170 0.000004 0.012042 -0.000001
# 3 -0.003509 -0.003170 0.019352 0.000003 0.009542 -0.000001
# 4 0.000002 0.000004 0.000003 -0.006858 0.000006 -0.012874
# 5 -0.001208 0.012042 0.009542 0.000006 0.045001 0.000002
# 6 0.000001 -0.000001 -0.000001 -0.012874 0.000002 0.036812
#
#
# Mechanical properties :
#
#
# Convention : Reuss Voigt Hill
#
# Bulk Modulus (GPa) = 22.29051 35.23268 28.76160
# Shear Modulus (GPa) = 27.55629 1.09664 14.32646
#
# Velocity S-wave (km/s) = 3.82368 0.76279 2.75703
# Velocity P-wave (km/s) = 5.59650 4.41239 5.03934
#
# Compressibility (1/GPa) = 0.04486214
#
# Stress axis : x y z
#
# Youngs Moduli (GPa) = 86.08449 26.85905 51.67348
#
# Poissons Ratio (x) = 0.13403 0.18133
# Poissons Ratio (y) = 0.42957 0.16379
# Poissons Ratio (z) = 0.30209 0.08513
#
# Static dielectric constant tensor:
#      x y z
#    x 1.721820 0.000000 0.003120 
#    y 0.000000 1.675470 0.000000 
#    z 0.003120 0.000000 1.672210 
# 
# From -- ./inp_files/257154.got.cif
#   From: 2010.05.17/outbox.cif.g08.bks.cpg/sg12_129_cif.got.tgz:257154.got - 2010.06.03 13:09:07.
