data_PCOD9212262
_publ_section_title
;
Structure prediction by ZEFSAII (Michael W. Deem and Ramdas Pophale) SiO2 
 PCOD9212262
Probable space group: C 2/M
;
_chemical_formula_sum "Si O2"
_cell_formula_units_Z 38
_cell_length_a 10.389682
_cell_length_b 27.290698
_cell_length_c 6.192447
_cell_angle_alpha 90.000000
_cell_angle_beta 90.167389
_cell_angle_gamma 90.000000
_cell_volume 1755.809294
_symmetry_space_group_name_H-M "C 2/M"
_symmetry_group_IT_number 12
_symmetry_cell_setting 'monoclinic'
loop_
_space_group_symop_operation_xyz
x,y,z
-x,y,-z
-x,-y,-z
x,-y,z
1/2+x,1/2+y,z
1/2-x,1/2+y,-z
1/2-x,1/2-y,-z
1/2+x,1/2-y,z
loop_
_atom_site_type_symbol
_atom_site_label
_atom_site_fract_x
_atom_site_fract_y
_atom_site_fract_z
Si Si1 0.887296 0.555672 0.673077
Si Si2 0.610930 0.581604 0.681229
Si Si3 0.000000 0.630777 0.000000
Si Si4 0.878475 0.702610 0.335223
Si Si5 0.500000 0.500000 0.000000
Si Si6 0.868128 0.189074 0.364573
O O1 0.892568 0.500000 0.756208
O O2 0.746618 0.565661 0.576933
O O3 0.912732 0.595317 0.855996
O O4 0.000000 0.561385 0.500000
O O5 0.500000 0.579670 0.500000
O O6 0.626687 0.637775 0.760441
O O7 0.577130 0.543039 0.864528
O O8 0.087867 0.665098 0.851940
O O9 0.860483 0.758264 0.248694
O O10 0.752715 0.688375 0.471901
O O11 0.000000 0.701897 0.500000
O O12 0.000000 0.190529 0.500000
#
# Coordination Sequence:
#
# PCOD9212262 Si02
#       6
#     8   8   4   8   2   8
#     4  11  25  45  67  94 128 173 219 274 328 385
#     4  11  24  46  67  93 131 172 217 268 326 383
#     4  12  23  39  68 104 129 167 218 278 320 386
#     4  10  21  41  66  94 133 168 215 265 325 389
#     4  12  26  38  62  96 128 168 216 264 316 388
#     4   9  20  40  65  93 128 175 210 259 327 392
#
# _framework density 21.642441999999999
#
# number of rings (size 3 to 8) (size 9 to 14) (size 15 to 20)
#    0.000    1.474    1.053    3.789    0.000    5.895 
#    3.789   14.737    0.000    0.000    0.000    0.000 
#    0.000    0.000    0.000    0.000    0.000    0.000 
#
# Total GULP energy -105942.789610 kJ/mol
# GULP energy per Si atom -5575.936295 kJ/mol
# Density = 2.159318 g / cm^3
# Si number density = 21.642442 Si / 1000 Ang^3
#
#
#
# Elastic Constant Matrix: (Units=GPa)
#
#
# Indices 1 2 3 4 5 6 
#
# 1 173.9388 46.1772 42.2559 0.0000 -19.8430 0.0000
# 2 46.1772 250.7021 72.7958 0.0000 -14.7279 0.0000
# 3 42.2559 72.7958 47.2191 0.0000 -11.6535 0.0000
# 4 0.0000 0.0000 0.0000 40.2869 0.0000 -20.3336
# 5 -19.8430 -14.7279 -11.6535 0.0000 15.0902 0.0000
# 6 0.0000 0.0000 0.0000 -20.3336 0.0000 32.8817
#
#
#
# Elastic Compliance Matrix: (Units=1/GPa)
#
#
# Indices 1 2 3 4 5 6 
#
# 1 0.007880 0.000943 -0.007069 0.000000 0.005824 0.000000
# 2 0.000943 0.007379 -0.012524 0.000000 -0.001229 0.000000
# 3 -0.007069 -0.012524 0.051273 0.000000 0.018077 0.000000
# 4 0.000000 0.000000 0.000000 0.036084 0.000000 0.022314
# 5 0.005824 -0.001229 0.018077 0.000000 0.086687 0.000000
# 6 0.000000 0.000000 0.000000 0.022314 0.000000 0.044211
#
#
# Mechanical properties :
#
#
# Convention : Reuss Voigt Hill
#
# Bulk Modulus (GPa) = 34.20749 88.25752 61.23251
# Shear Modulus (GPa) = 17.82161 38.36051 28.09106
#
# Velocity S-wave (km/s) = 2.87271 4.21463 3.60663
# Velocity P-wave (km/s) = 5.18105 8.03446 6.76002
#
# Compressibility (1/GPa) = 0.02923336
#
# Stress axis : x y z
#
# Youngs Moduli (GPa) = 126.89659 135.51226 19.50352
#
# Poissons Ratio (x) = -0.12782 0.13787
# Poissons Ratio (y) = -0.11969 0.24426
# Poissons Ratio (z) = 0.89702 1.69715
#
# Static dielectric constant tensor:
#      x y z
#    x 1.787610 0.000000 0.023970 
#    y 0.000000 1.827880 0.000000 
#    z 0.023970 0.000000 1.760770 
# 
# From -- ./inp_files/7638.got.cif
#   From: 2010.05.17/outbox.cif.g08.bks.cpg/sg12_4_cif.got.tgz:7638.got - 2010.06.03 13:09:07.
