data_PCOD9212924
_publ_section_title
;
Structure prediction by ZEFSAII (Michael W. Deem and Ramdas Pophale) SiO2 
 PCOD9212924
Probable space group: C 2/M
;
_chemical_formula_sum "Si O2"
_cell_formula_units_Z 52
_cell_length_a 4.941009
_cell_length_b 30.320001
_cell_length_c 19.082493
_cell_angle_alpha 90.000000
_cell_angle_beta 96.721736
_cell_angle_gamma 90.000000
_cell_volume 2839.124638
_symmetry_space_group_name_H-M "C 2/M"
_symmetry_group_IT_number 12
_symmetry_cell_setting 'monoclinic'
loop_
_space_group_symop_operation_xyz
x,y,z
-x,y,-z
-x,-y,-z
x,-y,z
1/2+x,1/2+y,z
1/2-x,1/2+y,-z
1/2-x,1/2-y,-z
1/2+x,1/2-y,z
loop_
_atom_site_type_symbol
_atom_site_label
_atom_site_fract_x
_atom_site_fract_y
_atom_site_fract_z
Si Si1 0.336254 0.721592 0.351160
Si Si2 0.102268 0.447626 0.926675
Si Si3 0.046211 0.925616 0.838442
Si Si4 0.020987 0.867209 0.287758
Si Si5 0.220117 0.500000 0.737664
Si Si6 0.000000 0.611816 0.500000
Si Si7 0.000000 0.176355 0.500000
Si Si8 0.045122 0.584208 0.346872
O O1 0.525263 0.763391 0.339286
O O2 0.421427 0.681102 0.304739
O O3 0.405005 0.705622 0.431981
O O4 0.163215 0.500000 0.931983
O O5 0.851776 0.440320 0.865770
O O6 0.367843 0.424439 0.903738
O O7 0.000000 0.433619 0.000000
O O8 0.038101 0.880972 0.793817
O O9 0.897267 0.961799 0.785510
O O10 0.333737 0.877795 0.315293
O O11 0.841099 0.900955 0.329406
O O12 0.048366 0.539027 0.691318
O O13 0.743275 0.644279 0.484152
O O14 0.036282 0.583836 0.430614
#
# Coordination Sequence:
#
# PCOD9212924 Si02
#       8
#     8   8   8   8   4   4   4   8
#     4  12  23  38  59  83 109 139 184 233 287 357
#     4  11  21  35  55  87 120 152 187 224 260 308
#     4  11  21  36  58  79 117 154 189 224 266 326
#     4  11  23  39  56  81 110 146 183 232 288 329
#     4  10  22  35  55  80 104 150 204 224 266 322
#     4  12  20  38  58  72 109 142 191 242 292 330
#     4  12  22  39  54  83 105 144 181 223 308 353
#     4  11  22  37  56  75 107 146 191 249 277 327
#
# _framework density 18.315504000000001
#
# number of rings (size 3 to 8) (size 9 to 14) (size 15 to 20)
#    0.000    0.769    4.615    4.615    0.000    4.000 
#    0.000    0.000    0.000    5.538    0.000    0.000 
#    0.000   12.308    0.000    0.000    0.000    0.000 
#
# Total GULP energy -144872.948073 kJ/mol
# GULP energy per Si atom -5572.036464 kJ/mol
# Density = 1.827382 g / cm^3
# Si number density = 18.315504 Si / 1000 Ang^3
#
#
#
# Elastic Constant Matrix: (Units=GPa)
#
#
# Indices 1 2 3 4 5 6 
#
# 1 64.6441 -6.2154 -2.0038 0.0000 -11.3018 0.0000
# 2 -6.2154 64.2818 19.1018 0.0000 -5.5325 0.0000
# 3 -2.0038 19.1018 56.8735 0.0000 -11.9012 0.0000
# 4 0.0000 0.0000 0.0000 31.2749 0.0000 -5.7349
# 5 -11.3018 -5.5325 -11.9012 0.0000 26.7117 0.0000
# 6 0.0000 0.0000 0.0000 -5.7349 0.0000 -12.9882
#
#
#
# Elastic Compliance Matrix: (Units=1/GPa)
#
#
# Indices 1 2 3 4 5 6 
#
# 1 0.017177 0.001869 0.001742 0.000000 0.008431 0.000000
# 2 0.001869 0.017514 -0.005395 0.000000 0.002015 0.000000
# 3 0.001742 -0.005395 0.021369 0.000000 0.009140 0.000000
# 4 0.000000 0.000000 0.000000 0.029580 0.000000 -0.013061
# 5 0.008431 0.002015 0.009140 0.000000 0.045493 0.000000
# 6 0.000000 0.000000 0.000000 -0.013061 0.000000 -0.071226
#
#
# Mechanical properties :
#
#
# Convention : Reuss Voigt Hill
#
# Bulk Modulus (GPa) = 19.05089 23.06273 21.05681
# Shear Modulus (GPa) = 61.74958 20.66080 41.20519
#
# Velocity S-wave (km/s) = 5.81271 3.36229 4.74829
# Velocity P-wave (km/s) = 7.44810 5.26237 6.44852
#
# Compressibility (1/GPa) = 0.05249098
#
# Stress axis : x y z
#
# Youngs Moduli (GPa) = 58.21754 57.09817 46.79709
#
# Poissons Ratio (x) = -0.10671 -0.08151
# Poissons Ratio (y) = -0.10880 0.25246
# Poissons Ratio (z) = -0.10140 0.30804
#
# Static dielectric constant tensor:
#      x y z
#    x 1.624630 0.000000 -0.036200 
#    y 0.000000 1.605020 0.000000 
#    z -0.036200 0.000000 1.656410 
# 
# From -- ./inp_files/253494.got.cif
#   From: 2010.05.17/outbox.cif.g08.bks.cpg/sg12_127_cif.got.tgz:253494.got - 2010.06.03 13:09:07.
