data_PCOD9212050
_publ_section_title
;
Structure prediction by ZEFSAII (Michael W. Deem and Ramdas Pophale) SiO2 
 PCOD9212050
Probable space group: C 2/M
;
_chemical_formula_sum "Si O2"
_cell_formula_units_Z 56
_cell_length_a 8.991385
_cell_length_b 26.754781
_cell_length_c 14.068795
_cell_angle_alpha 90.000000
_cell_angle_beta 56.060672
_cell_angle_gamma 90.000000
_cell_volume 2807.817990
_symmetry_space_group_name_H-M "C 2/M"
_symmetry_group_IT_number 12
_symmetry_cell_setting 'monoclinic'
loop_
_space_group_symop_operation_xyz
x,y,z
-x,y,-z
-x,-y,-z
x,-y,z
1/2+x,1/2+y,z
1/2-x,1/2+y,-z
1/2-x,1/2-y,-z
1/2+x,1/2-y,z
loop_
_atom_site_type_symbol
_atom_site_label
_atom_site_fract_x
_atom_site_fract_y
_atom_site_fract_z
Si Si1 0.926760 0.943928 0.238939
Si Si2 0.435759 0.214475 0.805985
Si Si3 0.803455 0.878715 0.115038
Si Si4 0.188024 0.415798 0.969707
Si Si5 0.137869 0.300730 0.537302
Si Si6 0.740633 0.317630 0.178796
Si Si7 0.042760 0.121973 0.592946
O O1 0.819161 0.904120 0.212227
O O2 0.932776 0.923847 0.343859
O O3 0.131648 0.943402 0.126932
O O4 0.855326 0.000000 0.255985
O O5 0.267715 0.177297 0.865988
O O6 0.534274 0.199202 0.673363
O O7 0.370395 0.271573 0.825540
O O8 0.577998 0.203284 0.838329
O O9 0.682668 0.910454 0.085142
O O10 0.000000 0.880579 0.000000
O O11 0.214207 0.360519 0.913550
O O12 0.000000 0.436319 0.000000
O O13 0.250000 0.250000 0.500000
O O14 0.276766 0.345491 0.474545
O O15 0.000000 0.299570 0.500000
O O16 0.615077 0.343718 0.304115
O O17 0.000000 0.108077 0.500000
#
# Coordination Sequence:
#
# PCOD9212050 Si02
#       7
#     8   8   8   8   8   8   8
#     4  10  24  44  68  92 118 159 214 268 326 386
#     4  12  23  36  59  89 131 175 212 253 299 376
#     4  10  23  41  63  87 124 167 211 260 318 368
#     4  10  21  41  61  90 128 160 207 265 317 370
#     4  12  22  35  59  91 128 172 215 253 305 366
#     4  11  24  35  58  92 133 171 213 246 304 374
#     4  11  22  42  62  92 130 166 205 261 318 379
#
# _framework density 19.944310999999999
#
# number of rings (size 3 to 8) (size 9 to 14) (size 15 to 20)
#    0.000    1.143    4.286    2.143    6.000    4.286 
#    0.000    0.000    0.000    3.857    0.000    0.000 
#    0.000    0.000    0.000    0.000    0.000    0.000 
#
# Total GULP energy -156519.369655 kJ/mol
# GULP energy per Si atom -5589.977488 kJ/mol
# Density = 1.989892 g / cm^3
# Si number density = 19.944311 Si / 1000 Ang^3
#
#
#
# Elastic Constant Matrix: (Units=GPa)
#
#
# Indices 1 2 3 4 5 6 
#
# 1 101.6581 8.6544 21.8054 0.0000 20.7021 0.0000
# 2 8.6544 66.8239 15.5232 0.0000 9.0312 0.0000
# 3 21.8054 15.5232 51.6009 0.0000 21.5664 0.0000
# 4 0.0000 0.0000 0.0000 6.3531 0.0000 -2.9751
# 5 20.7021 9.0312 21.5664 0.0000 30.7539 0.0000
# 6 0.0000 0.0000 0.0000 -2.9751 0.0000 8.3330
#
#
#
# Elastic Compliance Matrix: (Units=1/GPa)
#
#
# Indices 1 2 3 4 5 6 
#
# 1 0.011593 -0.000138 -0.002281 0.000000 -0.006164 0.000000
# 2 -0.000138 0.016168 -0.004046 0.000000 -0.001818 0.000000
# 3 -0.002281 -0.004046 0.028889 0.000000 -0.017535 0.000000
# 4 0.000000 0.000000 0.000000 0.189004 0.000000 0.067478
# 5 -0.006164 -0.001818 -0.017535 0.000000 0.049496 0.000000
# 6 0.000000 0.000000 0.000000 0.067478 0.000000 0.144095
#
#
# Mechanical properties :
#
#
# Convention : Reuss Voigt Hill
#
# Bulk Modulus (GPa) = 22.87297 34.67209 28.77253
# Shear Modulus (GPa) = 10.71238 20.69466 15.70352
#
# Velocity S-wave (km/s) = 2.32009 3.22471 2.80905
# Velocity P-wave (km/s) = 4.32092 5.59350 4.99788
#
# Compressibility (1/GPa) = 0.04371972
#
# Stress axis : x y z
#
# Youngs Moduli (GPa) = 86.25745 61.85019 34.61477
#
# Poissons Ratio (x) = 0.00857 0.07897
# Poissons Ratio (y) = 0.01194 0.14004
# Poissons Ratio (z) = 0.19678 0.25023
#
# Static dielectric constant tensor:
#      x y z
#    x 1.705780 0.000000 -0.006910 
#    y 0.000000 1.673760 0.000000 
#    z -0.006910 0.000000 1.761040 
# 
# From -- ./inp_files/199686.got.cif
#   From: 2010.05.17/outbox.cif.g08.bks.cpg/sg12_100_cif.got.tgz:199686.got - 2010.06.03 13:09:07.
