data_PCOD9212336
_publ_section_title
;
Structure prediction by ZEFSAII (Michael W. Deem and Ramdas Pophale) SiO2 
 PCOD9212336
Probable space group: C 2/M
;
_chemical_formula_sum "Si O2"
_cell_formula_units_Z 40
_cell_length_a 17.903834
_cell_length_b 15.085862
_cell_length_c 11.796245
_cell_angle_alpha 90.000000
_cell_angle_beta 36.304740
_cell_angle_gamma 90.000000
_cell_volume 1886.428019
_symmetry_space_group_name_H-M "C 2/M"
_symmetry_group_IT_number 12
_symmetry_cell_setting 'monoclinic'
loop_
_space_group_symop_operation_xyz
x,y,z
-x,y,-z
-x,-y,-z
x,-y,z
1/2+x,1/2+y,z
1/2-x,1/2+y,-z
1/2-x,1/2-y,-z
1/2+x,1/2-y,z
loop_
_atom_site_type_symbol
_atom_site_label
_atom_site_fract_x
_atom_site_fract_y
_atom_site_fract_z
Si Si1 0.711722 0.397189 0.246906
Si Si2 0.894568 0.776553 0.804848
Si Si3 0.738989 0.850079 0.557239
Si Si4 0.009696 0.900116 0.857137
Si Si5 0.474045 0.099065 0.785470
O O1 0.674568 0.500000 0.301251
O O2 0.614366 0.342208 0.289877
O O3 0.726313 0.357161 0.353568
O O4 0.849205 0.394815 0.017012
O O5 0.967966 0.683280 0.708485
O O6 0.944132 0.831224 0.852601
O O7 0.750000 0.750000 0.000000
O O8 0.750000 0.750000 0.500000
O O9 0.844649 0.901646 0.357288
O O10 0.600055 0.887554 0.704776
O O11 0.956369 0.000000 0.910796
O O12 0.000000 0.872641 0.000000
O O13 0.474617 0.000000 0.733923
#
# Coordination Sequence:
#
# PCOD9212336 Si02
#       5
#     8   8   8   8   8
#     4  10  22  41  69  99 129 164 212 271 322 375
#     4  10  22  39  67  96 130 167 208 259 324 383
#     4  12  24  39  67  95 129 167 216 264 321 377
#     4  11  25  44  65  91 129 173 215 262 316 379
#     4  10  21  41  67  97 128 164 213 266 320 378
#
# _framework density 21.204096
#
# number of rings (size 3 to 8) (size 9 to 14) (size 15 to 20)
#    0.000    1.400    2.000    3.000    5.600    3.200 
#    0.000    2.000    0.000    1.200    0.000    0.000 
#    0.000    0.000    0.000    0.000    0.000    0.000 
#
# Total GULP energy -111782.752089 kJ/mol
# GULP energy per Si atom -5589.137604 kJ/mol
# Density = 2.115583 g / cm^3
# Si number density = 21.204096 Si / 1000 Ang^3
#
#
#
# Elastic Constant Matrix: (Units=GPa)
#
#
# Indices 1 2 3 4 5 6 
#
# 1 148.8731 105.3332 42.8107 0.0000 8.8351 0.0000
# 2 105.3332 204.7947 30.4919 0.0000 16.6424 0.0000
# 3 42.8107 30.4919 63.9920 0.0000 1.4947 0.0000
# 4 0.0000 0.0000 0.0000 25.4305 0.0000 -4.3893
# 5 8.8351 16.6424 1.4947 0.0000 11.9708 0.0000
# 6 0.0000 0.0000 0.0000 -4.3893 0.0000 -5.5457
#
#
#
# Elastic Compliance Matrix: (Units=1/GPa)
#
#
# Indices 1 2 3 4 5 6 
#
# 1 0.012155 -0.005357 -0.005560 0.000000 -0.000830 0.000000
# 2 -0.005357 0.008278 -0.000185 0.000000 -0.007531 0.000000
# 3 -0.005560 -0.000185 0.019389 0.000000 0.001939 0.000000
# 4 0.000000 0.000000 0.000000 0.034597 0.000000 -0.027382
# 5 -0.000830 -0.007531 0.001939 0.000000 0.094377 0.000000
# 6 0.000000 0.000000 0.000000 -0.027382 0.000000 -0.158646
#
#
# Mechanical properties :
#
#
# Convention : Reuss Voigt Hill
#
# Bulk Modulus (GPa) = 56.75581 86.10350 71.42966
# Shear Modulus (GPa) = 130.80133 22.30606 76.55369
#
# Velocity S-wave (km/s) = 7.86262 3.24693 6.01512
# Velocity P-wave (km/s) = 10.45238 7.39945 9.05550
#
# Compressibility (1/GPa) = 0.01761934
#
# Stress axis : x y z
#
# Youngs Moduli (GPa) = 82.26885 120.80871 51.57461
#
# Poissons Ratio (x) = 0.64712 0.28676
# Poissons Ratio (y) = 0.44068 0.00953
# Poissons Ratio (z) = 0.45742 0.02232
#
# Static dielectric constant tensor:
#      x y z
#    x 1.729170 0.000000 -0.014680 
#    y 0.000000 1.899490 0.000000 
#    z -0.014680 0.000000 1.766440 
# 
# From -- ./inp_files/142506.got.cif
#   From: 2010.05.17/outbox.cif.g08.bks.cpg/sg12_72_cif.got.tgz:142506.got - 2010.06.03 13:09:07.
