data_PCOD9212136
_publ_section_title
;
Structure prediction by ZEFSAII (Michael W. Deem and Ramdas Pophale) SiO2 
 PCOD9212136
Probable space group: C 2/M
;
_chemical_formula_sum "Si O2"
_cell_formula_units_Z 56
_cell_length_a 27.505499
_cell_length_b 8.576970
_cell_length_c 12.978385
_cell_angle_alpha 90.000000
_cell_angle_beta 67.995767
_cell_angle_gamma 90.000000
_cell_volume 2838.748830
_symmetry_space_group_name_H-M "C 2/M"
_symmetry_group_IT_number 12
_symmetry_cell_setting 'monoclinic'
loop_
_space_group_symop_operation_xyz
x,y,z
-x,y,-z
-x,-y,-z
x,-y,z
1/2+x,1/2+y,z
1/2-x,1/2+y,-z
1/2-x,1/2-y,-z
1/2+x,1/2-y,z
loop_
_atom_site_type_symbol
_atom_site_label
_atom_site_fract_x
_atom_site_fract_y
_atom_site_fract_z
Si Si1 0.996179 0.312541 0.823129
Si Si2 0.387846 0.311685 0.224926
Si Si3 0.844367 0.688572 0.658913
Si Si4 0.197234 0.686627 0.091920
Si Si5 0.890125 0.186493 0.992008
Si Si6 0.308445 0.686618 0.467661
Si Si7 0.537550 0.810409 0.378956
O O1 0.994673 0.500000 0.830367
O O2 0.949621 0.244921 0.930060
O O3 0.982074 0.261877 0.717589
O O4 0.054061 0.254313 0.803319
O O5 0.390764 0.500000 0.227160
O O6 0.347478 0.258566 0.345284
O O7 0.371029 0.269524 0.121972
O O8 0.842734 0.500000 0.651116
O O9 0.808374 0.735347 0.784227
O O10 0.829113 0.759562 0.562205
O O11 0.903161 0.735385 0.644158
O O12 0.197555 0.500000 0.089909
O O13 0.147280 0.742632 0.065564
O O14 0.250000 0.750000 0.000000
O O15 0.888999 0.000000 0.984025
O O16 0.307095 0.500000 0.464342
O O17 0.250000 0.750000 0.500000
O O18 0.500000 0.755140 0.500000
O O19 0.536432 0.000000 0.379698
#
# Coordination Sequence:
#
# PCOD9212136 Si02
#       7
#     8   8   8   8   8   8   8
#     4  11  21  37  62  94 126 161 208 256 305 369
#     4  10  24  43  61  87 126 169 206 254 315 371
#     4  10  21  41  64  89 126 162 198 252 313 369
#     4  11  24  42  65  94 127 162 208 259 312 371
#     4  11  23  41  64  90 127 170 208 251 314 374
#     4  11  25  44  65  91 123 161 212 262 312 371
#     4   9  17  32  57  87 120 157 195 240 299 361
#
# _framework density 19.727
#
# number of rings (size 3 to 8) (size 9 to 14) (size 15 to 20)
#    0.000    1.571    1.429    3.000    2.000    6.286 
#    0.000    0.000    0.000    3.000    0.000    0.000 
#    0.000    0.000    0.000    0.000    0.000    0.000 
#
# Total GULP energy -156509.868250 kJ/mol
# GULP energy per Si atom -5589.638152 kJ/mol
# Density = 1.968210 g / cm^3
# Si number density = 19.727000 Si / 1000 Ang^3
#
#
#
# Elastic Constant Matrix: (Units=GPa)
#
#
# Indices 1 2 3 4 5 6 
#
# 1 59.7569 13.2684 40.1402 0.0000 -5.9649 0.0000
# 2 13.2684 30.3018 35.6553 0.0000 -0.7810 0.0000
# 3 40.1402 35.6553 177.6805 0.0000 -6.6932 0.0000
# 4 0.0000 0.0000 0.0000 28.2119 0.0000 1.3563
# 5 -5.9649 -0.7810 -6.6932 0.0000 40.9765 0.0000
# 6 0.0000 0.0000 0.0000 1.3563 0.0000 37.5001
#
#
#
# Elastic Compliance Matrix: (Units=1/GPa)
#
#
# Indices 1 2 3 4 5 6 
#
# 1 0.020408 -0.004652 -0.003590 0.000000 0.002296 0.000000
# 2 -0.004652 0.044278 -0.007876 0.000000 -0.001120 0.000000
# 3 -0.003590 -0.007876 0.008044 0.000000 0.000641 0.000000
# 4 0.000000 0.000000 0.000000 0.035508 0.000000 -0.001284
# 5 0.002296 -0.001120 0.000641 0.000000 0.024822 0.000000
# 6 0.000000 0.000000 0.000000 -0.001284 0.000000 0.026713
#
#
# Mechanical properties :
#
#
# Convention : Reuss Voigt Hill
#
# Bulk Modulus (GPa) = 24.69654 49.54075 37.11864
# Shear Modulus (GPa) = 24.32993 33.24939 28.78966
#
# Velocity S-wave (km/s) = 3.51569 4.10991 3.82436
# Velocity P-wave (km/s) = 5.38762 6.90576 6.19338
#
# Compressibility (1/GPa) = 0.04049151
#
# Stress axis : x y z
#
# Youngs Moduli (GPa) = 48.99935 22.58477 124.31767
#
# Poissons Ratio (x) = 0.10507 0.44635
# Poissons Ratio (y) = 0.22797 0.97917
# Poissons Ratio (z) = 0.17593 0.17789
#
# Static dielectric constant tensor:
#      x y z
#    x 1.650790 0.000000 0.000740 
#    y 0.000000 1.673690 0.000000 
#    z 0.000740 0.000000 1.705990 
# 
# From -- ./inp_files/180704.got.cif
#   From: 2010.05.17/outbox.cif.g08.bks.cpg/sg12_91_cif.got.tgz:180704.got - 2010.06.03 13:09:07.
