data_PCOD9212045
_publ_section_title
;
Structure prediction by ZEFSAII (Michael W. Deem and Ramdas Pophale) SiO2 
 PCOD9212045
Probable space group: C 2/M
;
_chemical_formula_sum "Si O2"
_cell_formula_units_Z 56
_cell_length_a 15.381418
_cell_length_b 7.700039
_cell_length_c 30.239051
_cell_angle_alpha 90.000000
_cell_angle_beta 51.161626
_cell_angle_gamma 90.000000
_cell_volume 2789.647082
_symmetry_space_group_name_H-M "C 2/M"
_symmetry_group_IT_number 12
_symmetry_cell_setting 'monoclinic'
loop_
_space_group_symop_operation_xyz
x,y,z
-x,y,-z
-x,-y,-z
x,-y,z
1/2+x,1/2+y,z
1/2-x,1/2+y,-z
1/2-x,1/2-y,-z
1/2+x,1/2-y,z
loop_
_atom_site_type_symbol
_atom_site_label
_atom_site_fract_x
_atom_site_fract_y
_atom_site_fract_z
Si Si1 0.476651 0.000000 0.932402
Si Si2 0.594353 0.698506 0.114261
Si Si3 0.906946 0.194958 0.562368
Si Si4 0.199237 0.701149 0.313885
Si Si5 0.225375 0.196573 0.557689
Si Si6 0.312293 0.000000 0.068672
Si Si7 0.446839 0.710473 0.245601
Si Si8 0.999777 0.703625 0.327765
O O1 0.440097 0.166719 0.913474
O O2 0.604708 0.000000 0.913778
O O3 0.396106 0.000000 0.000652
O O4 0.558760 0.500000 0.112966
O O5 0.724008 0.662358 0.088936
O O6 0.525985 0.754600 0.179587
O O7 0.870705 0.289039 0.618357
O O8 0.795996 0.188077 0.568478
O O9 0.000000 0.272730 0.500000
O O10 0.945560 0.000000 0.561859
O O11 0.218259 0.500000 0.296612
O O12 0.321185 0.778431 0.279089
O O13 0.118881 0.779432 0.303137
O O14 0.250000 0.250000 0.500000
O O15 0.097721 0.209680 0.612775
O O16 0.263825 0.000000 0.552171
O O17 0.445708 0.500000 0.249259
O O18 0.483758 0.777144 0.281176
O O19 0.995814 0.500000 0.340839
#
# Coordination Sequence:
#
# PCOD9212045 Si02
#       8
#     4   8   8   8   8   4   8   8
#     4  11  20  42  71  99 147 185 234 285 338 398
#     4   9  22  41  64  98 140 182 231 283 337 398
#     4  11  23  38  57  82 109 139 188 245 302 375
#     4  10  22  39  59  84 114 155 194 241 308 368
#     4  12  24  39  58  80 111 148 188 245 311 372
#     4   9  22  42  65 109 141 183 240 284 330 413
#     4  10  21  41  61  86 127 164 207 262 307 372
#     4  11  23  38  60  88 117 152 201 247 306 376
#
# _framework density 20.074224999999998
#
# number of rings (size 3 to 8) (size 9 to 14) (size 15 to 20)
#    0.429    1.143    1.429    3.429    1.000    5.714 
#    1.286    0.714    0.000    0.000    0.000    0.000 
#    0.000    0.000    0.000    0.000    0.000    0.000 
#
# Total GULP energy -156030.630575 kJ/mol
# GULP energy per Si atom -5572.522521 kJ/mol
# Density = 2.002854 g / cm^3
# Si number density = 20.074225 Si / 1000 Ang^3
#
#
#
# Elastic Constant Matrix: (Units=GPa)
#
#
# Indices 1 2 3 4 5 6 
#
# 1 179.0313 23.3689 66.7455 -0.0004 -4.7009 -0.0005
# 2 23.3689 77.0950 16.0412 -0.0028 5.3802 -0.0014
# 3 66.7455 16.0412 114.3879 0.0000 -3.0858 -0.0002
# 4 -0.0004 -0.0028 0.0000 10.7358 -0.0007 -1.6906
# 5 -4.7009 5.3802 -3.0858 -0.0007 22.3015 -0.0006
# 6 -0.0005 -0.0014 -0.0002 -1.6906 -0.0006 26.9310
#
#
#
# Elastic Compliance Matrix: (Units=1/GPa)
#
#
# Indices 1 2 3 4 5 6 
#
# 1 0.007314 -0.001473 -0.004025 0.000000 0.001340 0.000000
# 2 -0.001473 0.013935 -0.001198 0.000004 -0.003838 0.000001
# 3 -0.004025 -0.001198 0.011286 0.000000 0.001002 0.000000
# 4 0.000000 0.000004 0.000000 0.094076 0.000002 0.005906
# 5 0.001340 -0.003838 0.001002 0.000002 0.046187 0.000001
# 6 0.000000 0.000001 0.000000 0.005906 0.000001 0.037503
#
#
# Mechanical properties :
#
#
# Convention : Reuss Voigt Hill
#
# Bulk Modulus (GPa) = 52.24088 64.75837 58.49963
# Shear Modulus (GPa) = 21.73231 29.61757 25.67494
#
# Velocity S-wave (km/s) = 3.29386 3.84526 3.58019
# Velocity P-wave (km/s) = 6.36760 7.21417 6.80406
#
# Compressibility (1/GPa) = 0.01914210
#
# Stress axis : x y z
#
# Youngs Moduli (GPa) = 136.73239 71.76359 88.60771
#
# Poissons Ratio (x) = 0.10570 0.35662
# Poissons Ratio (y) = 0.20140 0.10617
# Poissons Ratio (z) = 0.55032 0.08599
#
# Static dielectric constant tensor:
#      x y z
#    x 1.779120 0.000000 -0.034800 
#    y 0.000000 1.753620 0.000000 
#    z -0.034800 0.000000 1.707480 
# 
# From -- ./inp_files/374971.got.cif
#   From: 2010.05.17/outbox.cif.g08.bks.cpg/sg12_188_cif.got.tgz:374971.got - 2010.06.03 13:09:07.
