data_PCOD9212247
_publ_section_title
;
Structure prediction by ZEFSAII (Michael W. Deem and Ramdas Pophale) SiO2 
 PCOD9212247
Probable space group: C 2/M
;
_chemical_formula_sum "Si O2"
_cell_formula_units_Z 64
_cell_length_a 26.566486
_cell_length_b 8.626493
_cell_length_c 14.431112
_cell_angle_alpha 90.000000
_cell_angle_beta 86.151311
_cell_angle_gamma 90.000000
_cell_volume 3299.800266
_symmetry_space_group_name_H-M "C 2/M"
_symmetry_group_IT_number 12
_symmetry_cell_setting 'monoclinic'
loop_
_space_group_symop_operation_xyz
x,y,z
-x,y,-z
-x,-y,-z
x,-y,z
1/2+x,1/2+y,z
1/2-x,1/2+y,-z
1/2-x,1/2-y,-z
1/2+x,1/2-y,z
loop_
_atom_site_type_symbol
_atom_site_label
_atom_site_fract_x
_atom_site_fract_y
_atom_site_fract_z
Si Si1 0.649138 0.313725 0.394582
Si Si2 0.887375 0.815520 0.904138
Si Si3 0.440975 0.815392 0.719311
Si Si4 0.947951 0.685589 0.060031
Si Si5 0.275825 0.814282 0.904939
Si Si6 0.951941 0.813715 0.267618
Si Si7 0.647766 0.688671 0.609377
Si Si8 0.247708 0.187071 0.705275
O O1 0.646712 0.500000 0.390024
O O2 0.601710 0.245466 0.345078
O O3 0.647987 0.264215 0.502157
O O4 0.701275 0.257559 0.342696
O O5 0.924033 0.739437 0.823728
O O6 0.831206 0.758485 0.889685
O O7 0.890621 0.000000 0.896755
O O8 0.903979 0.759707 0.003552
O O9 0.496159 0.746430 0.694353
O O10 0.442891 0.000000 0.717083
O O11 0.942932 0.500000 0.062431
O O12 0.948836 0.749950 0.163533
O O13 0.000000 0.724013 0.000000
O O14 0.245559 0.775961 0.814761
O O15 0.280222 0.000000 0.910226
O O16 0.250000 0.750000 0.000000
O O17 0.902860 0.762699 0.331336
O O18 0.953012 0.000000 0.264447
O O19 0.648334 0.500000 0.610728
O O20 0.698240 0.740539 0.656244
O O21 0.251104 0.000000 0.696782
#
# Coordination Sequence:
#
# PCOD9212247 Si02
#       8
#     8   8   8   8   8   8   8   8
#     4  11  22  40  67  95 122 160 212 264 316 378
#     4  12  24  40  64  91 122 164 215 259 310 375
#     4  12  24  41  63  91 128 165 209 265 320 375
#     4  11  23  39  61  90 127 163 202 252 308 366
#     4  11  24  40  62  93 133 169 206 253 313 373
#     4  11  23  41  65  93 126 167 214 260 313 377
#     4   9  22  42  64  93 127 163 207 262 319 374
#     4  10  21  41  66  92 127 168 206 256 316 374
#
# _framework density 19.395112999999998
#
# number of rings (size 3 to 8) (size 9 to 14) (size 15 to 20)
#    0.000    1.125    2.500    4.125    1.750    1.500 
#    0.000    6.875    0.000    0.000    0.000    0.000 
#    0.000    0.000    0.000    0.000    0.000    0.000 
#
# Total GULP energy -178982.772941 kJ/mol
# GULP energy per Si atom -5593.211654 kJ/mol
# Density = 1.935097 g / cm^3
# Si number density = 19.395113 Si / 1000 Ang^3
#
#
#
# Elastic Constant Matrix: (Units=GPa)
#
#
# Indices 1 2 3 4 5 6 
#
# 1 119.9468 24.4944 71.0877 0.0000 19.1355 0.0000
# 2 24.4944 64.0711 37.0134 0.0000 1.8546 0.0000
# 3 71.0877 37.0134 144.2217 0.0000 2.2209 0.0000
# 4 0.0000 0.0000 0.0000 18.8710 0.0000 -2.1627
# 5 19.1355 1.8546 2.2209 0.0000 30.5895 0.0000
# 6 0.0000 0.0000 0.0000 -2.1627 0.0000 30.1972
#
#
#
# Elastic Compliance Matrix: (Units=1/GPa)
#
#
# Indices 1 2 3 4 5 6 
#
# 1 0.013568 -0.001367 -0.006215 0.000000 -0.007954 0.000000
# 2 -0.001367 0.018480 -0.004070 0.000000 0.000030 0.000000
# 3 -0.006215 -0.004070 0.010990 0.000000 0.003336 0.000000
# 4 0.000000 0.000000 0.000000 0.053430 0.000000 0.003827
# 5 -0.007954 0.000030 0.003336 0.000000 0.037422 0.000000
# 6 0.000000 0.000000 0.000000 0.003827 0.000000 0.033390
#
#
# Mechanical properties :
#
#
# Convention : Reuss Voigt Hill
#
# Bulk Modulus (GPa) = 50.66739 65.93674 58.30207
# Shear Modulus (GPa) = 25.36000 28.97449 27.16725
#
# Velocity S-wave (km/s) = 3.61992 3.86930 3.74669
# Velocity P-wave (km/s) = 6.60699 7.35067 6.98873
#
# Compressibility (1/GPa) = 0.01973656
#
# Stress axis : x y z
#
# Youngs Moduli (GPa) = 73.70234 54.11174 90.99181
#
# Poissons Ratio (x) = 0.07396 0.56547
# Poissons Ratio (y) = 0.10073 0.37030
# Poissons Ratio (z) = 0.45803 0.22021
#
# Static dielectric constant tensor:
#      x y z
#    x 1.657900 0.000000 0.008340 
#    y 0.000000 1.651550 0.000000 
#    z 0.008340 0.000000 1.661160 
# 
# From -- ./inp_files/238660.got.cif
#   From: 2010.05.17/outbox.cif.g08.bks.cpg/sg12_120_cif.got.tgz:238660.got - 2010.06.03 13:09:07.
