data_PCOD9212709
_publ_section_title
;
Structure prediction by ZEFSAII (Michael W. Deem and Ramdas Pophale) SiO2 
 PCOD9212709
Probable space group: C 2/M
;
_chemical_formula_sum "Si O2"
_cell_formula_units_Z 56
_cell_length_a 11.444627
_cell_length_b 26.334260
_cell_length_c 14.705878
_cell_angle_alpha 90.000000
_cell_angle_beta 40.420213
_cell_angle_gamma 90.000000
_cell_volume 2873.750347
_symmetry_space_group_name_H-M "C 2/M"
_symmetry_group_IT_number 12
_symmetry_cell_setting 'monoclinic'
loop_
_space_group_symop_operation_xyz
x,y,z
-x,y,-z
-x,-y,-z
x,-y,z
1/2+x,1/2+y,z
1/2-x,1/2+y,-z
1/2-x,1/2-y,-z
1/2+x,1/2-y,z
loop_
_atom_site_type_symbol
_atom_site_label
_atom_site_fract_x
_atom_site_fract_y
_atom_site_fract_z
Si Si1 0.568196 0.059106 0.732483
Si Si2 0.322098 0.836594 0.669970
Si Si3 0.508333 0.323426 0.242169
Si Si4 0.162756 0.850627 0.472046
Si Si5 0.391160 0.861136 0.969575
Si Si6 0.983702 0.709662 0.751893
Si Si7 0.855571 0.446602 0.667363
O O1 0.736202 0.097204 0.615500
O O2 0.452873 0.088599 0.877638
O O3 0.459680 0.057778 0.701404
O O4 0.610795 0.000000 0.729735
O O5 0.500000 0.831422 0.500000
O O6 0.147799 0.808374 0.736702
O O7 0.381732 0.822232 0.734928
O O8 0.254036 0.894744 0.711278
O O9 0.412224 0.351987 0.381957
O O10 0.571306 0.267324 0.233967
O O11 0.677887 0.356220 0.110962
O O12 0.306429 0.804722 0.384882
O O13 0.000000 0.840941 0.500000
O O14 0.437167 0.813093 0.877755
O O15 0.500000 0.858977 0.000000
O O16 0.753308 0.500000 0.726779
O O17 0.000000 0.448092 0.500000
#
# Coordination Sequence:
#
# PCOD9212709 Si02
#       7
#     8   8   8   8   8   8   8
#     4  10  21  43  68  92 126 169 210 265 336 388
#     4  11  21  38  63  96 131 156 217 270 317 392
#     4  12  25  38  66  94 129 174 219 266 319 380
#     4  11  22  39  64  96 130 165 219 268 316 389
#     4  11  25  46  61  88 131 171 223 267 317 384
#     4  11  24  42  60  90 129 178 213 261 331 372
#     4   9  16  33  62  89 119 157 196 256 322 374
#
# _framework density 19.486730999999999
#
# number of rings (size 3 to 8) (size 9 to 14) (size 15 to 20)
#    0.000    1.286    4.286    3.429    4.000    1.143 
#    0.000    1.429    0.000    1.714    0.000    0.000 
#    0.000    0.000    0.000    0.000    0.000    0.000 
#
# Total GULP energy -156144.278538 kJ/mol
# GULP energy per Si atom -5576.581376 kJ/mol
# Density = 1.944238 g / cm^3
# Si number density = 19.486731 Si / 1000 Ang^3
#
#
#
# Elastic Constant Matrix: (Units=GPa)
#
#
# Indices 1 2 3 4 5 6 
#
# 1 87.5609 1.1369 45.4775 0.0001 10.9713 0.0000
# 2 1.1369 106.7630 29.1143 0.0000 6.0171 0.0000
# 3 45.4775 29.1143 121.9927 0.0000 6.8457 0.0000
# 4 0.0001 0.0000 0.0000 -274.2034 0.0000 -89.1606
# 5 10.9713 6.0171 6.8457 0.0000 24.2876 0.0000
# 6 0.0000 0.0000 0.0000 -89.1606 0.0000 -10.7965
#
#
#
# Elastic Compliance Matrix: (Units=1/GPa)
#
#
# Indices 1 2 3 4 5 6 
#
# 1 0.015069 0.001714 -0.005711 0.000000 -0.005622 0.000000
# 2 0.001714 0.010295 -0.002956 0.000000 -0.002491 0.000000
# 3 -0.005711 -0.002956 0.011020 0.000000 0.000206 0.000000
# 4 0.000000 0.000000 0.000000 0.002164 0.000000 -0.017871
# 5 -0.005622 -0.002491 0.000206 0.000000 0.044272 0.000000
# 6 0.000000 0.000000 0.000000 -0.017871 0.000000 0.054960
#
#
# Mechanical properties :
#
#
# Convention : Reuss Voigt Hill
#
# Bulk Modulus (GPa) = 44.48913 51.97488 48.23200
# Shear Modulus (GPa) = 31.41125 -36.10327 -2.34601
#
# Velocity S-wave (km/s) = 4.01924 -4.30898 -1.09841
# Velocity P-wave (km/s) = 6.66477 1.40478 4.81625
#
# Compressibility (1/GPa) = 0.02247740
#
# Stress axis : x y z
#
# Youngs Moduli (GPa) = 66.36130 97.13637 90.74288
#
# Poissons Ratio (x) = -0.16647 0.51824
# Poissons Ratio (y) = -0.11373 0.26824
# Poissons Ratio (z) = 0.37900 0.28713
#
# Static dielectric constant tensor:
#      x y z
#    x 1.692050 0.000000 0.024750 
#    y 0.000000 1.742370 0.000000 
#    z 0.024750 0.000000 1.654880 
# 
# From -- ./inp_files/209113.got.cif
#   From: 2010.05.17/outbox.cif.g08.bks.cpg/sg12_105_cif.got.tgz:209113.got - 2010.06.03 13:09:07.
