data_PCOD9212306
_publ_section_title
;
Structure prediction by ZEFSAII (Michael W. Deem and Ramdas Pophale) SiO2 
 PCOD9212306
Probable space group: C 2/M
;
_chemical_formula_sum "Si O2"
_cell_formula_units_Z 40
_cell_length_a 19.577740
_cell_length_b 8.549602
_cell_length_c 12.143924
_cell_angle_alpha 90.000000
_cell_angle_beta 104.801856
_cell_angle_gamma 90.000000
_cell_volume 1965.218872
_symmetry_space_group_name_H-M "C 2/M"
_symmetry_group_IT_number 12
_symmetry_cell_setting 'monoclinic'
loop_
_space_group_symop_operation_xyz
x,y,z
-x,y,-z
-x,-y,-z
x,-y,z
1/2+x,1/2+y,z
1/2-x,1/2+y,-z
1/2-x,1/2-y,-z
1/2+x,1/2-y,z
loop_
_atom_site_type_symbol
_atom_site_label
_atom_site_fract_x
_atom_site_fract_y
_atom_site_fract_z
Si Si1 0.328691 0.312390 0.030193
Si Si2 0.612717 0.814032 0.717927
Si Si3 0.564204 0.309848 0.104433
Si Si4 0.181728 0.187630 0.536807
Si Si5 0.041044 0.810639 0.345178
O O1 0.329683 0.500000 0.034646
O O2 0.370942 0.251417 0.153842
O O3 0.250000 0.250000 0.000000
O O4 0.365883 0.262120 0.931831
O O5 0.670810 0.751989 0.655404
O O6 0.534686 0.755943 0.650903
O O7 0.614541 0.000000 0.720723
O O8 0.562999 0.500000 0.107800
O O9 0.555165 0.257536 0.225390
O O10 0.500000 0.259758 0.000000
O O11 0.250000 0.250000 0.500000
O O12 0.109463 0.234153 0.443789
O O13 0.185131 0.000000 0.541041
O O14 0.035517 0.000000 0.346065
#
# Coordination Sequence:
#
# PCOD9212306 Si02
#       5
#     8   8   8   8   8
#     4  11  23  40  64  94 130 168 208 259 319 380
#     4  12  25  42  64  91 127 169 216 264 313 374
#     4   9  17  35  64  92 121 158 200 249 312 380
#     4  11  25  43  66  94 127 165 210 265 324 383
#     4  10  21  41  67  93 123 165 210 259 320 383
#
# _framework density 20.353967000000001
#
# number of rings (size 3 to 8) (size 9 to 14) (size 15 to 20)
#    0.000    1.400    2.000    3.600    2.800    4.000 
#    0.000    3.000    0.000    0.000    0.000    0.000 
#    0.000    0.000    0.000    0.000    0.000    0.000 
#
# Total GULP energy -111812.560307 kJ/mol
# GULP energy per Si atom -5590.628015 kJ/mol
# Density = 2.030764 g / cm^3
# Si number density = 20.353967 Si / 1000 Ang^3
#
#
#
# Elastic Constant Matrix: (Units=GPa)
#
#
# Indices 1 2 3 4 5 6 
#
# 1 135.5066 29.5274 19.8669 0.0000 -21.8518 0.0000
# 2 29.5274 55.6224 15.0798 0.0000 -3.6546 0.0000
# 3 19.8669 15.0798 69.8226 0.0000 -19.1640 0.0000
# 4 0.0000 0.0000 0.0000 17.5454 0.0000 -0.7485
# 5 -21.8518 -3.6546 -19.1640 0.0000 43.0362 0.0000
# 6 0.0000 0.0000 0.0000 -0.7485 0.0000 36.5829
#
#
#
# Elastic Compliance Matrix: (Units=1/GPa)
#
#
# Indices 1 2 3 4 5 6 
#
# 1 0.009061 -0.004404 -0.000532 0.000000 0.003990 0.000000
# 2 -0.004404 0.021239 -0.003934 0.000000 -0.002184 0.000000
# 3 -0.000532 -0.003934 0.017268 0.000000 0.007085 0.000000
# 4 0.000000 0.000000 0.000000 0.057045 0.000000 0.001167
# 5 0.003990 -0.002184 0.007085 0.000000 0.028232 0.000000
# 6 0.000000 0.000000 0.000000 0.001167 0.000000 0.027359
#
#
# Mechanical properties :
#
#
# Convention : Reuss Voigt Hill
#
# Bulk Modulus (GPa) = 33.52426 43.32221 38.42324
# Shear Modulus (GPa) = 26.61221 32.53139 29.57180
#
# Velocity S-wave (km/s) = 3.61982 4.00219 3.81580
# Velocity P-wave (km/s) = 5.82899 6.53355 6.19130
#
# Compressibility (1/GPa) = 0.02982915
#
# Stress axis : x y z
#
# Youngs Moduli (GPa) = 110.36751 47.08333 57.91214
#
# Poissons Ratio (x) = 0.20733 0.03081
# Poissons Ratio (y) = 0.48601 0.22780
# Poissons Ratio (z) = 0.05871 0.18520
#
# Static dielectric constant tensor:
#      x y z
#    x 1.711260 0.000000 -0.006280 
#    y 0.000000 1.689950 0.000000 
#    z -0.006280 0.000000 1.712220 
# 
# From -- ./inp_files/151711.got.cif
#   From: 2010.05.17/outbox.cif.g08.bks.cpg/sg12_76_cif.got.tgz:151711.got - 2010.06.03 13:09:07.
