data_PCOD9212608
_publ_section_title
;
Structure prediction by ZEFSAII (Michael W. Deem and Ramdas Pophale) SiO2 
 PCOD9212608
Probable space group: C 2/M
;
_chemical_formula_sum "Si O2"
_cell_formula_units_Z 40
_cell_length_a 7.336193
_cell_length_b 19.781570
_cell_length_c 10.985664
_cell_angle_alpha 90.000000
_cell_angle_beta 108.188535
_cell_angle_gamma 90.000000
_cell_volume 1514.597405
_symmetry_space_group_name_H-M "C 2/M"
_symmetry_group_IT_number 12
_symmetry_cell_setting 'monoclinic'
loop_
_space_group_symop_operation_xyz
x,y,z
-x,y,-z
-x,-y,-z
x,-y,z
1/2+x,1/2+y,z
1/2-x,1/2+y,-z
1/2-x,1/2-y,-z
1/2+x,1/2-y,z
loop_
_atom_site_type_symbol
_atom_site_label
_atom_site_fract_x
_atom_site_fract_y
_atom_site_fract_z
Si Si1 0.728604 0.000000 0.133963
Si Si2 0.000000 0.384979 0.000000
Si Si3 0.788140 0.297246 0.778297
Si Si4 0.653278 0.500000 0.226741
Si Si5 0.726877 0.637407 0.522829
Si Si6 0.367737 0.348488 0.769112
Si Si7 0.568774 0.000000 0.358522
O O1 0.938193 0.000000 0.236955
O O2 0.680304 0.935685 0.042332
O O3 0.579184 0.000000 0.213596
O O4 0.040828 0.338382 0.123573
O O5 0.799015 0.306501 0.634235
O O6 0.588851 0.331234 0.779990
O O7 0.799114 0.219541 0.819662
O O8 0.653216 0.422664 0.175368
O O9 0.845556 0.500000 0.345979
O O10 0.500000 0.630014 0.500000
O O11 0.746718 0.649577 0.383683
O O12 0.828459 0.568142 0.580818
#
# Coordination Sequence:
#
# PCOD9212608 Si02
#       7
#     4   4   8   4   8   8   4
#     4  11  22  48  74 105 152 198 240 304 367 439
#     4  11  22  44  80  97 140 204 248 295 370 434
#     4  11  24  43  72 102 140 196 239 306 368 429
#     4  12  26  48  71 113 149 186 247 310 354 450
#     4  10  21  42  69 107 145 194 237 300 367 441
#     4  11  25  45  69 104 150 183 246 300 367 436
#     4  12  23  42  78 109 152 191 248 291 382 430
#
# _framework density 26.409658
#
# number of rings (size 3 to 8) (size 9 to 14) (size 15 to 20)
#    0.000    1.000    4.000    2.700    2.800    2.400 
#    0.000    2.000    0.000    0.000    0.000    0.000 
#    0.000    0.000    0.000    0.000    0.000    0.000 
#
# Total GULP energy -111880.838777 kJ/mol
# GULP energy per Si atom -5594.041939 kJ/mol
# Density = 2.634955 g / cm^3
# Si number density = 26.409658 Si / 1000 Ang^3
#
#
#
# Elastic Constant Matrix: (Units=GPa)
#
#
# Indices 1 2 3 4 5 6 
#
# 1 51.3907 31.6998 39.8296 0.0000 -6.9963 0.0000
# 2 31.6998 251.0724 35.9546 0.0000 6.7269 0.0000
# 3 39.8296 35.9546 102.9426 0.0000 8.0011 0.0000
# 4 0.0000 0.0000 0.0000 32.5391 0.0000 2.7386
# 5 -6.9963 6.7269 8.0011 0.0000 30.9666 0.0000
# 6 0.0000 0.0000 0.0000 2.7386 0.0000 25.8833
#
#
#
# Elastic Compliance Matrix: (Units=1/GPa)
#
#
# Indices 1 2 3 4 5 6 
#
# 1 0.032163 -0.002581 -0.012400 0.000000 0.011031 0.000000
# 2 -0.002581 0.004409 -0.000430 0.000000 -0.001430 0.000000
# 3 -0.012400 -0.000430 0.015177 0.000000 -0.006630 0.000000
# 4 0.000000 0.000000 0.000000 0.031008 0.000000 -0.003281
# 5 0.011031 -0.001430 -0.006630 0.000000 0.036809 0.000000
# 6 0.000000 0.000000 0.000000 -0.003281 0.000000 0.038982
#
#
# Mechanical properties :
#
#
# Convention : Reuss Voigt Hill
#
# Bulk Modulus (GPa) = 47.78529 68.93042 58.35786
# Shear Modulus (GPa) = 25.46523 37.73925 31.60224
#
# Velocity S-wave (km/s) = 3.10859 3.78430 3.46297
# Velocity P-wave (km/s) = 5.56934 6.72694 6.17533
#
# Compressibility (1/GPa) = 0.02092694
#
# Stress axis : x y z
#
# Youngs Moduli (GPa) = 31.09163 226.82682 65.88705
#
# Poissons Ratio (x) = 0.58535 0.81702
# Poissons Ratio (y) = 0.08024 0.02835
# Poissons Ratio (z) = 0.38554 0.09759
#
# Static dielectric constant tensor:
#      x y z
#    x 2.095550 0.000000 -0.006730 
#    y 0.000000 2.025340 0.000000 
#    z -0.006730 0.000000 2.031480 
# 
# From -- ./inp_files/197367.got.cif
#   From: 2010.05.17/outbox.cif.g08.bks.cpg/sg12_99_cif.got.tgz:197367.got - 2010.06.03 13:09:07.
