data_PCOD9212026
_publ_section_title
;
Structure prediction by ZEFSAII (Michael W. Deem and Ramdas Pophale) SiO2 
 PCOD9212026
Probable space group: C 2/M
;
_chemical_formula_sum "Si O2"
_cell_formula_units_Z 40
_cell_length_a 16.174666
_cell_length_b 16.816555
_cell_length_c 15.806421
_cell_angle_alpha 90.000000
_cell_angle_beta 27.608220
_cell_angle_gamma 90.000000
_cell_volume 1992.432617
_symmetry_space_group_name_H-M "C 2/M"
_symmetry_group_IT_number 12
_symmetry_cell_setting 'monoclinic'
loop_
_space_group_symop_operation_xyz
x,y,z
-x,y,-z
-x,-y,-z
x,-y,z
1/2+x,1/2+y,z
1/2-x,1/2+y,-z
1/2-x,1/2-y,-z
1/2+x,1/2-y,z
loop_
_atom_site_type_symbol
_atom_site_label
_atom_site_fract_x
_atom_site_fract_y
_atom_site_fract_z
Si Si1 0.000000 0.126037 0.000000
Si Si2 0.500000 0.871244 0.000000
Si Si3 0.522299 0.500000 0.645536
Si Si4 0.095449 0.500000 0.776798
Si Si5 0.981917 0.000000 0.156668
Si Si6 0.893168 0.837478 0.685260
Si Si7 0.590499 0.000000 0.234110
Si Si8 0.099597 0.665072 0.319932
O O1 0.814619 0.163570 0.136924
O O2 0.934686 0.073957 0.139815
O O3 0.459500 0.925166 0.117854
O O4 0.314790 0.829245 0.148774
O O5 0.694681 0.500000 0.429666
O O6 0.583435 0.500000 0.688104
O O7 0.420261 0.417702 0.715739
O O8 0.998815 0.500000 0.775539
O O9 0.196145 0.000000 0.969534
O O10 0.948799 0.752147 0.674893
O O11 0.000000 0.847678 0.500000
O O12 0.547217 0.916779 0.320293
O O13 0.000000 0.663623 0.500000
#
# Coordination Sequence:
#
# PCOD9212026 Si02
#       8
#     4   4   4   4   4   8   4   8
#     4   9  19  40  60  91 115 162 195 241 298 359
#     4  11  21  40  64  87 119 160 195 251 290 371
#     4  12  22  39  61  90 124 158 195 259 287 354
#     4  11  23  36  64  90 117 161 206 237 309 345
#     4   9  20  36  64  88 123 153 201 241 301 351
#     4  11  22  40  60  92 121 158 200 242 302 354
#     4  10  21  41  58  91 120 157 201 246 292 357
#     4  10  22  38  64  89 122 158 197 247 295 356
#
# _framework density 20.075963000000002
#
# number of rings (size 3 to 8) (size 9 to 14) (size 15 to 20)
#    0.000    1.600    2.000    4.200    2.800    0.000 
#    0.000   12.000    0.000    0.000    0.000    0.000 
#    0.000    0.000    0.000    0.000    0.000    0.000 
#
# Total GULP energy -111475.331812 kJ/mol
# GULP energy per Si atom -5573.766591 kJ/mol
# Density = 2.003027 g / cm^3
# Si number density = 20.075963 Si / 1000 Ang^3
#
#
#
# Elastic Constant Matrix: (Units=GPa)
#
#
# Indices 1 2 3 4 5 6 
#
# 1 88.9233 70.7147 9.2949 -0.0019 7.2371 -0.0004
# 2 70.7147 184.8052 18.1436 -0.0054 16.5946 -0.0002
# 3 9.2949 18.1436 72.7649 -0.0163 12.0863 -0.0001
# 4 -0.0019 -0.0054 -0.0163 54.0566 0.0036 6.1337
# 5 7.2371 16.5946 12.0863 0.0036 24.9340 0.0017
# 6 -0.0004 -0.0002 -0.0001 6.1337 0.0017 4.5072
#
#
#
# Elastic Compliance Matrix: (Units=1/GPa)
#
#
# Indices 1 2 3 4 5 6 
#
# 1 0.016188 -0.006112 -0.000478 0.000000 -0.000400 0.000002
# 2 -0.006112 0.008113 -0.000696 0.000001 -0.003288 0.000000
# 3 -0.000478 -0.000696 0.015093 0.000005 -0.006714 -0.000005
# 4 0.000000 0.000001 0.000005 0.021877 -0.000004 -0.029772
# 5 -0.000400 -0.003288 -0.006714 -0.000004 0.045665 -0.000012
# 6 0.000002 0.000000 -0.000005 -0.029772 -0.000012 0.262380
#
#
# Mechanical properties :
#
#
# Convention : Reuss Voigt Hill
#
# Bulk Modulus (GPa) = 40.28421 60.31108 50.29764
# Shear Modulus (GPa) = 12.74985 33.25559 23.00272
#
# Velocity S-wave (km/s) = 2.52281 4.07441 3.38862
# Velocity P-wave (km/s) = 5.34748 7.22780 6.35754
#
# Compressibility (1/GPa) = 0.02482362
#
# Stress axis : x y z
#
# Youngs Moduli (GPa) = 61.77339 123.25476 66.25730
#
# Poissons Ratio (x) = 0.75328 0.03164
# Poissons Ratio (y) = 0.37753 0.04612
# Poissons Ratio (z) = 0.02950 0.08580
#
# Static dielectric constant tensor:
#      x y z
#    x 1.668990 0.000000 -0.025580 
#    y 0.000000 1.778470 0.000000 
#    z -0.025580 0.000000 1.696900 
# 
# From -- ./inp_files/216701.got.cif
#   From: 2010.05.17/outbox.cif.g08.bks.cpg/sg12_109_cif.got.tgz:216701.got - 2010.06.03 13:09:07.
