data_PCOD9212864
_publ_section_title
;
Structure prediction by ZEFSAII (Michael W. Deem and Ramdas Pophale) SiO2 
 PCOD9212864
Probable space group: C 2/M
;
_chemical_formula_sum "Si O2"
_cell_formula_units_Z 50
_cell_length_a 8.180439
_cell_length_b 31.295894
_cell_length_c 13.232137
_cell_angle_alpha 90.000000
_cell_angle_beta 128.862858
_cell_angle_gamma 90.000000
_cell_volume 2637.766109
_symmetry_space_group_name_H-M "C 2/M"
_symmetry_group_IT_number 12
_symmetry_cell_setting 'monoclinic'
loop_
_space_group_symop_operation_xyz
x,y,z
-x,y,-z
-x,-y,-z
x,-y,z
1/2+x,1/2+y,z
1/2-x,1/2+y,-z
1/2-x,1/2-y,-z
1/2+x,1/2-y,z
loop_
_atom_site_type_symbol
_atom_site_label
_atom_site_fract_x
_atom_site_fract_y
_atom_site_fract_z
Si Si1 0.229038 0.048247 0.538378
Si Si2 0.728270 0.654867 0.035652
Si Si3 0.538877 0.230297 0.136787
Si Si4 0.230757 0.380082 0.614070
Si Si5 0.835530 0.425453 0.197586
Si Si6 0.929374 0.812667 0.222904
Si Si7 0.000000 0.000000 0.000000
O O1 0.233976 0.081639 0.449919
O O2 0.428887 0.057758 0.688132
O O3 0.000000 0.051144 0.500000
O O4 0.255903 0.000000 0.510082
O O5 0.835847 0.611549 0.113528
O O6 0.867802 0.696730 0.112575
O O7 0.500000 0.656950 0.000000
O O8 0.697606 0.656891 0.903609
O O9 0.766130 0.209034 0.234834
O O10 0.518134 0.274697 0.186533
O O11 0.500000 0.235205 0.000000
O O12 0.237020 0.400618 0.728314
O O13 0.393135 0.342063 0.662941
O O14 0.000000 0.363032 0.500000
O O15 0.671124 0.462261 0.103040
#
# Coordination Sequence:
#
# PCOD9212864 Si02
#       7
#     8   8   8   8   8   8   2
#     4  10  23  43  65  86 116 161 204 244 291 357
#     4  11  19  35  57  88 120 156 190 247 303 349
#     4  10  22  33  60  85 118 162 200 241 303 362
#     4  10  23  39  62  86 116 160 202 241 292 355
#     4  11  22  36  64  89 127 150 201 249 291 367
#     4  11  20  38  57  89 119 160 197 252 292 368
#     4  12  20  36  60 102 114 160 182 248 310 342
#
# _framework density 18.955434
#
# number of rings (size 3 to 8) (size 9 to 14) (size 15 to 20)
#    0.000    1.440    3.200    3.360    3.360    0.960 
#    0.000    0.800    0.000    0.960    0.000    0.000 
#    0.000    0.000    0.000    0.000    0.000    0.000 
#
# Total GULP energy -139306.128346 kJ/mol
# GULP energy per Si atom -5572.245134 kJ/mol
# Density = 1.891229 g / cm^3
# Si number density = 18.955434 Si / 1000 Ang^3
#
#
#
# Elastic Constant Matrix: (Units=GPa)
#
#
# Indices 1 2 3 4 5 6 
#
# 1 65.6870 36.2708 37.2970 0.0000 31.2450 0.0000
# 2 36.2708 134.4450 74.3173 0.0000 25.0501 0.0000
# 3 37.2970 74.3173 95.8241 0.0000 28.0485 0.0000
# 4 0.0000 0.0000 0.0000 50.2558 0.0000 22.4561
# 5 31.2450 25.0501 28.0485 0.0000 28.3218 0.0000
# 6 0.0000 0.0000 0.0000 22.4561 0.0000 25.3678
#
#
#
# Elastic Compliance Matrix: (Units=1/GPa)
#
#
# Indices 1 2 3 4 5 6 
#
# 1 0.032881 -0.001730 -0.001811 0.000000 -0.032951 0.000000
# 2 -0.001730 0.013203 -0.009445 0.000000 -0.000416 0.000000
# 3 -0.001811 -0.009445 0.021737 0.000000 -0.011175 0.000000
# 4 0.000000 0.000000 0.000000 0.032919 0.000000 -0.029141
# 5 -0.032951 -0.000416 -0.011175 0.000000 0.083095 0.000000
# 6 0.000000 0.000000 0.000000 -0.029141 0.000000 0.065216
#
#
# Mechanical properties :
#
#
# Convention : Reuss Voigt Hill
#
# Bulk Modulus (GPa) = 23.89570 65.74738 44.82154
# Shear Modulus (GPa) = 17.30269 30.66049 23.98159
#
# Velocity S-wave (km/s) = 3.02455 4.02618 3.56076
# Velocity P-wave (km/s) = 4.98305 7.50827 6.37201
#
# Compressibility (1/GPa) = 0.04184854
#
# Stress axis : x y z
#
# Youngs Moduli (GPa) = 30.41277 75.74130 46.00517
#
# Poissons Ratio (x) = 0.13103 0.08334
# Poissons Ratio (y) = 0.05261 0.43450
# Poissons Ratio (z) = 0.05509 0.71534
#
# Static dielectric constant tensor:
#      x y z
#    x 1.697190 0.000000 0.020090 
#    y 0.000000 1.648620 0.000000 
#    z 0.020090 0.000000 1.677190 
# 
# From -- ./inp_files/199995.got.cif
#   From: 2010.05.17/outbox.cif.g08.bks.cpg/sg12_100_cif.got.tgz:199995.got - 2010.06.03 13:09:07.
