data_PCOD9212080
_publ_section_title
;
Structure prediction by ZEFSAII (Michael W. Deem and Ramdas Pophale) SiO2 
 PCOD9212080
Probable space group: C 2/M
;
_chemical_formula_sum "Si O2"
_cell_formula_units_Z 30
_cell_length_a 20.237223
_cell_length_b 10.239969
_cell_length_c 5.293643
_cell_angle_alpha 90.000000
_cell_angle_beta 97.745903
_cell_angle_gamma 90.000000
_cell_volume 1086.984410
_symmetry_space_group_name_H-M "C 2/M"
_symmetry_group_IT_number 12
_symmetry_cell_setting 'monoclinic'
loop_
_space_group_symop_operation_xyz
x,y,z
-x,y,-z
-x,-y,-z
x,-y,z
1/2+x,1/2+y,z
1/2-x,1/2+y,-z
1/2-x,1/2-y,-z
1/2+x,1/2-y,z
loop_
_atom_site_type_symbol
_atom_site_label
_atom_site_fract_x
_atom_site_fract_y
_atom_site_fract_z
Si Si1 0.068402 0.709270 0.699183
Si Si2 0.500000 0.000000 0.000000
Si Si3 0.184866 0.000000 0.366997
Si Si4 0.272154 0.000000 0.918256
Si Si5 0.675031 0.221481 0.360379
Si Si6 0.044911 0.000000 0.774560
O O1 0.127343 0.660156 0.545846
O O2 0.000000 0.704331 0.500000
O O3 0.081603 0.859806 0.780234
O O4 0.050272 0.614407 0.917344
O O5 0.146228 0.133960 0.304242
O O6 0.215985 0.000000 0.664797
O O7 0.240990 0.000000 0.177154
O O8 0.312968 0.869549 0.873146
O O9 0.750000 0.250000 0.500000
O O10 0.000000 0.000000 0.500000
O O11 0.000000 0.000000 0.000000
#
# Coordination Sequence:
#
# PCOD9212080 Si02
#       6
#     8   2   4   4   8   4
#     4  11  24  46  67 104 141 185 243 290 357 430
#     4  12  24  44  70 100 142 194 232 292 358 424
#     4  10  21  42  66  98 134 175 230 284 349 409
#     4  10  21  41  63 100 136 178 224 282 349 416
#     4  10  22  44  66  99 136 181 230 289 350 412
#     4  10  21  44  70 101 133 181 235 295 349 419
#
# _framework density 27.59929
#
# number of rings (size 3 to 8) (size 9 to 14) (size 15 to 20)
#    0.000    1.600    1.333    2.800    0.000    0.000 
#   28.800    8.000    0.000    0.000    0.000    0.000 
#    0.000    0.000    0.000    0.000    0.000    0.000 
#
# Total GULP energy -83833.507975 kJ/mol
# GULP energy per Si atom -5588.900532 kJ/mol
# Density = 2.753647 g / cm^3
# Si number density = 27.599290 Si / 1000 Ang^3
#
#
#
# Elastic Constant Matrix: (Units=GPa)
#
#
# Indices 1 2 3 4 5 6 
#
# 1 130.6232 -10.4391 71.6016 0.0000 -18.3460 0.0000
# 2 -10.4391 204.0785 17.0921 0.0000 -27.9059 0.0000
# 3 71.6016 17.0921 155.8695 0.0000 -44.0656 0.0000
# 4 0.0000 0.0000 0.0000 36.9302 0.0000 -43.2412
# 5 -18.3460 -27.9059 -44.0656 0.0000 86.2362 0.0000
# 6 0.0000 0.0000 0.0000 -43.2412 0.0000 82.7775
#
#
#
# Elastic Compliance Matrix: (Units=1/GPa)
#
#
# Indices 1 2 3 4 5 6 
#
# 1 0.010408 0.000945 -0.004877 0.000000 0.000028 0.000000
# 2 0.000945 0.005214 -0.000552 0.000000 0.001606 0.000000
# 3 -0.004877 -0.000552 0.009786 0.000000 0.003785 0.000000
# 4 0.000000 0.000000 0.000000 0.069725 0.000000 0.036423
# 5 0.000028 0.001606 0.003785 0.000000 0.014056 0.000000
# 6 0.000000 0.000000 0.000000 0.036423 0.000000 0.031107
#
#
# Mechanical properties :
#
#
# Convention : Reuss Voigt Hill
#
# Bulk Modulus (GPa) = 60.82247 71.89783 66.36015
# Shear Modulus (GPa) = 32.31111 68.67655 50.49383
#
# Velocity S-wave (km/s) = 3.42529 4.99374 4.28195
# Velocity P-wave (km/s) = 6.14240 7.70436 6.96729
#
# Compressibility (1/GPa) = 0.01644129
#
# Stress axis : x y z
#
# Youngs Moduli (GPa) = 96.07659 191.78169 102.18257
#
# Poissons Ratio (x) = -0.18117 0.49834
# Poissons Ratio (y) = -0.09076 0.05636
# Poissons Ratio (z) = 0.46856 0.10578
#
# Static dielectric constant tensor:
#      x y z
#    x 2.231560 0.000000 0.110400 
#    y 0.000000 2.183680 0.000000 
#    z 0.110400 0.000000 2.107930 
# 
# From -- ./inp_files/23349.got.cif
#   From: 2010.05.17/outbox.cif.g08.bks.cpg/sg12_12_cif.got.tgz:23349.got - 2010.06.03 13:09:07.
