data_PCOD9212875
_publ_section_title
;
Structure prediction by ZEFSAII (Michael W. Deem and Ramdas Pophale) SiO2 
 PCOD9212875
Probable space group: C 2/M
;
_chemical_formula_sum "Si O2"
_cell_formula_units_Z 56
_cell_length_a 9.415485
_cell_length_b 28.066871
_cell_length_c 10.392589
_cell_angle_alpha 90.000000
_cell_angle_beta 85.438844
_cell_angle_gamma 90.000000
_cell_volume 2737.681131
_symmetry_space_group_name_H-M "C 2/M"
_symmetry_group_IT_number 12
_symmetry_cell_setting 'monoclinic'
loop_
_space_group_symop_operation_xyz
x,y,z
-x,y,-z
-x,-y,-z
x,-y,z
1/2+x,1/2+y,z
1/2-x,1/2+y,-z
1/2-x,1/2-y,-z
1/2+x,1/2-y,z
loop_
_atom_site_type_symbol
_atom_site_label
_atom_site_fract_x
_atom_site_fract_y
_atom_site_fract_z
Si Si1 0.156073 0.322381 0.796727
Si Si2 0.838354 0.414252 0.024747
Si Si3 0.810157 0.879482 0.210948
Si Si4 0.899976 0.215735 0.628081
Si Si5 0.594587 0.721052 0.868199
Si Si6 0.551683 0.447669 0.144936
Si Si7 0.897471 0.324910 0.625489
O O1 0.162214 0.363124 0.902477
O O2 0.274122 0.320605 0.674364
O O3 0.178778 0.270390 0.857520
O O4 0.000831 0.324987 0.742674
O O5 0.721387 0.441825 0.118903
O O6 0.778923 0.410786 0.883622
O O7 0.000000 0.431834 0.000000
O O8 0.824578 0.828617 0.139002
O O9 0.724159 0.863835 0.343184
O O10 0.962097 0.905371 0.218081
O O11 0.001085 0.218497 0.745300
O O12 0.843386 0.270310 0.611363
O O13 0.000000 0.203568 0.500000
O O14 0.500000 0.722397 0.000000
O O15 0.515777 0.500000 0.199647
O O16 0.500000 0.445366 0.000000
O O17 0.000000 0.335786 0.500000
#
# Coordination Sequence:
#
# PCOD9212875 Si02
#       7
#     8   8   8   8   8   8   8
#     4  11  21  34  51  77 118 151 188 232 280 328
#     4  11  21  35  56  87 119 142 179 233 286 336
#     4  11  20  37  56  81 113 149 189 234 275 340
#     4  10  22  35  50  73 109 158 206 241 271 324
#     4  11  22  32  52  79 110 157 195 226 277 339
#     4   9  20  38  61  85 111 145 184 228 287 349
#     4  10  22  34  51  76 108 152 196 235 275 328
#
# _framework density 20.455266999999999
#
# number of rings (size 3 to 8) (size 9 to 14) (size 15 to 20)
#    0.000    1.571    2.857    3.429    4.000    3.143 
#    0.000    0.000    0.000    0.429    0.000    1.000 
#    0.000    0.000    0.000    0.000    0.000    0.000 
#
# Total GULP energy -156317.240439 kJ/mol
# GULP energy per Si atom -5582.758587 kJ/mol
# Density = 2.040871 g / cm^3
# Si number density = 20.455267 Si / 1000 Ang^3
#
#
#
# Elastic Constant Matrix: (Units=GPa)
#
#
# Indices 1 2 3 4 5 6 
#
# 1 91.5304 18.9199 22.4771 0.0000 -23.8682 0.0000
# 2 18.9199 53.3496 8.3244 0.0000 -11.0754 0.0000
# 3 22.4771 8.3244 98.7749 0.0000 -24.7019 0.0000
# 4 0.0000 0.0000 0.0000 1.6343 0.0000 -21.5754
# 5 -23.8682 -11.0754 -24.7019 0.0000 36.9971 0.0000
# 6 0.0000 0.0000 0.0000 -21.5754 0.0000 -0.6779
#
#
#
# Elastic Compliance Matrix: (Units=1/GPa)
#
#
# Indices 1 2 3 4 5 6 
#
# 1 0.013722 -0.003210 -0.001055 0.000000 0.007188 0.000000
# 2 -0.003210 0.020741 0.000021 0.000000 0.004152 0.000000
# 3 -0.001055 0.000021 0.012237 0.000000 0.007496 0.000000
# 4 0.000000 0.000000 0.000000 0.001453 0.000000 -0.046239
# 5 0.007188 0.004152 0.007496 0.000000 0.037914 0.000000
# 6 0.000000 0.000000 0.000000 -0.046239 0.000000 -0.003503
#
#
# Mechanical properties :
#
#
# Convention : Reuss Voigt Hill
#
# Bulk Modulus (GPa) = 26.16880 38.12197 32.14538
# Shear Modulus (GPa) = 48.17444 20.51960 34.34702
#
# Velocity S-wave (km/s) = 4.85821 3.17068 4.10216
# Velocity P-wave (km/s) = 6.65512 5.66405 6.17949
#
# Compressibility (1/GPa) = 0.03821345
#
# Stress axis : x y z
#
# Youngs Moduli (GPa) = 72.87524 48.21294 81.71995
#
# Poissons Ratio (x) = 0.15475 0.08618
# Poissons Ratio (y) = 0.23391 -0.00170
# Poissons Ratio (z) = 0.07685 -0.00100
#
# Static dielectric constant tensor:
#      x y z
#    x 1.811120 0.000000 -0.021860 
#    y 0.000000 1.743870 0.000000 
#    z -0.021860 0.000000 1.768100 
# 
# From -- ./inp_files/125189.got.cif
#   From: 2010.05.17/outbox.cif.g08.bks.cpg/sg12_63_cif.got.tgz:125189.got - 2010.06.03 13:09:07.
