data_PCOD9212274
_publ_section_title
;
Structure prediction by ZEFSAII (Michael W. Deem and Ramdas Pophale) SiO2 
 PCOD9212274
Probable space group: C 2/M
;
_chemical_formula_sum "Si O2"
_cell_formula_units_Z 42
_cell_length_a 19.461559
_cell_length_b 9.973459
_cell_length_c 11.446122
_cell_angle_alpha 90.000000
_cell_angle_beta 68.757520
_cell_angle_gamma 90.000000
_cell_volume 2070.730335
_symmetry_space_group_name_H-M "C 2/M"
_symmetry_group_IT_number 12
_symmetry_cell_setting 'monoclinic'
loop_
_space_group_symop_operation_xyz
x,y,z
-x,y,-z
-x,-y,-z
x,-y,z
1/2+x,1/2+y,z
1/2-x,1/2+y,-z
1/2-x,1/2-y,-z
1/2+x,1/2-y,z
loop_
_atom_site_type_symbol
_atom_site_label
_atom_site_fract_x
_atom_site_fract_y
_atom_site_fract_z
Si Si1 0.580555 0.152992 0.508084
Si Si2 0.500000 0.000000 0.000000
Si Si3 0.802641 0.840849 0.688941
Si Si4 0.120788 0.842898 0.109425
Si Si5 0.827119 0.152676 0.179340
Si Si6 0.540484 0.776313 0.793036
O O1 0.500000 0.173323 0.500000
O O2 0.636899 0.263931 0.425998
O O3 0.570123 0.168427 0.652679
O O4 0.604312 0.000000 0.464794
O O5 0.539550 0.884974 0.895219
O O6 0.829704 0.825008 0.806618
O O7 0.726638 0.759496 0.727409
O O8 0.796979 0.000000 0.666779
O O9 0.044331 0.765718 0.171156
O O10 0.102778 0.000000 0.110831
O O11 0.160733 0.807117 0.963742
O O12 0.905955 0.160110 0.194320
O O13 0.798215 0.000000 0.201035
#
# Coordination Sequence:
#
# PCOD9212274 Si02
#       6
#     8   2   8   8   8   8
#     4  11  24  43  67  96 129 171 216 266 324 392
#     4  12  24  40  64 112 128 168 212 272 330 380
#     4  11  25  42  66  96 133 173 219 271 325 384
#     4  10  21  41  66  97 127 171 220 274 325 381
#     4  11  24  42  65  96 134 175 217 268 331 388
#     4  12  23  41  69  97 132 168 216 273 322 387
#
# _framework density 20.282699000000001
#
# number of rings (size 3 to 8) (size 9 to 14) (size 15 to 20)
#    0.000    0.952    4.762    1.714    1.333    4.190 
#    1.714    0.000    0.000    0.000    0.000    0.000 
#    0.000    0.000    0.000    0.000    0.000    0.000 
#
# Total GULP energy -117067.323545 kJ/mol
# GULP energy per Si atom -5574.634455 kJ/mol
# Density = 2.023653 g / cm^3
# Si number density = 20.282699 Si / 1000 Ang^3
#
#
#
# Elastic Constant Matrix: (Units=GPa)
#
#
# Indices 1 2 3 4 5 6 
#
# 1 47.6560 42.4787 11.6999 0.0000 -15.8902 0.0000
# 2 42.4787 119.5593 51.4352 0.0000 -20.7505 0.0000
# 3 11.6999 51.4352 105.1284 0.0000 -2.3092 0.0000
# 4 0.0000 0.0000 0.0000 28.0115 0.0000 -15.1452
# 5 -15.8902 -20.7505 -2.3092 0.0000 23.0561 0.0000
# 6 0.0000 0.0000 0.0000 -15.1452 0.0000 -2.7611
#
#
#
# Elastic Compliance Matrix: (Units=1/GPa)
#
#
# Indices 1 2 3 4 5 6 
#
# 1 0.034884 -0.010520 0.001589 0.000000 0.014732 0.000000
# 2 -0.010520 0.016049 -0.006538 0.000000 0.006539 0.000000
# 3 0.001589 -0.006538 0.012456 0.000000 -0.003542 0.000000
# 4 0.000000 0.000000 0.000000 0.009002 0.000000 -0.049378
# 5 0.014732 0.006539 -0.003542 0.000000 0.059057 0.000000
# 6 0.000000 0.000000 0.000000 -0.049378 0.000000 -0.091326
#
#
# Mechanical properties :
#
#
# Convention : Reuss Voigt Hill
#
# Bulk Modulus (GPa) = 30.81678 53.73015 42.27347
# Shear Modulus (GPa) = 61.06653 20.77662 40.92157
#
# Velocity S-wave (km/s) = 5.49300 3.20402 4.49660
# Velocity P-wave (km/s) = 7.44697 6.34317 6.91712
#
# Compressibility (1/GPa) = 0.03244985
#
# Stress axis : x y z
#
# Youngs Moduli (GPa) = 28.66684 62.30748 80.28050
#
# Poissons Ratio (x) = 0.65550 -0.12753
# Poissons Ratio (y) = 0.30159 0.52487
# Poissons Ratio (z) = -0.04554 0.40736
#
# Static dielectric constant tensor:
#      x y z
#    x 1.726420 0.000000 0.010280 
#    y 0.000000 1.679230 0.000000 
#    z 0.010280 0.000000 1.702020 
# 
# From -- ./inp_files/163005.got.cif
#   From: 2010.05.17/outbox.cif.g08.bks.cpg/sg12_82_cif.got.tgz:163005.got - 2010.06.03 13:09:07.
