data_PCOD9212530
_publ_section_title
;
Structure prediction by ZEFSAII (Michael W. Deem and Ramdas Pophale) SiO2 
 PCOD9212530
Probable space group: C 2/M
;
_chemical_formula_sum "Si O2"
_cell_formula_units_Z 44
_cell_length_a 9.701725
_cell_length_b 23.879663
_cell_length_c 13.214065
_cell_angle_alpha 90.000000
_cell_angle_beta 51.017631
_cell_angle_gamma 90.000000
_cell_volume 2379.711849
_symmetry_space_group_name_H-M "C 2/M"
_symmetry_group_IT_number 12
_symmetry_cell_setting 'monoclinic'
loop_
_space_group_symop_operation_xyz
x,y,z
-x,y,-z
-x,-y,-z
x,-y,z
1/2+x,1/2+y,z
1/2-x,1/2+y,-z
1/2-x,1/2-y,-z
1/2+x,1/2-y,z
loop_
_atom_site_type_symbol
_atom_site_label
_atom_site_fract_x
_atom_site_fract_y
_atom_site_fract_z
Si Si1 0.299089 0.190462 0.110496
Si Si2 0.951696 0.411505 0.767058
Si Si3 0.644603 0.000000 0.020804
Si Si4 0.689017 0.318080 0.931924
Si Si5 0.962679 0.000000 0.723882
Si Si6 0.847038 0.109018 0.649583
Si Si7 0.155778 0.500000 0.348680
O O1 0.313403 0.257328 0.120694
O O2 0.206542 0.155935 0.242470
O O3 0.500000 0.168942 0.000000
O O4 0.203992 0.186459 0.046147
O O5 0.888296 0.446182 0.894581
O O6 0.856811 0.352033 0.815429
O O7 0.876304 0.446360 0.707946
O O8 0.164292 0.406861 0.675741
O O9 0.500000 0.000000 0.000000
O O10 0.832805 0.000000 0.880256
O O11 0.500000 0.346877 0.000000
O O12 0.917485 0.945521 0.677370
O O13 0.159936 0.000000 0.676861
O O14 0.000000 0.126386 0.500000
O O15 0.000000 0.500000 0.500000
#
# Coordination Sequence:
#
# PCOD9212530 Si02
#       7
#     8   8   4   8   4   8   4
#     4  10  21  42  66  91 121 161 208 257 307 361
#     4  11  23  40  62  89 127 161 206 255 308 364
#     4  11  21  37  62  96 116 154 208 264 297 351
#     4  10  22  38  66  93 122 156 205 261 315 359
#     4  12  24  38  66  91 124 163 205 253 312 366
#     4  12  24  41  65  92 123 166 211 250 300 376
#     4  11  26  44  56  85 133 169 195 245 318 376
#
# _framework density 18.489633999999999
#
# number of rings (size 3 to 8) (size 9 to 14) (size 15 to 20)
#    0.000    1.091    3.636    3.000    5.091    0.727 
#    0.000    1.818    0.000    0.000    0.000    0.000 
#    0.000    0.000    0.000    0.000    0.000    0.000 
#
# Total GULP energy -122887.138217 kJ/mol
# GULP energy per Si atom -5585.779010 kJ/mol
# Density = 1.844755 g / cm^3
# Si number density = 18.489634 Si / 1000 Ang^3
#
#
#
# Elastic Constant Matrix: (Units=GPa)
#
#
# Indices 1 2 3 4 5 6 
#
# 1 137.5543 31.5232 43.4635 0.0000 -30.4479 0.0000
# 2 31.5232 94.4784 54.5619 0.0000 -1.7799 0.0000
# 3 43.4635 54.5619 144.0950 0.0000 -22.0275 0.0000
# 4 0.0000 0.0000 0.0000 4.9873 0.0000 -7.7319
# 5 -30.4479 -1.7799 -22.0275 0.0000 31.4814 0.0000
# 6 0.0000 0.0000 0.0000 -7.7319 0.0000 23.3105
#
#
#
# Elastic Compliance Matrix: (Units=1/GPa)
#
#
# Indices 1 2 3 4 5 6 
#
# 1 0.010162 -0.002899 -0.000549 0.000000 0.009280 0.000000
# 2 -0.002899 0.014661 -0.005575 0.000000 -0.005876 0.000000
# 3 -0.000549 -0.005575 0.010176 0.000000 0.006274 0.000000
# 4 0.000000 0.000000 0.000000 0.412766 0.000000 0.136911
# 5 0.009280 -0.005876 0.006274 0.000000 0.044798 0.000000
# 6 0.000000 0.000000 0.000000 0.136911 0.000000 0.088311
#
#
# Mechanical properties :
#
#
# Convention : Reuss Voigt Hill
#
# Bulk Modulus (GPa) = 58.98834 70.58053 64.78444
# Shear Modulus (GPa) = 8.27035 28.39445 18.33240
#
# Velocity S-wave (km/s) = 2.11723 3.92305 3.15222
# Velocity P-wave (km/s) = 6.16033 7.66657 6.95435
#
# Compressibility (1/GPa) = 0.01695250
#
# Stress axis : x y z
#
# Youngs Moduli (GPa) = 98.40798 68.21011 98.27526
#
# Poissons Ratio (x) = 0.19772 0.05394
# Poissons Ratio (y) = 0.28526 0.54790
# Poissons Ratio (z) = 0.05401 0.38028
#
# Static dielectric constant tensor:
#      x y z
#    x 1.653640 0.000000 0.008750 
#    y 0.000000 1.670580 0.000000 
#    z 0.008750 0.000000 1.614430 
# 
# From -- ./inp_files/124114.got.cif
#   From: 2010.05.17/outbox.cif.g08.bks.cpg/sg12_63_cif.got.tgz:124114.got - 2010.06.03 13:09:07.
