data_PCOD9212948
_publ_section_title
;
Structure prediction by ZEFSAII (Michael W. Deem and Ramdas Pophale) SiO2 
 PCOD9212948
Probable space group: C 2/M
;
_chemical_formula_sum "Si O2"
_cell_formula_units_Z 64
_cell_length_a 12.578527
_cell_length_b 22.851970
_cell_length_c 12.548136
_cell_angle_alpha 90.000000
_cell_angle_beta 116.602040
_cell_angle_gamma 90.000000
_cell_volume 3225.056621
_symmetry_space_group_name_H-M "C 2/M"
_symmetry_group_IT_number 12
_symmetry_cell_setting 'monoclinic'
loop_
_space_group_symop_operation_xyz
x,y,z
-x,y,-z
-x,-y,-z
x,-y,z
1/2+x,1/2+y,z
1/2-x,1/2+y,-z
1/2-x,1/2-y,-z
1/2+x,1/2-y,z
loop_
_atom_site_type_symbol
_atom_site_label
_atom_site_fract_x
_atom_site_fract_y
_atom_site_fract_z
Si Si1 0.799306 0.842311 0.086894
Si Si2 0.132351 0.930974 0.708767
Si Si3 0.793672 0.570084 0.577385
Si Si4 0.116253 0.121283 0.337905
Si Si5 0.881385 0.739171 0.892284
Si Si6 0.522205 0.139170 0.635350
Si Si7 0.218991 0.861740 0.165959
Si Si8 0.512068 0.257702 0.270874
O O1 0.803368 0.895716 0.169497
O O2 0.678141 0.806970 0.055750
O O3 0.903352 0.796436 0.171016
O O4 0.808052 0.867516 0.971545
O O5 0.199355 0.916861 0.629124
O O6 0.996098 0.910443 0.659095
O O7 0.137289 0.000000 0.725428
O O8 0.809721 0.500000 0.578746
O O9 0.732533 0.595080 0.443643
O O10 0.917474 0.603538 0.646663
O O11 0.127058 0.114551 0.214009
O O12 0.099138 0.190692 0.349874
O O13 0.790412 0.791298 0.829769
O O14 0.925884 0.720931 0.796301
O O15 0.000000 0.764067 0.000000
O O16 0.500000 0.128997 0.500000
O O17 0.650075 0.119528 0.738706
O O18 0.517182 0.209004 0.655824
#
# Coordination Sequence:
#
# PCOD9212948 Si02
#       8
#     8   8   8   8   8   8   8   8
#     4  11  21  38  63  92 131 164 202 252 320 386
#     4  10  23  42  65  92 122 161 216 272 316 365
#     4  11  24  45  67  88 121 171 226 264 306 370
#     4  10  22  40  65  96 125 169 207 266 315 373
#     4  11  19  34  62  92 125 168 206 245 305 383
#     4  12  24  42  61  93 133 169 207 261 315 374
#     4  11  22  40  60  97 135 163 203 256 317 385
#     4  10  22  35  60  95 129 162 202 255 319 377
#
# _framework density 19.844614
#
# number of rings (size 3 to 8) (size 9 to 14) (size 15 to 20)
#    0.000    1.250    3.750    2.625    0.000    3.750 
#    0.000    2.500    0.000    1.875    0.000    0.000 
#    0.000    0.000    0.000    0.000    0.000    0.000 
#
# Total GULP energy -178404.950411 kJ/mol
# GULP energy per Si atom -5575.154700 kJ/mol
# Density = 1.979945 g / cm^3
# Si number density = 19.844614 Si / 1000 Ang^3
#
#
#
# Elastic Constant Matrix: (Units=GPa)
#
#
# Indices 1 2 3 4 5 6 
#
# 1 101.3979 40.1497 36.6517 0.0000 1.4906 0.0000
# 2 40.1497 46.7376 12.1936 0.0000 -0.7238 0.0000
# 3 36.6517 12.1936 42.6561 0.0000 4.6917 0.0000
# 4 0.0000 0.0000 0.0000 12.0512 0.0000 -5.3080
# 5 1.4906 -0.7238 4.6917 0.0000 33.3244 0.0000
# 6 0.0000 0.0000 0.0000 -5.3080 0.0000 29.4248
#
#
#
# Elastic Compliance Matrix: (Units=1/GPa)
#
#
# Indices 1 2 3 4 5 6 
#
# 1 0.020198 -0.013823 -0.013480 0.000000 0.000694 0.000000
# 2 -0.013823 0.032651 0.002436 0.000000 0.000985 0.000000
# 3 -0.013480 0.002436 0.034796 0.000000 -0.004243 0.000000
# 4 0.000000 0.000000 0.000000 0.090141 0.000000 0.016261
# 5 0.000694 0.000985 -0.004243 0.000000 0.030596 0.000000
# 6 0.000000 0.000000 0.000000 0.016261 0.000000 0.036918
#
#
# Mechanical properties :
#
#
# Convention : Reuss Voigt Hill
#
# Bulk Modulus (GPa) = 26.37819 40.97573 33.67696
# Shear Modulus (GPa) = 16.25113 21.74651 18.99882
#
# Velocity S-wave (km/s) = 2.86478 3.31394 3.09751
# Velocity P-wave (km/s) = 4.92583 5.94441 5.45893
#
# Compressibility (1/GPa) = 0.03791011
#
# Stress axis : x y z
#
# Youngs Moduli (GPa) = 49.51035 30.62722 28.73906
#
# Poissons Ratio (x) = 0.42337 0.38739
# Poissons Ratio (y) = 0.68440 -0.07000
# Poissons Ratio (z) = 0.66738 -0.07460
#
# Static dielectric constant tensor:
#      x y z
#    x 1.775980 0.000000 -0.001560 
#    y 0.000000 1.654930 0.000000 
#    z -0.001560 0.000000 1.721060 
# 
# From -- ./inp_files/135976.got.cif
#   From: 2010.05.17/outbox.cif.g08.bks.cpg/sg12_68_cif.got.tgz:135976.got - 2010.06.03 13:09:07.
