data_PCOD9212371
_publ_section_title
;
Structure prediction by ZEFSAII (Michael W. Deem and Ramdas Pophale) SiO2 
 PCOD9212371
Probable space group: C 2/M
;
_chemical_formula_sum "Si O2"
_cell_formula_units_Z 40
_cell_length_a 10.354021
_cell_length_b 15.366863
_cell_length_c 14.988242
_cell_angle_alpha 90.000000
_cell_angle_beta 57.370071
_cell_angle_gamma 90.000000
_cell_volume 2008.376646
_symmetry_space_group_name_H-M "C 2/M"
_symmetry_group_IT_number 12
_symmetry_cell_setting 'monoclinic'
loop_
_space_group_symop_operation_xyz
x,y,z
-x,y,-z
-x,-y,-z
x,-y,z
1/2+x,1/2+y,z
1/2-x,1/2+y,-z
1/2-x,1/2-y,-z
1/2+x,1/2-y,z
loop_
_atom_site_type_symbol
_atom_site_label
_atom_site_fract_x
_atom_site_fract_y
_atom_site_fract_z
Si Si1 0.134366 0.904331 0.680678
Si Si2 0.363196 0.592557 0.122035
Si Si3 0.681908 0.259858 0.426366
Si Si4 0.815143 0.270269 0.074631
Si Si5 0.806924 0.896475 0.728090
O O1 0.066275 0.905799 0.805917
O O2 0.260057 0.830295 0.636978
O O3 0.992067 0.889301 0.668351
O O4 0.199568 0.000000 0.637418
O O5 0.278283 0.500000 0.144128
O O6 0.272129 0.680696 0.141483
O O7 0.500000 0.592871 0.000000
O O8 0.500000 0.264045 0.500000
O O9 0.750000 0.250000 0.500000
O O10 0.738033 0.340041 0.342751
O O11 0.757952 0.349400 0.158261
O O12 0.750000 0.250000 0.000000
O O13 0.000000 0.278262 0.000000
O O14 0.769788 0.000000 0.737650
#
# Coordination Sequence:
#
# PCOD9212371 Si02
#       5
#     8   8   8   8   8
#     4  10  21  41  68  96 128 170 218 268 328 398
#     4   9  17  33  60  92 124 163 210 254 307 382
#     4  12  25  43  70  95 128 169 224 283 339 385
#     4  11  23  38  66  97 135 173 214 260 321 390
#     4  11  24  43  68  98 136 177 219 267 331 398
#
# _framework density 19.916582999999999
#
# number of rings (size 3 to 8) (size 9 to 14) (size 15 to 20)
#    0.000    1.400    4.000    2.400    0.000    4.400 
#    0.000    0.000    0.000    0.000    0.000    0.000 
#    0.000    0.000    0.000    0.000    0.000    0.000 
#
# Total GULP energy -111357.862990 kJ/mol
# GULP energy per Si atom -5567.893149 kJ/mol
# Density = 1.987125 g / cm^3
# Si number density = 19.916583 Si / 1000 Ang^3
#
#
#
# Elastic Constant Matrix: (Units=GPa)
#
#
# Indices 1 2 3 4 5 6 
#
# 1 84.9332 44.5744 46.6081 0.0000 22.2204 0.0000
# 2 44.5744 196.2221 60.6774 0.0000 7.7144 0.0000
# 3 46.6081 60.6774 100.7988 0.0000 19.4286 0.0000
# 4 0.0000 0.0000 0.0000 -25.0011 0.0000 -29.8816
# 5 22.2204 7.7144 19.4286 0.0000 37.4269 0.0000
# 6 0.0000 0.0000 0.0000 -29.8816 0.0000 4.5906
#
#
#
# Elastic Compliance Matrix: (Units=1/GPa)
#
#
# Indices 1 2 3 4 5 6 
#
# 1 0.017817 -0.002023 -0.005625 0.000000 -0.007241 0.000000
# 2 -0.002023 0.006510 -0.003285 0.000000 0.001565 0.000000
# 3 -0.005625 -0.003285 0.015251 0.000000 -0.003900 0.000000
# 4 0.000000 0.000000 0.000000 -0.004556 0.000000 -0.029654
# 5 -0.007241 0.001565 -0.003900 0.000000 0.032720 0.000000
# 6 0.000000 0.000000 0.000000 -0.029654 0.000000 0.024811
#
#
# Mechanical properties :
#
#
# Convention : Reuss Voigt Hill
#
# Bulk Modulus (GPa) = 56.45902 76.18599 66.32251
# Shear Modulus (GPa) = 41.55509 18.74291 30.14900
#
# Velocity S-wave (km/s) = 4.57273 3.07102 3.89493
# Velocity P-wave (km/s) = 7.50261 7.13515 7.32119
#
# Compressibility (1/GPa) = 0.01771196
#
# Stress axis : x y z
#
# Youngs Moduli (GPa) = 56.12664 153.60587 65.57099
#
# Poissons Ratio (x) = 0.31080 0.36881
# Poissons Ratio (y) = 0.11357 0.21539
# Poissons Ratio (z) = 0.31569 0.50458
#
# Static dielectric constant tensor:
#      x y z
#    x 1.706810 0.000000 0.048660 
#    y 0.000000 1.788740 0.000000 
#    z 0.048660 0.000000 1.788940 
# 
# From -- ./inp_files/194442.got.cif
#   From: 2010.05.17/outbox.cif.g08.bks.cpg/sg12_98_cif.got.tgz:194442.got - 2010.06.03 13:09:07.
