data_PCOD9212104
_publ_section_title
;
Structure prediction by ZEFSAII (Michael W. Deem and Ramdas Pophale) SiO2 
 PCOD9212104
Probable space group: C 2/M
;
_chemical_formula_sum "Si O2"
_cell_formula_units_Z 44
_cell_length_a 22.314763
_cell_length_b 18.159006
_cell_length_c 5.175581
_cell_angle_alpha 90.000000
_cell_angle_beta 96.053771
_cell_angle_gamma 90.000000
_cell_volume 2085.522013
_symmetry_space_group_name_H-M "C 2/M"
_symmetry_group_IT_number 12
_symmetry_cell_setting 'monoclinic'
loop_
_space_group_symop_operation_xyz
x,y,z
-x,y,-z
-x,-y,-z
x,-y,z
1/2+x,1/2+y,z
1/2-x,1/2+y,-z
1/2-x,1/2-y,-z
1/2+x,1/2-y,z
loop_
_atom_site_type_symbol
_atom_site_label
_atom_site_fract_x
_atom_site_fract_y
_atom_site_fract_z
Si Si1 0.850341 0.914179 0.911641
Si Si2 0.083404 0.583658 0.665407
Si Si3 0.271160 0.586761 0.378283
Si Si4 0.567348 0.280719 0.148262
Si Si5 0.500000 0.201192 0.500000
Si Si6 0.854930 0.640463 0.830765
O O1 0.800124 0.898475 0.669796
O O2 0.905647 0.860182 0.886044
O O3 0.867107 0.000000 0.892491
O O4 0.821392 0.903253 0.179955
O O5 0.062580 0.500000 0.658075
O O6 0.030544 0.641903 0.706398
O O7 0.108051 0.605705 0.393642
O O8 0.134220 0.593714 0.905427
O O9 0.252287 0.500000 0.362911
O O10 0.214048 0.636680 0.285940
O O11 0.552819 0.254947 0.433104
O O12 0.617715 0.220710 0.093616
O O13 0.500000 0.274413 0.000000
#
# Coordination Sequence:
#
# PCOD9212104 Si02
#       6
#     8   8   8   8   4   8
#     4  10  24  42  67  93 120 161 210 262 318 365
#     4  11  21  36  59  90 124 168 208 240 295 367
#     4  10  21  41  63  93 126 155 205 262 307 370
#     4  11  24  43  63  88 132 163 209 260 306 371
#     4  10  23  40  57  86 126 168 200 262 295 358
#     4  11  23  38  64  94 127 166 202 250 315 364
#
# _framework density 21.097836000000001
#
# number of rings (size 3 to 8) (size 9 to 14) (size 15 to 20)
#    0.000    1.455    1.818    3.000    2.545    3.273 
#    0.000    3.182    0.000    0.000    0.000    0.000 
#    0.000    0.000    0.000    0.000    0.000    0.000 
#
# Total GULP energy -122786.330926 kJ/mol
# GULP energy per Si atom -5581.196860 kJ/mol
# Density = 2.104982 g / cm^3
# Si number density = 21.097836 Si / 1000 Ang^3
#
#
#
# Elastic Constant Matrix: (Units=GPa)
#
#
# Indices 1 2 3 4 5 6 
#
# 1 64.4072 48.2391 -19.4363 0.0000 5.3127 0.0000
# 2 48.2391 83.8082 -6.8522 0.0000 -3.2270 0.0000
# 3 -19.4363 -6.8522 54.1387 0.0000 -1.6447 0.0000
# 4 0.0000 0.0000 0.0000 15.2016 0.0000 1.8377
# 5 5.3127 -3.2270 -1.6447 0.0000 20.7512 0.0000
# 6 0.0000 0.0000 0.0000 1.8377 0.0000 31.8758
#
#
#
# Elastic Compliance Matrix: (Units=1/GPa)
#
#
# Indices 1 2 3 4 5 6 
#
# 1 0.033299 -0.018823 0.009247 0.000000 -0.010719 0.000000
# 2 -0.018823 0.022781 -0.003629 0.000000 0.008074 0.000000
# 3 0.009247 -0.003629 0.021294 0.000000 -0.001244 0.000000
# 4 0.000000 0.000000 0.000000 0.066244 0.000000 -0.003819
# 5 -0.010719 0.008074 -0.001244 0.000000 0.052091 0.000000
# 6 0.000000 0.000000 0.000000 -0.003819 0.000000 0.031592
#
#
# Mechanical properties :
#
#
# Convention : Reuss Voigt Hill
#
# Bulk Modulus (GPa) = 19.62270 27.36171 23.49220
# Shear Modulus (GPa) = 18.47071 25.59263 22.03167
#
# Velocity S-wave (km/s) = 2.96206 3.48666 3.23501
# Velocity P-wave (km/s) = 4.58469 5.40427 5.01127
#
# Compressibility (1/GPa) = 0.05096138
#
# Stress axis : x y z
#
# Youngs Moduli (GPa) = 30.03119 43.89712 46.96257
#
# Poissons Ratio (x) = 0.82628 -0.43424
# Poissons Ratio (y) = 0.56528 0.17043
# Poissons Ratio (z) = -0.27768 0.15931
#
# Static dielectric constant tensor:
#      x y z
#    x 1.781090 0.000000 -0.016670 
#    y 0.000000 1.737280 0.000000 
#    z -0.016670 0.000000 1.869290 
# 
# From -- ./inp_files/20418.got.cif
#   From: 2010.05.17/outbox.cif.g08.bks.cpg/sg12_11_cif.got.tgz:20418.got - 2010.06.03 13:09:07.
