data_PCOD9212310
_publ_section_title
;
Structure prediction by ZEFSAII (Michael W. Deem and Ramdas Pophale) SiO2 
 PCOD9212310
Probable space group: C 2/M
;
_chemical_formula_sum "Si O2"
_cell_formula_units_Z 60
_cell_length_a 24.911588
_cell_length_b 9.166891
_cell_length_c 15.891128
_cell_angle_alpha 90.000000
_cell_angle_beta 47.640890
_cell_angle_gamma 90.000000
_cell_volume 2681.546015
_symmetry_space_group_name_H-M "C 2/M"
_symmetry_group_IT_number 12
_symmetry_cell_setting 'monoclinic'
loop_
_space_group_symop_operation_xyz
x,y,z
-x,y,-z
-x,-y,-z
x,-y,z
1/2+x,1/2+y,z
1/2-x,1/2+y,-z
1/2-x,1/2-y,-z
1/2+x,1/2-y,z
loop_
_atom_site_type_symbol
_atom_site_label
_atom_site_fract_x
_atom_site_fract_y
_atom_site_fract_z
Si Si1 0.326077 0.736804 0.499392
Si Si2 0.355705 0.669932 0.782576
Si Si3 0.572090 0.328832 0.469771
Si Si4 0.070797 0.323581 0.153419
Si Si5 0.461948 0.825007 0.125947
Si Si6 0.223538 0.000000 0.553972
Si Si7 0.291779 0.326399 0.081141
Si Si8 0.800770 0.336416 0.241349
O O1 0.396418 0.754406 0.483323
O O2 0.284926 0.877380 0.512358
O O3 0.333911 0.626963 0.414806
O O4 0.266001 0.660421 0.624144
O O5 0.347649 0.500000 0.814988
O O6 0.370447 0.673800 0.667476
O O7 0.420783 0.743971 0.765955
O O8 0.283234 0.761991 0.875500
O O9 0.500000 0.273230 0.500000
O O10 0.560424 0.500000 0.505390
O O11 0.073672 0.500000 0.158671
O O12 0.002116 0.278502 0.168681
O O13 0.140664 0.261171 0.029151
O O14 0.376174 0.803603 0.208594
O O15 0.473133 0.000000 0.112920
O O16 0.500000 0.766769 0.000000
O O17 0.297248 0.500000 0.063480
O O18 0.290822 0.284450 0.180810
O O19 0.807299 0.500000 0.195975
#
# Coordination Sequence:
#
# PCOD9212310 Si02
#       8
#     8   8   8   8   8   4   8   8
#     4  11  21  43  65  94 127 160 209 262 313 380
#     4  11  23  41  63  90 121 164 212 255 309 367
#     4  10  21  41  67  93 126 170 209 255 320 385
#     4  11  22  41  61  89 128 164 205 257 306 368
#     4   9  18  35  59  86 119 161 202 240 297 367
#     4  10  24  40  66  96 124 160 204 266 320 362
#     4  12  24  37  63  92 124 159 208 261 304 358
#     4  11  20  37  64  91 121 164 206 244 302 371
#
# _framework density 22.375152
#
# number of rings (size 3 to 8) (size 9 to 14) (size 15 to 20)
#    0.000    1.333    4.000    2.400    0.933    0.000 
#    6.000    2.333    0.000    0.000    0.000    0.000 
#    0.000    0.000    0.000    0.000    0.000    0.000 
#
# Total GULP energy -167111.225582 kJ/mol
# GULP energy per Si atom -5570.374186 kJ/mol
# Density = 2.232423 g / cm^3
# Si number density = 22.375152 Si / 1000 Ang^3
#
#
#
# Elastic Constant Matrix: (Units=GPa)
#
#
# Indices 1 2 3 4 5 6 
#
# 1 171.0904 40.6522 -9.1066 0.0000 4.1209 0.0002
# 2 40.6522 116.1849 11.1697 -0.0014 17.4693 0.0010
# 3 -9.1066 11.1697 19.7121 -0.0004 -1.8273 0.0004
# 4 0.0000 -0.0014 -0.0004 10.1271 0.0004 2.8573
# 5 4.1209 17.4693 -1.8273 0.0004 32.5657 -0.0001
# 6 0.0002 0.0010 0.0004 2.8573 -0.0001 27.3846
#
#
#
# Elastic Compliance Matrix: (Units=1/GPa)
#
#
# Indices 1 2 3 4 5 6 
#
# 1 0.006798 -0.003009 0.004941 0.000000 0.001031 0.000000
# 2 -0.003009 0.011403 -0.008427 0.000002 -0.006209 0.000000
# 3 0.004941 -0.008427 0.058453 0.000001 0.007175 -0.000001
# 4 0.000000 0.000002 0.000001 0.101740 -0.000002 -0.010615
# 5 0.001031 -0.006209 0.007175 -0.000002 0.034310 0.000001
# 6 0.000000 0.000000 -0.000001 -0.010615 0.000001 0.037624
#
#
# Mechanical properties :
#
#
# Convention : Reuss Voigt Hill
#
# Bulk Modulus (GPa) = 15.70731 43.60201 29.65466
# Shear Modulus (GPa) = 17.57222 31.63363 24.60292
#
# Velocity S-wave (km/s) = 2.80544 3.76411 3.31957
# Velocity P-wave (km/s) = 4.18679 6.19843 5.28913
#
# Compressibility (1/GPa) = 0.06366462
#
# Stress axis : x y z
#
# Youngs Moduli (GPa) = 147.10520 87.69303 17.10774
#
# Poissons Ratio (x) = 0.26383 -0.08453
# Poissons Ratio (y) = 0.44257 0.14417
# Poissons Ratio (z) = -0.72681 0.73900
#
# Static dielectric constant tensor:
#      x y z
#    x 1.866520 0.000000 0.037130 
#    y 0.000000 1.753680 0.000000 
#    z 0.037130 0.000000 1.903600 
# 
# From -- ./inp_files/288286.got.cif
#   From: 2010.05.17/outbox.cif.g08.bks.cpg/sg12_145_cif.got.tgz:288286.got - 2010.06.03 13:09:07.
