data_PCOD9212779
_publ_section_title
;
Structure prediction by ZEFSAII (Michael W. Deem and Ramdas Pophale) SiO2 
 PCOD9212779
Probable space group: C 2/M
;
_chemical_formula_sum "Si O2"
_cell_formula_units_Z 34
_cell_length_a 7.549940
_cell_length_b 13.924610
_cell_length_c 18.836087
_cell_angle_alpha 90.000000
_cell_angle_beta 40.023946
_cell_angle_gamma 90.000000
_cell_volume 1273.505854
_symmetry_space_group_name_H-M "C 2/M"
_symmetry_group_IT_number 12
_symmetry_cell_setting 'monoclinic'
loop_
_space_group_symop_operation_xyz
x,y,z
-x,y,-z
-x,-y,-z
x,-y,z
1/2+x,1/2+y,z
1/2-x,1/2+y,-z
1/2-x,1/2-y,-z
1/2+x,1/2-y,z
loop_
_atom_site_type_symbol
_atom_site_label
_atom_site_fract_x
_atom_site_fract_y
_atom_site_fract_z
Si Si1 0.076994 0.887189 0.585843
Si Si2 0.833772 0.310034 0.644929
Si Si3 0.500000 0.000000 0.000000
Si Si4 0.655037 0.854450 0.052648
Si Si5 0.752619 0.895253 0.179559
O O1 0.125074 0.858400 0.653601
O O2 0.374263 0.862507 0.459945
O O3 0.876628 0.803826 0.617470
O O4 0.011490 0.000000 0.597002
O O5 0.758604 0.327984 0.749355
O O6 0.572395 0.086189 0.919355
O O7 0.617531 0.859569 0.148073
O O8 0.750000 0.750000 0.000000
O O9 0.931055 0.908324 0.941770
O O10 0.642048 0.000000 0.233147
#
# Coordination Sequence:
#
# PCOD9212779 Si02
#       5
#     8   8   2   8   8
#     4  10  21  44  66  98 135 175 211 274 324 386
#     4  10  22  39  71  97 131 171 223 263 327 387
#     4  12  20  46  68  94 124 176 212 266 328 386
#     4  11  24  41  65  92 133 167 216 268 326 389
#     4  11  21  43  64  91 130 174 210 270 330 385
#
# _framework density 26.697952000000001
#
# number of rings (size 3 to 8) (size 9 to 14) (size 15 to 20)
#    0.000    1.412    2.353    4.941    3.294    0.000 
#    0.000   11.765    0.000    0.000    0.000    0.000 
#    0.000    0.000    0.000    0.000    0.000    0.000 
#
# Total GULP energy -94925.617306 kJ/mol
# GULP energy per Si atom -5583.859842 kJ/mol
# Density = 2.663719 g / cm^3
# Si number density = 26.697952 Si / 1000 Ang^3
#
#
#
# Elastic Constant Matrix: (Units=GPa)
#
#
# Indices 1 2 3 4 5 6 
#
# 1 67.9316 19.2408 31.4771 0.0008 22.7829 -0.0028
# 2 19.2408 285.6188 20.0510 0.0015 12.0871 -0.0013
# 3 31.4771 20.0510 135.2294 0.0013 26.7262 -0.0008
# 4 0.0008 0.0015 0.0013 31.4895 -0.0003 9.3042
# 5 22.7829 12.0871 26.7262 -0.0003 52.4244 0.0003
# 6 -0.0028 -0.0013 -0.0008 9.3042 0.0003 28.9854
#
#
#
# Elastic Compliance Matrix: (Units=1/GPa)
#
#
# Indices 1 2 3 4 5 6 
#
# 1 0.018417 -0.000767 -0.002920 -0.000001 -0.006338 0.000002
# 2 -0.000767 0.003588 -0.000284 0.000000 -0.000349 0.000000
# 3 -0.002920 -0.000284 0.008733 0.000000 -0.003117 0.000000
# 4 -0.000001 0.000000 0.000000 0.035084 0.000001 -0.011262
# 5 -0.006338 -0.000349 -0.003117 0.000001 0.023499 -0.000001
# 6 0.000002 0.000000 0.000000 -0.011262 -0.000001 0.038115
#
#
# Mechanical properties :
#
#
# Convention : Reuss Voigt Hill
#
# Bulk Modulus (GPa) = 43.87355 70.03527 56.95441
# Shear Modulus (GPa) = 34.97041 50.44726 42.70884
#
# Velocity S-wave (km/s) = 3.62312 4.35162 4.00397
# Velocity P-wave (km/s) = 5.82852 7.17901 6.53872
#
# Compressibility (1/GPa) = 0.02279277
#
# Stress axis : x y z
#
# Youngs Moduli (GPa) = 54.29791 278.73877 114.50951
#
# Poissons Ratio (x) = 0.21391 0.33442
# Poissons Ratio (y) = 0.04167 0.03257
# Poissons Ratio (z) = 0.15858 0.07927
#
# Static dielectric constant tensor:
#      x y z
#    x 2.596420 0.000000 -0.054550 
#    y 0.000000 2.079500 0.000000 
#    z -0.054550 0.000000 2.036050 
# 
# From -- ./inp_files/246248.got.cif
#   From: 2010.05.17/outbox.cif.g08.bks.cpg/sg12_124_cif.got.tgz:246248.got - 2010.06.03 13:09:07.
