data_PCOD9212347
_publ_section_title
;
Structure prediction by ZEFSAII (Michael W. Deem and Ramdas Pophale) SiO2 
 PCOD9212347
Probable space group: C 2/M
;
_chemical_formula_sum "Si O2"
_cell_formula_units_Z 48
_cell_length_a 20.679462
_cell_length_b 14.668751
_cell_length_c 16.731520
_cell_angle_alpha 90.000000
_cell_angle_beta 150.213619
_cell_angle_gamma 90.000000
_cell_volume 2521.280146
_symmetry_space_group_name_H-M "C 2/M"
_symmetry_group_IT_number 12
_symmetry_cell_setting 'monoclinic'
loop_
_space_group_symop_operation_xyz
x,y,z
-x,y,-z
-x,-y,-z
x,-y,z
1/2+x,1/2+y,z
1/2-x,1/2+y,-z
1/2-x,1/2-y,-z
1/2+x,1/2-y,z
loop_
_atom_site_type_symbol
_atom_site_label
_atom_site_fract_x
_atom_site_fract_y
_atom_site_fract_z
Si Si1 0.359408 0.394217 0.312490
Si Si2 0.527334 0.605755 0.734443
Si Si3 0.354464 0.758960 0.849266
Si Si4 0.512081 0.108511 0.607681
Si Si5 0.816732 0.743778 0.485401
Si Si6 0.184007 0.891449 0.061135
O O1 0.500000 0.367381 0.500000
O O2 0.338622 0.500000 0.312579
O O3 0.371759 0.387623 0.230334
O O4 0.245881 0.330320 0.220774
O O5 0.488852 0.500000 0.700157
O O6 0.405477 0.666115 0.578651
O O7 0.595292 0.633736 0.890019
O O8 0.298258 0.739245 0.701929
O O9 0.353491 0.668799 0.903031
O O10 0.500000 0.795371 0.000000
O O11 0.500000 0.134752 0.500000
O O12 0.415711 0.163839 0.562355
O O13 0.662818 0.124685 0.791873
O O14 0.485015 0.000000 0.583152
O O15 0.750000 0.750000 0.500000
O O16 0.169734 0.000000 0.060881
#
# Coordination Sequence:
#
# PCOD9212347 Si02
#       6
#     8   8   8   8   8   8
#     4  10  21  41  68  91 120 172 225 265 317 396
#     4  10  22  41  66  94 125 169 224 273 323 393
#     4  12  25  39  61  95 135 175 215 271 336 396
#     4  10  21  41  69  96 126 175 232 278 326 395
#     4  12  25  39  61  94 136 178 216 271 339 400
#     4  10  22  41  67  97 128 170 226 279 330 391
#
# _framework density 19.037949000000001
#
# number of rings (size 3 to 8) (size 9 to 14) (size 15 to 20)
#    0.000    1.333    3.333    2.000    0.000    5.333 
#    0.000    0.000    0.000    0.000    0.000    0.000 
#    0.000    0.000    0.000    0.000    0.000    0.000 
#
# Total GULP energy -134046.390677 kJ/mol
# GULP energy per Si atom -5585.266278 kJ/mol
# Density = 1.899462 g / cm^3
# Si number density = 19.037949 Si / 1000 Ang^3
#
#
#
# Elastic Constant Matrix: (Units=GPa)
#
#
# Indices 1 2 3 4 5 6 
#
# 1 117.5246 51.0490 41.0779 0.0000 -9.8185 0.0000
# 2 51.0490 62.9286 39.5157 0.0000 0.9439 0.0000
# 3 41.0779 39.5157 107.8609 0.0000 -11.8981 0.0000
# 4 0.0000 0.0000 0.0000 14.5585 0.0000 -24.3031
# 5 -9.8185 0.9439 -11.8981 0.0000 40.2218 0.0000
# 6 0.0000 0.0000 0.0000 -24.3031 0.0000 -23.9656
#
#
#
# Elastic Compliance Matrix: (Units=1/GPa)
#
#
# Indices 1 2 3 4 5 6 
#
# 1 0.013715 -0.010552 -0.000993 0.000000 0.003302 0.000000
# 2 -0.010552 0.029070 -0.007227 0.000000 -0.005396 0.000000
# 3 -0.000993 -0.007227 0.012703 0.000000 0.003685 0.000000
# 4 0.000000 0.000000 0.000000 0.025508 0.000000 -0.025867
# 5 0.003302 -0.005396 0.003685 0.000000 0.026885 0.000000
# 6 0.000000 0.000000 0.000000 -0.025867 0.000000 -0.015495
#
#
# Mechanical properties :
#
#
# Convention : Reuss Voigt Hill
#
# Bulk Modulus (GPa) = 55.72596 61.28882 58.50739
# Shear Modulus (GPa) = 36.78876 16.60770 26.69823
#
# Velocity S-wave (km/s) = 4.40067 2.95676 3.74888
# Velocity P-wave (km/s) = 7.42669 6.62717 7.03829
#
# Compressibility (1/GPa) = 0.01794496
#
# Stress axis : x y z
#
# Youngs Moduli (GPa) = 72.91106 34.40003 78.71852
#
# Poissons Ratio (x) = 0.36299 0.07820
# Poissons Ratio (y) = 0.76935 0.56886
# Poissons Ratio (z) = 0.07243 0.24859
#
# Static dielectric constant tensor:
#      x y z
#    x 1.712420 0.000000 -0.021550 
#    y 0.000000 1.671160 0.000000 
#    z -0.021550 0.000000 1.647950 
# 
# From -- ./inp_files/284104.got.cif
#   From: 2010.05.17/outbox.cif.g08.bks.cpg/sg12_143_cif.got.tgz:284104.got - 2010.06.03 13:09:07.
