data_PCOD9212479
_publ_section_title
;
Structure prediction by ZEFSAII (Michael W. Deem and Ramdas Pophale) SiO2 
 PCOD9212479
Probable space group: C 2/M
;
_chemical_formula_sum "Si O2"
_cell_formula_units_Z 32
_cell_length_a 16.507277
_cell_length_b 15.883277
_cell_length_c 5.792188
_cell_angle_alpha 90.000000
_cell_angle_beta 59.964401
_cell_angle_gamma 90.000000
_cell_volume 1314.718968
_symmetry_space_group_name_H-M "C 2/M"
_symmetry_group_IT_number 12
_symmetry_cell_setting 'monoclinic'
loop_
_space_group_symop_operation_xyz
x,y,z
-x,y,-z
-x,-y,-z
x,-y,z
1/2+x,1/2+y,z
1/2-x,1/2+y,-z
1/2-x,1/2-y,-z
1/2+x,1/2-y,z
loop_
_atom_site_type_symbol
_atom_site_label
_atom_site_fract_x
_atom_site_fract_y
_atom_site_fract_z
Si Si1 0.816534 0.200841 0.731121
Si Si2 0.977488 0.406576 0.284623
Si Si3 0.584060 0.400889 0.057688
Si Si4 0.278746 0.862492 0.520309
O O1 0.902686 0.158538 0.737544
O O2 0.752432 0.131207 0.700101
O O3 0.825529 0.270198 0.515509
O O4 0.750000 0.250000 0.000000
O O5 0.023567 0.500000 0.218921
O O6 0.866941 0.417196 0.448870
O O7 0.000000 0.364125 0.500000
O O8 0.000000 0.367104 0.000000
O O9 0.573205 0.500000 0.131986
O O10 0.500000 0.379032 0.000000
O O11 0.684807 0.386422 0.790738
#
# Coordination Sequence:
#
# PCOD9212479 Si02
#       4
#     8   8   8   8
#     4   9  21  41  61  90 126 163 219 267 322 399
#     4  10  23  41  64 100 134 169 221 270 327 398
#     4  10  22  40  64  95 128 169 219 269 332 399
#     4  10  21  42  62  91 128 170 215 270 332 391
#
# _framework density 24.339804999999998
#
# number of rings (size 3 to 8) (size 9 to 14) (size 15 to 20)
#    0.000    2.250    0.000    0.750    7.000    3.000 
#   13.500    2.500    0.000    0.000    0.000    0.000 
#    0.000    0.000    0.000    0.000    0.000    0.000 
#
# Total GULP energy -89111.349860 kJ/mol
# GULP energy per Si atom -5569.459366 kJ/mol
# Density = 2.428441 g / cm^3
# Si number density = 24.339805 Si / 1000 Ang^3
#
#
#
# Elastic Constant Matrix: (Units=GPa)
#
#
# Indices 1 2 3 4 5 6 
#
# 1 222.7424 65.1168 73.6069 0.0000 22.3175 0.0000
# 2 65.1168 90.4799 3.4460 0.0000 21.3420 0.0000
# 3 73.6069 3.4460 109.7500 0.0000 18.6219 0.0000
# 4 0.0000 0.0000 0.0000 -332.0329 0.0000 -72.7493
# 5 22.3175 21.3420 18.6219 0.0000 53.1741 0.0000
# 6 0.0000 0.0000 0.0000 -72.7493 0.0000 20.9464
#
#
#
# Elastic Compliance Matrix: (Units=1/GPa)
#
#
# Indices 1 2 3 4 5 6 
#
# 1 0.007736 -0.005557 -0.005147 0.000000 0.000786 0.000000
# 2 -0.005557 0.016223 0.004175 0.000000 -0.005641 0.000000
# 3 -0.005147 0.004175 0.013131 0.000000 -0.004114 0.000000
# 4 0.000000 0.000000 0.000000 -0.001710 0.000000 -0.005940
# 5 0.000786 -0.005641 -0.004114 0.000000 0.022181 0.000000
# 6 0.000000 0.000000 0.000000 -0.005940 0.000000 0.027111
#
#
# Mechanical properties :
#
#
# Convention : Reuss Voigt Hill
#
# Bulk Modulus (GPa) = 41.61353 78.59018 60.10186
# Shear Modulus (GPa) = 47.28528 -32.86232 7.21148
#
# Velocity S-wave (km/s) = 4.41240 -3.67842 1.72316
# Velocity P-wave (km/s) = 6.56453 3.78389 5.35775
#
# Compressibility (1/GPa) = 0.02403065
#
# Stress axis : x y z
#
# Youngs Moduli (GPa) = 129.26072 61.64064 76.15678
#
# Poissons Ratio (x) = 0.34254 0.39201
# Poissons Ratio (y) = 0.71831 -0.31794
# Poissons Ratio (z) = 0.66536 -0.25733
#
# Static dielectric constant tensor:
#      x y z
#    x 1.915930 0.000000 -0.030310 
#    y 0.000000 2.118630 0.000000 
#    z -0.030310 0.000000 1.818250 
# 
# From -- ./inp_files/10154.got.cif
#   From: 2010.05.17/outbox.cif.g08.bks.cpg/sg12_6_cif.got.tgz:10154.got - 2010.06.03 13:09:07.
