data_PCOD9212126
_publ_section_title
;
Structure prediction by ZEFSAII (Michael W. Deem and Ramdas Pophale) SiO2 
 PCOD9212126
Probable space group: C 2/M
;
_chemical_formula_sum "Si O2"
_cell_formula_units_Z 60
_cell_length_a 28.933874
_cell_length_b 9.552251
_cell_length_c 11.747265
_cell_angle_alpha 90.000000
_cell_angle_beta 77.256705
_cell_angle_gamma 90.000000
_cell_volume 3166.778175
_symmetry_space_group_name_H-M "C 2/M"
_symmetry_group_IT_number 12
_symmetry_cell_setting 'monoclinic'
loop_
_space_group_symop_operation_xyz
x,y,z
-x,y,-z
-x,-y,-z
x,-y,z
1/2+x,1/2+y,z
1/2-x,1/2+y,-z
1/2-x,1/2-y,-z
1/2+x,1/2-y,z
loop_
_atom_site_type_symbol
_atom_site_label
_atom_site_fract_x
_atom_site_fract_y
_atom_site_fract_z
Si Si1 0.411468 0.165657 0.274994
Si Si2 0.260549 0.000000 0.030187
Si Si3 0.273064 0.159021 0.643183
Si Si4 0.695320 0.763657 0.128349
Si Si5 0.556071 0.662966 0.957199
Si Si6 0.325353 0.334974 0.431388
Si Si7 0.590699 0.335510 0.196693
Si Si8 0.008650 0.335790 0.363201
O O1 0.420644 0.235834 0.147657
O O2 0.369399 0.247831 0.360626
O O3 0.459940 0.182561 0.320201
O O4 0.401012 0.000000 0.271957
O O5 0.220951 0.878305 0.079156
O O6 0.298646 0.876866 0.973524
O O7 0.278027 0.175782 0.774934
O O8 0.306058 0.268748 0.559196
O O9 0.219189 0.180617 0.630874
O O10 0.286434 0.000000 0.602860
O O11 0.641325 0.734151 0.189940
O O12 0.560876 0.500000 0.917414
O O13 0.500000 0.692649 0.000000
O O14 0.579003 0.676629 0.068782
O O15 0.335865 0.500000 0.436978
O O16 0.592031 0.500000 0.224521
O O17 0.549502 0.258841 0.288154
O O18 0.022132 0.500000 0.347857
O O19 0.000000 0.302787 0.500000
#
# Coordination Sequence:
#
# PCOD9212126 Si02
#       8
#     8   4   8   8   8   8   8   8
#     4  11  23  41  63  95 129 164 209 262 313 375
#     4  10  24  42  62  88 130 158 216 250 318 372
#     4  10  22  43  66  90 127 163 206 259 317 373
#     4  11  23  44  64  93 126 170 204 270 314 380
#     4  10  21  41  64  87 124 165 205 258 313 372
#     4  10  23  41  65  95 122 164 211 255 310 379
#     4  11  24  42  66  97 126 165 217 262 322 377
#     4  10  24  43  64  92 130 170 213 261 315 382
#
# _framework density 18.9467
#
# number of rings (size 3 to 8) (size 9 to 14) (size 15 to 20)
#    0.000    1.600    2.667    0.800    3.733    4.267 
#    2.400    0.000    0.000    0.000    0.000    0.000 
#    0.000    0.000    0.000    0.000    0.000    0.000 
#
# Total GULP energy -167075.678544 kJ/mol
# GULP energy per Si atom -5569.189285 kJ/mol
# Density = 1.890358 g / cm^3
# Si number density = 18.946700 Si / 1000 Ang^3
#
#
#
# Elastic Constant Matrix: (Units=GPa)
#
#
# Indices 1 2 3 4 5 6 
#
# 1 57.1242 51.7062 23.4320 0.0000 -23.9231 0.0000
# 2 51.7062 135.4290 48.1836 0.0000 -34.3734 0.0000
# 3 23.4320 48.1836 47.1249 0.0000 -20.3964 0.0000
# 4 0.0000 0.0000 0.0000 33.5742 0.0000 -14.3211
# 5 -23.9231 -34.3734 -20.3964 0.0000 33.5142 0.0000
# 6 0.0000 0.0000 0.0000 -14.3211 0.0000 5.1648
#
#
#
# Elastic Compliance Matrix: (Units=1/GPa)
#
#
# Indices 1 2 3 4 5 6 
#
# 1 0.030677 -0.007868 -0.001661 0.000000 0.012817 0.000000
# 2 -0.007868 0.014715 -0.009547 0.000000 0.003666 0.000000
# 3 -0.001661 -0.009547 0.036731 0.000000 0.011377 0.000000
# 4 0.000000 0.000000 0.000000 -0.162978 0.000000 -0.451910
# 5 0.012817 0.003666 0.011377 0.000000 0.049671 0.000000
# 6 0.000000 0.000000 0.000000 -0.451910 0.000000 -1.059454
#
#
# Mechanical properties :
#
#
# Convention : Reuss Voigt Hill
#
# Bulk Modulus (GPa) = 22.74223 54.03576 38.38899
# Shear Modulus (GPa) = -4.81775 22.20773 8.69499
#
# Velocity S-wave (km/s) = -1.59634 3.42733 2.14456
# Velocity P-wave (km/s) = 2.93795 6.65161 5.14177
#
# Compressibility (1/GPa) = 0.04397107
#
# Stress axis : x y z
#
# Youngs Moduli (GPa) = 32.59824 67.95829 27.22459
#
# Poissons Ratio (x) = 0.53470 0.04523
# Poissons Ratio (y) = 0.25649 0.25990
# Poissons Ratio (z) = 0.05415 0.64877
#
# Static dielectric constant tensor:
#      x y z
#    x 1.641810 0.000000 0.021400 
#    y 0.000000 1.637570 0.000000 
#    z 0.021400 0.000000 1.651190 
# 
# From -- ./inp_files/187377.got.cif
#   From: 2010.05.17/outbox.cif.g08.bks.cpg/sg12_94_cif.got.tgz:187377.got - 2010.06.03 13:09:07.
