data_PCOD9212941
_publ_section_title
;
Structure prediction by ZEFSAII (Michael W. Deem and Ramdas Pophale) SiO2 
 PCOD9212941
Probable space group: C 2/M
;
_chemical_formula_sum "Si O2"
_cell_formula_units_Z 44
_cell_length_a 23.167449
_cell_length_b 13.785417
_cell_length_c 9.101402
_cell_angle_alpha 90.000000
_cell_angle_beta 133.266376
_cell_angle_gamma 90.000000
_cell_volume 2116.616841
_symmetry_space_group_name_H-M "C 2/M"
_symmetry_group_IT_number 12
_symmetry_cell_setting 'monoclinic'
loop_
_space_group_symop_operation_xyz
x,y,z
-x,y,-z
-x,-y,-z
x,-y,z
1/2+x,1/2+y,z
1/2-x,1/2+y,-z
1/2-x,1/2-y,-z
1/2+x,1/2-y,z
loop_
_atom_site_type_symbol
_atom_site_label
_atom_site_fract_x
_atom_site_fract_y
_atom_site_fract_z
Si Si1 0.643415 0.000000 0.586399
Si Si2 0.166290 0.789577 0.291774
Si Si3 0.906946 0.286046 0.571131
Si Si4 0.889381 0.000000 0.190524
Si Si5 0.178296 0.000000 0.241537
Si Si6 0.500000 0.669232 0.500000
Si Si7 0.784134 0.500000 0.974210
Si Si8 0.760021 0.286492 0.850959
O O1 0.600604 0.900880 0.466261
O O2 0.731201 0.000000 0.663585
O O3 0.655411 0.000000 0.783534
O O4 0.250000 0.750000 0.500000
O O5 0.097188 0.739091 0.263468
O O6 0.175336 0.770905 0.133455
O O7 0.164396 0.904072 0.310249
O O8 0.825809 0.237150 0.366823
O O9 0.974039 0.236552 0.590509
O O10 0.801492 0.000000 0.099582
O O11 0.932394 0.095586 0.326329
O O12 0.880830 0.000000 0.000311
O O13 0.785877 0.398776 0.891168
O O14 0.750000 0.250000 0.000000
#
# Coordination Sequence:
#
# PCOD9212941 Si02
#       8
#     4   8   8   4   4   4   4   8
#     4  11  20  35  63  90 116 154 196 253 310 353
#     4  10  22  35  58  93 126 152 184 255 312 360
#     4  11  23  39  57  85 123 158 205 240 298 359
#     4  10  22  37  62  91 118 162 203 248 294 359
#     4  11  19  37  65  90 128 147 196 250 324 358
#     4  11  24  41  58  82 126 171 208 237 282 360
#     4  11  19  32  62  97 114 145 195 259 312 357
#     4  11  19  34  60  90 118 150 191 252 314 354
#
# _framework density 20.787890000000001
#
# number of rings (size 3 to 8) (size 9 to 14) (size 15 to 20)
#    0.000    1.273    7.273    1.091    0.000    5.455 
#    0.000    1.818    0.000    0.000    0.000    2.545 
#    0.000    0.000    0.000    0.000    0.000    0.000 
#
# Total GULP energy -122848.998092 kJ/mol
# GULP energy per Si atom -5584.045368 kJ/mol
# Density = 2.074058 g / cm^3
# Si number density = 20.787890 Si / 1000 Ang^3
#
#
#
# Elastic Constant Matrix: (Units=GPa)
#
#
# Indices 1 2 3 4 5 6 
#
# 1 98.6531 34.6639 6.5488 0.0000 -26.0850 0.0000
# 2 34.6639 197.8579 13.7804 0.0000 -9.1224 0.0000
# 3 6.5488 13.7804 34.1974 0.0000 -12.1624 0.0000
# 4 0.0000 0.0000 0.0000 -20.3344 0.0000 -11.2599
# 5 -26.0850 -9.1224 -12.1624 0.0000 18.2710 0.0000
# 6 0.0000 0.0000 0.0000 -11.2599 0.0000 22.1924
#
#
#
# Elastic Compliance Matrix: (Units=1/GPa)
#
#
# Indices 1 2 3 4 5 6 
#
# 1 0.018621 -0.002421 0.008431 0.000000 0.030988 0.000000
# 2 -0.002421 0.005550 -0.002642 0.000000 -0.002444 0.000000
# 3 0.008431 -0.002642 0.042586 0.000000 0.039065 0.000000
# 4 0.000000 0.000000 0.000000 -0.038391 0.000000 -0.019479
# 5 0.030988 -0.002444 0.039065 0.000000 0.123756 0.000000
# 6 0.000000 0.000000 0.000000 -0.019479 0.000000 0.035177
#
#
# Mechanical properties :
#
#
# Convention : Reuss Voigt Hill
#
# Bulk Modulus (GPa) = 13.60688 48.96606 31.28647
# Shear Modulus (GPa) = 24.38308 22.40681 23.39494
#
# Velocity S-wave (km/s) = 3.42855 3.28667 3.35836
# Velocity P-wave (km/s) = 4.71519 6.16515 5.48827
#
# Compressibility (1/GPa) = 0.07349226
#
# Stress axis : x y z
#
# Youngs Moduli (GPa) = 53.70252 180.19424 23.48203
#
# Poissons Ratio (x) = 0.43621 -0.19797
# Poissons Ratio (y) = 0.13000 0.06204
# Poissons Ratio (z) = -0.45274 0.47605
#
# Static dielectric constant tensor:
#      x y z
#    x 1.808740 0.000000 -0.052920 
#    y 0.000000 1.742030 0.000000 
#    z -0.052920 0.000000 1.799420 
# 
# From -- ./inp_files/94882.got.cif
#   From: 2010.05.17/outbox.cif.g08.bks.cpg/sg12_48_cif.got.tgz:94882.got - 2010.06.03 13:09:07.
