data_PCOD9212722
_publ_section_title
;
Structure prediction by ZEFSAII (Michael W. Deem and Ramdas Pophale) SiO2 
 PCOD9212722
Probable space group: C 2/M
;
_chemical_formula_sum "Si O2"
_cell_formula_units_Z 56
_cell_length_a 11.316356
_cell_length_b 25.235195
_cell_length_c 15.228522
_cell_angle_alpha 90.000000
_cell_angle_beta 142.273990
_cell_angle_gamma 90.000000
_cell_volume 2660.980258
_symmetry_space_group_name_H-M "C 2/M"
_symmetry_group_IT_number 12
_symmetry_cell_setting 'monoclinic'
loop_
_space_group_symop_operation_xyz
x,y,z
-x,y,-z
-x,-y,-z
x,-y,z
1/2+x,1/2+y,z
1/2-x,1/2+y,-z
1/2-x,1/2-y,-z
1/2+x,1/2-y,z
loop_
_atom_site_type_symbol
_atom_site_label
_atom_site_fract_x
_atom_site_fract_y
_atom_site_fract_z
Si Si1 0.021732 0.559129 0.726589
Si Si2 0.489936 0.657493 0.238558
Si Si3 0.523910 0.780728 0.290965
Si Si4 0.940405 0.558019 0.863444
Si Si5 0.652733 0.369920 0.512019
Si Si6 0.152115 0.351970 0.670843
Si Si7 0.446964 0.829453 0.060676
O O1 0.025358 0.500000 0.693455
O O2 0.089513 0.557887 0.868150
O O3 0.805131 0.582220 0.610106
O O4 0.122796 0.599441 0.720460
O O5 0.529066 0.717976 0.291924
O O6 0.548326 0.623476 0.357363
O O7 0.637511 0.647526 0.246639
O O8 0.270287 0.650351 0.081316
O O9 0.720326 0.815513 0.414241
O O10 0.395546 0.801033 0.296998
O O11 0.447284 0.796648 0.149678
O O12 0.835398 0.500000 0.786445
O O13 0.000000 0.553760 0.000000
O O14 0.900205 0.621881 0.838426
O O15 0.500000 0.369022 0.500000
O O16 0.000000 0.354250 0.500000
O O17 0.500000 0.800979 0.000000
#
# Coordination Sequence:
#
# PCOD9212722 Si02
#       7
#     8   8   8   8   8   8   8
#     4  10  21  43  69  93 128 172 210 265 330 382
#     4  12  26  39  65  94 131 172 216 265 317 379
#     4  11  24  43  62  89 128 179 210 261 323 380
#     4   9  18  37  66  90 120 165 205 257 327 384
#     4  11  23  40  64  97 126 165 220 267 315 384
#     4  11  23  43  63  95 129 167 221 257 315 387
#     4  11  23  42  63  94 129 161 213 271 321 381
#
# _framework density 21.044875999999999
#
# number of rings (size 3 to 8) (size 9 to 14) (size 15 to 20)
#    0.000    1.286    5.714    1.714    6.000    1.143 
#    0.000    1.429    0.000    1.714    0.000    0.000 
#    0.000    0.000    0.000    0.000    0.000    0.000 
#
# Total GULP energy -155940.987036 kJ/mol
# GULP energy per Si atom -5569.320966 kJ/mol
# Density = 2.099698 g / cm^3
# Si number density = 21.044876 Si / 1000 Ang^3
#
#
#
# Elastic Constant Matrix: (Units=GPa)
#
#
# Indices 1 2 3 4 5 6 
#
# 1 167.7828 4.2632 51.1100 0.0000 -13.0151 0.0000
# 2 4.2632 76.3428 -1.9899 0.0000 -9.2918 0.0000
# 3 51.1100 -1.9899 92.8705 0.0000 -15.3363 0.0000
# 4 0.0000 0.0000 0.0000 13.8335 0.0000 1.2035
# 5 -13.0151 -9.2918 -15.3363 0.0000 46.6063 0.0000
# 6 0.0000 0.0000 0.0000 1.2035 0.0000 -3.4642
#
#
#
# Elastic Compliance Matrix: (Units=1/GPa)
#
#
# Indices 1 2 3 4 5 6 
#
# 1 0.007198 -0.000423 -0.003862 0.000000 0.000655 0.000000
# 2 -0.000423 0.013502 0.001001 0.000000 0.002903 0.000000
# 3 -0.003862 0.001001 0.013503 0.000000 0.003565 0.000000
# 4 0.000000 0.000000 0.000000 0.070168 0.000000 0.024376
# 5 0.000655 0.002903 0.003565 0.000000 0.023391 0.000000
# 6 0.000000 0.000000 0.000000 0.024376 0.000000 -0.280196
#
#
# Mechanical properties :
#
#
# Convention : Reuss Voigt Hill
#
# Bulk Modulus (GPa) = 36.18485 49.30698 42.74591
# Shear Modulus (GPa) = -36.58872 30.30263 -3.14304
#
# Velocity S-wave (km/s) = -4.17418 3.79873 -1.22341
# Velocity P-wave (km/s) = 2.44954 6.53611 4.28488
#
# Compressibility (1/GPa) = 0.02763588
#
# Stress axis : x y z
#
# Youngs Moduli (GPa) = 138.92401 74.06362 74.05567
#
# Poissons Ratio (x) = 0.03132 0.28603
# Poissons Ratio (y) = 0.05876 -0.07417
# Poissons Ratio (z) = 0.53657 -0.07417
#
# Static dielectric constant tensor:
#      x y z
#    x 1.768190 0.000000 -0.022940 
#    y 0.000000 1.792600 0.000000 
#    z -0.022940 0.000000 1.845280 
# 
# From -- ./inp_files/209172.got.cif
#   From: 2010.05.17/outbox.cif.g08.bks.cpg/sg12_105_cif.got.tgz:209172.got - 2010.06.03 13:09:07.
