data_PCOD9212554
_publ_section_title
;
Structure prediction by ZEFSAII (Michael W. Deem and Ramdas Pophale) SiO2 
 PCOD9212554
Probable space group: C 2/M
;
_chemical_formula_sum "Si O2"
_cell_formula_units_Z 40
_cell_length_a 16.446427
_cell_length_b 20.889021
_cell_length_c 5.094129
_cell_angle_alpha 90.000000
_cell_angle_beta 113.895608
_cell_angle_gamma 90.000000
_cell_volume 1600.078116
_symmetry_space_group_name_H-M "C 2/M"
_symmetry_group_IT_number 12
_symmetry_cell_setting 'monoclinic'
loop_
_space_group_symop_operation_xyz
x,y,z
-x,y,-z
-x,-y,-z
x,-y,z
1/2+x,1/2+y,z
1/2-x,1/2+y,-z
1/2-x,1/2-y,-z
1/2+x,1/2-y,z
loop_
_atom_site_type_symbol
_atom_site_label
_atom_site_fract_x
_atom_site_fract_y
_atom_site_fract_z
Si Si1 0.905892 0.931140 0.024671
Si Si2 0.258628 0.069577 0.589681
Si Si3 0.439860 0.888498 0.675182
Si Si4 0.313282 0.204952 0.754522
Si Si5 0.939610 0.205735 0.184324
O O1 0.826770 0.925483 0.709157
O O2 0.898100 0.000000 0.153492
O O3 0.907775 0.866978 0.195140
O O4 0.000000 0.932739 0.000000
O O5 0.349212 0.071461 0.535068
O O6 0.269777 0.135923 0.766723
O O7 0.258282 0.000000 0.724027
O O8 0.500000 0.888448 0.500000
O O9 0.398445 0.819823 0.699058
O O10 0.500000 0.909896 0.000000
O O11 0.250000 0.250000 0.500000
O O12 0.356009 0.247704 0.036455
O O13 0.000000 0.226275 0.500000
O O14 0.000000 0.203323 0.000000
#
# Coordination Sequence:
#
# PCOD9212554 Si02
#       5
#     8   8   8   8   8
#     4   9  18  38  70 106 145 192 247 307 375 446
#     4   9  20  41  70 104 147 196 250 309 371 445
#     4  10  23  43  70 103 144 189 241 298 366 438
#     4  10  21  42  67 102 147 191 244 307 366 440
#     4  11  23  41  67 100 139 186 236 296 362 432
#
# _framework density 24.998777
#
# number of rings (size 3 to 8) (size 9 to 14) (size 15 to 20)
#    1.200    1.000    2.000    0.600    0.000    4.400 
#    0.000   14.000    0.000   11.400    0.000    0.000 
#    0.000    0.800    0.000    0.000    0.000    0.200 
#
# Total GULP energy -111781.356056 kJ/mol
# GULP energy per Si atom -5589.067803 kJ/mol
# Density = 2.494188 g / cm^3
# Si number density = 24.998777 Si / 1000 Ang^3
#
#
#
# Elastic Constant Matrix: (Units=GPa)
#
#
# Indices 1 2 3 4 5 6 
#
# 1 167.6775 3.1905 41.0112 0.0000 18.3101 0.0000
# 2 3.1905 207.5249 41.8455 0.0000 30.7154 0.0000
# 3 41.0112 41.8455 143.5578 0.0000 41.2944 0.0000
# 4 0.0000 0.0000 0.0000 7.5687 0.0000 26.5767
# 5 18.3101 30.7154 41.2944 0.0000 48.7913 0.0000
# 6 0.0000 0.0000 0.0000 26.5767 0.0000 15.4943
#
#
#
# Elastic Compliance Matrix: (Units=1/GPa)
#
#
# Indices 1 2 3 4 5 6 
#
# 1 0.006492 0.000421 -0.001587 0.000000 -0.001359 0.000000
# 2 0.000421 0.005407 -0.000888 0.000000 -0.002810 0.000000
# 3 -0.001587 -0.000888 0.009710 0.000000 -0.007063 0.000000
# 4 0.000000 0.000000 0.000000 -0.026304 0.000000 0.045118
# 5 -0.001359 -0.002810 -0.007063 0.000000 0.028753 0.000000
# 6 0.000000 0.000000 0.000000 0.045118 0.000000 -0.012849
#
#
# Mechanical properties :
#
#
# Convention : Reuss Voigt Hill
#
# Bulk Modulus (GPa) = 57.13539 76.76162 66.94851
# Shear Modulus (GPa) = 236.40780 43.21839 139.81309
#
# Velocity S-wave (km/s) = 9.73514 4.16242 7.48661
# Velocity P-wave (km/s) = 12.21757 7.33988 10.07826
#
# Compressibility (1/GPa) = 0.01750229
#
# Stress axis : x y z
#
# Youngs Moduli (GPa) = 154.02984 184.93636 102.98950
#
# Poissons Ratio (x) = -0.07790 0.16341
# Poissons Ratio (y) = -0.06488 0.09146
# Poissons Ratio (z) = 0.24439 0.16423
#
# Static dielectric constant tensor:
#      x y z
#    x 1.204170 0.000000 0.527200 
#    y 0.000000 2.054650 0.000000 
#    z 0.527200 0.000000 1.534050 
# 
# From -- ./inp_files/21530.got.cif
#   From: 2010.05.17/outbox.cif.g08.bks.cpg/sg12_11_cif.got.tgz:21530.got - 2010.06.03 13:09:07.
