data_PCOD9212146
_publ_section_title
;
Structure prediction by ZEFSAII (Michael W. Deem and Ramdas Pophale) SiO2 
 PCOD9212146
Probable space group: C 2/M
;
_chemical_formula_sum "Si O2"
_cell_formula_units_Z 58
_cell_length_a 7.669861
_cell_length_b 27.911156
_cell_length_c 21.649945
_cell_angle_alpha 90.000000
_cell_angle_beta 143.091776
_cell_angle_gamma 90.000000
_cell_volume 2783.302697
_symmetry_space_group_name_H-M "C 2/M"
_symmetry_group_IT_number 12
_symmetry_cell_setting 'monoclinic'
loop_
_space_group_symop_operation_xyz
x,y,z
-x,y,-z
-x,-y,-z
x,-y,z
1/2+x,1/2+y,z
1/2-x,1/2+y,-z
1/2-x,1/2-y,-z
1/2+x,1/2-y,z
loop_
_atom_site_type_symbol
_atom_site_label
_atom_site_fract_x
_atom_site_fract_y
_atom_site_fract_z
Si Si1 0.971462 0.447418 0.917683
Si Si2 0.251350 0.574939 0.476953
Si Si3 0.909176 0.711596 0.767359
Si Si4 0.674801 0.661880 0.416068
Si Si5 0.707452 0.156701 0.956243
Si Si6 0.946558 0.186575 0.833202
Si Si7 0.500000 0.000000 0.500000
Si Si8 0.116275 0.098883 0.275488
O O1 0.075481 0.500000 0.925497
O O2 0.639090 0.439740 0.801975
O O3 0.130471 0.399112 0.941160
O O4 0.000000 0.447236 0.000000
O O5 0.500000 0.559715 0.500000
O O6 0.325298 0.627614 0.524227
O O7 0.195044 0.541248 0.519682
O O8 0.933815 0.576640 0.355701
O O9 0.582919 0.699929 0.654769
O O10 0.966385 0.767211 0.795697
O O11 0.968012 0.684376 0.848861
O O12 0.145776 0.692165 0.785916
O O13 0.620836 0.626822 0.341989
O O14 0.000000 0.682128 0.500000
O O15 0.000000 0.160381 0.000000
O O16 0.789183 0.181858 0.043645
O O17 0.942759 0.138284 0.793250
#
# Coordination Sequence:
#
# PCOD9212146 Si02
#       8
#     8   8   8   8   8   8   2   8
#     4  11  23  39  65  92 127 174 216 266 333 399
#     4  11  24  43  68  98 136 175 223 286 336 395
#     4  11  22  39  62  94 128 172 223 274 338 399
#     4  10  21  41  64  91 129 172 215 271 331 389
#     4  10  22  40  62  92 131 169 218 281 331 399
#     4  11  23  38  62  95 126 172 222 272 338 408
#     4  12  22  44  68 102 130 170 238 276 340 394
#     4  11  21  41  66  90 134 174 217 277 335 392
#
# _framework density 20.838553999999998
#
# number of rings (size 3 to 8) (size 9 to 14) (size 15 to 20)
#    0.000    1.241    4.828    2.276    0.966    0.276 
#    0.000    6.897    0.000    0.000    0.000    0.000 
#    0.000    0.000    0.000    0.000    0.000    0.000 
#
# Total GULP energy -161818.152341 kJ/mol
# GULP energy per Si atom -5579.936288 kJ/mol
# Density = 2.079112 g / cm^3
# Si number density = 20.838554 Si / 1000 Ang^3
#
#
#
# Elastic Constant Matrix: (Units=GPa)
#
#
# Indices 1 2 3 4 5 6 
#
# 1 87.9160 -1.4351 10.6513 0.0001 17.3917 0.0000
# 2 -1.4351 80.8235 0.8454 0.0002 11.2351 -0.0001
# 3 10.6513 0.8454 78.7155 -0.0010 15.7477 0.0007
# 4 0.0001 0.0002 -0.0010 15.2192 -0.0002 18.5279
# 5 17.3917 11.2351 15.7477 -0.0002 24.3318 0.0001
# 6 0.0000 -0.0001 0.0007 18.5279 0.0001 20.0731
#
#
#
# Elastic Compliance Matrix: (Units=1/GPa)
#
#
# Indices 1 2 3 4 5 6 
#
# 1 0.013464 0.001709 0.000279 0.000003 -0.010593 -0.000003
# 2 0.001709 0.013544 0.001285 0.000002 -0.008307 -0.000002
# 3 0.000279 0.001285 0.014717 -0.000011 -0.010318 0.000010
# 4 0.000003 0.000002 -0.000011 -0.531234 -0.000003 0.490339
# 5 -0.010593 -0.008307 -0.010318 -0.000003 0.059184 0.000002
# 6 -0.000003 -0.000002 0.000010 0.490339 0.000002 -0.402775
#
#
# Mechanical properties :
#
#
# Convention : Reuss Voigt Hill
#
# Bulk Modulus (GPa) = 20.71633 29.73090 25.22362
# Shear Modulus (GPa) = -6.07123 27.75104 10.83990
#
# Velocity S-wave (km/s) = -1.70874 3.65323 2.28323
# Velocity P-wave (km/s) = 2.46371 5.66507 4.36823
#
# Compressibility (1/GPa) = 0.04827109
#
# Stress axis : x y z
#
# Youngs Moduli (GPa) = 74.27106 73.83181 67.95079
#
# Poissons Ratio (x) = -0.12616 -0.01896
# Poissons Ratio (y) = -0.12691 -0.08733
# Poissons Ratio (z) = -0.02073 -0.09489
#
# Static dielectric constant tensor:
#      x y z
#    x 1.748340 0.000000 -0.006030 
#    y 0.000000 1.711670 0.000000 
#    z -0.006030 0.000000 1.791920 
# 
# From -- ./inp_files/334240.got.cif
#   From: 2010.05.17/outbox.cif.g08.bks.cpg/sg12_168_cif.got.tgz:334240.got - 2010.06.03 13:09:07.
