data_PCOD9212626
_publ_section_title
;
Structure prediction by ZEFSAII (Michael W. Deem and Ramdas Pophale) SiO2 
 PCOD9212626
Probable space group: C 2/M
;
_chemical_formula_sum "Si O2"
_cell_formula_units_Z 60
_cell_length_a 23.724867
_cell_length_b 8.536333
_cell_length_c 14.500470
_cell_angle_alpha 90.000000
_cell_angle_beta 70.079294
_cell_angle_gamma 90.000000
_cell_volume 2760.967660
_symmetry_space_group_name_H-M "C 2/M"
_symmetry_group_IT_number 12
_symmetry_cell_setting 'monoclinic'
loop_
_space_group_symop_operation_xyz
x,y,z
-x,y,-z
-x,-y,-z
x,-y,z
1/2+x,1/2+y,z
1/2-x,1/2+y,-z
1/2-x,1/2-y,-z
1/2+x,1/2-y,z
loop_
_atom_site_type_symbol
_atom_site_label
_atom_site_fract_x
_atom_site_fract_y
_atom_site_fract_z
Si Si1 0.744848 0.500000 0.945062
Si Si2 0.602053 0.316303 0.421548
Si Si3 0.770120 0.686622 0.589119
Si Si4 0.064298 0.315576 0.251532
Si Si5 0.846826 0.686404 0.267547
Si Si6 0.064972 0.321402 0.939817
Si Si7 0.062969 0.186058 0.645306
Si Si8 0.652534 0.758134 0.056121
O O1 0.798090 0.367867 0.924425
O O2 0.692187 0.632986 0.981090
O O3 0.597777 0.500000 0.398829
O O4 0.669738 0.272495 0.412183
O O5 0.582063 0.212060 0.347431
O O6 0.562920 0.292012 0.535319
O O7 0.778907 0.500000 0.579869
O O8 0.750000 0.750000 0.500000
O O9 0.716694 0.727545 0.690366
O O10 0.069179 0.500000 0.225237
O O11 0.108723 0.213088 0.164134
O O12 0.996793 0.256131 0.277707
O O13 0.836938 0.500000 0.260763
O O14 0.892739 0.747317 0.163877
O O15 0.880886 0.722635 0.343680
O O16 0.051806 0.500000 0.915412
O O17 0.106745 0.327199 0.006399
O O18 0.000000 0.248989 0.000000
O O19 0.069014 0.000000 0.659328
#
# Coordination Sequence:
#
# PCOD9212626 Si02
#       8
#     4   8   8   8   8   8   8   8
#     4  10  24  42  72  92 134 176 220 276 340 394
#     4  11  25  44  66  96 133 174 221 271 333 398
#     4  12  24  42  67  95 135 173 222 276 331 399
#     4  12  25  42  68 100 129 173 223 272 329 395
#     4  11  23  40  68 101 130 177 223 269 335 389
#     4  10  21  42  69  99 134 175 221 273 330 400
#     4  11  24  43  67  94 137 176 216 271 328 396
#     4  11  23  47  68  99 132 176 223 277 338 404
#
# _framework density 21.73151
#
# number of rings (size 3 to 8) (size 9 to 14) (size 15 to 20)
#    0.000    0.933    2.667    4.000    1.867    6.400 
#    4.800    0.333    0.000    0.000    0.000    0.000 
#    0.000    0.000    0.000    0.000    0.000    0.000 
#
# Total GULP energy -167114.927978 kJ/mol
# GULP energy per Si atom -5570.497599 kJ/mol
# Density = 2.168205 g / cm^3
# Si number density = 21.731510 Si / 1000 Ang^3
#
#
#
# Elastic Constant Matrix: (Units=GPa)
#
#
# Indices 1 2 3 4 5 6 
#
# 1 89.2773 1.4819 11.4353 0.0000 -33.7143 0.0000
# 2 1.4819 32.0192 3.5067 0.0000 -5.1281 0.0000
# 3 11.4353 3.5067 75.5740 0.0000 -21.4670 0.0000
# 4 0.0000 0.0000 0.0000 51.2066 0.0000 3.8931
# 5 -33.7143 -5.1281 -21.4670 0.0000 36.2423 0.0000
# 6 0.0000 0.0000 0.0000 3.8931 0.0000 30.6190
#
#
#
# Elastic Compliance Matrix: (Units=1/GPa)
#
#
# Indices 1 2 3 4 5 6 
#
# 1 0.017723 0.001827 0.002393 0.000000 0.018162 0.000000
# 2 0.001827 0.032147 0.000008 0.000000 0.006253 0.000000
# 3 0.002393 0.000008 0.016233 0.000000 0.011842 0.000000
# 4 0.000000 0.000000 0.000000 0.019719 0.000000 -0.002507
# 5 0.018162 0.006253 0.011842 0.000000 0.052387 0.000000
# 6 0.000000 0.000000 0.000000 -0.002507 0.000000 0.032978
#
#
# Mechanical properties :
#
#
# Convention : Reuss Voigt Hill
#
# Bulk Modulus (GPa) = 13.41236 25.52427 19.46832
# Shear Modulus (GPa) = 26.65439 35.64336 31.14888
#
# Velocity S-wave (km/s) = 3.50599 4.05429 3.79007
# Velocity P-wave (km/s) = 4.75126 5.80407 5.30385
#
# Compressibility (1/GPa) = 0.07455808
#
# Stress axis : x y z
#
# Youngs Moduli (GPa) = 56.42364 31.10691 61.60111
#
# Poissons Ratio (x) = -0.05682 -0.14739
# Poissons Ratio (y) = -0.10306 -0.00049
# Poissons Ratio (z) = -0.13500 -0.00025
#
# Static dielectric constant tensor:
#      x y z
#    x 1.772840 0.000000 0.006250 
#    y 0.000000 1.788720 0.000000 
#    z 0.006250 0.000000 1.844750 
# 
# From -- ./inp_files/238499.got.cif
#   From: 2010.05.17/outbox.cif.g08.bks.cpg/sg12_120_cif.got.tgz:238499.got - 2010.06.03 13:09:07.
