data_PCOD9212792
_publ_section_title
;
Structure prediction by ZEFSAII (Michael W. Deem and Ramdas Pophale) SiO2 
 PCOD9212792
Probable space group: C 2/M
;
_chemical_formula_sum "Si O2"
_cell_formula_units_Z 48
_cell_length_a 27.146235
_cell_length_b 14.654458
_cell_length_c 5.319680
_cell_angle_alpha 90.000000
_cell_angle_beta 98.729449
_cell_angle_gamma 90.000000
_cell_volume 2091.725280
_symmetry_space_group_name_H-M "C 2/M"
_symmetry_group_IT_number 12
_symmetry_cell_setting 'monoclinic'
loop_
_space_group_symop_operation_xyz
x,y,z
-x,y,-z
-x,-y,-z
x,-y,z
1/2+x,1/2+y,z
1/2-x,1/2+y,-z
1/2-x,1/2-y,-z
1/2+x,1/2-y,z
loop_
_atom_site_type_symbol
_atom_site_label
_atom_site_fract_x
_atom_site_fract_y
_atom_site_fract_z
Si Si1 0.143906 0.253435 0.796772
Si Si2 0.212248 0.128713 0.066817
Si Si3 0.942906 0.240690 0.888488
Si Si4 0.876184 0.394579 0.589283
Si Si5 0.875999 0.101958 0.631430
Si Si6 0.734530 0.145649 0.400759
O O1 0.137678 0.355295 0.695007
O O2 0.146578 0.180135 0.569043
O O3 0.193957 0.233392 0.992780
O O4 0.092741 0.234061 0.898291
O O5 0.159022 0.097384 0.145956
O O6 0.248710 0.102356 0.319573
O O7 0.264353 0.394526 0.184945
O O8 0.919612 0.327613 0.723095
O O9 0.929422 0.146567 0.735184
O O10 0.000000 0.251290 0.000000
O O11 0.889282 0.500000 0.608362
O O12 0.823690 0.374550 0.684390
O O13 0.878071 0.000000 0.526418
O O14 0.750000 0.250000 0.500000
#
# Coordination Sequence:
#
# PCOD9212792 Si02
#       6
#     8   8   8   8   8   8
#     4  10  21  44  68  97 138 186 230 290 348 423
#     4  11  22  40  67  99 144 191 224 266 340 412
#     4  10  24  47  70  95 133 182 233 296 372 423
#     4  11  26  43  65 102 138 182 242 297 345 412
#     4  10  22  41  68 105 142 182 233 285 345 425
#     4  12  22  39  68 100 140 190 234 277 337 406
#
# _framework density 22.947565999999998
#
# number of rings (size 3 to 8) (size 9 to 14) (size 15 to 20)
#    0.000    1.333    3.333    2.500    2.333    8.000 
#    0.000    1.667    0.000    0.000    0.000    0.000 
#    0.000    0.000    0.000    0.000    0.000    0.000 
#
# Total GULP energy -133707.530791 kJ/mol
# GULP energy per Si atom -5571.147116 kJ/mol
# Density = 2.289534 g / cm^3
# Si number density = 22.947566 Si / 1000 Ang^3
#
#
#
# Elastic Constant Matrix: (Units=GPa)
#
#
# Indices 1 2 3 4 5 6 
#
# 1 99.7788 -2.9819 21.0840 0.0000 27.8562 0.0000
# 2 -2.9819 132.6998 9.1005 0.0000 7.6181 0.0000
# 3 21.0840 9.1005 99.8607 0.0000 -7.4853 0.0000
# 4 0.0000 0.0000 0.0000 -4.8609 0.0000 -2.9628
# 5 27.8562 7.6181 -7.4853 0.0000 48.1288 0.0000
# 6 0.0000 0.0000 0.0000 -2.9628 0.0000 7.0357
#
#
#
# Elastic Compliance Matrix: (Units=1/GPa)
#
#
# Indices 1 2 3 4 5 6 
#
# 1 0.013100 0.001008 -0.003479 0.000000 -0.008282 0.000000
# 2 0.001008 0.007745 -0.001067 0.000000 -0.001975 0.000000
# 3 -0.003479 -0.001067 0.011139 0.000000 0.003915 0.000000
# 4 0.000000 0.000000 0.000000 -0.163703 0.000000 -0.068938
# 5 -0.008282 -0.001975 0.003915 0.000000 0.026493 0.000000
# 6 0.000000 0.000000 0.000000 -0.068938 0.000000 0.113103
#
#
# Mechanical properties :
#
#
# Convention : Reuss Voigt Hill
#
# Bulk Modulus (GPa) = 40.14473 42.97162 41.55817
# Shear Modulus (GPa) = 215.02273 30.40315 122.71294
#
# Velocity S-wave (km/s) = 9.69047 3.64386 7.32062
# Velocity P-wave (km/s) = 11.94734 6.03906 9.46597
#
# Compressibility (1/GPa) = 0.02490987
#
# Stress axis : x y z
#
# Youngs Moduli (GPa) = 76.33789 129.11497 89.77439
#
# Poissons Ratio (x) = -0.13020 0.31228
# Poissons Ratio (y) = -0.07698 0.09577
# Poissons Ratio (z) = 0.26554 0.13774
#
# Static dielectric constant tensor:
#      x y z
#    x 1.829030 0.000000 -0.017090 
#    y 0.000000 1.995390 0.000000 
#    z -0.017090 0.000000 2.023610 
# 
# From -- ./inp_files/31317.got.cif
#   From: 2010.05.17/outbox.cif.g08.bks.cpg/sg12_16_cif.got.tgz:31317.got - 2010.06.03 13:09:07.
