data_PCOD9212046
_publ_section_title
;
Structure prediction by ZEFSAII (Michael W. Deem and Ramdas Pophale) SiO2 
 PCOD9212046
Probable space group: C 2/M
;
_chemical_formula_sum "Si O2"
_cell_formula_units_Z 32
_cell_length_a 26.562272
_cell_length_b 14.414799
_cell_length_c 9.495037
_cell_angle_alpha 90.000000
_cell_angle_beta 30.110073
_cell_angle_gamma 90.000000
_cell_volume 1823.821768
_symmetry_space_group_name_H-M "C 2/M"
_symmetry_group_IT_number 12
_symmetry_cell_setting 'monoclinic'
loop_
_space_group_symop_operation_xyz
x,y,z
-x,y,-z
-x,-y,-z
x,-y,z
1/2+x,1/2+y,z
1/2-x,1/2+y,-z
1/2-x,1/2-y,-z
1/2+x,1/2-y,z
loop_
_atom_site_type_symbol
_atom_site_label
_atom_site_fract_x
_atom_site_fract_y
_atom_site_fract_z
Si Si1 0.312457 0.641615 0.701672
Si Si2 0.030518 0.500000 0.590415
Si Si3 0.789697 0.000000 0.265282
Si Si4 0.799606 0.358837 0.734691
Si Si5 0.982471 0.000000 0.210916
Si Si6 0.193164 0.500000 0.804981
O O1 0.317310 0.750889 0.662437
O O2 0.415378 0.588265 0.418637
O O3 0.229818 0.588916 0.806288
O O4 0.277289 0.630564 0.948302
O O5 0.099212 0.411748 0.462844
O O6 0.000000 0.500000 0.500000
O O7 0.925716 0.500000 0.925930
O O8 0.746525 0.088270 0.286422
O O9 0.749976 0.000000 0.520089
O O10 0.909661 0.000000 0.977716
O O11 0.000000 0.000000 0.000000
#
# Coordination Sequence:
#
# PCOD9212046 Si02
#       6
#     8   4   4   8   4   4
#     4  10  21  41  61  87 119 157 197 243 296 354
#     4  11  19  39  63  83 113 159 196 239 293 352
#     4  11  23  40  58  90 121 154 195 250 297 347
#     4  10  23  39  61  91 117 149 206 248 287 351
#     4  11  21  41  62  86 122 163 194 237 305 360
#     4  11  21  38  61  81 122 158 188 243 307 348
#
# _framework density 17.545573000000001
#
# number of rings (size 3 to 8) (size 9 to 14) (size 15 to 20)
#    0.000    1.500    5.000    2.250    0.000    7.000 
#    4.500    0.000    0.000    0.000    0.000    0.000 
#    0.000    0.000    0.000    0.000    0.000    0.000 
#
# Total GULP energy -89331.523096 kJ/mol
# GULP energy per Si atom -5583.220193 kJ/mol
# Density = 1.750564 g / cm^3
# Si number density = 17.545573 Si / 1000 Ang^3
#
#
#
# Elastic Constant Matrix: (Units=GPa)
#
#
# Indices 1 2 3 4 5 6 
#
# 1 87.4424 55.8863 31.5564 0.0000 -8.9142 0.0000
# 2 55.8863 169.6207 60.2403 0.0000 -0.3296 0.0000
# 3 31.5564 60.2403 117.7849 0.0000 -13.3387 0.0000
# 4 0.0000 0.0000 0.0000 -15.8201 0.0000 -5.4612
# 5 -8.9142 -0.3296 -13.3387 0.0000 41.1353 0.0000
# 6 0.0000 0.0000 0.0000 -5.4612 0.0000 -0.0018
#
#
#
# Elastic Compliance Matrix: (Units=1/GPa)
#
#
# Indices 1 2 3 4 5 6 
#
# 1 0.015086 -0.004449 -0.001454 0.000000 0.002762 0.000000
# 2 -0.004449 0.008572 -0.003419 0.000000 -0.002004 0.000000
# 3 -0.001454 -0.003419 0.010993 0.000000 0.003222 0.000000
# 4 0.000000 0.000000 0.000000 0.000062 0.000000 -0.183288
# 5 0.002762 -0.002004 0.003222 0.000000 0.025937 0.000000
# 6 0.000000 0.000000 0.000000 -0.183288 0.000000 0.530948
#
#
# Mechanical properties :
#
#
# Convention : Reuss Voigt Hill
#
# Bulk Modulus (GPa) = 62.47034 74.46822 68.46928
# Shear Modulus (GPa) = 8.12247 20.20700 14.16474
#
# Velocity S-wave (km/s) = 2.15393 3.39733 2.84440
# Velocity P-wave (km/s) = 6.47053 7.61078 7.06370
#
# Compressibility (1/GPa) = 0.01600760
#
# Stress axis : x y z
#
# Youngs Moduli (GPa) = 66.28862 116.66421 90.96707
#
# Poissons Ratio (x) = 0.51901 0.13223
# Poissons Ratio (y) = 0.29490 0.31101
# Poissons Ratio (z) = 0.09636 0.39887
#
# Static dielectric constant tensor:
#      x y z
#    x 1.575710 0.000000 0.001520 
#    y 0.000000 1.580160 0.000000 
#    z 0.001520 0.000000 1.596220 
# 
# From -- ./inp_files/57987.got.cif
#   From: 2010.05.17/outbox.cif.g08.bks.cpg/sg12_29_cif.got.tgz:57987.got - 2010.06.03 13:09:07.
