data_PCOD9212178
_publ_section_title
;
Structure prediction by ZEFSAII (Michael W. Deem and Ramdas Pophale) SiO2 
 PCOD9212178
Probable space group: C 2/M
;
_chemical_formula_sum "Si O2"
_cell_formula_units_Z 56
_cell_length_a 25.962695
_cell_length_b 8.666673
_cell_length_c 14.994557
_cell_angle_alpha 90.000000
_cell_angle_beta 58.685723
_cell_angle_gamma 90.000000
_cell_volume 2882.445787
_symmetry_space_group_name_H-M "C 2/M"
_symmetry_group_IT_number 12
_symmetry_cell_setting 'monoclinic'
loop_
_space_group_symop_operation_xyz
x,y,z
-x,y,-z
-x,-y,-z
x,-y,z
1/2+x,1/2+y,z
1/2-x,1/2+y,-z
1/2-x,1/2-y,-z
1/2+x,1/2-y,z
loop_
_atom_site_type_symbol
_atom_site_label
_atom_site_fract_x
_atom_site_fract_y
_atom_site_fract_z
Si Si1 0.174147 0.315196 0.810840
Si Si2 0.956069 0.186235 0.118821
Si Si3 0.774438 0.184493 0.570507
Si Si4 0.742629 0.686632 0.105422
Si Si5 0.890301 0.186006 0.712529
Si Si6 0.595926 0.183413 0.492791
Si Si7 0.503526 0.686185 0.721343
O O1 0.165466 0.500000 0.821866
O O2 0.111536 0.238449 0.841263
O O3 0.224826 0.283824 0.690831
O O4 0.203092 0.263667 0.878526
O O5 0.978234 0.240597 0.196309
O O6 0.957728 0.000000 0.118558
O O7 0.000000 0.239837 0.000000
O O8 0.750000 0.250000 0.500000
O O9 0.837556 0.261464 0.538569
O O10 0.782914 0.000000 0.557607
O O11 0.742441 0.500000 0.103651
O O12 0.678051 0.735037 0.204660
O O13 0.750000 0.750000 0.000000
O O14 0.913483 0.255356 0.598946
O O15 0.936102 0.227982 0.750655
O O16 0.890124 0.000000 0.703469
O O17 0.548951 0.251360 0.605873
O O18 0.592101 0.000000 0.497089
O O19 0.507323 0.500000 0.717608
#
# Coordination Sequence:
#
# PCOD9212178 Si02
#       7
#     8   8   8   8   8   8   8
#     4  10  22  41  62  87 122 159 196 243 301 360
#     4  10  23  41  63  91 120 155 204 253 294 353
#     4  11  22  39  62  89 124 161 203 249 300 362
#     4  10  22  40  63  92 122 157 201 249 305 363
#     4  10  21  41  65  88 121 164 203 248 308 368
#     4  12  24  38  59  91 126 160 202 251 304 361
#     4  10  22  40  63  88 119 163 206 249 308 364
#
# _framework density 19.427945999999999
#
# number of rings (size 3 to 8) (size 9 to 14) (size 15 to 20)
#    0.000    1.571    1.429    3.000    2.000    7.714 
#    0.000    0.000    0.000    0.000    0.000    0.000 
#    0.000    0.000    0.000    0.000    0.000    0.000 
#
# Total GULP energy -156519.297213 kJ/mol
# GULP energy per Si atom -5589.974900 kJ/mol
# Density = 1.938373 g / cm^3
# Si number density = 19.427946 Si / 1000 Ang^3
#
#
#
# Elastic Constant Matrix: (Units=GPa)
#
#
# Indices 1 2 3 4 5 6 
#
# 1 158.0136 25.1100 48.9825 0.0000 23.0851 0.0000
# 2 25.1100 10.2998 16.8386 0.0000 6.0039 0.0000
# 3 48.9825 16.8386 90.8269 0.0000 26.6954 0.0000
# 4 0.0000 0.0000 0.0000 17.5906 0.0000 -1.1540
# 5 23.0851 6.0039 26.6954 0.0000 39.7937 0.0000
# 6 0.0000 0.0000 0.0000 -1.1540 0.0000 31.5194
#
#
#
# Elastic Compliance Matrix: (Units=1/GPa)
#
#
# Indices 1 2 3 4 5 6 
#
# 1 0.010577 -0.023310 -0.000764 0.000000 -0.002107 0.000000
# 2 -0.023310 0.191362 -0.022912 0.000000 0.000021 0.000000
# 3 -0.000764 -0.022912 0.018090 0.000000 -0.008236 0.000000
# 4 0.000000 0.000000 0.000000 0.056986 0.000000 0.002086
# 5 -0.002107 0.000021 -0.008236 0.000000 0.031874 0.000000
# 6 0.000000 0.000000 0.000000 0.002086 0.000000 0.031803
#
#
# Mechanical properties :
#
#
# Convention : Reuss Voigt Hill
#
# Bulk Modulus (GPa) = 7.93288 49.00028 28.46658
# Shear Modulus (GPa) = 10.48917 28.99467 19.74192
#
# Velocity S-wave (km/s) = 2.32610 3.86738 3.19119
# Velocity P-wave (km/s) = 3.36250 6.72447 5.31624
#
# Compressibility (1/GPa) = 0.12605766
#
# Stress axis : x y z
#
# Youngs Moduli (GPa) = 94.54255 5.22570 55.27874
#
# Poissons Ratio (x) = 0.12181 0.04221
# Poissons Ratio (y) = 2.20378 1.26657
# Poissons Ratio (z) = 0.07218 0.11973
#
# Static dielectric constant tensor:
#      x y z
#    x 1.669440 0.000000 0.006950 
#    y 0.000000 1.661380 0.000000 
#    z 0.006950 0.000000 1.645090 
# 
# From -- ./inp_files/238232.got.cif
#   From: 2010.05.17/outbox.cif.g08.bks.cpg/sg12_120_cif.got.tgz:238232.got - 2010.06.03 13:09:07.
