data_PCOD9212155
_publ_section_title
;
Structure prediction by ZEFSAII (Michael W. Deem and Ramdas Pophale) SiO2 
 PCOD9212155
Probable space group: C 2/M
;
_chemical_formula_sum "Si O2"
_cell_formula_units_Z 58
_cell_length_a 10.930504
_cell_length_b 22.571907
_cell_length_c 18.367998
_cell_angle_alpha 90.000000
_cell_angle_beta 140.638030
_cell_angle_gamma 90.000000
_cell_volume 2874.143619
_symmetry_space_group_name_H-M "C 2/M"
_symmetry_group_IT_number 12
_symmetry_cell_setting 'monoclinic'
loop_
_space_group_symop_operation_xyz
x,y,z
-x,y,-z
-x,-y,-z
x,-y,z
1/2+x,1/2+y,z
1/2-x,1/2+y,-z
1/2-x,1/2-y,-z
1/2+x,1/2-y,z
loop_
_atom_site_type_symbol
_atom_site_label
_atom_site_fract_x
_atom_site_fract_y
_atom_site_fract_z
Si Si1 0.512145 0.904943 0.137084
Si Si2 0.785934 0.068404 0.869758
Si Si3 0.827600 0.677993 0.578411
Si Si4 0.225043 0.066425 0.621386
Si Si5 0.932194 0.801005 0.672907
Si Si6 0.500000 0.000000 0.000000
Si Si7 0.883422 0.720568 0.873423
Si Si8 0.749799 0.334539 0.271520
O O1 0.358719 0.915997 0.130825
O O2 0.717679 0.921481 0.268818
O O3 0.516386 0.836265 0.116886
O O4 0.477417 0.947872 0.053200
O O5 0.767377 0.111555 0.792442
O O6 0.755852 0.000000 0.834868
O O7 0.000000 0.074499 0.000000
O O8 0.823794 0.617456 0.620238
O O9 0.843924 0.734349 0.639421
O O10 0.641509 0.681794 0.441352
O O11 0.023194 0.681266 0.621072
O O12 0.000000 0.069810 0.500000
O O13 0.290719 0.000000 0.633195
O O14 0.838394 0.843342 0.689655
O O15 0.161123 0.797717 0.786575
O O16 0.864590 0.778568 0.814963
O O17 0.000000 0.735241 0.000000
#
# Coordination Sequence:
#
# PCOD9212155 Si02
#       8
#     8   8   8   8   8   2   8   8
#     4  12  23  45  67  97 138 173 228 272 335 401
#     4  11  25  44  68  94 128 184 225 264 329 408
#     4  10  21  41  64  93 129 173 218 275 329 398
#     4  11  22  38  67  97 127 169 216 278 333 393
#     4  10  23  41  63  96 129 175 225 266 338 398
#     4  12  24  40  72  96 128 188 218 272 332 408
#     4  11  25  39  63  99 133 172 216 287 337 384
#     4  11  23  40  67  96 129 174 220 279 333 395
#
# _framework density 20.179924
#
# number of rings (size 3 to 8) (size 9 to 14) (size 15 to 20)
#    0.000    1.103    3.448    2.483    3.862    2.759 
#    0.000    0.690    0.000    1.655    0.000    0.000 
#    0.000    0.000    0.000    0.000    0.000    0.000 
#
# Total GULP energy -161801.269321 kJ/mol
# GULP energy per Si atom -5579.354115 kJ/mol
# Density = 2.013399 g / cm^3
# Si number density = 20.179924 Si / 1000 Ang^3
#
#
#
# Elastic Constant Matrix: (Units=GPa)
#
#
# Indices 1 2 3 4 5 6 
#
# 1 64.1462 25.8064 30.8709 0.0001 -14.8207 0.0003
# 2 25.8064 116.8665 9.5490 0.0001 -18.5356 -0.0001
# 3 30.8709 9.5490 96.9938 -0.0010 3.1857 -0.0009
# 4 0.0001 0.0001 -0.0010 28.4831 -0.0003 -0.3960
# 5 -14.8207 -18.5356 3.1857 -0.0003 27.5457 -0.0002
# 6 0.0003 -0.0001 -0.0009 -0.3960 -0.0002 10.3987
#
#
#
# Elastic Compliance Matrix: (Units=1/GPa)
#
#
# Indices 1 2 3 4 5 6 
#
# 1 0.022826 -0.002636 -0.007379 0.000000 0.011361 -0.000001
# 2 -0.002636 0.010015 -0.000323 0.000000 0.005359 0.000000
# 3 -0.007379 -0.000323 0.012877 0.000000 -0.005677 0.000001
# 4 0.000000 0.000000 0.000000 0.035127 0.000000 0.001338
# 5 0.011361 0.005359 -0.005677 0.000000 0.046678 0.000000
# 6 -0.000001 0.000000 0.000001 0.001338 0.000000 0.096217
#
#
# Mechanical properties :
#
#
# Convention : Reuss Voigt Hill
#
# Bulk Modulus (GPa) = 39.93164 45.60657 42.76911
# Shear Modulus (GPa) = 19.78147 27.40417 23.59282
#
# Velocity S-wave (km/s) = 3.13430 3.68909 3.42295
# Velocity P-wave (km/s) = 5.73840 6.38709 6.07141
#
# Compressibility (1/GPa) = 0.02504280
#
# Stress axis : x y z
#
# Youngs Moduli (GPa) = 43.81057 99.84985 77.66017
#
# Poissons Ratio (x) = 0.26316 0.57302
# Poissons Ratio (y) = 0.11546 0.02510
# Poissons Ratio (z) = 0.32326 0.03227
#
# Static dielectric constant tensor:
#      x y z
#    x 1.712200 0.000000 0.031860 
#    y 0.000000 1.720270 0.000000 
#    z 0.031860 0.000000 1.729300 
# 
# From -- ./inp_files/265273.got.cif
#   From: 2010.05.17/outbox.cif.g08.bks.cpg/sg12_133_cif.got.tgz:265273.got - 2010.06.03 13:09:07.
