data_PCOD9212366
_publ_section_title
;
Structure prediction by ZEFSAII (Michael W. Deem and Ramdas Pophale) SiO2 
 PCOD9212366
Probable space group: C 2/M
;
_chemical_formula_sum "Si O2"
_cell_formula_units_Z 56
_cell_length_a 11.001376
_cell_length_b 15.518874
_cell_length_c 26.556582
_cell_angle_alpha 90.000000
_cell_angle_beta 33.827510
_cell_angle_gamma 90.000000
_cell_volume 2524.040708
_symmetry_space_group_name_H-M "C 2/M"
_symmetry_group_IT_number 12
_symmetry_cell_setting 'monoclinic'
loop_
_space_group_symop_operation_xyz
x,y,z
-x,y,-z
-x,-y,-z
x,-y,z
1/2+x,1/2+y,z
1/2-x,1/2+y,-z
1/2-x,1/2-y,-z
1/2+x,1/2-y,z
loop_
_atom_site_type_symbol
_atom_site_label
_atom_site_fract_x
_atom_site_fract_y
_atom_site_fract_z
Si Si1 0.152057 0.906150 0.631650
Si Si2 0.671971 0.135213 0.809566
Si Si3 0.430882 0.097972 0.634735
Si Si4 0.140794 0.838153 0.825791
Si Si5 0.844598 0.401026 0.009581
Si Si6 0.460140 0.099382 0.259667
Si Si7 0.257533 0.215205 0.418093
O O1 0.333494 0.899932 0.612671
O O2 0.168443 0.813852 0.599508
O O3 0.908816 0.904933 0.738627
O O4 0.179377 0.000000 0.596141
O O5 0.686731 0.237138 0.813023
O O6 0.485253 0.101084 0.910486
O O7 0.612386 0.117376 0.772101
O O8 0.241146 0.127909 0.738568
O O9 0.635181 0.159023 0.574687
O O10 0.488969 0.000000 0.627130
O O11 0.281335 0.886729 0.820090
O O12 0.884188 0.853444 0.916863
O O13 0.793347 0.500000 0.040964
O O14 0.000000 0.364123 0.000000
O O15 0.353338 0.168705 0.334652
O O16 0.402853 0.000000 0.291692
O O17 0.000000 0.211671 0.500000
#
# Coordination Sequence:
#
# PCOD9212366 Si02
#       7
#     8   8   8   8   8   8   8
#     4  11  23  42  66  93 130 174 216 265 326 392
#     4  12  24  42  65  96 132 174 216 266 327 383
#     4  10  21  41  68  95 128 174 218 262 326 394
#     4  11  22  39  65  92 132 171 218 265 322 382
#     4  11  24  40  63  96 130 171 222 270 316 377
#     4  11  24  43  68  96 130 173 216 267 333 390
#     4  11  24  42  70  96 130 167 220 273 326 390
#
# _framework density 22.186647000000001
#
# number of rings (size 3 to 8) (size 9 to 14) (size 15 to 20)
#    0.000    1.000    2.857    6.000    2.000    4.857 
#    0.000    1.429    0.000    0.000    0.000    0.000 
#    0.000    0.000    0.000    0.000    0.000    0.000 
#
# Total GULP energy -156662.558444 kJ/mol
# GULP energy per Si atom -5595.091373 kJ/mol
# Density = 2.213615 g / cm^3
# Si number density = 22.186647 Si / 1000 Ang^3
#
#
#
# Elastic Constant Matrix: (Units=GPa)
#
#
# Indices 1 2 3 4 5 6 
#
# 1 60.7307 22.2723 30.6902 0.0082 -10.9708 0.0016
# 2 22.2723 173.2252 36.8373 0.0024 -11.8205 -0.0002
# 3 30.6902 36.8373 117.6168 0.0104 -27.5550 0.0027
# 4 0.0082 0.0024 0.0104 -4.9637 -0.0057 -14.1535
# 5 -10.9708 -11.8205 -27.5550 -0.0057 41.6499 -0.0025
# 6 0.0016 -0.0002 0.0027 -14.1535 -0.0025 28.0943
#
#
#
# Elastic Compliance Matrix: (Units=1/GPa)
#
#
# Indices 1 2 3 4 5 6 
#
# 1 0.019464 -0.001485 -0.004155 0.000009 0.001956 0.000004
# 2 -0.001485 0.006309 -0.001492 -0.000002 0.000412 -0.000001
# 3 -0.004155 -0.001492 0.011477 0.000004 0.006075 0.000002
# 4 0.000009 -0.000002 0.000004 -0.082685 -0.000009 -0.041656
# 5 0.001956 0.000412 0.006075 -0.000009 0.028661 -0.000003
# 6 0.000004 -0.000001 0.000002 -0.041656 -0.000003 0.014609
#
#
# Mechanical properties :
#
#
# Convention : Reuss Voigt Hill
#
# Bulk Modulus (GPa) = 43.50633 59.01915 51.26274
# Shear Modulus (GPa) = 253.01081 30.40763 141.70922
#
# Velocity S-wave (km/s) = 10.69042 3.70609 8.00063
# Velocity P-wave (km/s) = 13.11609 6.70615 10.41644
#
# Compressibility (1/GPa) = 0.02298516
#
# Stress axis : x y z
#
# Youngs Moduli (GPa) = 51.37642 158.49860 87.13129
#
# Poissons Ratio (x) = 0.23544 0.36206
# Poissons Ratio (y) = 0.07632 0.12998
# Poissons Ratio (z) = 0.21348 0.23645
#
# Static dielectric constant tensor:
#      x y z
#    x 1.805430 0.000000 0.011490 
#    y 0.000000 1.821900 0.000000 
#    z 0.011490 0.000000 1.817420 
# 
# From -- ./inp_files/374190.got.cif
#   From: 2010.05.17/outbox.cif.g08.bks.cpg/sg12_188_cif.got.tgz:374190.got - 2010.06.03 13:09:07.
