data_PCOD9212736
_publ_section_title
;
Structure prediction by ZEFSAII (Michael W. Deem and Ramdas Pophale) SiO2 
 PCOD9212736
Probable space group: C 2/M
;
_chemical_formula_sum "Si O2"
_cell_formula_units_Z 64
_cell_length_a 31.016562
_cell_length_b 16.113575
_cell_length_c 9.730278
_cell_angle_alpha 90.000000
_cell_angle_beta 38.833499
_cell_angle_gamma 90.000000
_cell_volume 3049.435586
_symmetry_space_group_name_H-M "C 2/M"
_symmetry_group_IT_number 12
_symmetry_cell_setting 'monoclinic'
loop_
_space_group_symop_operation_xyz
x,y,z
-x,y,-z
-x,-y,-z
x,-y,z
1/2+x,1/2+y,z
1/2-x,1/2+y,-z
1/2-x,1/2-y,-z
1/2+x,1/2-y,z
loop_
_atom_site_type_symbol
_atom_site_label
_atom_site_fract_x
_atom_site_fract_y
_atom_site_fract_z
Si Si1 0.731054 0.163071 0.476069
Si Si2 0.998391 0.848327 0.161543
Si Si3 0.775299 0.599904 0.021925
Si Si4 0.370149 0.400112 0.990268
Si Si5 0.625913 0.599570 0.335702
Si Si6 0.858405 0.403717 0.067848
Si Si7 0.146592 0.403690 0.453676
Si Si8 0.999273 0.651636 0.158580
O O1 0.750000 0.250000 0.500000
O O2 0.797737 0.129744 0.231358
O O3 0.701829 0.105975 0.670492
O O4 0.669603 0.158933 0.516728
O O5 0.936972 0.882257 0.408165
O O6 0.988439 0.749737 0.180775
O O7 0.000000 0.879867 0.000000
O O8 0.069256 0.868950 0.062101
O O9 0.772329 0.500000 0.054103
O O10 0.697757 0.632825 0.218580
O O11 0.827025 0.634644 0.007080
O O12 0.805253 0.610851 0.796275
O O13 0.370630 0.500000 0.988989
O O14 0.381654 0.371465 0.803740
O O15 0.632462 0.500000 0.310225
O O16 0.874573 0.500000 0.006442
O O17 0.928415 0.363931 0.948084
O O18 0.155964 0.500000 0.475885
O O19 0.067610 0.389883 0.608677
O O20 0.000000 0.618966 0.000000
#
# Coordination Sequence:
#
# PCOD9212736 Si02
#       8
#     8   8   8   8   8   8   8   8
#     4  12  25  40  66 101 138 169 215 278 331 396
#     4  11  26  43  62  95 137 171 214 280 347 391
#     4   9  21  41  66  99 130 158 214 280 325 382
#     4  11  23  43  70  95 127 180 230 270 323 404
#     4  10  21  43  70  95 127 175 228 270 322 408
#     4  11  23  42  68  97 128 170 223 278 327 388
#     4  11  22  44  72  97 128 179 227 267 323 397
#     4  11  24  42  64  93 135 173 219 276 329 399
#
# _framework density 20.987490000000001
#
# number of rings (size 3 to 8) (size 9 to 14) (size 15 to 20)
#    0.000    1.250    2.500    3.000    3.500    3.000 
#    6.750    3.125    0.000    0.000    0.000    0.000 
#    0.000    0.000    0.000    0.000    0.000    0.000 
#
# Total GULP energy -178843.113797 kJ/mol
# GULP energy per Si atom -5588.847306 kJ/mol
# Density = 2.093972 g / cm^3
# Si number density = 20.987490 Si / 1000 Ang^3
#
#
#
# Elastic Constant Matrix: (Units=GPa)
#
#
# Indices 1 2 3 4 5 6 
#
# 1 151.7683 17.7849 37.1714 0.0000 -1.5560 0.0000
# 2 17.7849 23.1250 3.1865 0.0000 0.5320 0.0000
# 3 37.1714 3.1865 79.9264 0.0000 -17.8495 0.0000
# 4 0.0000 0.0000 0.0000 3.5258 0.0000 -21.3087
# 5 -1.5560 0.5320 -17.8495 0.0000 32.1679 0.0000
# 6 0.0000 0.0000 0.0000 -21.3087 0.0000 58.4640
#
#
#
# Elastic Compliance Matrix: (Units=1/GPa)
#
#
# Indices 1 2 3 4 5 6 
#
# 1 0.008217 -0.005732 -0.003976 0.000000 -0.001714 0.000000
# 2 -0.005732 0.047585 0.000606 0.000000 -0.000728 0.000000
# 3 -0.003976 0.000606 0.016313 0.000000 0.008849 0.000000
# 4 0.000000 0.000000 0.000000 -0.235814 0.000000 -0.085948
# 5 -0.001714 -0.000728 0.008849 0.000000 0.035926 0.000000
# 6 0.000000 0.000000 0.000000 -0.085948 0.000000 -0.014221
#
#
# Mechanical properties :
#
#
# Convention : Reuss Voigt Hill
#
# Bulk Modulus (GPa) = 18.54902 41.23394 29.89148
# Shear Modulus (GPa) = -47.24949 31.94334 -7.65308
#
# Velocity S-wave (km/s) = -4.74995 3.90554 -1.91165
# Velocity P-wave (km/s) = 4.60710 6.32670 3.06609
#
# Compressibility (1/GPa) = 0.05391120
#
# Stress axis : x y z
#
# Youngs Moduli (GPa) = 121.70093 21.01504 61.30254
#
# Poissons Ratio (x) = 0.12046 0.24372
# Poissons Ratio (y) = 0.69761 -0.03716
# Poissons Ratio (z) = 0.48384 -0.01274
#
# Static dielectric constant tensor:
#      x y z
#    x 1.769180 0.000000 0.006580 
#    y 0.000000 1.749330 0.000000 
#    z 0.006580 0.000000 1.760580 
# 
# From -- ./inp_files/112842.got.cif
#   From: 2010.05.17/outbox.cif.g08.bks.cpg/sg12_57_cif.got.tgz:112842.got - 2010.06.03 13:09:07.
