data_PCOD9212166
_publ_section_title
;
Structure prediction by ZEFSAII (Michael W. Deem and Ramdas Pophale) SiO2 
 PCOD9212166
Probable space group: C 2/M
;
_chemical_formula_sum "Si O2"
_cell_formula_units_Z 56
_cell_length_a 16.743264
_cell_length_b 15.285784
_cell_length_c 20.883353
_cell_angle_alpha 90.000000
_cell_angle_beta 153.249109
_cell_angle_gamma 90.000000
_cell_volume 2405.741613
_symmetry_space_group_name_H-M "C 2/M"
_symmetry_group_IT_number 12
_symmetry_cell_setting 'monoclinic'
loop_
_space_group_symop_operation_xyz
x,y,z
-x,y,-z
-x,-y,-z
x,-y,z
1/2+x,1/2+y,z
1/2-x,1/2+y,-z
1/2-x,1/2-y,-z
1/2+x,1/2-y,z
loop_
_atom_site_type_symbol
_atom_site_label
_atom_site_fract_x
_atom_site_fract_y
_atom_site_fract_z
Si Si1 0.309814 0.634307 0.843777
Si Si2 0.693676 0.630053 0.661460
Si Si3 0.701108 0.163822 0.631103
Si Si4 0.985879 0.600383 0.269677
Si Si5 0.836625 0.106836 0.589555
Si Si6 0.411325 0.096988 0.084872
Si Si7 0.717805 0.670103 0.822645
O O1 0.307268 0.625018 0.766216
O O2 0.140790 0.596879 0.759571
O O3 0.284419 0.735583 0.846904
O O4 0.500000 0.601200 0.000000
O O5 0.500000 0.598333 0.500000
O O6 0.701825 0.731335 0.643136
O O7 0.875626 0.592026 0.765432
O O8 0.712874 0.618470 0.751778
O O9 0.500000 0.135338 0.500000
O O10 0.771754 0.133368 0.613760
O O11 0.014694 0.500000 0.271440
O O12 0.178039 0.634899 0.427812
O O13 0.885447 0.641617 0.136258
O O14 0.016123 0.158816 0.702389
O O15 0.860254 0.000000 0.602618
O O16 0.328424 0.000000 0.024466
O O17 0.340356 0.142114 0.969818
#
# Coordination Sequence:
#
# PCOD9212166 Si02
#       7
#     8   8   8   8   8   8   8
#     4  11  24  42  65  95 132 174 219 266 327 387
#     4  10  22  41  65  95 129 170 220 268 326 386
#     4  10  21  41  64  97 130 169 220 268 319 385
#     4  10  24  43  63  97 134 171 219 270 328 390
#     4  11  24  42  68 100 134 174 219 268 327 388
#     4  11  24  42  64  93 132 174 218 272 330 388
#     4  11  24  41  65  97 130 167 220 270 322 389
#
# _framework density 23.277647000000002
#
# number of rings (size 3 to 8) (size 9 to 14) (size 15 to 20)
#    0.000    1.429    1.429    3.429    4.000    4.286 
#    0.000    0.000    0.000    0.000    0.000    0.000 
#    0.000    0.000    0.000    0.000    0.000    0.000 
#
# Total GULP energy -156364.485422 kJ/mol
# GULP energy per Si atom -5584.445908 kJ/mol
# Density = 2.322467 g / cm^3
# Si number density = 23.277647 Si / 1000 Ang^3
#
#
#
# Elastic Constant Matrix: (Units=GPa)
#
#
# Indices 1 2 3 4 5 6 
#
# 1 102.3079 2.2012 13.8331 0.0017 -16.4028 0.0072
# 2 2.2012 44.2838 22.4429 -0.0239 -10.8660 -0.0023
# 3 13.8331 22.4429 123.2816 -0.0113 -17.7794 0.0026
# 4 0.0017 -0.0239 -0.0113 7.8542 -0.0030 -10.2128
# 5 -16.4028 -10.8660 -17.7794 -0.0030 61.2346 0.0018
# 6 0.0072 -0.0023 0.0026 -10.2128 0.0018 -3.0273
#
#
#
# Elastic Compliance Matrix: (Units=1/GPa)
#
#
# Indices 1 2 3 4 5 6 
#
# 1 0.010299 0.000575 -0.000885 0.000006 0.002604 0.000005
# 2 0.000575 0.025538 -0.004214 0.000009 0.003462 -0.000049
# 3 -0.000885 -0.004214 0.009222 0.000003 0.001693 0.000001
# 4 0.000006 0.000009 0.000003 0.023637 0.000007 -0.079739
# 5 0.002604 0.003462 0.001693 0.000007 0.018134 -0.000009
# 6 0.000005 -0.000049 0.000001 -0.079739 -0.000009 -0.061324
#
#
# Mechanical properties :
#
#
# Convention : Reuss Voigt Hill
#
# Bulk Modulus (GPa) = 27.76842 38.53641 33.15242
# Shear Modulus (GPa) = 107.39204 28.63870 68.01537
#
# Velocity S-wave (km/s) = 6.79966 3.51138 5.41134
# Velocity P-wave (km/s) = 8.57918 5.74724 7.30182
#
# Compressibility (1/GPa) = 0.03601213
#
# Stress axis : x y z
#
# Youngs Moduli (GPa) = 97.09523 39.15665 108.43468
#
# Poissons Ratio (x) = -0.02253 0.09595
# Poissons Ratio (y) = -0.05587 0.45699
# Poissons Ratio (z) = 0.08592 0.16502
#
# Static dielectric constant tensor:
#      x y z
#    x 1.888690 0.000000 -0.064120 
#    y 0.000000 1.952710 0.000000 
#    z -0.064120 0.000000 1.897650 
# 
# From -- ./inp_files/272423.got.cif
#   From: 2010.05.17/outbox.cif.g08.bks.cpg/sg12_137_cif.got.tgz:272423.got - 2010.06.03 13:09:07.
