data_PCOD9212105
_publ_section_title
;
Structure prediction by ZEFSAII (Michael W. Deem and Ramdas Pophale) SiO2 
 PCOD9212105
Probable space group: C 2/M
;
_chemical_formula_sum "Si O2"
_cell_formula_units_Z 42
_cell_length_a 11.281839
_cell_length_b 22.362025
_cell_length_c 8.311342
_cell_angle_alpha 90.000000
_cell_angle_beta 113.085837
_cell_angle_gamma 90.000000
_cell_volume 1928.907979
_symmetry_space_group_name_H-M "C 2/M"
_symmetry_group_IT_number 12
_symmetry_cell_setting 'monoclinic'
loop_
_space_group_symop_operation_xyz
x,y,z
-x,y,-z
-x,-y,-z
x,-y,z
1/2+x,1/2+y,z
1/2-x,1/2+y,-z
1/2-x,1/2-y,-z
1/2+x,1/2-y,z
loop_
_atom_site_type_symbol
_atom_site_label
_atom_site_fract_x
_atom_site_fract_y
_atom_site_fract_z
Si Si1 0.806183 0.405094 0.933528
Si Si2 0.000000 0.500000 0.000000
Si Si3 0.822566 0.826590 0.638091
Si Si4 0.990319 0.931973 0.189032
Si Si5 0.078318 0.380419 0.686325
Si Si6 0.360077 0.197866 0.743592
O O1 0.657163 0.420000 0.841162
O O2 0.834867 0.337176 0.895836
O O3 0.898543 0.447945 0.882240
O O4 0.854458 0.419427 0.140242
O O5 0.696026 0.844090 0.671636
O O6 0.769085 0.810876 0.432804
O O7 0.884454 0.768395 0.754547
O O8 0.917447 0.882449 0.686606
O O9 0.026412 0.000000 0.250897
O O10 0.000000 0.926266 0.000000
O O11 0.000000 0.411550 0.500000
O O12 0.976445 0.335796 0.715364
#
# Coordination Sequence:
#
# PCOD9212105 Si02
#       6
#     8   2   8   8   8   8
#     4  12  23  43  67  94 130 175 218 274 330 386
#     4  12  24  44  64  94 132 164 226 278 318 394
#     4  10  23  43  63  96 134 173 216 274 322 392
#     4  11  24  42  65  96 134 173 216 266 333 396
#     4  10  21  41  63  93 127 167 221 268 322 393
#     4  10  23  41  66  95 133 172 221 271 328 381
#
# _framework density 21.773979000000001
#
# number of rings (size 3 to 8) (size 9 to 14) (size 15 to 20)
#    0.000    1.333    4.762    0.000    2.667    3.048 
#    1.714    1.429    0.000    0.000    0.000    0.000 
#    0.000    0.000    0.000    0.000    0.000    0.000 
#
# Total GULP energy -117022.718940 kJ/mol
# GULP energy per Si atom -5572.510426 kJ/mol
# Density = 2.172442 g / cm^3
# Si number density = 21.773979 Si / 1000 Ang^3
#
#
#
# Elastic Constant Matrix: (Units=GPa)
#
#
# Indices 1 2 3 4 5 6 
#
# 1 99.9361 38.1737 2.8934 0.0000 19.0467 0.0000
# 2 38.1737 125.3943 33.8086 0.0000 27.0633 0.0000
# 3 2.8934 33.8086 71.6055 0.0000 11.3612 0.0000
# 4 0.0000 0.0000 0.0000 -28.1608 0.0000 81.9912
# 5 19.0467 27.0633 11.3612 0.0000 25.9640 0.0000
# 6 0.0000 0.0000 0.0000 81.9912 0.0000 -78.9202
#
#
#
# Elastic Compliance Matrix: (Units=1/GPa)
#
#
# Indices 1 2 3 4 5 6 
#
# 1 0.012342 -0.002760 0.001918 0.000000 -0.007016 0.000000
# 2 -0.002760 0.011735 -0.004094 0.000000 -0.008416 0.000000
# 3 0.001918 -0.004094 0.016514 0.000000 -0.004365 0.000000
# 4 0.000000 0.000000 0.000000 0.017537 0.000000 0.018220
# 5 -0.007016 -0.008416 -0.004365 0.000000 0.054345 0.000000
# 6 0.000000 0.000000 0.000000 0.018220 0.000000 0.006258
#
#
# Mechanical properties :
#
#
# Convention : Reuss Voigt Hill
#
# Bulk Modulus (GPa) = 32.55378 49.63194 41.09286
# Shear Modulus (GPa) = 36.01181 -1.41941 17.29620
#
# Velocity S-wave (km/s) = 4.07122 -0.80827 2.82148
# Velocity P-wave (km/s) = 6.08958 4.68749 5.43395
#
# Compressibility (1/GPa) = 0.03071840
#
# Stress axis : x y z
#
# Youngs Moduli (GPa) = 81.02136 85.21283 60.55642
#
# Poissons Ratio (x) = 0.23520 -0.11613
# Poissons Ratio (y) = 0.22363 0.24792
# Poissons Ratio (z) = -0.15538 0.34886
#
# Static dielectric constant tensor:
#      x y z
#    x 1.802470 0.000000 -0.044960 
#    y 0.000000 1.806260 0.000000 
#    z -0.044960 0.000000 1.879880 
# 
# From -- ./inp_files/49143.got.cif
#   From: 2010.05.17/outbox.cif.g08.bks.cpg/sg12_25_cif.got.tgz:49143.got - 2010.06.03 13:09:07.
