data_PCOD9212693
_publ_section_title
;
Structure prediction by ZEFSAII (Michael W. Deem and Ramdas Pophale) SiO2 
 PCOD9212693
Probable space group: C 2/M
;
_chemical_formula_sum "Si O2"
_cell_formula_units_Z 32
_cell_length_a 15.808838
_cell_length_b 15.560869
_cell_length_c 5.286895
_cell_angle_alpha 90.000000
_cell_angle_beta 92.692926
_cell_angle_gamma 90.000000
_cell_volume 1299.135999
_symmetry_space_group_name_H-M "C 2/M"
_symmetry_group_IT_number 12
_symmetry_cell_setting 'monoclinic'
loop_
_space_group_symop_operation_xyz
x,y,z
-x,y,-z
-x,-y,-z
x,-y,z
1/2+x,1/2+y,z
1/2-x,1/2+y,-z
1/2-x,1/2-y,-z
1/2+x,1/2-y,z
loop_
_atom_site_type_symbol
_atom_site_label
_atom_site_fract_x
_atom_site_fract_y
_atom_site_fract_z
Si Si1 0.559039 0.500000 0.756475
Si Si2 0.851547 0.593983 0.302070
Si Si3 0.000000 0.363436 0.000000
Si Si4 0.174169 0.905863 0.094172
Si Si5 0.908414 0.246094 0.614945
O O1 0.500000 0.500000 0.500000
O O2 0.500000 0.500000 0.000000
O O3 0.621346 0.418019 0.825097
O O4 0.838261 0.500000 0.433502
O O5 0.775062 0.602445 0.089276
O O6 0.854437 0.685431 0.445454
O O7 0.944668 0.588100 0.195796
O O8 0.933306 0.302619 0.858273
O O9 0.137895 0.835485 0.276135
O O10 0.162568 0.000000 0.215779
O O11 0.000000 0.225215 0.500000
#
# Coordination Sequence:
#
# PCOD9212693 Si02
#       5
#     4   8   4   8   8
#     4  10  24  48  72 113 149 199 245 308 382 464
#     4  10  21  43  66 102 144 192 252 308 374 439
#     4  10  23  38  63  98 138 194 247 306 373 440
#     4   9  22  43  69 104 145 188 247 305 377 450
#     4  10  22  40  65 100 145 198 252 305 371 448
#
# _framework density 24.631757
#
# number of rings (size 3 to 8) (size 9 to 14) (size 15 to 20)
#    0.750    1.500    0.000    1.125    1.750    8.000 
#    9.000    0.000    0.000    0.000    0.000    5.250 
#    0.000    0.000    0.000    0.000    0.000    0.000 
#
# Total GULP energy -89166.031928 kJ/mol
# GULP energy per Si atom -5572.876995 kJ/mol
# Density = 2.457569 g / cm^3
# Si number density = 24.631757 Si / 1000 Ang^3
#
#
#
# Elastic Constant Matrix: (Units=GPa)
#
#
# Indices 1 2 3 4 5 6 
#
# 1 114.4593 72.9631 39.5590 0.0000 28.2991 0.0000
# 2 72.9631 160.1436 53.8244 0.0000 5.4893 0.0000
# 3 39.5590 53.8244 95.9053 0.0000 30.4763 0.0000
# 4 0.0000 0.0000 0.0000 34.4541 0.0000 23.7310
# 5 28.2991 5.4893 30.4763 0.0000 38.4211 0.0000
# 6 0.0000 0.0000 0.0000 23.7310 0.0000 84.5933
#
#
#
# Elastic Compliance Matrix: (Units=1/GPa)
#
#
# Indices 1 2 3 4 5 6 
#
# 1 0.015752 -0.007184 0.001197 0.000000 -0.011525 0.000000
# 2 -0.007184 0.011261 -0.006053 0.000000 0.008483 0.000000
# 3 0.001197 -0.006053 0.017830 0.000000 -0.014160 0.000000
# 4 0.000000 0.000000 0.000000 0.035975 0.000000 -0.010092
# 5 -0.011525 0.008483 -0.014160 0.000000 0.044536 0.000000
# 6 0.000000 0.000000 0.000000 -0.010092 0.000000 0.014652
#
#
# Mechanical properties :
#
#
# Convention : Reuss Voigt Hill
#
# Bulk Modulus (GPa) = 48.16177 78.13348 63.14763
# Shear Modulus (GPa) = 29.23860 45.10449 37.17155
#
# Velocity S-wave (km/s) = 3.44907 4.28384 3.88892
# Velocity P-wave (km/s) = 5.95454 7.50052 6.77180
#
# Compressibility (1/GPa) = 0.02076335
#
# Stress axis : x y z
#
# Youngs Moduli (GPa) = 63.48359 88.80221 56.08628
#
# Poissons Ratio (x) = 0.63796 -0.06713
# Poissons Ratio (y) = 0.45607 0.33946
# Poissons Ratio (z) = -0.07598 0.53748
#
# Static dielectric constant tensor:
#      x y z
#    x 1.851120 0.000000 -0.119360 
#    y 0.000000 2.450360 0.000000 
#    z -0.119360 0.000000 1.899130 
# 
# From -- ./inp_files/14559.got.cif
#   From: 2010.05.17/outbox.cif.g08.bks.cpg/sg12_8_cif.got.tgz:14559.got - 2010.06.03 13:09:07.
