data_PCOD9212701
_publ_section_title
;
Structure prediction by ZEFSAII (Michael W. Deem and Ramdas Pophale) SiO2 
 PCOD9212701
Probable space group: C 2/M
;
_chemical_formula_sum "Si O2"
_cell_formula_units_Z 48
_cell_length_a 17.462205
_cell_length_b 15.023043
_cell_length_c 8.948998
_cell_angle_alpha 90.000000
_cell_angle_beta 85.407335
_cell_angle_gamma 90.000000
_cell_volume 2340.101528
_symmetry_space_group_name_H-M "C 2/M"
_symmetry_group_IT_number 12
_symmetry_cell_setting 'monoclinic'
loop_
_space_group_symop_operation_xyz
x,y,z
-x,y,-z
-x,-y,-z
x,-y,z
1/2+x,1/2+y,z
1/2-x,1/2+y,-z
1/2-x,1/2-y,-z
1/2+x,1/2-y,z
loop_
_atom_site_type_symbol
_atom_site_label
_atom_site_fract_x
_atom_site_fract_y
_atom_site_fract_z
Si Si1 0.337101 0.321786 0.234774
Si Si2 0.902236 0.000000 0.369479
Si Si3 0.914764 0.000000 0.708061
Si Si4 0.176812 0.600679 0.307998
Si Si5 0.465916 0.139645 0.845994
Si Si6 0.925457 0.839871 0.922921
Si Si7 0.571497 0.820289 0.582865
O O1 0.371374 0.413029 0.293542
O O2 0.246040 0.331277 0.269009
O O3 0.377021 0.245698 0.326903
O O4 0.362922 0.315632 0.058432
O O5 0.879440 0.000000 0.548078
O O6 0.993942 0.000000 0.335953
O O7 0.897313 0.911948 0.808017
O O8 0.205792 0.500000 0.323575
O O9 0.116878 0.602039 0.180641
O O10 0.126496 0.630665 0.457810
O O11 0.454852 0.247549 0.846713
O O12 0.526453 0.117320 0.706816
O O13 0.500000 0.115128 0.000000
O O14 0.000000 0.877637 0.000000
O O15 0.500000 0.777160 0.500000
#
# Coordination Sequence:
#
# PCOD9212701 Si02
#       7
#     8   4   4   8   8   8   8
#     4  12  22  41  64  92 131 167 202 259 321 376
#     4  11  23  32  59  90 135 163 210 249 302 381
#     4  11  22  33  56  99 124 174 208 248 299 377
#     4  11  26  43  63  92 130 167 207 264 323 372
#     4  10  21  43  67  94 116 161 222 265 309 369
#     4  11  20  37  63  91 129 165 210 254 314 373
#     4  10  22  40  69  92 122 165 216 258 309 366
#
# _framework density 20.511931000000001
#
# number of rings (size 3 to 8) (size 9 to 14) (size 15 to 20)
#    0.000    1.167    5.833    1.250    7.000    4.000 
#    0.000    0.000    0.000    0.000    0.000    0.000 
#    0.000    0.000    0.000    0.000    0.000    0.000 
#
# Total GULP energy -134077.098657 kJ/mol
# GULP energy per Si atom -5586.545777 kJ/mol
# Density = 2.046525 g / cm^3
# Si number density = 20.511931 Si / 1000 Ang^3
#
#
#
# Elastic Constant Matrix: (Units=GPa)
#
#
# Indices 1 2 3 4 5 6 
#
# 1 116.7329 0.9224 35.7939 0.0000 -13.4010 0.0000
# 2 0.9224 48.8561 9.9165 0.0000 4.4908 0.0000
# 3 35.7939 9.9165 119.8473 0.0000 -15.3487 0.0000
# 4 0.0000 0.0000 0.0000 40.6450 0.0000 -27.5229
# 5 -13.4010 4.4908 -15.3487 0.0000 26.2148 0.0000
# 6 0.0000 0.0000 0.0000 -27.5229 0.0000 57.1702
#
#
#
# Elastic Compliance Matrix: (Units=1/GPa)
#
#
# Indices 1 2 3 4 5 6 
#
# 1 0.009724 -0.000012 -0.002450 0.000000 0.003538 0.000000
# 2 -0.000012 0.021428 -0.002422 0.000000 -0.005095 0.000000
# 3 -0.002450 -0.002422 0.009912 0.000000 0.004966 0.000000
# 4 0.000000 0.000000 0.000000 0.036503 0.000000 0.017573
# 5 0.003538 -0.005095 0.004966 0.000000 0.043736 0.000000
# 6 0.000000 0.000000 0.000000 0.017573 0.000000 0.025952
#
#
# Mechanical properties :
#
#
# Convention : Reuss Voigt Hill
#
# Bulk Modulus (GPa) = 31.95174 42.07798 37.01486
# Shear Modulus (GPa) = 29.85875 40.72623 35.29249
#
# Velocity S-wave (km/s) = 3.81947 4.46072 4.15249
# Velocity P-wave (km/s) = 5.92133 6.86215 6.40903
#
# Compressibility (1/GPa) = 0.03129720
#
# Stress axis : x y z
#
# Youngs Moduli (GPa) = 102.83669 46.66693 100.88672
#
# Poissons Ratio (x) = 0.00054 0.24719
# Poissons Ratio (y) = 0.00118 0.24436
# Poissons Ratio (z) = 0.25196 0.11303
#
# Static dielectric constant tensor:
#      x y z
#    x 1.739100 0.000000 -0.000910 
#    y 0.000000 1.729690 0.000000 
#    z -0.000910 0.000000 1.738380 
# 
# From -- ./inp_files/73661.got.cif
#   From: 2010.05.17/outbox.cif.g08.bks.cpg/sg12_37_cif.got.tgz:73661.got - 2010.06.03 13:09:07.
