data_PCOD9212787
_publ_section_title
;
Structure prediction by ZEFSAII (Michael W. Deem and Ramdas Pophale) SiO2 
 PCOD9212787
Probable space group: C 2/M
;
_chemical_formula_sum "Si O2"
_cell_formula_units_Z 48
_cell_length_a 25.189082
_cell_length_b 13.988948
_cell_length_c 11.903704
_cell_angle_alpha 90.000000
_cell_angle_beta 149.112093
_cell_angle_gamma 90.000000
_cell_volume 2153.285697
_symmetry_space_group_name_H-M "C 2/M"
_symmetry_group_IT_number 12
_symmetry_cell_setting 'monoclinic'
loop_
_space_group_symop_operation_xyz
x,y,z
-x,y,-z
-x,-y,-z
x,-y,z
1/2+x,1/2+y,z
1/2-x,1/2+y,-z
1/2-x,1/2-y,-z
1/2+x,1/2-y,z
loop_
_atom_site_type_symbol
_atom_site_label
_atom_site_fract_x
_atom_site_fract_y
_atom_site_fract_z
Si Si1 0.186681 0.889688 0.955726
Si Si2 0.688634 0.885902 0.161580
Si Si3 0.081497 0.891362 0.010163
Si Si4 0.149822 0.763715 0.692086
Si Si5 0.967803 0.286150 0.738991
Si Si6 0.277819 0.113522 0.517079
O O1 0.133530 0.887637 0.981048
O O2 0.294297 0.832368 0.162646
O O3 0.200028 0.000000 0.947163
O O4 0.122443 0.830491 0.747313
O O5 0.763450 0.825497 0.217337
O O6 0.721461 0.865399 0.349727
O O7 0.696615 0.000000 0.156722
O O8 0.571204 0.849837 0.933221
O O9 0.170984 0.865286 0.260221
O O10 0.045663 0.000000 0.963750
O O11 0.993002 0.813369 0.846060
O O12 0.063665 0.735945 0.446029
O O13 0.872243 0.335972 0.626337
O O14 0.293653 0.000000 0.533714
#
# Coordination Sequence:
#
# PCOD9212787 Si02
#       6
#     8   8   8   8   8   8
#     4  10  21  44  68  87 125 172 211 256 319 383
#     4  11  24  42  64  96 131 166 211 262 314 374
#     4  10  22  42  65  92 126 172 214 256 314 378
#     4  11  24  41  66  95 127 164 213 265 319 369
#     4  12  22  38  63  99 126 162 211 260 311 374
#     4  10  22  42  66  91 129 173 210 254 315 377
#
# _framework density 22.291513999999999
#
# number of rings (size 3 to 8) (size 9 to 14) (size 15 to 20)
#    0.000    1.333    3.333    1.500    0.000    8.000 
#    0.000    1.667    0.000    9.000    0.000    0.000 
#    0.000    0.000    0.000    0.000    0.000    0.000 
#
# Total GULP energy -134494.850465 kJ/mol
# GULP energy per Si atom -5603.952103 kJ/mol
# Density = 2.224078 g / cm^3
# Si number density = 22.291514 Si / 1000 Ang^3
#
#
#
# Elastic Constant Matrix: (Units=GPa)
#
#
# Indices 1 2 3 4 5 6 
#
# 1 82.6107 38.2835 45.1857 0.0000 -21.1005 0.0000
# 2 38.2835 110.3605 30.9070 0.0000 -6.4737 0.0000
# 3 45.1857 30.9070 122.0746 0.0000 -34.2342 0.0000
# 4 0.0000 0.0000 0.0000 36.1724 0.0000 -3.4460
# 5 -21.1005 -6.4737 -34.2342 0.0000 18.1658 0.0000
# 6 0.0000 0.0000 0.0000 -3.4460 0.0000 19.3536
#
#
#
# Elastic Compliance Matrix: (Units=1/GPa)
#
#
# Indices 1 2 3 4 5 6 
#
# 1 0.020267 -0.005764 -0.000035 0.000000 0.021420 0.000000
# 2 -0.005764 0.011446 -0.003177 0.000000 -0.008604 0.000000
# 3 -0.000035 -0.003177 0.018409 0.000000 0.033520 0.000000
# 4 0.000000 0.000000 0.000000 0.028122 0.000000 0.005007
# 5 0.021420 -0.008604 0.033520 0.000000 0.140033 0.000000
# 6 0.000000 0.000000 0.000000 0.005007 0.000000 0.052561
#
#
# Mechanical properties :
#
#
# Convention : Reuss Voigt Hill
#
# Bulk Modulus (GPa) = 31.08592 60.42202 45.75397
# Shear Modulus (GPa) = 16.69368 28.11632 22.40500
#
# Velocity S-wave (km/s) = 2.73954 3.55533 3.17376
# Velocity P-wave (km/s) = 4.89716 6.63461 5.83096
#
# Compressibility (1/GPa) = 0.03216891
#
# Stress axis : x y z
#
# Youngs Moduli (GPa) = 49.34225 87.36833 54.32001
#
# Poissons Ratio (x) = 0.50359 0.00192
# Poissons Ratio (y) = 0.28441 0.17258
# Poissons Ratio (z) = 0.00174 0.27758
#
# Static dielectric constant tensor:
#      x y z
#    x 1.823450 0.000000 -0.023670 
#    y 0.000000 1.812520 0.000000 
#    z -0.023670 0.000000 1.786970 
# 
# From -- ./inp_files/183889.got.cif
#   From: 2010.05.17/outbox.cif.g08.bks.cpg/sg12_92_cif.got.tgz:183889.got - 2010.06.03 13:09:07.
