data_PCOD9212620
_publ_section_title
;
Structure prediction by ZEFSAII (Michael W. Deem and Ramdas Pophale) SiO2 
 PCOD9212620
Probable space group: C 2/M
;
_chemical_formula_sum "Si O2"
_cell_formula_units_Z 48
_cell_length_a 21.530122
_cell_length_b 16.579772
_cell_length_c 18.290278
_cell_angle_alpha 90.000000
_cell_angle_beta 19.706757
_cell_angle_gamma 90.000000
_cell_volume 2201.613160
_symmetry_space_group_name_H-M "C 2/M"
_symmetry_group_IT_number 12
_symmetry_cell_setting 'monoclinic'
loop_
_space_group_symop_operation_xyz
x,y,z
-x,y,-z
-x,-y,-z
x,-y,z
1/2+x,1/2+y,z
1/2-x,1/2+y,-z
1/2-x,1/2-y,-z
1/2+x,1/2-y,z
loop_
_atom_site_type_symbol
_atom_site_label
_atom_site_fract_x
_atom_site_fract_y
_atom_site_fract_z
Si Si1 0.420100 0.150134 0.463080
Si Si2 0.357473 0.361078 0.723759
Si Si3 0.533889 0.090104 0.877142
Si Si4 0.249278 0.675023 0.188428
Si Si5 0.114399 0.824237 0.566860
Si Si6 0.911834 0.092215 0.249313
O O1 0.623217 0.128964 0.267294
O O2 0.320729 0.166158 0.651242
O O3 0.422171 0.230913 0.411261
O O4 0.292202 0.091278 0.559063
O O5 0.500000 0.380150 0.500000
O O6 0.287286 0.268732 0.789947
O O7 0.474456 0.369109 0.667360
O O8 0.167904 0.408858 0.934030
O O9 0.677275 0.153224 0.686108
O O10 0.614500 0.000000 0.781196
O O11 0.500000 0.108050 0.000000
O O12 0.451681 0.639845 0.955998
O O13 0.085854 0.854865 0.679850
O O14 0.970370 0.000000 0.196783
#
# Coordination Sequence:
#
# PCOD9212620 Si02
#       6
#     8   8   8   8   8   8
#     4  10  21  42  70  93 120 167 224 274 312 368
#     4  11  20  40  68  94 121 161 216 276 318 366
#     4  11  22  34  57  90 126 169 212 258 314 378
#     4  10  21  42  69  97 120 161 224 273 318 369
#     4  11  23  43  64  93 130 169 214 266 318 380
#     4  12  27  41  61  96 141 176 204 255 328 397
#
# _framework density 21.802195000000001
#
# number of rings (size 3 to 8) (size 9 to 14) (size 15 to 20)
#    0.000    1.167    5.000    2.500    0.000    7.667 
#    0.000    1.667    0.000    0.000    0.000    0.000 
#    0.000    0.000    0.000    0.000    0.000    0.000 
#
# Total GULP energy -134084.778353 kJ/mol
# GULP energy per Si atom -5586.865765 kJ/mol
# Density = 2.175257 g / cm^3
# Si number density = 21.802195 Si / 1000 Ang^3
#
#
#
# Elastic Constant Matrix: (Units=GPa)
#
#
# Indices 1 2 3 4 5 6 
#
# 1 97.0725 15.6953 2.4077 0.0017 -10.2681 0.0206
# 2 15.6953 46.7158 10.3072 0.0029 6.1466 0.0313
# 3 2.4077 10.3072 37.2673 -0.0038 -25.0977 0.0252
# 4 0.0017 0.0029 -0.0038 14.3873 0.0059 -12.6243
# 5 -10.2681 6.1466 -25.0977 0.0059 26.9659 -0.0070
# 6 0.0206 0.0313 0.0252 -12.6243 -0.0070 -34.5346
#
#
#
# Elastic Compliance Matrix: (Units=1/GPa)
#
#
# Indices 1 2 3 4 5 6 
#
# 1 0.015681 -0.015348 0.025747 0.000001 0.033433 0.000007
# 2 -0.015348 0.052274 -0.068129 0.000008 -0.081168 0.000002
# 3 0.025747 -0.068129 0.163644 0.000011 0.177640 0.000033
# 4 0.000001 0.000008 0.000011 0.052625 -0.000008 -0.019238
# 5 0.033433 -0.081168 0.177640 -0.000008 0.233649 0.000032
# 6 0.000007 0.000002 0.000033 -0.019238 0.000032 -0.021924
#
#
# Mechanical properties :
#
#
# Convention : Reuss Voigt Hill
#
# Bulk Modulus (GPa) = 8.61033 26.43063 17.52048
# Shear Modulus (GPa) = 7.69086 11.54010 9.61548
#
# Velocity S-wave (km/s) = 1.88022 2.30317 2.10236
# Velocity P-wave (km/s) = 2.94474 4.38429 3.73454
#
# Compressibility (1/GPa) = 0.11613950
#
# Stress axis : x y z
#
# Youngs Moduli (GPa) = 63.77169 19.13005 6.11081
#
# Poissons Ratio (x) = 0.29361 -0.15733
# Poissons Ratio (y) = 0.97876 0.41632
# Poissons Ratio (z) = -1.64193 1.30331
#
# Static dielectric constant tensor:
#      x y z
#    x 1.787380 0.000000 -0.025080 
#    y 0.000000 1.791120 0.000010 
#    z -0.025080 0.000010 1.807770 
# 
# From -- ./inp_files/285349.got.cif
#   From: 2010.05.17/outbox.cif.g08.bks.cpg/sg12_143_cif.got.tgz:285349.got - 2010.06.03 13:09:07.
