data_PCOD9212471
_publ_section_title
;
Structure prediction by ZEFSAII (Michael W. Deem and Ramdas Pophale) SiO2 
 PCOD9212471
Probable space group: C 2/M
;
_chemical_formula_sum "Si O2"
_cell_formula_units_Z 44
_cell_length_a 19.653583
_cell_length_b 20.766552
_cell_length_c 6.416255
_cell_angle_alpha 90.000000
_cell_angle_beta 49.837888
_cell_angle_gamma 90.000000
_cell_volume 2001.279151
_symmetry_space_group_name_H-M "C 2/M"
_symmetry_group_IT_number 12
_symmetry_cell_setting 'monoclinic'
loop_
_space_group_symop_operation_xyz
x,y,z
-x,y,-z
-x,-y,-z
x,-y,z
1/2+x,1/2+y,z
1/2-x,1/2+y,-z
1/2-x,1/2-y,-z
1/2+x,1/2-y,z
loop_
_atom_site_type_symbol
_atom_site_label
_atom_site_fract_x
_atom_site_fract_y
_atom_site_fract_z
Si Si1 0.576673 0.424644 0.520247
Si Si2 0.700343 0.843963 0.562817
Si Si3 0.100622 0.678098 0.375915
Si Si4 0.655688 0.728479 0.949897
Si Si5 0.500000 0.670749 0.000000
Si Si6 0.719069 0.074199 0.904052
O O1 0.500000 0.412834 0.500000
O O2 0.569198 0.500000 0.598774
O O3 0.560686 0.375875 0.740019
O O4 0.677232 0.415119 0.242625
O O5 0.613201 0.833607 0.595061
O O6 0.697945 0.788989 0.743805
O O7 0.779313 0.829405 0.242965
O O8 0.710209 0.908449 0.675452
O O9 0.000000 0.677262 0.500000
O O10 0.141930 0.746170 0.211838
O O11 0.153466 0.620494 0.158698
O O12 0.561062 0.712100 0.033594
O O13 0.697681 0.000000 0.983994
#
# Coordination Sequence:
#
# PCOD9212471 Si02
#       6
#     8   8   8   8   4   8
#     4  10  23  40  60  91 128 161 202 251 302 370
#     4  10  21  42  62  85 124 164 203 257 311 364
#     4  11  24  41  62  91 123 163 210 260 309 363
#     4  10  22  37  60  91 123 159 206 251 305 372
#     4  12  21  36  64  94 119 164 198 248 310 376
#     4  10  23  43  65  92 124 162 209 257 307 367
#
# _framework density 21.985938000000001
#
# number of rings (size 3 to 8) (size 9 to 14) (size 15 to 20)
#    0.000    1.636    1.818    1.909    2.545    5.455 
#    0.000    0.909    0.000    0.000    0.000    0.000 
#    0.000    0.000    0.000    0.000    0.000    0.000 
#
# Total GULP energy -122975.687852 kJ/mol
# GULP energy per Si atom -5589.803993 kJ/mol
# Density = 2.193590 g / cm^3
# Si number density = 21.985938 Si / 1000 Ang^3
#
#
#
# Elastic Constant Matrix: (Units=GPa)
#
#
# Indices 1 2 3 4 5 6 
#
# 1 103.0776 -2.1799 8.1250 0.0000 3.0209 0.0000
# 2 -2.1799 64.8294 31.2220 0.0000 1.4084 0.0000
# 3 8.1250 31.2220 52.1994 0.0000 0.3961 0.0000
# 4 0.0000 0.0000 0.0000 22.1067 0.0000 -1.6454
# 5 3.0209 1.4084 0.3961 0.0000 33.7429 0.0000
# 6 0.0000 0.0000 0.0000 -1.6454 0.0000 16.4721
#
#
#
# Elastic Compliance Matrix: (Units=1/GPa)
#
#
# Indices 1 2 3 4 5 6 
#
# 1 0.009955 0.001542 -0.002465 0.000000 -0.000927 0.000000
# 2 0.001542 0.021924 -0.013347 0.000000 -0.000897 0.000000
# 3 -0.002465 -0.013347 0.027521 0.000000 0.000455 0.000000
# 4 0.000000 0.000000 0.000000 0.045574 0.000000 0.004552
# 5 -0.000927 -0.000897 0.000455 0.000000 0.029751 0.000000
# 6 0.000000 0.000000 0.000000 0.004552 0.000000 0.061163
#
#
# Mechanical properties :
#
#
# Convention : Reuss Voigt Hill
#
# Bulk Modulus (GPa) = 32.40330 32.71562 32.55946
# Shear Modulus (GPa) = 21.30244 26.66031 23.98137
#
# Velocity S-wave (km/s) = 3.11611 3.48603 3.30625
# Velocity P-wave (km/s) = 5.26470 5.57815 5.42369
#
# Compressibility (1/GPa) = 0.03086106
#
# Stress axis : x y z
#
# Youngs Moduli (GPa) = 100.44711 45.61158 36.33635
#
# Poissons Ratio (x) = -0.07033 0.08956
# Poissons Ratio (y) = -0.15489 0.48497
# Poissons Ratio (z) = 0.24759 0.60877
#
# Static dielectric constant tensor:
#      x y z
#    x 1.854230 0.000000 0.002660 
#    y 0.000000 1.771910 0.000000 
#    z 0.002660 0.000000 1.824750 
# 
# From -- ./inp_files/16821.got.cif
#   From: 2010.05.17/outbox.cif.g08.bks.cpg/sg12_9_cif.got.tgz:16821.got - 2010.06.03 13:09:07.
