data_PCOD9212379
_publ_section_title
;
Structure prediction by ZEFSAII (Michael W. Deem and Ramdas Pophale) SiO2 
 PCOD9212379
Probable space group: C 2/M
;
_chemical_formula_sum "Si O2"
_cell_formula_units_Z 32
_cell_length_a 10.338111
_cell_length_b 26.111077
_cell_length_c 7.420355
_cell_angle_alpha 90.000000
_cell_angle_beta 41.866432
_cell_angle_gamma 90.000000
_cell_volume 1336.824817
_symmetry_space_group_name_H-M "C 2/M"
_symmetry_group_IT_number 12
_symmetry_cell_setting 'monoclinic'
loop_
_space_group_symop_operation_xyz
x,y,z
-x,y,-z
-x,-y,-z
x,-y,z
1/2+x,1/2+y,z
1/2-x,1/2+y,-z
1/2-x,1/2-y,-z
1/2+x,1/2-y,z
loop_
_atom_site_type_symbol
_atom_site_label
_atom_site_fract_x
_atom_site_fract_y
_atom_site_fract_z
Si Si1 0.890442 0.887835 0.941122
Si Si2 0.852284 0.303938 0.908353
Si Si3 0.471151 0.055377 0.817636
Si Si4 0.218614 0.345283 0.610655
O O1 0.750869 0.929784 0.996233
O O2 0.742755 0.841588 0.139158
O O3 0.000000 0.909508 0.000000
O O4 0.059741 0.858638 0.655640
O O5 0.805971 0.332518 0.149404
O O6 0.750000 0.250000 0.000000
O O7 0.085212 0.300694 0.662190
O O8 0.608917 0.104108 0.643749
O O9 0.522811 0.000000 0.682785
O O10 0.500000 0.050393 0.000000
#
# Coordination Sequence:
#
# PCOD9212379 Si02
#       4
#     8   8   8   8
#     4  11  24  41  63  96 134 170 216 273 326 385
#     4  10  22  40  63  91 123 168 221 266 323 386
#     4  10  21  41  68  97 130 171 218 266 327 396
#     4  10  21  44  65  91 134 171 216 271 321 393
#
# _framework density 23.937317
#
# number of rings (size 3 to 8) (size 9 to 14) (size 15 to 20)
#    0.000    1.750    5.000    0.750    3.500    6.500 
#    4.500    3.750    0.000    0.000    0.000    0.000 
#    0.000    0.000    0.000    0.000    0.000    0.000 
#
# Total GULP energy -89122.008585 kJ/mol
# GULP energy per Si atom -5570.125537 kJ/mol
# Density = 2.388283 g / cm^3
# Si number density = 23.937317 Si / 1000 Ang^3
#
#
#
# Elastic Constant Matrix: (Units=GPa)
#
#
# Indices 1 2 3 4 5 6 
#
# 1 192.3598 54.1986 47.9008 0.0000 -37.3145 0.0000
# 2 54.1986 134.3563 5.1503 0.0000 -15.7689 0.0000
# 3 47.9008 5.1503 93.3572 0.0000 -10.2794 0.0000
# 4 0.0000 0.0000 0.0000 12.1911 0.0000 -23.8407
# 5 -37.3145 -15.7689 -10.2794 0.0000 39.5445 0.0000
# 6 0.0000 0.0000 0.0000 -23.8407 0.0000 63.1501
#
#
#
# Elastic Compliance Matrix: (Units=1/GPa)
#
#
# Indices 1 2 3 4 5 6 
#
# 1 0.007737 -0.002349 -0.003232 0.000000 0.005524 0.000000
# 2 -0.002349 0.008522 0.000891 0.000000 0.001414 0.000000
# 3 -0.003232 0.000891 0.012378 0.000000 0.000523 0.000000
# 4 0.000000 0.000000 0.000000 0.313418 0.000000 0.118323
# 5 0.005524 0.001414 0.000523 0.000000 0.031200 0.000000
# 6 0.000000 0.000000 0.000000 0.118323 0.000000 0.060505
#
#
# Mechanical properties :
#
#
# Convention : Reuss Voigt Hill
#
# Bulk Modulus (GPa) = 51.92887 70.50808 61.21848
# Shear Modulus (GPa) = 11.12203 43.83204 27.47703
#
# Velocity S-wave (km/s) = 2.15787 4.28380 3.39171
# Velocity P-wave (km/s) = 5.28671 7.34759 6.40064
#
# Compressibility (1/GPa) = 0.01925711
#
# Stress axis : x y z
#
# Youngs Moduli (GPa) = 129.25517 117.34165 80.78691
#
# Poissons Ratio (x) = 0.27560 0.26109
# Poissons Ratio (y) = 0.30359 -0.07195
# Poissons Ratio (z) = 0.41773 -0.10451
#
# Static dielectric constant tensor:
#      x y z
#    x 1.978480 0.000000 0.054110 
#    y 0.000000 1.944570 0.000000 
#    z 0.054110 0.000000 2.034480 
# 
# From -- ./inp_files/51813.got.cif
#   From: 2010.05.17/outbox.cif.g08.bks.cpg/sg12_26_cif.got.tgz:51813.got - 2010.06.03 13:09:07.
