data_PCOD9212576
_publ_section_title
;
Structure prediction by ZEFSAII (Michael W. Deem and Ramdas Pophale) SiO2 
 PCOD9212576
Probable space group: C 2/M
;
_chemical_formula_sum "Si O2"
_cell_formula_units_Z 44
_cell_length_a 11.766795
_cell_length_b 20.862516
_cell_length_c 12.206224
_cell_angle_alpha 90.000000
_cell_angle_beta 39.761022
_cell_angle_gamma 90.000000
_cell_volume 1916.486482
_symmetry_space_group_name_H-M "C 2/M"
_symmetry_group_IT_number 12
_symmetry_cell_setting 'monoclinic'
loop_
_space_group_symop_operation_xyz
x,y,z
-x,y,-z
-x,-y,-z
x,-y,z
1/2+x,1/2+y,z
1/2-x,1/2+y,-z
1/2-x,1/2-y,-z
1/2+x,1/2-y,z
loop_
_atom_site_type_symbol
_atom_site_label
_atom_site_fract_x
_atom_site_fract_y
_atom_site_fract_z
Si Si1 0.223102 0.573054 0.572138
Si Si2 0.500926 0.654002 0.760062
Si Si3 0.197900 0.369105 0.825979
Si Si4 0.500000 0.393119 0.000000
Si Si5 0.883611 0.745621 0.692796
Si Si6 0.112704 0.406711 0.307765
O O1 0.285902 0.500000 0.513479
O O2 0.320420 0.620445 0.414937
O O3 0.255847 0.599242 0.669376
O O4 0.014234 0.575167 0.698367
O O5 0.340326 0.617423 0.816089
O O6 0.481810 0.647730 0.902542
O O7 0.483218 0.725764 0.725704
O O8 0.213075 0.291435 0.806810
O O9 0.000000 0.389296 0.000000
O O10 0.314264 0.430443 0.152445
O O11 0.863482 0.670345 0.711344
O O12 0.000000 0.761212 0.500000
O O13 0.000000 0.424538 0.500000
#
# Coordination Sequence:
#
# PCOD9212576 Si02
#       6
#     8   8   8   4   8   8
#     4  12  25  46  71  95 135 184 236 285 335 401
#     4  10  22  43  64 102 134 178 223 279 344 403
#     4  10  21  42  68 105 139 170 225 287 349 406
#     4  12  24  44  67 100 140 176 233 272 342 416
#     4   9  20  41  68 102 135 173 220 284 348 414
#     4  11  25  43  70 101 137 187 222 283 347 405
#
# _framework density 22.958679
#
# number of rings (size 3 to 8) (size 9 to 14) (size 15 to 20)
#    1.091    0.364    3.636    1.636    1.273    5.091 
#    0.000    3.636    0.000    0.000    0.000    0.000 
#    0.000    0.000    0.000    0.000    0.000    0.000 
#
# Total GULP energy -122902.430116 kJ/mol
# GULP energy per Si atom -5586.474096 kJ/mol
# Density = 2.290642 g / cm^3
# Si number density = 22.958679 Si / 1000 Ang^3
#
#
#
# Elastic Constant Matrix: (Units=GPa)
#
#
# Indices 1 2 3 4 5 6 
#
# 1 145.0622 13.3692 50.7698 0.0023 11.5713 -0.0029
# 2 13.3692 89.1559 22.2193 0.0006 5.2813 -0.0007
# 3 50.7698 22.2193 133.2442 0.0037 1.1873 -0.0040
# 4 0.0023 0.0006 0.0037 -6.1599 -0.0021 -41.7011
# 5 11.5713 5.2813 1.1873 -0.0021 58.9546 0.0025
# 6 -0.0029 -0.0007 -0.0040 -41.7011 0.0025 -18.5281
#
#
#
# Elastic Compliance Matrix: (Units=1/GPa)
#
#
# Indices 1 2 3 4 5 6 
#
# 1 0.008101 -0.000376 -0.003011 0.000000 -0.001496 0.000000
# 2 -0.000376 0.011780 -0.001813 0.000000 -0.000945 0.000000
# 3 -0.003011 -0.001813 0.008949 -0.000001 0.000573 0.000001
# 4 0.000000 0.000000 -0.000001 0.011403 0.000002 -0.025665
# 5 -0.001496 -0.000945 0.000573 0.000002 0.017329 -0.000001
# 6 0.000000 0.000000 0.000001 -0.025665 -0.000001 0.003791
#
#
# Mechanical properties :
#
#
# Convention : Reuss Voigt Hill
#
# Bulk Modulus (GPa) = 54.25305 60.01989 57.13647
# Shear Modulus (GPa) = 64.18721 25.59359 44.89040
#
# Velocity S-wave (km/s) = 5.29324 3.34244 4.42664
# Velocity P-wave (km/s) = 7.81280 6.41055 7.14616
#
# Compressibility (1/GPa) = 0.01843214
#
# Stress axis : x y z
#
# Youngs Moduli (GPa) = 123.43712 84.88649 111.73916
#
# Poissons Ratio (x) = 0.03191 0.33643
# Poissons Ratio (y) = 0.04639 0.20256
# Poissons Ratio (z) = 0.37165 0.15388
#
# Static dielectric constant tensor:
#      x y z
#    x 1.868020 0.000000 -0.032550 
#    y 0.000000 1.835230 0.000000 
#    z -0.032550 0.000000 1.844140 
# 
# From -- ./inp_files/135750.got.cif
#   From: 2010.05.17/outbox.cif.g08.bks.cpg/sg12_68_cif.got.tgz:135750.got - 2010.06.03 13:09:07.
