data_PCOD9212387
_publ_section_title
;
Structure prediction by ZEFSAII (Michael W. Deem and Ramdas Pophale) SiO2 
 PCOD9212387
Probable space group: C 2/M
;
_chemical_formula_sum "Si O2"
_cell_formula_units_Z 40
_cell_length_a 14.288183
_cell_length_b 17.457607
_cell_length_c 10.317389
_cell_angle_alpha 90.000000
_cell_angle_beta 133.283018
_cell_angle_gamma 90.000000
_cell_volume 1873.477930
_symmetry_space_group_name_H-M "C 2/M"
_symmetry_group_IT_number 12
_symmetry_cell_setting 'monoclinic'
loop_
_space_group_symop_operation_xyz
x,y,z
-x,y,-z
-x,-y,-z
x,-y,z
1/2+x,1/2+y,z
1/2-x,1/2+y,-z
1/2-x,1/2-y,-z
1/2+x,1/2-y,z
loop_
_atom_site_type_symbol
_atom_site_label
_atom_site_fract_x
_atom_site_fract_y
_atom_site_fract_z
Si Si1 0.851909 0.590372 0.856563
Si Si2 0.760636 0.412669 0.063027
Si Si3 0.026663 0.298128 0.666784
Si Si4 0.499302 0.664421 0.851527
Si Si5 0.765600 0.341462 0.514413
O O1 0.855448 0.500000 0.829396
O O2 0.773078 0.630527 0.668484
O O3 0.791321 0.599821 0.940063
O O4 0.000000 0.617673 0.000000
O O5 0.796472 0.500000 0.129771
O O6 0.845559 0.348831 0.214964
O O7 0.611732 0.397276 0.946417
O O8 0.031657 0.233027 0.781652
O O9 0.000000 0.263654 0.500000
O O10 0.906183 0.353808 0.586593
O O11 0.359694 0.630891 0.680919
O O12 0.500000 0.693159 0.000000
O O13 0.750000 0.250000 0.500000
#
# Coordination Sequence:
#
# PCOD9212387 Si02
#       5
#     8   8   8   8   8
#     4  10  21  41  69 100 133 178 225 278 331 400
#     4  11  25  43  69 100 138 181 225 274 340 406
#     4  11  24  42  70 102 132 177 231 283 335 395
#     4  11  26  44  68 101 139 182 221 279 343 399
#     4  10  23  37  65  97 135 170 223 274 334 389
#
# _framework density 21.350664999999999
#
# number of rings (size 3 to 8) (size 9 to 14) (size 15 to 20)
#    0.000    1.400    2.000    1.800   11.200    1.600 
#    0.000    4.000    0.000    0.000    0.000    0.000 
#    0.000    0.000    0.000    0.000    0.000    0.000 
#
# Total GULP energy -111813.108468 kJ/mol
# GULP energy per Si atom -5590.655423 kJ/mol
# Density = 2.130207 g / cm^3
# Si number density = 21.350665 Si / 1000 Ang^3
#
#
#
# Elastic Constant Matrix: (Units=GPa)
#
#
# Indices 1 2 3 4 5 6 
#
# 1 51.7717 3.9546 13.3400 0.0000 6.3711 0.0000
# 2 3.9546 46.4966 35.7788 0.0000 -17.1707 0.0000
# 3 13.3400 35.7788 134.2177 0.0000 -10.2879 0.0000
# 4 0.0000 0.0000 0.0000 23.1236 0.0000 -3.7050
# 5 6.3711 -17.1707 -10.2879 0.0000 53.1644 0.0000
# 6 0.0000 0.0000 0.0000 -3.7050 0.0000 27.2634
#
#
#
# Elastic Compliance Matrix: (Units=1/GPa)
#
#
# Indices 1 2 3 4 5 6 
#
# 1 0.020316 -0.001500 -0.001871 0.000000 -0.003281 0.000000
# 2 -0.001500 0.030428 -0.007303 0.000000 0.008594 0.000000
# 3 -0.001871 -0.007303 0.009562 0.000000 -0.000284 0.000000
# 4 0.000000 0.000000 0.000000 0.044208 0.000000 0.006008
# 5 -0.003281 0.008594 -0.000284 0.000000 0.021923 0.000000
# 6 0.000000 0.000000 0.000000 0.006008 0.000000 0.037496
#
#
# Mechanical properties :
#
#
# Convention : Reuss Voigt Hill
#
# Bulk Modulus (GPa) = 25.66926 37.62586 31.64756
# Shear Modulus (GPa) = 25.21844 32.67112 28.94478
#
# Velocity S-wave (km/s) = 3.44052 3.91604 3.68596
# Velocity P-wave (km/s) = 5.27558 6.17319 5.74195
#
# Compressibility (1/GPa) = 0.03895711
#
# Stress axis : x y z
#
# Youngs Moduli (GPa) = 49.22228 32.86432 104.58451
#
# Poissons Ratio (x) = 0.04930 0.19566
# Poissons Ratio (y) = 0.07383 0.76383
# Poissons Ratio (z) = 0.09209 0.24002
#
# Static dielectric constant tensor:
#      x y z
#    x 1.801640 0.000000 0.015510 
#    y 0.000000 1.743350 0.000000 
#    z 0.015510 0.000000 1.787870 
# 
# From -- ./inp_files/63801.got.cif
#   From: 2010.05.17/outbox.cif.g08.bks.cpg/sg12_32_cif.got.tgz:63801.got - 2010.06.03 13:09:07.
