data_PCOD9212776
_publ_section_title
;
Structure prediction by ZEFSAII (Michael W. Deem and Ramdas Pophale) SiO2 
 PCOD9212776
Probable space group: C 2/M
;
_chemical_formula_sum "Si O2"
_cell_formula_units_Z 58
_cell_length_a 17.674943
_cell_length_b 29.488578
_cell_length_c 12.044790
_cell_angle_alpha 90.000000
_cell_angle_beta 150.999259
_cell_angle_gamma 90.000000
_cell_volume 3043.634138
_symmetry_space_group_name_H-M "C 2/M"
_symmetry_group_IT_number 12
_symmetry_cell_setting 'monoclinic'
loop_
_space_group_symop_operation_xyz
x,y,z
-x,y,-z
-x,-y,-z
x,-y,z
1/2+x,1/2+y,z
1/2-x,1/2+y,-z
1/2-x,1/2-y,-z
1/2+x,1/2-y,z
loop_
_atom_site_type_symbol
_atom_site_label
_atom_site_fract_x
_atom_site_fract_y
_atom_site_fract_z
Si Si1 0.046929 0.420689 0.873770
Si Si2 0.859223 0.658063 0.517709
Si Si3 0.111136 0.883132 0.040510
Si Si4 0.334427 0.162219 0.851796
Si Si5 0.150871 0.552834 0.763767
Si Si6 0.500000 0.000000 0.000000
Si Si7 0.897916 0.727675 0.132393
Si Si8 0.388356 0.314102 0.629668
O O1 0.118067 0.440339 0.851685
O O2 0.909344 0.386888 0.652153
O O3 0.001006 0.459589 0.902510
O O4 0.166444 0.385894 0.086469
O O5 0.751922 0.644812 0.277621
O O6 0.751098 0.687953 0.460004
O O7 0.012401 0.687295 0.687104
O O8 0.194823 0.922035 0.078879
O O9 0.000000 0.898729 0.000000
O O10 0.007873 0.851200 0.830494
O O11 0.192415 0.169703 0.586877
O O12 0.500000 0.162657 0.000000
O O13 0.342615 0.202900 0.949688
O O14 0.166281 0.500000 0.758668
O O15 0.000000 0.569846 0.500000
O O16 0.020115 0.767573 0.266371
O O17 0.750000 0.750000 0.000000
#
# Coordination Sequence:
#
# PCOD9212776 Si02
#       8
#     8   8   8   8   8   2   8   8
#     4  11  21  40  69 102 133 168 224 279 332 391
#     4  10  21  44  66  93 134 175 220 271 331 391
#     4  10  24  41  69  97 135 181 221 270 335 404
#     4  11  23  43  69  91 131 174 221 278 328 394
#     4  11  23  41  70 103 139 172 218 280 338 398
#     4  12  20  36  70 112 126 168 228 276 320 422
#     4  11  26  40  62  97 129 172 223 278 328 388
#     4  11  23  42  67  94 126 180 223 269 328 398
#
# _framework density 19.056168
#
# number of rings (size 3 to 8) (size 9 to 14) (size 15 to 20)
#    0.000    1.241    5.517    0.414    5.793    1.379 
#    0.000    0.000    9.103    0.828    0.000    0.000 
#    0.000    0.000    0.000    0.000    0.000    0.000 
#
# Total GULP energy -161664.563672 kJ/mol
# GULP energy per Si atom -5574.640127 kJ/mol
# Density = 1.901279 g / cm^3
# Si number density = 19.056168 Si / 1000 Ang^3
#
#
#
# Elastic Constant Matrix: (Units=GPa)
#
#
# Indices 1 2 3 4 5 6 
#
# 1 77.1516 43.4004 53.6069 0.0000 -4.8349 0.0000
# 2 43.4004 101.4132 63.4657 0.0000 5.3904 0.0000
# 3 53.6069 63.4657 133.1479 0.0000 -13.3693 0.0000
# 4 0.0000 0.0000 0.0000 21.5114 0.0000 1.5132
# 5 -4.8349 5.3904 -13.3693 0.0000 29.9911 0.0000
# 6 0.0000 0.0000 0.0000 1.5132 0.0000 37.5320
#
#
#
# Elastic Compliance Matrix: (Units=1/GPa)
#
#
# Indices 1 2 3 4 5 6 
#
# 1 0.019656 -0.005222 -0.005247 0.000000 0.001768 0.000000
# 2 -0.005222 0.016463 -0.006413 0.000000 -0.006660 0.000000
# 3 -0.005247 -0.006413 0.013306 0.000000 0.006238 0.000000
# 4 0.000000 0.000000 0.000000 0.046619 0.000000 -0.001880
# 5 0.001768 -0.006660 0.006238 0.000000 0.037606 0.000000
# 6 0.000000 0.000000 0.000000 -0.001880 0.000000 0.026720
#
#
# Mechanical properties :
#
#
# Convention : Reuss Voigt Hill
#
# Bulk Modulus (GPa) = 63.85652 70.29538 67.07595
# Shear Modulus (GPa) = 25.08086 27.88954 26.48520
#
# Velocity S-wave (km/s) = 3.63182 3.82978 3.73211
# Velocity P-wave (km/s) = 7.15327 7.51830 7.33805
#
# Compressibility (1/GPa) = 0.01566011
#
# Stress axis : x y z
#
# Youngs Moduli (GPa) = 50.87606 60.74184 75.15252
#
# Poissons Ratio (x) = 0.31721 0.39431
# Poissons Ratio (y) = 0.26569 0.48198
# Poissons Ratio (z) = 0.26694 0.38956
#
# Static dielectric constant tensor:
#      x y z
#    x 1.681410 0.000000 -0.006570 
#    y 0.000000 1.660990 0.000000 
#    z -0.006570 0.000000 1.670300 
# 
# From -- ./inp_files/161102.got.cif
#   From: 2010.05.17/outbox.cif.g08.bks.cpg/sg12_81_cif.got.tgz:161102.got - 2010.06.03 13:09:07.
