data_PCOD9212811
_publ_section_title
;
Structure prediction by ZEFSAII (Michael W. Deem and Ramdas Pophale) SiO2 
 PCOD9212811
Probable space group: C 2/M
;
_chemical_formula_sum "Si O2"
_cell_formula_units_Z 36
_cell_length_a 13.751229
_cell_length_b 21.441284
_cell_length_c 13.871513
_cell_angle_alpha 90.000000
_cell_angle_beta 159.161799
_cell_angle_gamma 90.000000
_cell_volume 1454.912342
_symmetry_space_group_name_H-M "C 2/M"
_symmetry_group_IT_number 12
_symmetry_cell_setting 'monoclinic'
loop_
_space_group_symop_operation_xyz
x,y,z
-x,y,-z
-x,-y,-z
x,-y,z
1/2+x,1/2+y,z
1/2-x,1/2+y,-z
1/2-x,1/2-y,-z
1/2+x,1/2-y,z
loop_
_atom_site_type_symbol
_atom_site_label
_atom_site_fract_x
_atom_site_fract_y
_atom_site_fract_z
Si Si1 0.500000 0.222365 0.500000
Si Si2 0.796894 0.500000 0.224581
Si Si3 0.031571 0.872919 0.727901
Si Si4 0.805955 0.869906 0.912805
Si Si5 0.934426 0.675481 0.838286
Si Si6 0.292758 0.500000 0.217164
O O1 0.404883 0.181827 0.319719
O O2 0.243676 0.264901 0.295340
O O3 0.840153 0.436453 0.207858
O O4 0.000000 0.500000 0.500000
O O5 0.500000 0.500000 0.000000
O O6 0.757627 0.859868 0.414749
O O7 0.148015 0.939005 0.795627
O O8 0.009554 0.865900 0.821733
O O9 0.262113 0.819676 0.921317
O O10 0.000000 0.874135 0.000000
O O11 0.000000 0.641357 0.000000
O O12 0.500000 0.500000 0.500000
O O13 0.000000 0.500000 0.000000
#
# Coordination Sequence:
#
# PCOD9212811 Si02
#       6
#     4   4   8   8   8   4
#     4  12  26  47  76 101 156 194 262 298 380 416
#     4  10  21  44  73  98 143 183 227 294 367 420
#     4  12  27  46  79 110 151 195 248 301 387 435
#     4  11  27  48  74 114 150 197 247 308 365 454
#     4  12  25  49  73 105 150 194 246 316 366 435
#     4  12  25  46  80 113 146 188 241 304 370 450
#
# _framework density 24.743759000000001
#
# number of rings (size 3 to 8) (size 9 to 14) (size 15 to 20)
#    0.000    0.444    3.333    4.667    3.111    1.778 
#    0.000    2.222    0.000    0.000    0.000    0.000 
#    0.000    0.000    0.000    0.000    0.000    0.000 
#
# Total GULP energy -100619.820827 kJ/mol
# GULP energy per Si atom -5589.990046 kJ/mol
# Density = 2.468744 g / cm^3
# Si number density = 24.743759 Si / 1000 Ang^3
#
#
#
# Elastic Constant Matrix: (Units=GPa)
#
#
# Indices 1 2 3 4 5 6 
#
# 1 147.2733 30.9474 61.4620 0.0025 -52.9997 0.0012
# 2 30.9474 122.1197 32.8825 0.0035 -23.3068 0.0010
# 3 61.4620 32.8825 190.2943 0.0112 -48.2704 0.0054
# 4 0.0025 0.0035 0.0112 23.7764 0.0033 -16.1892
# 5 -52.9997 -23.3068 -48.2704 0.0033 54.3668 0.0011
# 6 0.0012 0.0010 0.0054 -16.1892 0.0011 11.7717
#
#
#
# Elastic Compliance Matrix: (Units=1/GPa)
#
#
# Indices 1 2 3 4 5 6 
#
# 1 0.010666 -0.000675 -0.000986 -0.000044 0.009233 -0.000062
# 2 -0.000675 0.009042 -0.000682 -0.000027 0.002613 -0.000038
# 3 -0.000986 -0.000682 0.006935 -0.000096 0.004904 -0.000136
# 4 -0.000044 -0.000027 -0.000096 0.661432 -0.000199 0.909645
# 5 0.009233 0.002613 0.004904 -0.000199 0.032868 -0.000280
# 6 -0.000062 -0.000038 -0.000136 0.909645 -0.000280 1.335953
#
#
# Mechanical properties :
#
#
# Convention : Reuss Voigt Hill
#
# Bulk Modulus (GPa) = 45.54318 78.91901 62.23110
# Shear Modulus (GPa) = 2.41674 40.27599 21.34636
#
# Velocity S-wave (km/s) = 0.98936 4.03888 2.94036
# Velocity P-wave (km/s) = 4.44421 7.32897 6.06073
#
# Compressibility (1/GPa) = 0.02195718
#
# Stress axis : x y z
#
# Youngs Moduli (GPa) = 93.75337 110.59490 144.18970
#
# Poissons Ratio (x) = 0.07469 0.14222
# Poissons Ratio (y) = 0.06332 0.09827
# Poissons Ratio (z) = 0.09247 0.07538
#
# Static dielectric constant tensor:
#      x y z
#    x 2.071500 0.000000 0.010300 
#    y 0.000000 2.085670 0.000000 
#    z 0.010300 0.000000 1.946700 
# 
# From -- ./inp_files/218625.got.cif
#   From: 2010.05.17/outbox.cif.g08.bks.cpg/sg12_110_cif.got.tgz:218625.got - 2010.06.03 13:09:07.
