data_PCOD9212980
_publ_section_title
;
Structure prediction by ZEFSAII (Michael W. Deem and Ramdas Pophale) SiO2 
 PCOD9212980
Probable space group: C 2/M
;
_chemical_formula_sum "Si O2"
_cell_formula_units_Z 56
_cell_length_a 11.881812
_cell_length_b 23.776573
_cell_length_c 10.848313
_cell_angle_alpha 90.000000
_cell_angle_beta 100.153434
_cell_angle_gamma 90.000000
_cell_volume 3016.747246
_symmetry_space_group_name_H-M "C 2/M"
_symmetry_group_IT_number 12
_symmetry_cell_setting 'monoclinic'
loop_
_space_group_symop_operation_xyz
x,y,z
-x,y,-z
-x,-y,-z
x,-y,z
1/2+x,1/2+y,z
1/2-x,1/2+y,-z
1/2-x,1/2-y,-z
1/2+x,1/2-y,z
loop_
_atom_site_type_symbol
_atom_site_label
_atom_site_fract_x
_atom_site_fract_y
_atom_site_fract_z
Si Si1 0.804416 0.566186 0.667539
Si Si2 0.716422 0.154773 0.939952
Si Si3 0.936992 0.565828 0.202840
Si Si4 0.333566 0.653293 0.219812
Si Si5 0.628258 0.129936 0.563684
Si Si6 0.559998 0.682925 0.135075
Si Si7 0.269158 0.231587 0.272503
O O1 0.787313 0.500000 0.647285
O O2 0.706459 0.596124 0.726616
O O3 0.815977 0.597622 0.539354
O O4 0.926728 0.573943 0.759937
O O5 0.625210 0.105654 0.907328
O O6 0.838361 0.141876 0.894517
O O7 0.679357 0.208529 0.849624
O O8 0.751063 0.165497 0.086279
O O9 0.914483 0.500000 0.178618
O O10 0.886296 0.587445 0.323797
O O11 0.462680 0.654287 0.196403
O O12 0.313454 0.706487 0.304706
O O13 0.500000 0.146667 0.500000
O O14 0.694992 0.184825 0.622392
O O15 0.632787 0.728695 0.224296
O O16 0.500000 0.706075 0.000000
#
# Coordination Sequence:
#
# PCOD9212980 Si02
#       7
#     8   8   8   8   8   8   8
#     4  10  22  36  53  82 112 146 186 234 287 321
#     4   8  18  34  52  82 111 145 182 220 272 337
#     4   9  17  34  59  81 106 143 190 235 274 329
#     4  11  20  35  55  81 115 148 179 230 283 327
#     4   9  18  36  59  83 109 141 186 234 276 331
#     4   8  18  34  53  78 116 148 181 215 269 337
#     4   9  19  34  57  83 106 143 188 225 268 336
#
# _framework density 18.563040000000001
#
# number of rings (size 3 to 8) (size 9 to 14) (size 15 to 20)
#    0.857    2.000    0.000    0.857    0.000    6.857 
#    0.000    2.857    0.000    3.429    0.000    0.000 
#    0.000    0.000    0.000    0.000    0.000    0.000 
#
# Total GULP energy -155931.437922 kJ/mol
# GULP energy per Si atom -5568.979926 kJ/mol
# Density = 1.852079 g / cm^3
# Si number density = 18.563040 Si / 1000 Ang^3
#
#
#
# Elastic Constant Matrix: (Units=GPa)
#
#
# Indices 1 2 3 4 5 6 
#
# 1 69.8547 41.7899 20.2789 0.0000 -10.7432 0.0000
# 2 41.7899 89.7629 29.4424 0.0000 0.0071 0.0000
# 3 20.2789 29.4424 32.9936 0.0000 -0.5162 0.0000
# 4 0.0000 0.0000 0.0000 15.5117 0.0000 5.6547
# 5 -10.7432 0.0071 -0.5162 0.0000 16.8618 0.0000
# 6 0.0000 0.0000 0.0000 5.6547 0.0000 20.8187
#
#
#
# Elastic Compliance Matrix: (Units=1/GPa)
#
#
# Indices 1 2 3 4 5 6 
#
# 1 0.023878 -0.009022 -0.006390 0.000000 0.015021 0.000000
# 2 -0.009022 0.019163 -0.011651 0.000000 -0.006113 0.000000
# 3 -0.006390 -0.011651 0.044591 0.000000 -0.002701 0.000000
# 4 0.000000 0.000000 0.000000 0.071552 0.000000 -0.019435
# 5 0.015021 -0.006113 -0.002701 0.000000 0.068796 0.000000
# 6 0.000000 0.000000 0.000000 -0.019435 0.000000 0.053312
#
#
# Mechanical properties :
#
#
# Convention : Reuss Voigt Hill
#
# Bulk Modulus (GPa) = 29.84543 41.73708 35.79125
# Shear Modulus (GPa) = 14.42643 17.37845 15.90244
#
# Velocity S-wave (km/s) = 2.79078 3.06303 2.93007
# Velocity P-wave (km/s) = 5.14756 5.91966 5.54706
#
# Compressibility (1/GPa) = 0.03350597
#
# Stress axis : x y z
#
# Youngs Moduli (GPa) = 41.87968 52.18525 22.42606
#
# Poissons Ratio (x) = 0.47080 0.14331
# Poissons Ratio (y) = 0.37783 0.26128
# Poissons Ratio (z) = 0.26763 0.60799
#
# Static dielectric constant tensor:
#      x y z
#    x 1.647150 0.000000 0.003940 
#    y 0.000000 1.606710 0.000000 
#    z 0.003940 0.000000 1.681840 
# 
# From -- ./inp_files/133304.got.cif
#   From: 2010.05.17/outbox.cif.g08.bks.cpg/sg12_67_cif.got.tgz:133304.got - 2010.06.03 13:09:07.
