data_PCOD9212375
_publ_section_title
;
Structure prediction by ZEFSAII (Michael W. Deem and Ramdas Pophale) SiO2 
 PCOD9212375
Probable space group: C 2/M
;
_chemical_formula_sum "Si O2"
_cell_formula_units_Z 40
_cell_length_a 13.728372
_cell_length_b 13.702216
_cell_length_c 11.535210
_cell_angle_alpha 90.000000
_cell_angle_beta 52.825859
_cell_angle_gamma 90.000000
_cell_volume 1728.964812
_symmetry_space_group_name_H-M "C 2/M"
_symmetry_group_IT_number 12
_symmetry_cell_setting 'monoclinic'
loop_
_space_group_symop_operation_xyz
x,y,z
-x,y,-z
-x,-y,-z
x,-y,z
1/2+x,1/2+y,z
1/2-x,1/2+y,-z
1/2-x,1/2-y,-z
1/2+x,1/2-y,z
loop_
_atom_site_type_symbol
_atom_site_label
_atom_site_fract_x
_atom_site_fract_y
_atom_site_fract_z
Si Si1 0.751074 0.384707 0.971027
Si Si2 0.905663 0.701241 0.471283
Si Si3 0.466254 0.887968 0.188632
Si Si4 0.662627 0.295267 0.795493
Si Si5 0.494363 0.613049 0.732963
O O1 0.747037 0.500000 0.949025
O O2 0.709711 0.330779 0.884553
O O3 0.890455 0.362466 0.902737
O O4 0.649387 0.367421 0.142652
O O5 0.910983 0.631388 0.356390
O O6 0.774821 0.706837 0.624753
O O7 0.951096 0.807483 0.394148
O O8 0.000000 0.665141 0.500000
O O9 0.396326 0.811622 0.159156
O O10 0.451845 0.000000 0.164375
O O11 0.561841 0.365050 0.807178
O O12 0.512239 0.500000 0.687225
#
# Coordination Sequence:
#
# PCOD9212375 Si02
#       5
#     8   8   8   8   8
#     4  10  21  41  68  97 125 164 213 262 316 375
#     4  11  23  40  60  94 128 169 216 258 318 375
#     4  10  22  40  65  93 127 168 213 260 313 378
#     4  11  22  38  64  95 128 162 213 264 315 373
#     4  10  22  40  64  92 126 165 210 263 316 375
#
# _framework density 23.135232999999999
#
# number of rings (size 3 to 8) (size 9 to 14) (size 15 to 20)
#    0.000    1.600    2.000    3.600    0.000    9.600 
#    3.600    0.000    0.000    9.600    0.000    0.000 
#    0.000    0.000    0.000    0.000    0.000    0.000 
#
# Total GULP energy -112096.019768 kJ/mol
# GULP energy per Si atom -5604.800988 kJ/mol
# Density = 2.308258 g / cm^3
# Si number density = 23.135233 Si / 1000 Ang^3
#
#
#
# Elastic Constant Matrix: (Units=GPa)
#
#
# Indices 1 2 3 4 5 6 
#
# 1 79.1687 22.9297 30.2924 0.0000 -10.8491 0.0000
# 2 22.9297 113.0268 34.5998 0.0000 -5.2331 0.0000
# 3 30.2924 34.5998 147.1086 0.0000 -24.4115 0.0000
# 4 0.0000 0.0000 0.0000 17.2931 0.0000 -12.5752
# 5 -10.8491 -5.2331 -24.4115 0.0000 48.3869 0.0000
# 6 0.0000 0.0000 0.0000 -12.5752 0.0000 28.6670
#
#
#
# Elastic Compliance Matrix: (Units=1/GPa)
#
#
# Indices 1 2 3 4 5 6 
#
# 1 0.014334 -0.002169 -0.002125 0.000000 0.001907 0.000000
# 2 -0.002169 0.009863 -0.001939 0.000000 -0.000398 0.000000
# 3 -0.002125 -0.001939 0.008270 0.000000 0.003486 0.000000
# 4 0.000000 0.000000 0.000000 0.084913 0.000000 0.037248
# 5 0.001907 -0.000398 0.003486 0.000000 0.022810 0.000000
# 6 0.000000 0.000000 0.000000 0.037248 0.000000 0.051223
#
#
# Mechanical properties :
#
#
# Convention : Reuss Voigt Hill
#
# Bulk Modulus (GPa) = 49.99968 57.21642 53.60805
# Shear Modulus (GPa) = 23.74789 35.63490 29.69140
#
# Velocity S-wave (km/s) = 3.20735 3.92891 3.58632
# Velocity P-wave (km/s) = 5.94769 6.73548 6.35381
#
# Compressibility (1/GPa) = 0.02000013
#
# Stress axis : x y z
#
# Youngs Moduli (GPa) = 69.76452 101.39246 120.92186
#
# Poissons Ratio (x) = 0.21993 0.25695
# Poissons Ratio (y) = 0.15133 0.23448
# Poissons Ratio (z) = 0.14825 0.19661
#
# Static dielectric constant tensor:
#      x y z
#    x 1.865140 0.000000 0.005490 
#    y 0.000000 1.842210 0.000000 
#    z 0.005490 0.000000 1.861380 
# 
# From -- ./inp_files/166476.got.cif
#   From: 2010.05.17/outbox.cif.g08.bks.cpg/sg12_84_cif.got.tgz:166476.got - 2010.06.03 13:09:07.
