data_PCOD9212087
_publ_section_title
;
Structure prediction by ZEFSAII (Michael W. Deem and Ramdas Pophale) SiO2 
 PCOD9212087
Probable space group: C 2/M
;
_chemical_formula_sum "Si O2"
_cell_formula_units_Z 64
_cell_length_a 33.595099
_cell_length_b 7.887986
_cell_length_c 13.987403
_cell_angle_alpha 90.000000
_cell_angle_beta 125.823484
_cell_angle_gamma 90.000000
_cell_volume 3005.423897
_symmetry_space_group_name_H-M "C 2/M"
_symmetry_group_IT_number 12
_symmetry_cell_setting 'monoclinic'
loop_
_space_group_symop_operation_xyz
x,y,z
-x,y,-z
-x,-y,-z
x,-y,z
1/2+x,1/2+y,z
1/2-x,1/2+y,-z
1/2-x,1/2-y,-z
1/2+x,1/2-y,z
loop_
_atom_site_type_symbol
_atom_site_label
_atom_site_fract_x
_atom_site_fract_y
_atom_site_fract_z
Si Si1 0.772641 0.792572 0.250912
Si Si2 0.428896 0.696269 0.976850
Si Si3 0.835888 0.698206 0.962621
Si Si4 0.204328 0.204745 0.502437
Si Si5 0.150825 0.200043 0.802160
Si Si6 0.491851 0.803142 0.764156
Si Si7 0.459917 0.794654 0.364910
Si Si8 0.396620 0.698306 0.727194
O O1 0.717474 0.740475 0.146155
O O2 0.787083 0.734767 0.377243
O O3 0.811531 0.736975 0.225525
O O4 0.773057 0.000000 0.251202
O O5 0.444096 0.500000 0.987096
O O6 0.380142 0.707045 0.972780
O O7 0.415381 0.771092 0.854395
O O8 0.472390 0.785602 0.094978
O O9 0.840786 0.500000 0.943888
O O10 0.840687 0.715197 0.083277
O O11 0.250000 0.250000 0.500000
O O12 0.153831 0.270745 0.385062
O O13 0.200985 0.000000 0.502843
O O14 0.094505 0.227714 0.692902
O O15 0.159373 0.000000 0.827321
O O16 0.520857 0.737799 0.712129
O O17 0.440748 0.713552 0.714398
O O18 0.480824 0.000000 0.731635
O O19 0.500000 0.744952 0.500000
O O20 0.456697 0.000000 0.359437
O O21 0.387127 0.500000 0.733796
#
# Coordination Sequence:
#
# PCOD9212087 Si02
#       8
#     8   8   8   8   8   8   8   8
#     4   9  21  38  59  87 119 154 196 243 292 347
#     4  11  22  38  59  87 120 155 196 245 296 349
#     4  11  21  37  60  86 119 158 195 242 296 347
#     4  10  21  41  63  87 120 156 196 244 291 348
#     4  11  22  38  61  90 118 154 199 242 293 354
#     4  11  23  39  61  88 118 155 198 242 294 352
#     4  10  23  42  61  85 122 159 193 241 295 347
#     4  10  23  39  60  87 120 156 195 246 299 347
#
# _framework density 21.294834000000002
#
# number of rings (size 3 to 8) (size 9 to 14) (size 15 to 20)
#    0.000    1.625    1.250    3.000    1.750    3.750 
#    0.000    3.750    0.000    0.000    0.000    0.000 
#    0.000    0.000    0.000    0.000    0.000    0.000 
#
# Total GULP energy -178934.471512 kJ/mol
# GULP energy per Si atom -5591.702235 kJ/mol
# Density = 2.124637 g / cm^3
# Si number density = 21.294834 Si / 1000 Ang^3
#
#
#
# Elastic Constant Matrix: (Units=GPa)
#
#
# Indices 1 2 3 4 5 6 
#
# 1 105.1952 -8.9883 28.7631 0.0000 17.8475 0.0000
# 2 -8.9883 23.8567 -0.7035 0.0000 -4.4733 0.0000
# 3 28.7631 -0.7035 107.9434 0.0000 20.3225 0.0000
# 4 0.0000 0.0000 0.0000 13.6454 0.0000 8.5099
# 5 17.8475 -4.4733 20.3225 0.0000 32.5522 0.0000
# 6 0.0000 0.0000 0.0000 8.5099 0.0000 4.5586
#
#
#
# Elastic Compliance Matrix: (Units=1/GPa)
#
#
# Indices 1 2 3 4 5 6 
#
# 1 0.011101 0.003313 -0.002126 0.000000 -0.004304 0.000000
# 2 0.003313 0.044099 -0.001580 0.000000 0.005230 0.000000
# 3 -0.002126 -0.001580 0.010926 0.000000 -0.005873 0.000000
# 4 0.000000 0.000000 0.000000 -0.446340 0.000000 0.833210
# 5 -0.004304 0.005230 -0.005873 0.000000 0.037465 0.000000
# 6 0.000000 0.000000 0.000000 0.833210 0.000000 -1.336037
#
#
# Mechanical properties :
#
#
# Convention : Reuss Voigt Hill
#
# Bulk Modulus (GPa) = 15.30481 30.57088 22.93784
# Shear Modulus (GPa) = -3.01892 24.67950 10.83029
#
# Velocity S-wave (km/s) = -1.19195 3.40802 2.25764
# Velocity P-wave (km/s) = 2.30399 5.46565 4.19414
#
# Compressibility (1/GPa) = 0.06533894
#
# Stress axis : x y z
#
# Youngs Moduli (GPa) = 90.08455 22.67616 91.52500
#
# Poissons Ratio (x) = -0.07512 0.19459
# Poissons Ratio (y) = -0.29842 0.14461
# Poissons Ratio (z) = 0.19153 0.03583
#
# Static dielectric constant tensor:
#      x y z
#    x 1.728530 0.000000 -0.011910 
#    y 0.000000 1.772120 0.000000 
#    z -0.011910 0.000000 1.750340 
# 
# From -- ./inp_files/249961.got.cif
#   From: 2010.05.17/outbox.cif.g08.bks.cpg/sg12_125_cif.got.tgz:249961.got - 2010.06.03 13:09:07.
