data_PCOD9212819
_publ_section_title
;
Structure prediction by ZEFSAII (Michael W. Deem and Ramdas Pophale) SiO2 
 PCOD9212819
Probable space group: C 2/M
;
_chemical_formula_sum "Si O2"
_cell_formula_units_Z 56
_cell_length_a 8.890841
_cell_length_b 25.998985
_cell_length_c 17.629096
_cell_angle_alpha 90.000000
_cell_angle_beta 38.934244
_cell_angle_gamma 90.000000
_cell_volume 2560.854248
_symmetry_space_group_name_H-M "C 2/M"
_symmetry_group_IT_number 12
_symmetry_cell_setting 'monoclinic'
loop_
_space_group_symop_operation_xyz
x,y,z
-x,y,-z
-x,-y,-z
x,-y,z
1/2+x,1/2+y,z
1/2-x,1/2+y,-z
1/2-x,1/2-y,-z
1/2+x,1/2-y,z
loop_
_atom_site_type_symbol
_atom_site_label
_atom_site_fract_x
_atom_site_fract_y
_atom_site_fract_z
Si Si1 0.692011 0.300650 0.734568
Si Si2 0.935148 0.877338 0.725393
Si Si3 0.121117 0.440209 0.241361
Si Si4 0.597360 0.872389 0.098894
Si Si5 0.901134 0.628658 0.458995
Si Si6 0.859696 0.056752 0.883419
Si Si7 0.249393 0.726467 0.116036
O O1 0.549308 0.347082 0.751499
O O2 0.722860 0.296913 0.811662
O O3 0.507423 0.254836 0.786053
O O4 0.963121 0.315983 0.601393
O O5 0.678099 0.857344 0.803041
O O6 0.899698 0.932688 0.778343
O O7 0.119159 0.870049 0.584664
O O8 0.043309 0.500000 0.265782
O O9 0.119580 0.411310 0.161422
O O10 0.388770 0.440685 0.170519
O O11 0.969668 0.406580 0.361042
O O12 0.739576 0.820592 0.061118
O O13 0.691311 0.901436 0.988418
O O14 0.000000 0.605544 0.500000
O O15 0.760083 0.000000 0.934510
O O16 0.500000 0.756287 0.000000
#
# Coordination Sequence:
#
# PCOD9212819 Si02
#       7
#     8   8   8   8   8   8   8
#     4  11  23  45  65 100 130 177 236 279 343 403
#     4  11  24  43  67  93 140 180 226 282 337 395
#     4  11  22  41  69  98 133 181 227 277 344 409
#     4  12  24  41  64 103 140 176 217 289 343 406
#     4  10  21  45  68  91 136 175 234 282 326 404
#     4  11  23  41  68  99 136 183 228 277 345 413
#     4  12  24  41  70  98 139 177 227 279 348 413
#
# _framework density 21.867704
#
# number of rings (size 3 to 8) (size 9 to 14) (size 15 to 20)
#    0.000    0.857    4.286    4.286    0.000    5.429 
#    0.000   12.143    0.000    0.000    0.000    0.000 
#    0.000    0.000    0.000    0.000    0.000    0.000 
#
# Total GULP energy -156261.650311 kJ/mol
# GULP energy per Si atom -5580.773225 kJ/mol
# Density = 2.181793 g / cm^3
# Si number density = 21.867704 Si / 1000 Ang^3
#
#
#
# Elastic Constant Matrix: (Units=GPa)
#
#
# Indices 1 2 3 4 5 6 
#
# 1 67.1439 8.2444 31.3857 0.0000 -13.1485 0.0000
# 2 8.2444 83.9724 39.7685 0.0000 -2.3684 0.0000
# 3 31.3857 39.7685 161.8429 0.0000 -15.5274 0.0000
# 4 0.0000 0.0000 0.0000 18.3934 0.0000 7.4630
# 5 -13.1485 -2.3684 -15.5274 0.0000 34.5142 0.0000
# 6 0.0000 0.0000 0.0000 7.4630 0.0000 7.8768
#
#
#
# Elastic Compliance Matrix: (Units=1/GPa)
#
#
# Indices 1 2 3 4 5 6 
#
# 1 0.017261 -0.000227 -0.002782 0.000000 0.005309 0.000000
# 2 -0.000227 0.013492 -0.003335 0.000000 -0.000661 0.000000
# 3 -0.002782 -0.003335 0.007749 0.000000 0.002197 0.000000
# 4 0.000000 0.000000 0.000000 0.088320 0.000000 -0.083680
# 5 0.005309 -0.000661 0.002197 0.000000 0.031939 0.000000
# 6 0.000000 0.000000 0.000000 -0.083680 0.000000 0.206238
#
#
# Mechanical properties :
#
#
# Convention : Reuss Voigt Hill
#
# Bulk Modulus (GPa) = 38.73977 52.41739 45.57858
# Shear Modulus (GPa) = 12.94359 27.72760 20.33560
#
# Velocity S-wave (km/s) = 2.43555 3.56472 3.05280
# Velocity P-wave (km/s) = 5.06588 6.40041 5.77185
#
# Compressibility (1/GPa) = 0.02581326
#
# Stress axis : x y z
#
# Youngs Moduli (GPa) = 57.93272 74.12054 129.05631
#
# Poissons Ratio (x) = 0.01685 0.35907
# Poissons Ratio (y) = 0.01317 0.43034
# Poissons Ratio (z) = 0.16118 0.24716
#
# Static dielectric constant tensor:
#      x y z
#    x 1.784550 0.000000 -0.044980 
#    y 0.000000 1.844100 0.000000 
#    z -0.044980 0.000000 1.845100 
# 
# From -- ./inp_files/259797.got.cif
#   From: 2010.05.17/outbox.cif.g08.bks.cpg/sg12_130_cif.got.tgz:259797.got - 2010.06.03 13:09:07.
