data_PCOD9212163
_publ_section_title
;
Structure prediction by ZEFSAII (Michael W. Deem and Ramdas Pophale) SiO2 
 PCOD9212163
Probable space group: C 2/M
;
_chemical_formula_sum "Si O2"
_cell_formula_units_Z 64
_cell_length_a 24.156166
_cell_length_b 18.090168
_cell_length_c 14.096117
_cell_angle_alpha 90.000000
_cell_angle_beta 28.185713
_cell_angle_gamma 90.000000
_cell_volume 2909.487828
_symmetry_space_group_name_H-M "C 2/M"
_symmetry_group_IT_number 12
_symmetry_cell_setting 'monoclinic'
loop_
_space_group_symop_operation_xyz
x,y,z
-x,y,-z
-x,-y,-z
x,-y,z
1/2+x,1/2+y,z
1/2-x,1/2+y,-z
1/2-x,1/2-y,-z
1/2+x,1/2-y,z
loop_
_atom_site_type_symbol
_atom_site_label
_atom_site_fract_x
_atom_site_fract_y
_atom_site_fract_z
Si Si1 0.047213 0.917973 0.790886
Si Si2 0.094970 0.582909 0.172835
Si Si3 0.151919 0.193801 0.895826
Si Si4 0.105999 0.315814 0.576969
Si Si5 0.317430 0.864929 0.156342
Si Si6 0.323267 0.915033 0.363938
Si Si7 0.799596 0.829026 0.956345
Si Si8 0.053879 0.846460 0.588598
O O1 0.185516 0.908337 0.599208
O O2 0.040115 0.910427 0.687113
O O3 0.010663 0.000000 0.875169
O O4 0.959175 0.856216 0.962075
O O5 0.061592 0.500000 0.248061
O O6 0.986893 0.639106 0.345828
O O7 0.130789 0.588927 0.007984
O O8 0.207033 0.610804 0.061808
O O9 0.264219 0.178522 0.661508
O O10 0.132001 0.281749 0.922136
O O11 0.186736 0.173318 0.950927
O O12 0.110904 0.354602 0.672081
O O13 0.070686 0.229946 0.623475
O O14 0.335064 0.898393 0.234242
O O15 0.177068 0.857142 0.350839
O O16 0.359616 0.000000 0.328511
O O17 0.931895 0.840084 0.717996
O O18 0.750000 0.750000 0.000000
#
# Coordination Sequence:
#
# PCOD9212163 Si02
#       8
#     8   8   8   8   8   8   8   8
#     4   9  19  37  61  89 124 159 202 255 309 366
#     4  12  25  41  62  92 128 165 209 263 317 377
#     4  10  22  39  66  94 121 167 209 260 308 370
#     4  11  23  41  61  92 127 166 211 251 303 376
#     4  10  21  41  64  95 124 163 211 261 310 370
#     4  10  22  41  65  92 128 167 203 259 318 368
#     4  11  20  42  65  89 122 160 207 254 318 375
#     4   9  20  38  65  92 117 158 208 259 309 363
#
# _framework density 21.996998999999999
#
# number of rings (size 3 to 8) (size 9 to 14) (size 15 to 20)
#    0.000    1.750    2.500    1.500    0.000   10.000 
#    0.000    7.500    0.000    0.000    0.000    0.000 
#    0.000    0.000    0.000    0.000    0.000    0.000 
#
# Total GULP energy -178914.605126 kJ/mol
# GULP energy per Si atom -5591.081410 kJ/mol
# Density = 2.194693 g / cm^3
# Si number density = 21.996999 Si / 1000 Ang^3
#
#
#
# Elastic Constant Matrix: (Units=GPa)
#
#
# Indices 1 2 3 4 5 6 
#
# 1 75.4265 20.2172 -0.1720 0.0000 -0.4295 0.0000
# 2 20.2172 96.6281 18.4704 0.0000 -3.6842 0.0000
# 3 -0.1720 18.4704 59.2233 0.0000 -7.2025 0.0000
# 4 0.0000 0.0000 0.0000 19.4314 0.0000 -12.0664
# 5 -0.4295 -3.6842 -7.2025 0.0000 30.8902 0.0000
# 6 0.0000 0.0000 0.0000 -12.0664 0.0000 6.0994
#
#
#
# Elastic Compliance Matrix: (Units=1/GPa)
#
#
# Indices 1 2 3 4 5 6 
#
# 1 0.014104 -0.003145 0.001029 0.000000 0.000061 0.000000
# 2 -0.003145 0.011715 -0.003600 0.000000 0.000514 0.000000
# 3 0.001029 -0.003600 0.018485 0.000000 0.003895 0.000000
# 4 0.000000 0.000000 0.000000 -0.225258 0.000000 -0.445625
# 5 0.000061 0.000514 0.003895 0.000000 0.033343 0.000000
# 6 0.000000 0.000000 0.000000 -0.445625 0.000000 -0.717623
#
#
# Mechanical properties :
#
#
# Convention : Reuss Voigt Hill
#
# Bulk Modulus (GPa) = 30.42206 34.25657 32.33931
# Shear Modulus (GPa) = -5.93229 24.13502 9.10136
#
# Velocity S-wave (km/s) = -1.64399 3.31599 2.03630
# Velocity P-wave (km/s) = 3.20258 5.50165 4.50137
#
# Compressibility (1/GPa) = 0.03287089
#
# Stress axis : x y z
#
# Youngs Moduli (GPa) = 70.90337 85.36194 54.09866
#
# Poissons Ratio (x) = 0.26849 -0.05569
# Poissons Ratio (y) = 0.22301 0.19477
# Poissons Ratio (z) = -0.07298 0.30732
#
# Static dielectric constant tensor:
#      x y z
#    x 1.811850 0.000000 -0.000450 
#    y 0.000000 1.765890 0.000000 
#    z -0.000450 0.000000 1.850940 
# 
# From -- ./inp_files/241470.got.cif
#   From: 2010.05.17/outbox.cif.g08.bks.cpg/sg12_121_cif.got.tgz:241470.got - 2010.06.03 13:09:07.
