data_PCOD9212173
_publ_section_title
;
Structure prediction by ZEFSAII (Michael W. Deem and Ramdas Pophale) SiO2 
 PCOD9212173
Probable space group: C 2/M
;
_chemical_formula_sum "Si O2"
_cell_formula_units_Z 64
_cell_length_a 22.944294
_cell_length_b 8.507590
_cell_length_c 21.435094
_cell_angle_alpha 90.000000
_cell_angle_beta 129.313446
_cell_angle_gamma 90.000000
_cell_volume 3237.237005
_symmetry_space_group_name_H-M "C 2/M"
_symmetry_group_IT_number 12
_symmetry_cell_setting 'monoclinic'
loop_
_space_group_symop_operation_xyz
x,y,z
-x,y,-z
-x,-y,-z
x,-y,z
1/2+x,1/2+y,z
1/2-x,1/2+y,-z
1/2-x,1/2-y,-z
1/2+x,1/2-y,z
loop_
_atom_site_type_symbol
_atom_site_label
_atom_site_fract_x
_atom_site_fract_y
_atom_site_fract_z
Si Si1 0.491986 0.190162 0.921760
Si Si2 0.761666 0.310752 0.579262
Si Si3 0.090249 0.814798 0.249669
Si Si4 0.196013 0.311908 0.878159
Si Si5 0.966774 0.316515 0.256230
Si Si6 0.979330 0.183914 0.391043
Si Si7 0.344735 0.812080 0.008625
Si Si8 0.127349 0.182685 0.577293
O O1 0.426568 0.255390 0.832310
O O2 0.572381 0.245620 0.949722
O O3 0.487016 0.000000 0.914966
O O4 0.500000 0.232357 0.000000
O O5 0.756810 0.500000 0.572623
O O6 0.750000 0.250000 0.500000
O O7 0.840705 0.263756 0.665490
O O8 0.695963 0.251764 0.582589
O O9 0.014816 0.773877 0.237634
O O10 0.102944 0.000000 0.257360
O O11 0.202961 0.500000 0.880131
O O12 0.119798 0.263585 0.792351
O O13 0.176016 0.262980 0.935498
O O14 0.277152 0.241891 0.918126
O O15 0.965835 0.500000 0.237239
O O16 0.001153 0.287008 0.346770
O O17 0.906430 0.245885 0.380174
O O18 0.052932 0.183795 0.484195
O O19 0.966635 0.000000 0.364874
O O20 0.346995 0.000000 0.008758
O O21 0.146803 0.000000 0.603281
#
# Coordination Sequence:
#
# PCOD9212173 Si02
#       8
#     8   8   8   8   8   8   8   8
#     4  10  21  41  65  86 114 155 201 251 307 364
#     4  11  22  39  63  92 126 164 205 249 301 356
#     4  12  25  40  60  87 119 158 206 256 301 355
#     4   9  18  32  52  77 110 142 174 224 285 341
#     4  11  21  36  56  83 116 149 188 240 300 354
#     4   9  17  34  59  86 112 145 189 234 284 349
#     4   9  17  33  55  80 106 138 181 227 281 346
#     4   8  17  35  58  81 113 152 189 232 285 348
#
# _framework density 19.769945
#
# number of rings (size 3 to 8) (size 9 to 14) (size 15 to 20)
#    0.000    2.125    1.250    3.375    0.000    2.750 
#    2.250    3.125    0.000    0.000    0.000    0.000 
#    0.000    0.000    0.000    0.000    0.000    0.000 
#
# Total GULP energy -178199.697134 kJ/mol
# GULP energy per Si atom -5568.740535 kJ/mol
# Density = 1.972495 g / cm^3
# Si number density = 19.769945 Si / 1000 Ang^3
#
#
#
# Elastic Constant Matrix: (Units=GPa)
#
#
# Indices 1 2 3 4 5 6 
#
# 1 76.4942 13.5565 33.6989 0.0000 2.0533 0.0000
# 2 13.5565 28.8900 20.3376 0.0000 -3.2166 0.0000
# 3 33.6989 20.3376 95.2170 0.0000 0.3544 0.0000
# 4 0.0000 0.0000 0.0000 26.0739 0.0000 -0.7248
# 5 2.0533 -3.2166 0.3544 0.0000 31.2560 0.0000
# 6 0.0000 0.0000 0.0000 -0.7248 0.0000 18.7844
#
#
#
# Elastic Compliance Matrix: (Units=1/GPa)
#
#
# Indices 1 2 3 4 5 6 
#
# 1 0.015957 -0.004327 -0.004718 0.000000 -0.001440 0.000000
# 2 -0.004327 0.042497 -0.007563 0.000000 0.004743 0.000000
# 3 -0.004718 -0.007563 0.013790 0.000000 -0.000625 0.000000
# 4 0.000000 0.000000 0.000000 0.038394 0.000000 0.001481
# 5 -0.001440 0.004743 -0.000625 0.000000 0.032584 0.000000
# 6 0.000000 0.000000 0.000000 0.001481 0.000000 0.053293
#
#
# Mechanical properties :
#
#
# Convention : Reuss Voigt Hill
#
# Bulk Modulus (GPa) = 25.62294 37.30968 31.46631
# Shear Modulus (GPa) = 20.59829 24.09007 22.34418
#
# Velocity S-wave (km/s) = 3.23135 3.49452 3.36551
# Velocity P-wave (km/s) = 5.18757 5.93255 5.57252
#
# Compressibility (1/GPa) = 0.03902753
#
# Stress axis : x y z
#
# Youngs Moduli (GPa) = 62.66940 23.53121 72.51713
#
# Poissons Ratio (x) = 0.10181 0.34212
# Poissons Ratio (y) = 0.27115 0.54847
# Poissons Ratio (z) = 0.29566 0.17797
#
# Static dielectric constant tensor:
#      x y z
#    x 1.736700 0.000000 0.014510 
#    y 0.000000 1.690780 0.000000 
#    z 0.014510 0.000000 1.774060 
# 
# From -- ./inp_files/324268.got.cif
#   From: 2010.05.17/outbox.cif.g08.bks.cpg/sg12_163_cif.got.tgz:324268.got - 2010.06.03 13:09:07.
