data_PCOD9212691
_publ_section_title
;
Structure prediction by ZEFSAII (Michael W. Deem and Ramdas Pophale) SiO2 
 PCOD9212691
Probable space group: C 2/M
;
_chemical_formula_sum "Si O2"
_cell_formula_units_Z 38
_cell_length_a 18.381028
_cell_length_b 14.416324
_cell_length_c 20.400575
_cell_angle_alpha 90.000000
_cell_angle_beta 20.800170
_cell_angle_gamma 90.000000
_cell_volume 1919.682116
_symmetry_space_group_name_H-M "C 2/M"
_symmetry_group_IT_number 12
_symmetry_cell_setting 'monoclinic'
loop_
_space_group_symop_operation_xyz
x,y,z
-x,y,-z
-x,-y,-z
x,-y,z
1/2+x,1/2+y,z
1/2-x,1/2+y,-z
1/2-x,1/2-y,-z
1/2+x,1/2-y,z
loop_
_atom_site_type_symbol
_atom_site_label
_atom_site_fract_x
_atom_site_fract_y
_atom_site_fract_z
Si Si1 0.240184 0.000000 0.390094
Si Si2 0.500000 0.160966 0.000000
Si Si3 0.776503 0.803822 0.656824
Si Si4 0.500000 0.000000 0.500000
Si Si5 0.225336 0.000000 0.169044
Si Si6 0.027461 0.500000 0.273947
Si Si7 0.205135 0.627686 0.434515
Si Si8 0.917730 0.000000 0.857784
O O1 0.279915 0.908038 0.315552
O O2 0.377852 0.000000 0.338244
O O3 0.003570 0.000000 0.609965
O O4 0.613910 0.222187 0.849703
O O5 0.661330 0.091371 0.899020
O O6 0.778984 0.736094 0.592628
O O7 0.000000 0.804122 0.500000
O O8 0.633104 0.080096 0.427405
O O9 0.203784 0.000000 0.108480
O O10 0.963190 0.588847 0.372287
O O11 0.256675 0.500000 0.053154
O O12 0.424566 0.586295 0.270993
#
# Coordination Sequence:
#
# PCOD9212691 Si02
#       8
#     4   4   8   2   4   4   8   4
#     4  12  22  43  67  88 127 175 202 263 322 367
#     4  11  24  38  64  95 126 162 210 261 312 369
#     4  12  24  40  64  95 129 166 213 255 317 375
#     4   8  16  40  60  82 126 160 200 264 292 360
#     4  11  20  43  65  91 126 165 210 260 312 379
#     4  10  22  43  68  88 126 170 208 261 318 367
#     4  10  22  40  64  93 126 165 214 258 309 380
#     4  10  21  43  65  93 127 165 209 258 317 371
#
# _framework density 19.794944000000001
#
# number of rings (size 3 to 8) (size 9 to 14) (size 15 to 20)
#    0.000    1.474    5.263    2.842    0.000    2.526 
#    0.000    6.316    0.000    0.000    0.000    0.000 
#    0.000    0.000    0.000    0.000    0.000    0.000 
#
# Total GULP energy -105844.245259 kJ/mol
# GULP energy per Si atom -5570.749750 kJ/mol
# Density = 1.974989 g / cm^3
# Si number density = 19.794944 Si / 1000 Ang^3
#
#
#
# Elastic Constant Matrix: (Units=GPa)
#
#
# Indices 1 2 3 4 5 6 
#
# 1 79.7013 21.2396 17.1148 0.0012 -5.4792 -0.0151
# 2 21.2396 71.8752 -4.8800 -0.0430 6.5891 0.0022
# 3 17.1148 -4.8800 69.4439 -0.0463 24.1939 -0.0200
# 4 0.0012 -0.0430 -0.0463 6.7316 0.0070 6.3724
# 5 -5.4792 6.5891 24.1939 0.0070 45.1414 0.0045
# 6 -0.0151 0.0022 -0.0200 6.3724 0.0045 2.0984
#
#
#
# Elastic Compliance Matrix: (Units=1/GPa)
#
#
# Indices 1 2 3 4 5 6 
#
# 1 0.015891 -0.005709 -0.006492 0.000071 0.006242 -0.000171
# 2 -0.005709 0.016406 0.004470 -0.000078 -0.005484 0.000233
# 3 -0.006492 0.004470 0.020677 -0.000011 -0.012523 0.000208
# 4 0.000071 -0.000078 -0.000011 -0.079238 0.000014 0.240629
# 5 0.006242 -0.005484 -0.012523 0.000014 0.030422 -0.000178
# 6 -0.000171 0.000233 0.000208 0.240629 -0.000178 -0.254187
#
#
# Mechanical properties :
#
#
# Convention : Reuss Voigt Hill
#
# Bulk Modulus (GPa) = 26.65739 31.99658 29.32699
# Shear Modulus (GPa) = -22.51620 23.29735 0.39057
#
# Velocity S-wave (km/s) = -3.37630 3.43437 0.44468
# Velocity P-wave (km/s) = 1.30508 5.65028 3.88731
#
# Compressibility (1/GPa) = 0.03751305
#
# Stress axis : x y z
#
# Youngs Moduli (GPa) = 62.92698 60.95250 48.36245
#
# Poissons Ratio (x) = 0.34798 0.31398
# Poissons Ratio (y) = 0.35925 -0.21620
# Poissons Ratio (z) = 0.40854 -0.27248
#
# Static dielectric constant tensor:
#      x y z
#    x 1.706210 -0.000010 0.045790 
#    y -0.000010 1.732800 0.000010 
#    z 0.045790 0.000010 1.711350 
# 
# From -- ./inp_files/316664.got.cif
#   From: 2010.05.17/outbox.cif.g08.bks.cpg/sg12_159_cif.got.tgz:316664.got - 2010.06.03 13:09:07.
