data_PCOD9212448
_publ_section_title
;
Structure prediction by ZEFSAII (Michael W. Deem and Ramdas Pophale) SiO2 
 PCOD9212448
Probable space group: C 2/M
;
_chemical_formula_sum "Si O2"
_cell_formula_units_Z 32
_cell_length_a 7.540916
_cell_length_b 23.336004
_cell_length_c 10.390843
_cell_angle_alpha 90.000000
_cell_angle_beta 43.812185
_cell_angle_gamma 90.000000
_cell_volume 1265.883121
_symmetry_space_group_name_H-M "C 2/M"
_symmetry_group_IT_number 12
_symmetry_cell_setting 'monoclinic'
loop_
_space_group_symop_operation_xyz
x,y,z
-x,y,-z
-x,-y,-z
x,-y,z
1/2+x,1/2+y,z
1/2-x,1/2+y,-z
1/2-x,1/2-y,-z
1/2+x,1/2-y,z
loop_
_atom_site_type_symbol
_atom_site_label
_atom_site_fract_x
_atom_site_fract_y
_atom_site_fract_z
Si Si1 0.816741 0.935986 0.970058
Si Si2 0.732288 0.388209 0.592278
Si Si3 0.086983 0.661025 0.771549
Si Si4 0.024233 0.776573 0.707931
O O1 0.602151 0.887582 0.080174
O O2 0.707764 0.000000 0.032866
O O3 0.000000 0.928778 0.000000
O O4 0.999306 0.928647 0.750458
O O5 0.777189 0.368326 0.423000
O O6 0.671783 0.328541 0.701646
O O7 0.000000 0.413038 0.500000
O O8 0.303599 0.689244 0.748632
O O9 0.927210 0.718662 0.823250
O O10 0.250000 0.750000 0.500000
#
# Coordination Sequence:
#
# PCOD9212448 Si02
#       4
#     8   8   8   8
#     4  11  26  46  69  99 136 185 244 285 330 410
#     4  11  21  41  69  99 137 180 222 284 350 404
#     4  11  23  44  69 106 140 180 223 285 351 415
#     4  10  21  41  72 104 143 175 218 281 355 426
#
# _framework density 25.278796
#
# number of rings (size 3 to 8) (size 9 to 14) (size 15 to 20)
#    0.000    1.250    2.500    6.000    0.000    3.500 
#    0.000    2.500    0.000    9.000    0.000    0.000 
#    0.000    0.000    0.000    0.000    0.000    0.000 
#
# Total GULP energy -89481.435395 kJ/mol
# GULP energy per Si atom -5592.589712 kJ/mol
# Density = 2.522126 g / cm^3
# Si number density = 25.278796 Si / 1000 Ang^3
#
#
#
# Elastic Constant Matrix: (Units=GPa)
#
#
# Indices 1 2 3 4 5 6 
#
# 1 94.7817 36.2570 58.1332 0.0000 -15.7704 0.0000
# 2 36.2570 174.4894 95.3743 0.0000 -16.5864 0.0000
# 3 58.1332 95.3743 155.2438 0.0000 -12.7070 0.0000
# 4 0.0000 0.0000 0.0000 39.7706 0.0000 -0.9860
# 5 -15.7704 -16.5864 -12.7070 0.0000 38.0580 0.0000
# 6 0.0000 0.0000 0.0000 -0.9860 0.0000 16.5571
#
#
#
# Elastic Compliance Matrix: (Units=1/GPa)
#
#
# Indices 1 2 3 4 5 6 
#
# 1 0.014347 0.000261 -0.005178 0.000000 0.004330 0.000000
# 2 0.000261 0.008791 -0.005321 0.000000 0.002163 0.000000
# 3 -0.005178 -0.005321 0.011601 0.000000 -0.000591 0.000000
# 4 0.000000 0.000000 0.000000 0.025181 0.000000 0.001500
# 5 0.004330 0.002163 -0.000591 0.000000 0.028815 0.000000
# 6 0.000000 0.000000 0.000000 0.001500 0.000000 0.060486
#
#
# Mechanical properties :
#
#
# Convention : Reuss Voigt Hill
#
# Bulk Modulus (GPa) = 70.11747 89.33821 79.72784
# Shear Modulus (GPa) = 28.66082 34.52718 31.59400
#
# Velocity S-wave (km/s) = 3.37083 3.69976 3.53912
# Velocity P-wave (km/s) = 6.55346 7.32590 6.95042
#
# Compressibility (1/GPa) = 0.01426178
#
# Stress axis : x y z
#
# Youngs Moduli (GPa) = 69.69942 113.75231 86.19638
#
# Poissons Ratio (x) = -0.02967 0.44636
# Poissons Ratio (y) = -0.01818 0.45869
# Poissons Ratio (z) = 0.36093 0.60533
#
# Static dielectric constant tensor:
#      x y z
#    x 2.129240 0.000000 0.066660 
#    y 0.000000 1.981470 0.000000 
#    z 0.066660 0.000000 2.085110 
# 
# From -- ./inp_files/198165.got.cif
#   From: 2010.05.17/outbox.cif.g08.bks.cpg/sg12_100_cif.got.tgz:198165.got - 2010.06.03 13:09:07.
