data_PCOD9212059
_publ_section_title
;
Structure prediction by ZEFSAII (Michael W. Deem and Ramdas Pophale) SiO2 
 PCOD9212059
Probable space group: C 2/M
;
_chemical_formula_sum "Si O2"
_cell_formula_units_Z 56
_cell_length_a 14.943738
_cell_length_b 24.473703
_cell_length_c 8.201054
_cell_angle_alpha 90.000000
_cell_angle_beta 67.723077
_cell_angle_gamma 90.000000
_cell_volume 2775.495238
_symmetry_space_group_name_H-M "C 2/M"
_symmetry_group_IT_number 12
_symmetry_cell_setting 'monoclinic'
loop_
_space_group_symop_operation_xyz
x,y,z
-x,y,-z
-x,-y,-z
x,-y,z
1/2+x,1/2+y,z
1/2-x,1/2+y,-z
1/2-x,1/2-y,-z
1/2+x,1/2-y,z
loop_
_atom_site_type_symbol
_atom_site_label
_atom_site_fract_x
_atom_site_fract_y
_atom_site_fract_z
Si Si1 0.626384 0.290720 0.016304
Si Si2 0.706209 0.630196 0.385886
Si Si3 0.925513 0.435171 0.800686
Si Si4 0.453354 0.657810 0.259073
Si Si5 0.860211 0.436659 0.470079
Si Si6 0.174449 0.670463 0.973913
Si Si7 0.438271 0.560203 0.709871
O O1 0.553390 0.309708 0.208460
O O2 0.733501 0.312908 0.977635
O O3 0.594994 0.319097 0.869674
O O4 0.613286 0.225776 0.018598
O O5 0.620178 0.659734 0.540957
O O6 0.769245 0.597449 0.473567
O O7 0.780912 0.666821 0.236832
O O8 0.658710 0.590415 0.282290
O O9 0.912658 0.500000 0.860446
O O10 0.883094 0.430320 0.646109
O O11 0.040731 0.424948 0.698564
O O12 0.876626 0.386500 0.939543
O O13 0.494307 0.596078 0.219636
O O14 0.838200 0.500000 0.456414
O O15 0.500000 0.556625 0.500000
O O16 0.418062 0.500000 0.786977
#
# Coordination Sequence:
#
# PCOD9212059 Si02
#       7
#     8   8   8   8   8   8   8
#     4  10  23  42  60  82 125 166 208 257 305 359
#     4  11  21  35  64  91 125 155 205 253 312 364
#     4   9  20  40  63  89 124 163 204 252 311 371
#     4  10  21  41  62  85 120 165 201 252 303 373
#     4   9  19  37  61  89 126 164 198 246 304 374
#     4  11  23  40  61  91 122 160 206 262 309 362
#     4   9  18  34  58  89 123 156 194 244 302 360
#
# _framework density 20.176580999999999
#
# number of rings (size 3 to 8) (size 9 to 14) (size 15 to 20)
#    0.000    2.143    1.429    2.143    0.000    5.143 
#    0.000    9.286    0.000    0.000    0.000    0.000 
#    0.000    0.000    0.000    0.000    0.000    0.000 
#
# Total GULP energy -156059.881791 kJ/mol
# GULP energy per Si atom -5573.567207 kJ/mol
# Density = 2.013066 g / cm^3
# Si number density = 20.176581 Si / 1000 Ang^3
#
#
#
# Elastic Constant Matrix: (Units=GPa)
#
#
# Indices 1 2 3 4 5 6 
#
# 1 57.6212 35.2311 18.9470 0.0000 4.9916 0.0000
# 2 35.2311 129.8278 61.1969 0.0000 -14.0903 0.0000
# 3 18.9470 61.1969 83.8921 0.0000 -18.8367 0.0000
# 4 0.0000 0.0000 0.0000 23.3881 0.0000 -0.9897
# 5 4.9916 -14.0903 -18.8367 0.0000 30.5996 0.0000
# 6 0.0000 0.0000 0.0000 -0.9897 0.0000 24.2981
#
#
#
# Elastic Compliance Matrix: (Units=1/GPa)
#
#
# Indices 1 2 3 4 5 6 
#
# 1 0.022393 -0.005660 -0.002708 0.000000 -0.007926 0.000000
# 2 -0.005660 0.013170 -0.007844 0.000000 0.002159 0.000000
# 3 -0.002708 -0.007844 0.020356 0.000000 0.009360 0.000000
# 4 0.000000 0.000000 0.000000 0.042831 0.000000 0.001745
# 5 -0.007926 0.002159 0.009360 0.000000 0.040729 0.000000
# 6 0.000000 0.000000 0.000000 0.001745 0.000000 0.041227
#
#
# Mechanical properties :
#
#
# Convention : Reuss Voigt Hill
#
# Bulk Modulus (GPa) = 42.56526 55.78793 49.17659
# Shear Modulus (GPa) = 22.62834 26.05489 24.34161
#
# Velocity S-wave (km/s) = 3.35254 3.59742 3.47714
# Velocity P-wave (km/s) = 6.01067 6.70561 6.36763
#
# Compressibility (1/GPa) = 0.02349334
#
# Stress axis : x y z
#
# Youngs Moduli (GPa) = 44.65733 75.92751 49.12671
#
# Poissons Ratio (x) = 0.42978 0.13303
# Poissons Ratio (y) = 0.25278 0.38536
# Poissons Ratio (z) = 0.12093 0.59559
#
# Static dielectric constant tensor:
#      x y z
#    x 1.761410 0.000000 -0.009480 
#    y 0.000000 1.737180 0.000000 
#    z -0.009480 0.000000 1.720360 
# 
# From -- ./inp_files/65316.got.cif
#   From: 2010.05.17/outbox.cif.g08.bks.cpg/sg12_33_cif.got.tgz:65316.got - 2010.06.03 13:09:07.
