data_PCOD9212090
_publ_section_title
;
Structure prediction by ZEFSAII (Michael W. Deem and Ramdas Pophale) SiO2 
 PCOD9212090
Probable space group: C 2/M
;
_chemical_formula_sum "Si O2"
_cell_formula_units_Z 40
_cell_length_a 12.970797
_cell_length_b 13.614923
_cell_length_c 13.263991
_cell_angle_alpha 90.000000
_cell_angle_beta 43.950135
_cell_angle_gamma 90.000000
_cell_volume 1625.682022
_symmetry_space_group_name_H-M "C 2/M"
_symmetry_group_IT_number 12
_symmetry_cell_setting 'monoclinic'
loop_
_space_group_symop_operation_xyz
x,y,z
-x,y,-z
-x,-y,-z
x,-y,z
1/2+x,1/2+y,z
1/2-x,1/2+y,-z
1/2-x,1/2-y,-z
1/2+x,1/2-y,z
loop_
_atom_site_type_symbol
_atom_site_label
_atom_site_fract_x
_atom_site_fract_y
_atom_site_fract_z
Si Si1 0.612904 0.359341 0.078839
Si Si2 0.915220 0.664307 0.800114
Si Si3 0.071684 0.500000 0.793505
Si Si4 0.755467 0.500000 0.133280
Si Si5 0.088760 0.206367 0.525571
Si Si6 0.793352 0.109804 0.358994
O O1 0.599675 0.242555 0.098871
O O2 0.669283 0.408303 0.144516
O O3 0.443936 0.392408 0.185872
O O4 0.750501 0.381621 0.907573
O O5 0.046123 0.592387 0.740142
O O6 0.971057 0.724706 0.666863
O O7 0.208388 0.500000 0.773910
O O8 0.918403 0.500000 0.966795
O O9 0.000000 0.153874 0.500000
O O10 0.154379 0.133124 0.562578
O O11 0.202778 0.289420 0.402945
O O12 0.724178 0.000000 0.400449
#
# Coordination Sequence:
#
# PCOD9212090 Si02
#       6
#     8   8   4   4   8   8
#     4   9  17  36  59  86 120 150 185 245 308 344
#     4   9  19  36  58  83 120 157 190 238 297 351
#     4   9  18  32  56  90 116 146 196 241 290 355
#     4   9  16  32  59  88 115 146 190 247 301 346
#     4  10  23  43  61  84 120 163 203 236 290 363
#     4  10  21  41  63  88 117 153 195 251 303 342
#
# _framework density 24.605058
#
# number of rings (size 3 to 8) (size 9 to 14) (size 15 to 20)
#    0.000    2.600    1.000    0.000    1.400    0.800 
#   21.600    1.000    0.000    1.200    0.000    0.000 
#    0.000    0.000    0.000    0.000    0.000    0.000 
#
# Total GULP energy -111493.330524 kJ/mol
# GULP energy per Si atom -5574.666526 kJ/mol
# Density = 2.454906 g / cm^3
# Si number density = 24.605058 Si / 1000 Ang^3
#
#
#
# Elastic Constant Matrix: (Units=GPa)
#
#
# Indices 1 2 3 4 5 6 
#
# 1 61.0786 -12.8659 -12.9334 0.0000 -6.2888 0.0000
# 2 -12.8659 100.4727 -0.8829 0.0000 -9.4884 0.0000
# 3 -12.9334 -0.8829 138.3844 0.0000 -18.3447 0.0000
# 4 0.0000 0.0000 0.0000 20.8100 0.0000 -4.8724
# 5 -6.2888 -9.4884 -18.3447 0.0000 12.5173 0.0000
# 6 0.0000 0.0000 0.0000 -4.8724 0.0000 -2.2445
#
#
#
# Elastic Compliance Matrix: (Units=1/GPa)
#
#
# Indices 1 2 3 4 5 6 
#
# 1 0.020456 0.004608 0.004675 0.000000 0.020622 0.000000
# 2 0.004608 0.011989 0.002506 0.000000 0.015075 0.000000
# 3 0.004675 0.002506 0.010230 0.000000 0.019240 0.000000
# 4 0.000000 0.000000 0.000000 0.031860 0.000000 -0.069163
# 5 0.020622 0.015075 0.019240 0.000000 0.129874 0.000000
# 6 0.000000 0.000000 0.000000 -0.069163 0.000000 -0.295394
#
#
# Mechanical properties :
#
#
# Convention : Reuss Voigt Hill
#
# Bulk Modulus (GPa) = 15.09404 27.39683 21.24544
# Shear Modulus (GPa) = -54.06697 27.99108 -13.03795
#
# Velocity S-wave (km/s) = -4.69272 3.37651 -2.30443
# Velocity P-wave (km/s) = 4.81812 5.13419 1.25411
#
# Compressibility (1/GPa) = 0.06625132
#
# Stress axis : x y z
#
# Youngs Moduli (GPa) = 48.88510 83.41215 97.75474
#
# Poissons Ratio (x) = -0.38436 -0.45699
# Poissons Ratio (y) = -0.22526 -0.24493
# Poissons Ratio (z) = -0.22853 -0.20899
#
# Static dielectric constant tensor:
#      x y z
#    x 1.933890 0.000000 -0.026180 
#    y 0.000000 0.949850 0.000000 
#    z -0.026180 0.000000 2.034000 
# 
# From -- ./inp_files/262690.got.cif
#   From: 2010.05.17/outbox.cif.g08.bks.cpg/sg12_132_cif.got.tgz:262690.got - 2010.06.03 13:09:07.
