data_PCOD9212030
_publ_section_title
;
Structure prediction by ZEFSAII (Michael W. Deem and Ramdas Pophale) SiO2 
 PCOD9212030
Probable space group: C 2/M
;
_chemical_formula_sum "Si O2"
_cell_formula_units_Z 40
_cell_length_a 12.039847
_cell_length_b 12.094354
_cell_length_c 16.763913
_cell_angle_alpha 90.000000
_cell_angle_beta 141.065457
_cell_angle_gamma 90.000000
_cell_volume 1534.042632
_symmetry_space_group_name_H-M "C 2/M"
_symmetry_group_IT_number 12
_symmetry_cell_setting 'monoclinic'
loop_
_space_group_symop_operation_xyz
x,y,z
-x,y,-z
-x,-y,-z
x,-y,z
1/2+x,1/2+y,z
1/2-x,1/2+y,-z
1/2-x,1/2-y,-z
1/2+x,1/2-y,z
loop_
_atom_site_type_symbol
_atom_site_label
_atom_site_fract_x
_atom_site_fract_y
_atom_site_fract_z
Si Si1 0.431633 0.340967 0.214311
Si Si2 0.036262 0.837856 0.110255
Si Si3 0.927534 0.625931 0.288439
Si Si4 0.171663 0.304610 0.556118
Si Si5 0.292528 0.125124 0.752684
O O1 0.409594 0.377771 0.110277
O O2 0.393273 0.208588 0.196069
O O3 0.640595 0.362929 0.340638
O O4 0.331920 0.380440 0.237663
O O5 0.243416 0.872041 0.234555
O O6 0.051486 0.705028 0.128968
O O7 0.000000 0.870853 0.000000
O O8 0.972645 0.500000 0.297524
O O9 0.088784 0.690463 0.421276
O O10 0.203771 0.192009 0.627587
O O11 0.000000 0.362329 0.500000
O O12 0.337020 0.000000 0.755960
#
# Coordination Sequence:
#
# PCOD9212030 Si02
#       5
#     8   8   8   8   8
#     4  10  21  41  59  89 123 160 201 250 303 354
#     4  10  23  45  65  85 122 161 203 258 306 351
#     4  11  24  40  62  93 124 162 205 245 300 364
#     4  11  20  41  59  90 129 160 196 244 303 360
#     4  10  23  40  62  93 124 161 204 244 298 364
#
# _framework density 26.074895999999999
#
# number of rings (size 3 to 8) (size 9 to 14) (size 15 to 20)
#    0.000    1.600    6.000    0.600    0.000    9.600 
#    0.000    2.000    0.000    0.000    0.000    0.000 
#    0.000    0.000    0.000    0.000    0.000    0.000 
#
# Total GULP energy -111398.849533 kJ/mol
# GULP energy per Si atom -5569.942477 kJ/mol
# Density = 2.601555 g / cm^3
# Si number density = 26.074896 Si / 1000 Ang^3
#
#
#
# Elastic Constant Matrix: (Units=GPa)
#
#
# Indices 1 2 3 4 5 6 
#
# 1 131.9379 11.2359 16.4411 0.0003 -46.4099 0.0002
# 2 11.2359 196.4546 29.5769 0.0002 -22.3200 0.0002
# 3 16.4411 29.5769 104.4847 0.0003 -39.0484 0.0003
# 4 0.0003 0.0002 0.0003 -13.0748 0.0003 3.3146
# 5 -46.4099 -22.3200 -39.0484 0.0003 53.3537 0.0003
# 6 0.0002 0.0002 0.0003 3.3146 0.0003 -10.1697
#
#
#
# Elastic Compliance Matrix: (Units=1/GPa)
#
#
# Indices 1 2 3 4 5 6 
#
# 1 0.011444 0.000317 0.002587 0.000001 0.011981 0.000001
# 2 0.000317 0.005420 -0.000872 0.000000 0.001905 0.000000
# 3 0.002587 -0.000872 0.013924 0.000001 0.012076 0.000001
# 4 0.000001 0.000000 0.000001 -0.083371 0.000002 -0.027173
# 5 0.011981 0.001905 0.012076 0.000002 0.038799 0.000002
# 6 0.000001 0.000000 0.000001 -0.027173 0.000002 -0.107188
#
#
# Mechanical properties :
#
#
# Convention : Reuss Voigt Hill
#
# Bulk Modulus (GPa) = 28.69316 60.82054 44.75685
# Shear Modulus (GPa) = -44.08436 31.06340 -6.51048
#
# Velocity S-wave (km/s) = -4.11625 3.45529 -1.58185
# Velocity P-wave (km/s) = 3.40049 6.26854 3.72366
#
# Compressibility (1/GPa) = 0.03485152
#
# Stress axis : x y z
#
# Youngs Moduli (GPa) = 87.37993 184.50756 71.82038
#
# Poissons Ratio (x) = -0.05852 -0.18579
# Poissons Ratio (y) = -0.02772 0.06264
# Poissons Ratio (z) = -0.22605 0.16093
#
# Static dielectric constant tensor:
#      x y z
#    x 2.156700 0.000000 -0.107590 
#    y 0.000000 2.070160 0.000000 
#    z -0.107590 0.000000 2.306590 
# 
# From -- ./inp_files/213050.got.cif
#   From: 2010.05.17/outbox.cif.g08.bks.cpg/sg12_107_cif.got.tgz:213050.got - 2010.06.03 13:09:07.
