data_PCOD9212428
_publ_section_title
;
Structure prediction by ZEFSAII (Michael W. Deem and Ramdas Pophale) SiO2 
 PCOD9212428
Probable space group: C 2/M
;
_chemical_formula_sum "Si O2"
_cell_formula_units_Z 64
_cell_length_a 11.544966
_cell_length_b 24.260373
_cell_length_c 13.071286
_cell_angle_alpha 90.000000
_cell_angle_beta 117.602638
_cell_angle_gamma 90.000000
_cell_volume 3244.378351
_symmetry_space_group_name_H-M "C 2/M"
_symmetry_group_IT_number 12
_symmetry_cell_setting 'monoclinic'
loop_
_space_group_symop_operation_xyz
x,y,z
-x,y,-z
-x,-y,-z
x,-y,z
1/2+x,1/2+y,z
1/2-x,1/2+y,-z
1/2-x,1/2-y,-z
1/2+x,1/2-y,z
loop_
_atom_site_type_symbol
_atom_site_label
_atom_site_fract_x
_atom_site_fract_y
_atom_site_fract_z
Si Si1 0.332669 0.805196 0.040436
Si Si2 0.418371 0.254191 0.762761
Si Si3 0.086152 0.436328 0.278003
Si Si4 0.713147 0.157081 0.206381
Si Si5 0.826238 0.564450 0.293256
Si Si6 0.285374 0.437228 0.542545
Si Si7 0.008698 0.162038 0.381471
Si Si8 0.133832 0.857606 0.109381
O O1 0.461700 0.784202 0.150670
O O2 0.245807 0.845796 0.072228
O O3 0.250000 0.750000 0.000000
O O4 0.337589 0.826592 0.926778
O O5 0.302417 0.210031 0.724420
O O6 0.443206 0.285362 0.666146
O O7 0.395001 0.302561 0.836361
O O8 0.067629 0.500000 0.237306
O O9 0.125430 0.393747 0.207104
O O10 0.208921 0.434974 0.404998
O O11 0.957290 0.417848 0.288087
O O12 0.867820 0.145435 0.275853
O O13 0.812519 0.500000 0.265395
O O14 0.824343 0.570886 0.414591
O O15 0.697375 0.596360 0.205774
O O16 0.338220 0.500000 0.577164
O O17 0.392445 0.389413 0.591120
O O18 0.000000 0.173124 0.500000
O O19 0.000000 0.873674 0.000000
#
# Coordination Sequence:
#
# PCOD9212428 Si02
#       8
#     8   8   8   8   8   8   8   8
#     4  12  22  39  64  93 118 164 220 264 313 378
#     4  12  23  42  64  90 126 171 216 261 314 383
#     4  10  22  43  67  95 129 169 214 265 321 382
#     4  12  24  40  66  96 128 169 216 264 323 386
#     4  10  22  40  64  93 126 167 216 264 313 378
#     4  10  21  41  70  95 124 169 218 262 317 387
#     4  12  24  41  62  96 137 165 206 267 327 386
#     4  12  21  37  64  90 122 164 212 267 319 374
#
# _framework density 19.726429
#
# number of rings (size 3 to 8) (size 9 to 14) (size 15 to 20)
#    0.000    0.750    6.250    1.500    0.000    3.000 
#    0.000    0.625    0.000    3.000    0.000    0.000 
#    0.000    0.000    0.000    0.000    0.000    0.000 
#
# Total GULP energy -178640.317821 kJ/mol
# GULP energy per Si atom -5582.509932 kJ/mol
# Density = 1.968153 g / cm^3
# Si number density = 19.726429 Si / 1000 Ang^3
#
#
#
# Elastic Constant Matrix: (Units=GPa)
#
#
# Indices 1 2 3 4 5 6 
#
# 1 97.4739 51.7312 38.5974 0.0000 -6.7077 0.0000
# 2 51.7312 72.3653 53.4570 0.0000 -14.1784 0.0000
# 3 38.5974 53.4570 84.4217 0.0000 -20.8589 0.0000
# 4 0.0000 0.0000 0.0000 31.2741 0.0000 -6.1182
# 5 -6.7077 -14.1784 -20.8589 0.0000 43.8491 0.0000
# 6 0.0000 0.0000 0.0000 -6.1182 0.0000 34.7577
#
#
#
# Elastic Compliance Matrix: (Units=1/GPa)
#
#
# Indices 1 2 3 4 5 6 
#
# 1 0.016620 -0.011814 -0.000491 0.000000 -0.001511 0.000000
# 2 -0.011814 0.034378 -0.015941 0.000000 0.001726 0.000000
# 3 -0.000491 -0.015941 0.023652 0.000000 0.006021 0.000000
# 4 0.000000 0.000000 0.000000 0.033116 0.000000 0.005829
# 5 -0.001511 0.001726 0.006021 0.000000 0.025997 0.000000
# 6 0.000000 0.000000 0.000000 0.005829 0.000000 0.029797
#
#
# Mechanical properties :
#
#
# Convention : Reuss Voigt Hill
#
# Bulk Modulus (GPa) = 55.07450 60.20357 57.63904
# Shear Modulus (GPa) = 22.11389 29.34121 25.72755
#
# Velocity S-wave (km/s) = 3.35181 3.86087 3.61531
# Velocity P-wave (km/s) = 6.55433 7.10357 6.83447
#
# Compressibility (1/GPa) = 0.01815722
#
# Stress axis : x y z
#
# Youngs Moduli (GPa) = 60.17027 29.08839 42.28056
#
# Poissons Ratio (x) = 0.34365 0.02076
# Poissons Ratio (y) = 0.71085 0.67399
# Poissons Ratio (z) = 0.02954 0.46369
#
# Static dielectric constant tensor:
#      x y z
#    x 1.738360 0.000000 0.001810 
#    y 0.000000 1.986070 0.000000 
#    z 0.001810 0.000000 1.695510 
# 
# From -- ./inp_files/135985.got.cif
#   From: 2010.05.17/outbox.cif.g08.bks.cpg/sg12_68_cif.got.tgz:135985.got - 2010.06.03 13:09:07.
