data_PCOD9212900
_publ_section_title
;
Structure prediction by ZEFSAII (Michael W. Deem and Ramdas Pophale) SiO2 
 PCOD9212900
Probable space group: C 2/M
;
_chemical_formula_sum "Si O2"
_cell_formula_units_Z 52
_cell_length_a 13.000047
_cell_length_b 27.736520
_cell_length_c 9.841290
_cell_angle_alpha 90.000000
_cell_angle_beta 55.978996
_cell_angle_gamma 90.000000
_cell_volume 2941.140064
_symmetry_space_group_name_H-M "C 2/M"
_symmetry_group_IT_number 12
_symmetry_cell_setting 'monoclinic'
loop_
_space_group_symop_operation_xyz
x,y,z
-x,y,-z
-x,-y,-z
x,-y,z
1/2+x,1/2+y,z
1/2-x,1/2+y,-z
1/2-x,1/2-y,-z
1/2+x,1/2-y,z
loop_
_atom_site_type_symbol
_atom_site_label
_atom_site_fract_x
_atom_site_fract_y
_atom_site_fract_z
Si Si1 0.770320 0.852229 0.836596
Si Si2 0.517553 0.387583 0.145669
Si Si3 0.933950 0.282951 0.335446
Si Si4 0.892949 0.947398 0.689731
Si Si5 0.308360 0.312753 0.357698
Si Si6 0.294646 0.756226 0.810172
Si Si7 0.500000 0.826592 0.000000
O O1 0.810458 0.899806 0.724581
O O2 0.800300 0.799349 0.755321
O O3 0.622283 0.854186 0.961739
O O4 0.858071 0.857171 0.905310
O O5 0.542488 0.435773 0.213191
O O6 0.397498 0.358568 0.287837
O O7 0.500000 0.394521 0.000000
O O8 0.829256 0.317445 0.477200
O O9 0.878365 0.229368 0.388213
O O10 0.070592 0.280532 0.296334
O O11 0.956444 0.295897 0.161411
O O12 0.000000 0.947910 0.500000
O O13 0.831007 0.000000 0.737183
O O14 0.291242 0.289346 0.220380
O O15 0.250000 0.750000 0.000000
#
# Coordination Sequence:
#
# PCOD9212900 Si02
#       7
#     8   8   8   8   8   8   4
#     4  10  22  34  60  80 114 155 197 236 294 348
#     4  10  22  37  60  86 117 151 192 245 306 353
#     4  11  22  33  48  76 114 157 199 235 284 334
#     4   9  21  41  65  90 114 146 196 256 310 351
#     4  11  23  32  52  80 113 155 201 240 287 346
#     4  12  20  35  51  75 120 160 197 232 275 350
#     4  12  22  36  53  80 114 158 189 244 282 346
#
# _framework density 17.680219999999998
#
# number of rings (size 3 to 8) (size 9 to 14) (size 15 to 20)
#    0.923    0.462    4.615    1.385    3.231    1.538 
#    0.000    0.385    0.000    0.000    0.000    0.000 
#    0.000    4.923    0.000    0.000    0.000    0.000 
#
# Total GULP energy -144752.720341 kJ/mol
# GULP energy per Si atom -5567.412321 kJ/mol
# Density = 1.763998 g / cm^3
# Si number density = 17.680220 Si / 1000 Ang^3
#
#
#
# Elastic Constant Matrix: (Units=GPa)
#
#
# Indices 1 2 3 4 5 6 
#
# 1 98.6128 3.1098 17.9092 0.0000 -16.2995 0.0000
# 2 3.1098 74.5994 20.4282 0.0000 -10.5613 0.0000
# 3 17.9092 20.4282 81.7531 0.0000 -10.0747 0.0000
# 4 0.0000 0.0000 0.0000 1.3598 0.0000 -5.6274
# 5 -16.2995 -10.5613 -10.0747 0.0000 29.5899 0.0000
# 6 0.0000 0.0000 0.0000 -5.6274 0.0000 13.7502
#
#
#
# Elastic Compliance Matrix: (Units=1/GPa)
#
#
# Indices 1 2 3 4 5 6 
#
# 1 0.011461 0.000915 -0.002005 0.000000 0.005957 0.000000
# 2 0.000915 0.014951 -0.003357 0.000000 0.004697 0.000000
# 3 -0.002005 -0.003357 0.013806 0.000000 0.002398 0.000000
# 4 0.000000 0.000000 0.000000 -1.060115 0.000000 -0.433860
# 5 0.005957 0.004697 0.002398 0.000000 0.039569 0.000000
# 6 0.000000 0.000000 0.000000 -0.433860 0.000000 -0.104835
#
#
# Mechanical properties :
#
#
# Convention : Reuss Voigt Hill
#
# Bulk Modulus (GPa) = 31.92692 37.53997 34.73344
# Shear Modulus (GPa) = -4.69119 23.17451 9.24166
#
# Velocity S-wave (km/s) = -1.63068 3.62437 2.28877
# Velocity P-wave (km/s) = 3.81467 6.22845 5.16456
#
# Compressibility (1/GPa) = 0.03132154
#
# Stress axis : x y z
#
# Youngs Moduli (GPa) = 87.25583 66.88419 72.43426
#
# Poissons Ratio (x) = -0.06118 0.14524
# Poissons Ratio (y) = -0.07981 0.24320
# Poissons Ratio (z) = 0.17496 0.22456
#
# Static dielectric constant tensor:
#      x y z
#    x 1.681180 0.000000 0.027610 
#    y 0.000000 1.602560 0.000000 
#    z 0.027610 0.000000 1.660190 
# 
# From -- ./inp_files/54106.got.cif
#   From: 2010.05.17/outbox.cif.g08.bks.cpg/sg12_28_cif.got.tgz:54106.got - 2010.06.03 13:09:07.
