data_PCOD9212974
_publ_section_title
;
Structure prediction by ZEFSAII (Michael W. Deem and Ramdas Pophale) SiO2 
 PCOD9212974
Probable space group: C 2/M
;
_chemical_formula_sum "Si O2"
_cell_formula_units_Z 56
_cell_length_a 14.159328
_cell_length_b 28.597473
_cell_length_c 14.550383
_cell_angle_alpha 90.000000
_cell_angle_beta 30.948721
_cell_angle_gamma 90.000000
_cell_volume 3029.957383
_symmetry_space_group_name_H-M "C 2/M"
_symmetry_group_IT_number 12
_symmetry_cell_setting 'monoclinic'
loop_
_space_group_symop_operation_xyz
x,y,z
-x,y,-z
-x,-y,-z
x,-y,z
1/2+x,1/2+y,z
1/2-x,1/2+y,-z
1/2-x,1/2-y,-z
1/2+x,1/2-y,z
loop_
_atom_site_type_symbol
_atom_site_label
_atom_site_fract_x
_atom_site_fract_y
_atom_site_fract_z
Si Si1 0.764487 0.376627 0.607609
Si Si2 0.767728 0.715205 0.145337
Si Si3 0.595762 0.170702 0.796460
Si Si4 0.954299 0.945232 0.929215
Si Si5 0.637387 0.297356 0.580777
Si Si6 0.599728 0.117281 0.192084
Si Si7 0.717205 0.319935 0.823285
O O1 0.618458 0.417850 0.742205
O O2 0.671798 0.332883 0.633988
O O3 0.804010 0.353647 0.674034
O O4 0.933243 0.392363 0.402381
O O5 0.813417 0.672827 0.177986
O O6 0.576509 0.709454 0.255467
O O7 0.756194 0.764474 0.208636
O O8 0.943507 0.712395 0.931491
O O9 0.765852 0.180502 0.588703
O O10 0.484363 0.129029 0.838173
O O11 0.950219 0.000000 0.910310
O O12 0.760404 0.920931 0.065791
O O13 0.000000 0.940813 0.000000
O O14 0.750000 0.250000 0.500000
O O15 0.694627 0.164274 0.153974
O O16 0.500000 0.328920 0.000000
#
# Coordination Sequence:
#
# PCOD9212974 Si02
#       7
#     8   8   8   8   8   8   8
#     4  11  22  38  56  84 114 156 192 235 296 348
#     4  11  22  37  53  76 119 153 200 244 278 331
#     4  10  22  36  52  79 104 155 191 237 288 329
#     4  11  23  40  61  86 114 147 191 242 299 362
#     4  11  23  35  55  83 116 154 203 241 282 344
#     4  11  22  37  58  80 112 147 191 234 292 354
#     4  12  21  34  53  77 114 157 194 236 283 339
#
# _framework density 18.482108
#
# number of rings (size 3 to 8) (size 9 to 14) (size 15 to 20)
#    0.000    1.000    4.286    4.286    0.000    2.857 
#    0.000    1.429    0.000    0.000    0.000    8.000 
#    0.000   22.857    0.000    0.000    0.000    0.000 
#
# Total GULP energy -156172.351648 kJ/mol
# GULP energy per Si atom -5577.583987 kJ/mol
# Density = 1.844004 g / cm^3
# Si number density = 18.482108 Si / 1000 Ang^3
#
#
#
# Elastic Constant Matrix: (Units=GPa)
#
#
# Indices 1 2 3 4 5 6 
#
# 1 61.2285 27.8639 17.6743 -0.0005 -8.3710 -0.0003
# 2 27.8639 98.8911 29.5529 -0.0001 -2.6495 -0.0001
# 3 17.6743 29.5529 77.1331 -0.0006 -23.3085 -0.0006
# 4 -0.0005 -0.0001 -0.0006 15.8718 0.0004 -2.0786
# 5 -8.3710 -2.6495 -23.3085 0.0004 31.5351 0.0004
# 6 -0.0003 -0.0001 -0.0006 -2.0786 0.0004 12.8133
#
#
#
# Elastic Compliance Matrix: (Units=1/GPa)
#
#
# Indices 1 2 3 4 5 6 
#
# 1 0.019516 -0.004965 -0.001455 0.000000 0.003688 0.000000
# 2 -0.004965 0.012897 -0.004989 0.000000 -0.003922 0.000000
# 3 -0.001455 -0.004989 0.019270 0.000000 0.013438 0.000000
# 4 0.000000 0.000000 0.000000 0.064373 -0.000001 0.010443
# 5 0.003688 -0.003922 0.013438 -0.000001 0.042292 -0.000001
# 6 0.000000 0.000000 0.000000 0.010443 -0.000001 0.079738
#
#
# Mechanical properties :
#
#
# Convention : Reuss Voigt Hill
#
# Bulk Modulus (GPa) = 34.64410 43.04832 38.84621
# Shear Modulus (GPa) = 18.48255 22.85482 20.66868
#
# Velocity S-wave (km/s) = 3.16575 3.52034 3.34774
# Velocity P-wave (km/s) = 5.66992 6.31396 6.00059
#
# Compressibility (1/GPa) = 0.02886494
#
# Stress axis : x y z
#
# Youngs Moduli (GPa) = 51.23976 77.53784 51.89402
#
# Poissons Ratio (x) = 0.38500 0.07551
# Poissons Ratio (y) = 0.25442 0.25888
# Poissons Ratio (z) = 0.07456 0.38681
#
# Static dielectric constant tensor:
#      x y z
#    x 1.544970 0.000000 0.041370 
#    y 0.000000 1.613610 0.000000 
#    z 0.041370 0.000000 1.688630 
# 
# From -- ./inp_files/219103.got.cif
#   From: 2010.05.17/outbox.cif.g08.bks.cpg/sg12_110_cif.got.tgz:219103.got - 2010.06.03 13:09:07.
