data_PCOD9212848
_publ_section_title
;
Structure prediction by ZEFSAII (Michael W. Deem and Ramdas Pophale) SiO2 
 PCOD9212848
Probable space group: C 2/M
;
_chemical_formula_sum "Si O2"
_cell_formula_units_Z 44
_cell_length_a 9.418363
_cell_length_b 23.107183
_cell_length_c 17.403663
_cell_angle_alpha 90.000000
_cell_angle_beta 39.202240
_cell_angle_gamma 90.000000
_cell_volume 2393.983347
_symmetry_space_group_name_H-M "C 2/M"
_symmetry_group_IT_number 12
_symmetry_cell_setting 'monoclinic'
loop_
_space_group_symop_operation_xyz
x,y,z
-x,y,-z
-x,-y,-z
x,-y,z
1/2+x,1/2+y,z
1/2-x,1/2+y,-z
1/2-x,1/2-y,-z
1/2+x,1/2-y,z
loop_
_atom_site_type_symbol
_atom_site_label
_atom_site_fract_x
_atom_site_fract_y
_atom_site_fract_z
Si Si1 0.690728 0.000000 0.041557
Si Si2 0.000000 0.087648 0.000000
Si Si3 0.111005 0.131804 0.234412
Si Si4 0.572243 0.675323 0.081544
Si Si5 0.043876 0.704137 0.813522
Si Si6 0.742056 0.729813 0.589833
Si Si7 0.188266 0.000000 0.190083
O O1 0.425335 0.000000 0.137269
O O2 0.797011 0.052216 0.046519
O O3 0.780128 0.000000 0.916102
O O4 0.076452 0.127131 0.896978
O O5 0.164372 0.150768 0.123823
O O6 0.305339 0.155665 0.209049
O O7 0.895442 0.170554 0.343871
O O8 0.081393 0.062782 0.252624
O O9 0.435900 0.734131 0.150924
O O10 0.784079 0.688654 0.937604
O O11 0.127317 0.722099 0.693902
O O12 0.750000 0.750000 0.500000
O O13 0.000000 0.720509 0.500000
#
# Coordination Sequence:
#
# PCOD9212848 Si02
#       7
#     4   4   8   8   8   8   4
#     4  10  22  36  56  78 136 174 211 234 295 378
#     4  11  20  34  52  88 128 179 194 252 286 373
#     4  11  22  39  64  90 126 167 204 253 308 378
#     4  10  22  32  56  95 133 158 201 245 322 372
#     4  10  22  36  59  92 128 163 198 256 314 379
#     4  11  23  43  65  91 120 162 211 263 315 366
#     4  11  22  42  57  91 118 176 209 245 299 384
#
# _framework density 18.379408999999999
#
# number of rings (size 3 to 8) (size 9 to 14) (size 15 to 20)
#    0.000    1.455    3.636    1.636   10.182    0.000 
#    0.000    0.455    0.000    2.182    0.000    0.000 
#    0.000    0.000    0.000    0.000    0.000    0.000 
#
# Total GULP energy -122620.809169 kJ/mol
# GULP energy per Si atom -5573.673144 kJ/mol
# Density = 1.833758 g / cm^3
# Si number density = 18.379409 Si / 1000 Ang^3
#
#
#
# Elastic Constant Matrix: (Units=GPa)
#
#
# Indices 1 2 3 4 5 6 
#
# 1 107.1689 43.2466 42.1010 -0.0001 13.3951 0.0000
# 2 43.2466 130.8652 32.4559 -0.0001 18.9291 0.0000
# 3 42.1010 32.4559 102.8718 -0.0005 15.8546 0.0003
# 4 -0.0001 -0.0001 -0.0005 -1.3434 0.0002 16.0786
# 5 13.3951 18.9291 15.8546 0.0002 22.6550 -0.0001
# 6 0.0000 0.0000 0.0003 16.0786 -0.0001 26.0160
#
#
#
# Elastic Compliance Matrix: (Units=1/GPa)
#
#
# Indices 1 2 3 4 5 6 
#
# 1 0.012216 -0.002773 -0.003776 0.000000 -0.002264 0.000000
# 2 -0.002773 0.009636 -0.001028 0.000000 -0.005692 0.000000
# 3 -0.003776 -0.001028 0.012458 -0.000001 -0.005627 0.000000
# 4 0.000000 0.000000 -0.000001 -0.088649 0.000002 0.054788
# 5 -0.002264 -0.005692 -0.005627 0.000002 0.054173 -0.000001
# 6 0.000000 0.000000 0.000000 0.054788 -0.000001 0.004578
#
#
# Mechanical properties :
#
#
# Convention : Reuss Voigt Hill
#
# Bulk Modulus (GPa) = 52.20240 64.05700 58.12970
# Shear Modulus (GPa) = 192.66911 24.33901 108.50406
#
# Velocity S-wave (km/s) = 10.24970 3.64298 7.69180
# Velocity P-wave (km/s) = 12.98227 7.25419 10.51577
#
# Compressibility (1/GPa) = 0.01915621
#
# Stress axis : x y z
#
# Youngs Moduli (GPa) = 81.85689 103.77503 80.27203
#
# Poissons Ratio (x) = 0.28780 0.30309
# Poissons Ratio (y) = 0.22701 0.08251
# Poissons Ratio (z) = 0.30908 0.10667
#
# Static dielectric constant tensor:
#      x y z
#    x 1.674690 0.000000 0.002390 
#    y 0.000000 1.700080 0.000000 
#    z 0.002390 0.000000 1.615640 
# 
# From -- ./inp_files/259108.got.cif
#   From: 2010.05.17/outbox.cif.g08.bks.cpg/sg12_130_cif.got.tgz:259108.got - 2010.06.03 13:09:07.
