data_PCOD9212824
_publ_section_title
;
Structure prediction by ZEFSAII (Michael W. Deem and Ramdas Pophale) SiO2 
 PCOD9212824
Probable space group: C 2/M
;
_chemical_formula_sum "Si O2"
_cell_formula_units_Z 60
_cell_length_a 9.788720
_cell_length_b 19.349943
_cell_length_c 22.776124
_cell_angle_alpha 90.000000
_cell_angle_beta 134.170035
_cell_angle_gamma 90.000000
_cell_volume 3094.362437
_symmetry_space_group_name_H-M "C 2/M"
_symmetry_group_IT_number 12
_symmetry_cell_setting 'monoclinic'
loop_
_space_group_symop_operation_xyz
x,y,z
-x,y,-z
-x,-y,-z
x,-y,z
1/2+x,1/2+y,z
1/2-x,1/2+y,-z
1/2-x,1/2-y,-z
1/2+x,1/2-y,z
loop_
_atom_site_type_symbol
_atom_site_label
_atom_site_fract_x
_atom_site_fract_y
_atom_site_fract_z
Si Si1 0.964696 0.831326 0.054043
Si Si2 0.969748 0.266615 0.556957
Si Si3 0.358650 0.383565 0.370740
Si Si4 0.977515 0.395336 0.639779
Si Si5 0.320681 0.500000 0.502512
Si Si6 0.090506 0.922140 0.201075
Si Si7 0.484313 0.827737 0.061740
Si Si8 0.202583 0.917222 0.782941
O O1 0.047422 0.873255 0.133280
O O2 0.045754 0.752887 0.080777
O O3 0.737198 0.828412 0.990018
O O4 0.000000 0.861212 0.000000
O O5 0.750000 0.250000 0.500000
O O6 0.016506 0.321821 0.620929
O O7 0.000000 0.294366 0.500000
O O8 0.079973 0.194350 0.595985
O O9 0.156167 0.394560 0.342319
O O10 0.512238 0.439485 0.439799
O O11 0.348604 0.394934 0.298159
O O12 0.846438 0.440337 0.556798
O O13 0.186434 0.422824 0.716966
O O14 0.966398 0.901603 0.221128
O O15 0.029818 0.000000 0.167398
O O16 0.613572 0.874788 0.141345
O O17 0.500000 0.854034 0.000000
O O18 0.233700 0.000000 0.792699
#
# Coordination Sequence:
#
# PCOD9212824 Si02
#       8
#     8   8   8   8   4   8   8   8
#     4  10  23  43  70 100 134 175 226 275 334 401
#     4  12  25  46  67  96 129 172 233 280 338 403
#     4  12  25  45  69  97 134 178 229 277 331 404
#     4  12  26  44  70  99 133 180 222 285 337 391
#     4  12  23  46  73  94 135 182 225 275 333 406
#     4  11  26  45  64 101 143 172 220 283 341 397
#     4  10  21  45  71  96 132 179 222 270 333 403
#     4  11  26  44  67 102 137 176 226 276 337 407
#
# _framework density 19.390101999999999
#
# number of rings (size 3 to 8) (size 9 to 14) (size 15 to 20)
#    0.000    0.800    5.333    1.200    5.600    1.067 
#    0.000    1.000    0.000    0.000    0.000    0.000 
#    0.000    0.000    0.000    0.000    0.000    0.000 
#
# Total GULP energy -167044.604423 kJ/mol
# GULP energy per Si atom -5568.153481 kJ/mol
# Density = 1.934597 g / cm^3
# Si number density = 19.390102 Si / 1000 Ang^3
#
#
#
# Elastic Constant Matrix: (Units=GPa)
#
#
# Indices 1 2 3 4 5 6 
#
# 1 88.5389 15.0825 44.6978 0.0000 -3.5757 0.0000
# 2 15.0825 81.9489 40.3147 0.0001 -6.9914 0.0000
# 3 44.6978 40.3147 116.1266 0.0001 -9.6424 0.0000
# 4 0.0000 0.0001 0.0001 39.4523 0.0001 9.7069
# 5 -3.5757 -6.9914 -9.6424 0.0001 38.5320 0.0000
# 6 0.0000 0.0000 0.0000 9.7069 0.0000 12.2158
#
#
#
# Elastic Compliance Matrix: (Units=1/GPa)
#
#
# Indices 1 2 3 4 5 6 
#
# 1 0.014019 0.000087 -0.005430 0.000000 -0.000042 0.000000
# 2 0.000087 0.014793 -0.005051 0.000000 0.001428 0.000000
# 3 -0.005430 -0.005051 0.012599 0.000000 0.001732 0.000000
# 4 0.000000 0.000000 0.000000 0.031507 0.000000 -0.025036
# 5 -0.000042 0.001428 0.001732 0.000000 0.026641 0.000000
# 6 0.000000 0.000000 0.000000 -0.025036 0.000000 0.101755
#
#
# Mechanical properties :
#
#
# Convention : Reuss Voigt Hill
#
# Bulk Modulus (GPa) = 48.48580 54.08938 51.28759
# Shear Modulus (GPa) = 21.83644 30.47465 26.15554
#
# Velocity S-wave (km/s) = 3.35948 3.96872 3.67674
# Velocity P-wave (km/s) = 6.33308 6.99692 6.67326
#
# Compressibility (1/GPa) = 0.02062459
#
# Stress axis : x y z
#
# Youngs Moduli (GPa) = 71.33131 67.59873 79.37425
#
# Poissons Ratio (x) = -0.00591 0.43099
# Poissons Ratio (y) = -0.00624 0.40089
# Poissons Ratio (z) = 0.38732 0.34142
#
# Static dielectric constant tensor:
#      x y z
#    x 1.666210 0.000000 -0.033570 
#    y 0.000000 1.726090 0.000000 
#    z -0.033570 0.000000 1.657880 
# 
# From -- ./inp_files/301909.got.cif
#   From: 2010.05.17/outbox.cif.g08.bks.cpg/sg12_151_cif.got.tgz:301909.got - 2010.06.03 13:09:07.
