data_PCOD9212350
_publ_section_title
;
Structure prediction by ZEFSAII (Michael W. Deem and Ramdas Pophale) SiO2 
 PCOD9212350
Probable space group: C 2/M
;
_chemical_formula_sum "Si O2"
_cell_formula_units_Z 40
_cell_length_a 9.875728
_cell_length_b 23.566394
_cell_length_c 9.499291
_cell_angle_alpha 90.000000
_cell_angle_beta 59.263784
_cell_angle_gamma 90.000000
_cell_volume 1900.265038
_symmetry_space_group_name_H-M "C 2/M"
_symmetry_group_IT_number 12
_symmetry_cell_setting 'monoclinic'
loop_
_space_group_symop_operation_xyz
x,y,z
-x,y,-z
-x,-y,-z
x,-y,z
1/2+x,1/2+y,z
1/2-x,1/2+y,-z
1/2-x,1/2-y,-z
1/2+x,1/2-y,z
loop_
_atom_site_type_symbol
_atom_site_label
_atom_site_fract_x
_atom_site_fract_y
_atom_site_fract_z
Si Si1 0.155510 0.500000 0.012598
Si Si2 0.274425 0.896497 0.500911
Si Si3 0.267950 0.772120 0.834191
Si Si4 0.629462 0.897538 0.243897
Si Si5 0.600513 0.718627 0.645562
Si Si6 0.177849 0.000000 0.360194
O O1 0.292596 0.500000 0.822520
O O2 0.149044 0.444959 0.115387
O O3 0.000000 0.500000 0.000000
O O4 0.449740 0.876469 0.364808
O O5 0.302432 0.920282 0.643754
O O6 0.142569 0.847310 0.586859
O O7 0.243936 0.944116 0.401188
O O8 0.284407 0.839656 0.837333
O O9 0.428900 0.741282 0.693213
O O10 0.127539 0.766089 0.796345
O O11 0.250000 0.750000 0.000000
O O12 0.750000 0.750000 0.500000
O O13 0.000000 0.000000 0.500000
#
# Coordination Sequence:
#
# PCOD9212350 Si02
#       6
#     4   8   8   8   8   4
#     4  12  23  39  67  97 122 156 217 270 320 361
#     4  10  21  42  66  89 126 171 216 254 321 390
#     4  11  24  40  62  96 132 167 215 265 318 377
#     4  10  21  41  68  92 122 171 218 259 309 394
#     4  11  22  40  64  91 124 172 213 258 317 383
#     4  12  27  43  61  99 132 161 207 274 329 374
#
# _framework density 21.049695
#
# number of rings (size 3 to 8) (size 9 to 14) (size 15 to 20)
#    0.000    1.200    4.000    1.800    0.000    8.000 
#    0.000    4.000    0.000    0.000    0.000    0.000 
#    0.000    0.000    0.000    0.000    0.000    0.000 
#
# Total GULP energy -111582.523566 kJ/mol
# GULP energy per Si atom -5579.126178 kJ/mol
# Density = 2.100178 g / cm^3
# Si number density = 21.049695 Si / 1000 Ang^3
#
#
#
# Elastic Constant Matrix: (Units=GPa)
#
#
# Indices 1 2 3 4 5 6 
#
# 1 54.0373 10.9693 -0.8867 0.0000 3.2479 0.0000
# 2 10.9693 67.9925 23.6368 0.0000 13.0501 0.0000
# 3 -0.8867 23.6368 122.7229 0.0000 13.0700 0.0000
# 4 0.0000 0.0000 0.0000 32.2600 0.0000 8.2401
# 5 3.2479 13.0501 13.0700 0.0000 33.4548 0.0000
# 6 0.0000 0.0000 0.0000 8.2401 0.0000 12.2692
#
#
#
# Elastic Compliance Matrix: (Units=1/GPa)
#
#
# Indices 1 2 3 4 5 6 
#
# 1 0.019230 -0.003220 0.000860 0.000000 -0.000947 0.000000
# 2 -0.003220 0.017211 -0.002772 0.000000 -0.005318 0.000000
# 3 0.000860 -0.002772 0.008955 0.000000 -0.002501 0.000000
# 4 0.000000 0.000000 0.000000 0.037417 0.000000 -0.025130
# 5 -0.000947 -0.005318 -0.002501 0.000000 0.033035 0.000000
# 6 0.000000 0.000000 0.000000 -0.025130 0.000000 0.098382
#
#
# Mechanical properties :
#
#
# Convention : Reuss Voigt Hill
#
# Bulk Modulus (GPa) = 28.46297 34.68794 31.57546
# Shear Modulus (GPa) = 21.16814 29.66571 25.41692
#
# Velocity S-wave (km/s) = 3.17460 3.75816 3.47864
# Velocity P-wave (km/s) = 5.19506 5.94530 5.58279
#
# Compressibility (1/GPa) = 0.03513337
#
# Stress axis : x y z
#
# Youngs Moduli (GPa) = 52.00120 58.10144 111.67153
#
# Poissons Ratio (x) = 0.18707 -0.09603
# Poissons Ratio (y) = 0.16743 0.30953
# Poissons Ratio (z) = -0.04472 0.16105
#
# Static dielectric constant tensor:
#      x y z
#    x 1.734350 0.000000 0.022690 
#    y 0.000000 1.606330 0.000000 
#    z 0.022690 0.000000 1.829830 
# 
# From -- ./inp_files/50451.got.cif
#   From: 2010.05.17/outbox.cif.g08.bks.cpg/sg12_26_cif.got.tgz:50451.got - 2010.06.03 13:09:07.
