data_PCOD9212526
_publ_section_title
;
Structure prediction by ZEFSAII (Michael W. Deem and Ramdas Pophale) SiO2 
 PCOD9212526
Probable space group: C 2/M
;
_chemical_formula_sum "Si O2"
_cell_formula_units_Z 64
_cell_length_a 24.869936
_cell_length_b 19.340524
_cell_length_c 18.649482
_cell_angle_alpha 90.000000
_cell_angle_beta 159.450215
_cell_angle_gamma 90.000000
_cell_volume 3148.784533
_symmetry_space_group_name_H-M "C 2/M"
_symmetry_group_IT_number 12
_symmetry_cell_setting 'monoclinic'
loop_
_space_group_symop_operation_xyz
x,y,z
-x,y,-z
-x,-y,-z
x,-y,z
1/2+x,1/2+y,z
1/2-x,1/2+y,-z
1/2-x,1/2-y,-z
1/2+x,1/2-y,z
loop_
_atom_site_type_symbol
_atom_site_label
_atom_site_fract_x
_atom_site_fract_y
_atom_site_fract_z
Si Si1 0.265025 0.291918 0.342199
Si Si2 0.666441 0.081487 0.724794
Si Si3 0.010609 0.735811 0.911513
Si Si4 0.025687 0.889368 0.955037
Si Si5 0.449204 0.420873 0.591766
Si Si6 0.305130 0.080131 0.070223
Si Si7 0.709712 0.574983 0.451502
Si Si8 0.940021 0.686086 0.669017
O O1 0.370720 0.357041 0.454216
O O2 0.366231 0.235498 0.514663
O O3 0.122657 0.310428 0.218428
O O4 0.172374 0.273579 0.153649
O O5 0.500000 0.110165 0.500000
O O6 0.701043 0.087410 0.851599
O O7 0.667418 0.000000 0.707030
O O8 0.797055 0.115544 0.841420
O O9 0.960334 0.812321 0.871690
O O10 0.004482 0.729210 0.818056
O O11 0.936577 0.928528 0.782891
O O12 0.000000 0.920616 0.000000
O O13 0.422167 0.500000 0.532422
O O14 0.367041 0.414821 0.566981
O O15 0.631815 0.410837 0.825898
O O16 0.425594 0.136347 0.192391
O O17 0.352159 0.000000 0.113759
O O18 0.790219 0.500000 0.551833
O O19 0.816030 0.634577 0.551144
#
# Coordination Sequence:
#
# PCOD9212526 Si02
#       8
#     8   8   8   8   8   8   8   8
#     4  11  22  42  65  92 131 166 210 262 332 377
#     4  10  23  39  56  84 130 176 210 259 318 377
#     4  11  23  40  62  97 132 160 209 277 319 373
#     4  12  22  38  60  90 125 170 212 265 319 377
#     4  10  21  42  66  86 119 166 211 263 319 378
#     4  10  23  43  62  90 131 169 212 262 320 380
#     4  11  21  35  60  92 121 162 218 257 305 381
#     4  12  23  40  67  94 127 173 207 265 321 375
#
# _framework density 20.325303000000002
#
# number of rings (size 3 to 8) (size 9 to 14) (size 15 to 20)
#    0.000    1.125    5.000    1.875    3.500    1.500 
#    0.000    3.125    0.000    1.500    0.000    0.000 
#    0.000    0.000    0.000    0.000    0.000    0.000 
#
# Total GULP energy -178435.610171 kJ/mol
# GULP energy per Si atom -5576.112818 kJ/mol
# Density = 2.027904 g / cm^3
# Si number density = 20.325303 Si / 1000 Ang^3
#
#
#
# Elastic Constant Matrix: (Units=GPa)
#
#
# Indices 1 2 3 4 5 6 
#
# 1 43.6621 15.5185 33.0032 0.0000 6.5889 0.0000
# 2 15.5185 80.0375 59.2344 0.0000 -1.1046 0.0000
# 3 33.0032 59.2344 113.9297 0.0000 -5.3425 -0.0001
# 4 0.0000 0.0000 0.0000 33.1211 0.0000 9.0552
# 5 6.5889 -1.1046 -5.3425 0.0000 31.5973 0.0000
# 6 0.0000 0.0000 -0.0001 9.0552 0.0000 15.9266
#
#
#
# Elastic Compliance Matrix: (Units=1/GPa)
#
#
# Indices 1 2 3 4 5 6 
#
# 1 0.031346 0.001323 -0.010153 0.000000 -0.008207 0.000000
# 2 0.001323 0.020401 -0.011058 0.000000 -0.001432 0.000000
# 3 -0.010153 -0.011058 0.017689 0.000000 0.004721 0.000000
# 4 0.000000 0.000000 0.000000 0.035749 0.000000 -0.020326
# 5 -0.008207 -0.001432 0.004721 0.000000 0.034108 0.000000
# 6 0.000000 0.000000 0.000000 -0.020326 0.000000 0.074344
#
#
# Mechanical properties :
#
#
# Convention : Reuss Voigt Hill
#
# Bulk Modulus (GPa) = 33.71400 50.34905 42.03153
# Shear Modulus (GPa) = 18.98978 24.78721 21.88850
#
# Velocity S-wave (km/s) = 3.05994 3.49596 3.28519
# Velocity P-wave (km/s) = 5.39514 6.41257 5.92573
#
# Compressibility (1/GPa) = 0.02966127
#
# Stress axis : x y z
#
# Youngs Moduli (GPa) = 31.90218 49.01640 56.53250
#
# Poissons Ratio (x) = -0.06486 0.57398
# Poissons Ratio (y) = -0.04221 0.62511
# Poissons Ratio (z) = 0.32390 0.54200
#
# Static dielectric constant tensor:
#      x y z
#    x 1.699860 0.000000 -0.019310 
#    y 0.000000 1.792220 0.000000 
#    z -0.019310 0.000000 1.744870 
# 
# From -- ./inp_files/290930.got.cif
#   From: 2010.05.17/outbox.cif.g08.bks.cpg/sg12_146_cif.got.tgz:290930.got - 2010.06.03 13:09:07.
