data_PCOD9212255
_publ_section_title
;
Structure prediction by ZEFSAII (Michael W. Deem and Ramdas Pophale) SiO2 
 PCOD9212255
Probable space group: C 2/M
;
_chemical_formula_sum "Si O2"
_cell_formula_units_Z 52
_cell_length_a 14.736181
_cell_length_b 14.848105
_cell_length_c 11.770882
_cell_angle_alpha 90.000000
_cell_angle_beta 74.578924
_cell_angle_gamma 90.000000
_cell_volume 2482.795565
_symmetry_space_group_name_H-M "C 2/M"
_symmetry_group_IT_number 12
_symmetry_cell_setting 'monoclinic'
loop_
_space_group_symop_operation_xyz
x,y,z
-x,y,-z
-x,-y,-z
x,-y,z
1/2+x,1/2+y,z
1/2-x,1/2+y,-z
1/2-x,1/2-y,-z
1/2+x,1/2-y,z
loop_
_atom_site_type_symbol
_atom_site_label
_atom_site_fract_x
_atom_site_fract_y
_atom_site_fract_z
Si Si1 0.000000 0.336818 0.500000
Si Si2 0.015233 0.780548 0.127798
Si Si3 0.671682 0.603414 0.779961
Si Si4 0.719875 0.097161 0.767038
Si Si5 0.493470 0.901873 0.251519
Si Si6 0.701822 0.235664 0.394892
Si Si7 0.787851 0.148513 0.977687
O O1 0.988158 0.393407 0.388972
O O2 0.907916 0.277153 0.549217
O O3 0.104540 0.846156 0.102343
O O4 0.920443 0.831825 0.198772
O O5 0.038882 0.689157 0.187345
O O6 0.000000 0.757162 0.000000
O O7 0.650400 0.500000 0.757962
O O8 0.752884 0.646832 0.676418
O O9 0.706584 0.607770 0.898951
O O10 0.612093 0.102412 0.763251
O O11 0.773694 0.180929 0.694550
O O12 0.726874 0.102886 0.900547
O O13 0.757863 0.000000 0.716598
O O14 0.534834 0.000000 0.207122
O O15 0.750000 0.250000 0.500000
O O16 0.750000 0.250000 0.000000
#
# Coordination Sequence:
#
# PCOD9212255 Si02
#       7
#     4   8   8   8   8   8   8
#     4  12  25  44  69  92 126 176 221 280 333 382
#     4  10  21  41  66  93 135 172 215 270 328 393
#     4  11  24  42  68  99 130 173 229 278 329 398
#     4  11  22  40  66  95 132 171 210 270 332 393
#     4  11  23  41  64  94 128 170 220 268 325 392
#     4  12  24  46  68  94 133 172 223 278 332 388
#     4  11  21  40  66  96 138 175 213 268 333 396
#
# _framework density 20.944132
#
# number of rings (size 3 to 8) (size 9 to 14) (size 15 to 20)
#    0.000    0.923    4.615    2.538    0.000    5.538 
#    0.000    1.154    0.000    0.000    0.000    0.000 
#    0.000    0.000    0.000    0.000    0.000    0.000 
#
# Total GULP energy -145403.284135 kJ/mol
# GULP energy per Si atom -5592.434005 kJ/mol
# Density = 2.089646 g / cm^3
# Si number density = 20.944132 Si / 1000 Ang^3
#
#
#
# Elastic Constant Matrix: (Units=GPa)
#
#
# Indices 1 2 3 4 5 6 
#
# 1 87.6379 -4.3309 31.2695 0.0000 8.3506 0.0000
# 2 -4.3309 119.4510 24.7849 0.0000 -2.6170 0.0000
# 3 31.2695 24.7849 80.6668 0.0000 12.9417 0.0000
# 4 0.0000 0.0000 0.0000 1.4467 0.0000 -11.4488
# 5 8.3506 -2.6170 12.9417 0.0000 45.4112 0.0000
# 6 0.0000 0.0000 0.0000 -11.4488 0.0000 -32.6882
#
#
#
# Elastic Compliance Matrix: (Units=1/GPa)
#
#
# Indices 1 2 3 4 5 6 
#
# 1 0.013581 0.001646 -0.005643 0.000000 -0.000794 0.000000
# 2 0.001646 0.009222 -0.003676 0.000000 0.001277 0.000000
# 3 -0.005643 -0.003676 0.016328 0.000000 -0.003827 0.000000
# 4 0.000000 0.000000 0.000000 0.183264 0.000000 -0.064187
# 5 -0.000794 0.001277 -0.003827 0.000000 0.023331 0.000000
# 6 0.000000 0.000000 0.000000 -0.064187 0.000000 -0.008111
#
#
# Mechanical properties :
#
#
# Convention : Reuss Voigt Hill
#
# Bulk Modulus (GPa) = 42.04458 43.46696 42.75577
# Shear Modulus (GPa) = 19.16524 18.56944 18.86734
#
# Velocity S-wave (km/s) = 3.02829 2.98084 3.00466
# Velocity P-wave (km/s) = 5.68732 5.71367 5.70051
#
# Compressibility (1/GPa) = 0.02378428
#
# Stress axis : x y z
#
# Youngs Moduli (GPa) = 73.63254 108.43575 61.24606
#
# Poissons Ratio (x) = -0.17846 0.34559
# Poissons Ratio (y) = -0.12118 0.22516
# Poissons Ratio (z) = 0.41549 0.39864
#
# Static dielectric constant tensor:
#      x y z
#    x 1.761270 0.000000 0.001250 
#    y 0.000000 1.781180 0.000000 
#    z 0.001250 0.000000 1.742850 
# 
# From -- ./inp_files/143640.got.cif
#   From: 2010.05.17/outbox.cif.g08.bks.cpg/sg12_72_cif.got.tgz:143640.got - 2010.06.03 13:09:07.
