data_PCOD9212153
_publ_section_title
;
Structure prediction by ZEFSAII (Michael W. Deem and Ramdas Pophale) SiO2 
 PCOD9212153
Probable space group: C 2/M
;
_chemical_formula_sum "Si O2"
_cell_formula_units_Z 58
_cell_length_a 14.842422
_cell_length_b 7.613938
_cell_length_c 24.862890
_cell_angle_alpha 90.000000
_cell_angle_beta 52.924402
_cell_angle_gamma 90.000000
_cell_volume 2241.722958
_symmetry_space_group_name_H-M "C 2/M"
_symmetry_group_IT_number 12
_symmetry_cell_setting 'monoclinic'
loop_
_space_group_symop_operation_xyz
x,y,z
-x,y,-z
-x,-y,-z
x,-y,z
1/2+x,1/2+y,z
1/2-x,1/2+y,-z
1/2-x,1/2-y,-z
1/2+x,1/2-y,z
loop_
_atom_site_type_symbol
_atom_site_label
_atom_site_fract_x
_atom_site_fract_y
_atom_site_fract_z
Si Si1 0.739067 0.697404 0.565248
Si Si2 0.836741 0.708048 0.838585
Si Si3 0.898042 0.802540 0.601897
Si Si4 0.621357 0.291119 0.059543
Si Si5 0.803450 0.710488 0.251526
Si Si6 0.538636 0.212023 0.702901
Si Si7 0.894630 0.799069 0.102642
Si Si8 0.000000 0.500000 0.500000
O O1 0.786688 0.500000 0.556734
O O2 0.750000 0.750000 0.500000
O O3 0.808115 0.808169 0.584121
O O4 0.608089 0.707358 0.629186
O O5 0.824576 0.500000 0.833249
O O6 0.711571 0.785752 0.889067
O O7 0.914460 0.778699 0.762948
O O8 0.898267 0.727218 0.872965
O O9 0.821136 0.746855 0.680553
O O10 0.984552 0.656070 0.552144
O O11 0.942811 0.000000 0.592867
O O12 0.609332 0.500000 0.063210
O O13 0.519645 0.220509 0.059306
O O14 0.750000 0.250000 0.000000
O O15 0.807512 0.500000 0.242082
O O16 0.886740 0.753598 0.270928
O O17 0.846867 0.797605 0.181300
O O18 0.536613 0.000000 0.697363
O O19 0.904926 0.000000 0.079133
#
# Coordination Sequence:
#
# PCOD9212153 Si02
#       8
#     8   8   8   8   8   8   8   2
#     4  11  21  37  59  85 119 166 218 270 331 393
#     4  10  21  41  64  93 128 165 210 262 319 383
#     4  10  22  40  59  87 122 164 218 270 326 404
#     4  11  24  42  65  95 128 169 211 258 318 385
#     4   9  18  35  61  87 117 161 208 261 322 379
#     4   9  18  35  60  86 115 159 209 262 323 388
#     4  10  22  38  63  94 128 164 210 267 317 380
#     4  12  22  40  60  86 116 168 210 264 346 378
#
# _framework density 25.872955999999999
#
# number of rings (size 3 to 8) (size 9 to 14) (size 15 to 20)
#    0.000    1.931    2.069    2.690    0.966    2.759 
#    2.483    2.759    0.000    0.000    0.000    0.000 
#    0.000    0.000    0.000    0.000    0.000    0.000 
#
# Total GULP energy -162063.804036 kJ/mol
# GULP energy per Si atom -5588.407036 kJ/mol
# Density = 2.581407 g / cm^3
# Si number density = 25.872956 Si / 1000 Ang^3
#
#
#
# Elastic Constant Matrix: (Units=GPa)
#
#
# Indices 1 2 3 4 5 6 
#
# 1 104.6187 10.3889 23.6257 0.0000 -16.8121 0.0001
# 2 10.3889 91.3325 7.7621 0.0001 -14.3024 0.0004
# 3 23.6257 7.7621 125.0732 0.0000 -19.3676 0.0000
# 4 0.0000 0.0001 0.0000 24.2496 0.0000 -5.0622
# 5 -16.8121 -14.3024 -19.3676 0.0000 52.8307 0.0001
# 6 0.0001 0.0004 0.0000 -5.0622 0.0001 16.9948
#
#
#
# Elastic Compliance Matrix: (Units=1/GPa)
#
#
# Indices 1 2 3 4 5 6 
#
# 1 0.010380 -0.000649 -0.001523 0.000000 0.002569 0.000000
# 2 -0.000649 0.011481 -0.000149 0.000000 0.002847 0.000000
# 3 -0.001523 -0.000149 0.008705 0.000000 0.002666 0.000000
# 4 0.000000 0.000000 0.000000 0.043972 0.000000 0.013098
# 5 0.002569 0.002847 0.002666 0.000000 0.021494 0.000000
# 6 0.000000 0.000000 0.000000 0.013098 0.000000 0.062743
#
#
# Mechanical properties :
#
#
# Convention : Reuss Voigt Hill
#
# Bulk Modulus (GPa) = 38.57293 44.95310 41.76301
# Shear Modulus (GPa) = 29.05990 37.43151 33.24570
#
# Velocity S-wave (km/s) = 3.35502 3.80773 3.58852
# Velocity P-wave (km/s) = 5.47258 6.06169 5.77465
#
# Compressibility (1/GPa) = 0.02592491
#
# Stress axis : x y z
#
# Youngs Moduli (GPa) = 96.34225 87.09789 114.87568
#
# Poissons Ratio (x) = 0.05652 0.17490
# Poissons Ratio (y) = 0.06252 0.01713
# Poissons Ratio (z) = 0.14669 0.01299
#
# Static dielectric constant tensor:
#      x y z
#    x 1.631020 0.000000 0.095500 
#    y 0.000000 1.992570 0.000000 
#    z 0.095500 0.000000 1.966050 
# 
# From -- ./inp_files/314788.got.cif
#   From: 2010.05.17/outbox.cif.g08.bks.cpg/sg12_158_cif.got.tgz:314788.got - 2010.06.03 13:09:07.
