data_PCOD9212697
_publ_section_title
;
Structure prediction by ZEFSAII (Michael W. Deem and Ramdas Pophale) SiO2 
 PCOD9212697
Probable space group: C 2/M
;
_chemical_formula_sum "Si O2"
_cell_formula_units_Z 48
_cell_length_a 5.011801
_cell_length_b 21.441391
_cell_length_c 19.894760
_cell_angle_alpha 90.000000
_cell_angle_beta 60.456749
_cell_angle_gamma 90.000000
_cell_volume 1859.930048
_symmetry_space_group_name_H-M "C 2/M"
_symmetry_group_IT_number 12
_symmetry_cell_setting 'monoclinic'
loop_
_space_group_symop_operation_xyz
x,y,z
-x,y,-z
-x,-y,-z
x,-y,z
1/2+x,1/2+y,z
1/2-x,1/2+y,-z
1/2-x,1/2-y,-z
1/2+x,1/2-y,z
loop_
_atom_site_type_symbol
_atom_site_label
_atom_site_fract_x
_atom_site_fract_y
_atom_site_fract_z
Si Si1 0.664590 0.070199 0.074711
Si Si2 0.768392 0.432509 0.653317
Si Si3 0.165952 0.833867 0.548598
Si Si4 0.371894 0.781237 0.293078
Si Si5 0.049301 0.716617 0.084738
Si Si6 0.920135 0.408485 0.243092
O O1 0.531159 0.141118 0.076284
O O2 0.652846 0.069558 0.157307
O O3 0.533507 0.000000 0.072097
O O4 0.000000 0.072240 0.000000
O O5 0.875383 0.500000 0.616489
O O6 0.762142 0.386839 0.590701
O O7 0.964838 0.416507 0.695051
O O8 0.416625 0.436255 0.721822
O O9 0.500000 0.800111 0.500000
O O10 0.000000 0.855063 0.500000
O O11 0.889967 0.798480 0.619949
O O12 0.207175 0.721258 0.282787
O O13 0.362461 0.835639 0.240425
O O14 0.238881 0.744493 0.123183
O O15 0.250000 0.750000 0.000000
#
# Coordination Sequence:
#
# PCOD9212697 Si02
#       6
#     8   8   8   8   8   8
#     4  11  24  45  74 110 144 184 245 311 370 436
#     4  11  23  44  69  93 135 185 228 277 347 429
#     4  11  23  39  64 103 142 175 225 289 342 409
#     4  11  23  42  66  96 133 181 234 276 343 424
#     4  10  21  43  66  95 137 179 221 280 351 436
#     4  11  25  45  67  97 136 181 234 294 354 422
#
# _framework density 25.807421999999999
#
# number of rings (size 3 to 8) (size 9 to 14) (size 15 to 20)
#    0.000    1.167    1.667    6.500    0.000    5.333 
#    0.000    4.167    0.000    0.000    0.000    0.000 
#    0.000    0.000    0.000    0.000    0.000    0.000 
#
# Total GULP energy -133879.277825 kJ/mol
# GULP energy per Si atom -5578.303243 kJ/mol
# Density = 2.574868 g / cm^3
# Si number density = 25.807422 Si / 1000 Ang^3
#
#
#
# Elastic Constant Matrix: (Units=GPa)
#
#
# Indices 1 2 3 4 5 6 
#
# 1 157.1999 12.8588 16.2154 0.0000 -9.7267 0.0000
# 2 12.8588 178.7923 9.4013 0.0000 -2.7460 0.0000
# 3 16.2154 9.4013 116.3352 0.0000 -1.8976 0.0000
# 4 0.0000 0.0000 0.0000 20.3976 0.0000 -12.8108
# 5 -9.7267 -2.7460 -1.8976 0.0000 39.9365 0.0000
# 6 0.0000 0.0000 0.0000 -12.8108 0.0000 24.4133
#
#
#
# Elastic Compliance Matrix: (Units=1/GPa)
#
#
# Indices 1 2 3 4 5 6 
#
# 1 0.006578 -0.000404 -0.000859 0.000000 0.001533 0.000000
# 2 -0.000404 0.005647 -0.000396 0.000000 0.000271 0.000000
# 3 -0.000859 -0.000396 0.008750 0.000000 0.000179 0.000000
# 4 0.000000 0.000000 0.000000 0.073125 0.000000 0.038372
# 5 0.001533 0.000271 0.000179 0.000000 0.025440 0.000000
# 6 0.000000 0.000000 0.000000 0.038372 0.000000 0.061097
#
#
# Mechanical properties :
#
#
# Convention : Reuss Voigt Hill
#
# Bulk Modulus (GPa) = 56.63373 58.80872 57.72123
# Shear Modulus (GPa) = 26.33775 44.53962 35.43868
#
# Velocity S-wave (km/s) = 3.19807 4.15884 3.70969
# Velocity P-wave (km/s) = 5.96902 6.77482 6.38465
#
# Compressibility (1/GPa) = 0.01765732
#
# Stress axis : x y z
#
# Youngs Moduli (GPa) = 152.02396 177.08125 114.27923
#
# Poissons Ratio (x) = 0.07160 0.09819
# Poissons Ratio (y) = 0.06147 0.04521
# Poissons Ratio (z) = 0.13062 0.07005
#
# Static dielectric constant tensor:
#      x y z
#    x 1.616160 0.000000 -0.713810 
#    y 0.000000 2.015480 0.000000 
#    z -0.713810 0.000000 0.871830 
# 
# From -- ./inp_files/331233.got.cif
#   From: 2010.05.17/outbox.cif.g08.bks.cpg/sg12_166_cif.got.tgz:331233.got - 2010.06.03 13:09:07.
