data_PCOD9212966
_publ_section_title
;
Structure prediction by ZEFSAII (Michael W. Deem and Ramdas Pophale) SiO2 
 PCOD9212966
Probable space group: C 2/M
;
_chemical_formula_sum "Si O2"
_cell_formula_units_Z 64
_cell_length_a 22.063520
_cell_length_b 9.418750
_cell_length_c 20.446783
_cell_angle_alpha 90.000000
_cell_angle_beta 126.063750
_cell_angle_gamma 90.000000
_cell_volume 3434.782286
_symmetry_space_group_name_H-M "C 2/M"
_symmetry_group_IT_number 12
_symmetry_cell_setting 'monoclinic'
loop_
_space_group_symop_operation_xyz
x,y,z
-x,y,-z
-x,-y,-z
x,-y,z
1/2+x,1/2+y,z
1/2-x,1/2+y,-z
1/2-x,1/2-y,-z
1/2+x,1/2-y,z
loop_
_atom_site_type_symbol
_atom_site_label
_atom_site_fract_x
_atom_site_fract_y
_atom_site_fract_z
Si Si1 0.417870 0.832902 0.751534
Si Si2 0.510042 0.166630 0.345374
Si Si3 0.358335 0.830581 0.191890
Si Si4 0.315757 0.334098 0.891532
Si Si5 0.145215 0.836835 0.482582
Si Si6 0.829189 0.168362 0.048437
Si Si7 0.780791 0.162886 0.616385
Si Si8 0.557418 0.829946 0.091508
O O1 0.462621 0.814027 0.712546
O O2 0.342474 0.741589 0.698915
O O3 0.462154 0.796240 0.845808
O O4 0.398338 0.000000 0.742306
O O5 0.421844 0.200428 0.285986
O O6 0.564816 0.261824 0.423586
O O7 0.520223 0.000000 0.368103
O O8 0.273044 0.801462 0.160068
O O9 0.373520 0.741759 0.135512
O O10 0.362845 0.000000 0.179789
O O11 0.322793 0.500000 0.878693
O O12 0.361938 0.236129 0.872705
O O13 0.351521 0.314947 0.986946
O O14 0.183140 0.836540 0.434031
O O15 0.202961 0.747248 0.562863
O O16 0.139148 0.000000 0.499564
O O17 0.820474 0.000000 0.054853
O O18 0.750000 0.250000 0.000000
O O19 0.769614 0.000000 0.628647
O O20 0.560862 0.000000 0.087634
O O21 0.500000 0.776619 0.000000
#
# Coordination Sequence:
#
# PCOD9212966 Si02
#       8
#     8   8   8   8   8   8   8   8
#     4   9  18  32  47  68  95 125 162 201 239 280
#     4   9  17  29  47  70  99 130 156 192 238 285
#     4   9  18  31  49  71  95 124 158 195 241 291
#     4   9  19  34  48  67  92 121 159 200 243 288
#     4   9  16  26  42  68 100 129 155 190 231 280
#     4   9  17  29  45  66  89 115 152 195 239 286
#     4   9  16  27  45  67  93 127 162 192 230 284
#     4  10  22  36  51  70  92 124 168 207 240 283
#
# _framework density 18.632914
#
# number of rings (size 3 to 8) (size 9 to 14) (size 15 to 20)
#    0.000    2.875    0.000    1.875    1.750    6.750 
#    0.000    0.000    0.000    0.000    0.000    0.875 
#    0.000    7.000    0.000    0.000    0.000    0.000 
#
# Total GULP energy -178278.963983 kJ/mol
# GULP energy per Si atom -5571.217624 kJ/mol
# Density = 1.859050 g / cm^3
# Si number density = 18.632914 Si / 1000 Ang^3
#
#
#
# Elastic Constant Matrix: (Units=GPa)
#
#
# Indices 1 2 3 4 5 6 
#
# 1 32.1965 14.5628 9.2624 0.0000 13.7804 0.0000
# 2 14.5628 38.2060 29.4050 0.0000 12.4867 0.0000
# 3 9.2624 29.4050 70.1470 0.0000 26.6121 0.0000
# 4 0.0000 0.0000 0.0000 26.1237 0.0000 4.5393
# 5 13.7804 12.4867 26.6121 0.0000 26.4566 0.0000
# 6 0.0000 0.0000 0.0000 4.5393 0.0000 17.0399
#
#
#
# Elastic Compliance Matrix: (Units=1/GPa)
#
#
# Indices 1 2 3 4 5 6 
#
# 1 0.048146 -0.018392 0.012247 0.000000 -0.028716 0.000000
# 2 -0.018392 0.045829 -0.019746 0.000000 0.007813 0.000000
# 3 0.012247 -0.019746 0.032019 0.000000 -0.029267 0.000000
# 4 0.000000 0.000000 0.000000 0.040137 0.000000 -0.010692
# 5 -0.028716 0.007813 -0.029267 0.000000 0.078506 0.000000
# 6 0.000000 0.000000 0.000000 -0.010692 0.000000 0.061534
#
#
# Mechanical properties :
#
#
# Convention : Reuss Voigt Hill
#
# Bulk Modulus (GPa) = 13.47527 27.44555 20.46041
# Shear Modulus (GPa) = 13.06533 19.74531 16.40532
#
# Velocity S-wave (km/s) = 2.65088 3.25884 2.97045
# Velocity P-wave (km/s) = 4.07643 5.37788 4.77173
#
# Compressibility (1/GPa) = 0.07421001
#
# Stress axis : x y z
#
# Youngs Moduli (GPa) = 20.77023 21.82037 31.23114
#
# Poissons Ratio (x) = 0.40132 -0.38248
# Poissons Ratio (y) = 0.38201 0.61670
# Poissons Ratio (z) = -0.25437 0.43087
#
# Static dielectric constant tensor:
#      x y z
#    x 1.647180 0.000000 -0.004650 
#    y 0.000000 1.622470 0.000000 
#    z -0.004650 0.000000 1.668550 
# 
# From -- ./inp_files/324247.got.cif
#   From: 2010.05.17/outbox.cif.g08.bks.cpg/sg12_163_cif.got.tgz:324247.got - 2010.06.03 13:09:07.
