data_PCOD9212560
_publ_section_title
;
Structure prediction by ZEFSAII (Michael W. Deem and Ramdas Pophale) SiO2 
 PCOD9212560
Probable space group: C 2/M
;
_chemical_formula_sum "Si O2"
_cell_formula_units_Z 48
_cell_length_a 9.148993
_cell_length_b 23.968991
_cell_length_c 11.771719
_cell_angle_alpha 90.000000
_cell_angle_beta 118.455488
_cell_angle_gamma 90.000000
_cell_volume 2269.574589
_symmetry_space_group_name_H-M "C 2/M"
_symmetry_group_IT_number 12
_symmetry_cell_setting 'monoclinic'
loop_
_space_group_symop_operation_xyz
x,y,z
-x,y,-z
-x,-y,-z
x,-y,z
1/2+x,1/2+y,z
1/2-x,1/2+y,-z
1/2-x,1/2-y,-z
1/2+x,1/2-y,z
loop_
_atom_site_type_symbol
_atom_site_label
_atom_site_fract_x
_atom_site_fract_y
_atom_site_fract_z
Si Si1 0.977946 0.346392 0.768370
Si Si2 0.048406 0.781443 0.236909
Si Si3 0.714392 0.631829 0.839177
Si Si4 0.551953 0.434949 0.387388
Si Si5 0.671696 0.635740 0.086363
Si Si6 0.312078 0.840463 0.474496
O O1 0.008131 0.281156 0.805896
O O2 0.887744 0.373489 0.841200
O O3 0.839966 0.343201 0.619099
O O4 0.147865 0.376707 0.792281
O O5 0.102734 0.814128 0.141361
O O6 0.202922 0.790994 0.379185
O O7 0.892794 0.813601 0.236010
O O8 0.597063 0.581744 0.753090
O O9 0.731958 0.642228 0.979184
O O10 0.500000 0.423321 0.500000
O O11 0.591465 0.500000 0.394172
O O12 0.705342 0.395836 0.408623
O O13 0.500000 0.601192 0.000000
O O14 0.500000 0.837688 0.500000
#
# Coordination Sequence:
#
# PCOD9212560 Si02
#       6
#     8   8   8   8   8   8
#     4  12  21  36  57  88 122 168 207 240 295 353
#     4  10  22  36  55  86 127 166 198 244 287 355
#     4  10  22  36  60  88 118 157 203 246 299 359
#     4  10  21  42  67  91 118 149 197 262 322 368
#     4  10  22  38  54  80 119 165 200 248 285 347
#     4  11  22  38  60  90 123 159 200 257 304 358
#
# _framework density 21.149336999999999
#
# number of rings (size 3 to 8) (size 9 to 14) (size 15 to 20)
#    0.000    1.500    3.333    2.000    0.000    7.667 
#    0.000    0.000    0.000   15.500    0.000    0.000 
#    0.000    0.000    0.000    0.000    0.000    0.000 
#
# Total GULP energy -133617.640457 kJ/mol
# GULP energy per Si atom -5567.401686 kJ/mol
# Density = 2.110120 g / cm^3
# Si number density = 21.149337 Si / 1000 Ang^3
#
#
#
# Elastic Constant Matrix: (Units=GPa)
#
#
# Indices 1 2 3 4 5 6 
#
# 1 104.7514 -0.0220 16.7968 0.0000 16.8589 0.0000
# 2 -0.0220 32.3533 -2.3312 0.0000 5.5152 0.0000
# 3 16.7968 -2.3312 107.6313 0.0000 1.6753 0.0000
# 4 0.0000 0.0000 0.0000 6.7086 0.0000 -0.9701
# 5 16.8589 5.5152 1.6753 0.0000 41.7430 0.0000
# 6 0.0000 0.0000 0.0000 -0.9701 0.0000 10.5812
#
#
#
# Elastic Compliance Matrix: (Units=1/GPa)
#
#
# Indices 1 2 3 4 5 6 
#
# 1 0.010480 0.000620 -0.001556 0.000000 -0.004252 0.000000
# 2 0.000620 0.031718 0.000660 0.000000 -0.004468 0.000000
# 3 -0.001556 0.000660 0.009546 0.000000 0.000158 0.000000
# 4 0.000000 0.000000 0.000000 0.151066 0.000000 0.013850
# 5 -0.004252 -0.004468 0.000158 0.000000 0.026257 0.000000
# 6 0.000000 0.000000 0.000000 0.013850 0.000000 0.095777
#
#
# Mechanical properties :
#
#
# Convention : Reuss Voigt Hill
#
# Bulk Modulus (GPa) = 19.53439 30.40257 24.96848
# Shear Modulus (GPa) = 14.60020 27.15937 20.87979
#
# Velocity S-wave (km/s) = 2.63028 3.58742 3.14547
# Velocity P-wave (km/s) = 4.29895 5.61835 5.00234
#
# Compressibility (1/GPa) = 0.05119178
#
# Stress axis : x y z
#
# Youngs Moduli (GPa) = 95.41630 31.52755 104.76004
#
# Poissons Ratio (x) = -0.01954 0.16300
# Poissons Ratio (y) = -0.05915 -0.06912
# Poissons Ratio (z) = 0.14846 -0.02080
#
# Static dielectric constant tensor:
#      x y z
#    x 1.800790 0.000000 0.016230 
#    y 0.000000 1.734730 0.000000 
#    z 0.016230 0.000000 1.889920 
# 
# From -- ./inp_files/123886.got.cif
#   From: 2010.05.17/outbox.cif.g08.bks.cpg/sg12_62_cif.got.tgz:123886.got - 2010.06.03 13:09:07.
