data_PCOD9212225
_publ_section_title
;
Structure prediction by ZEFSAII (Michael W. Deem and Ramdas Pophale) SiO2 
 PCOD9212225
Probable space group: C 2/M
;
_chemical_formula_sum "Si O2"
_cell_formula_units_Z 58
_cell_length_a 22.933762
_cell_length_b 15.617827
_cell_length_c 9.711201
_cell_angle_alpha 90.000000
_cell_angle_beta 64.963863
_cell_angle_gamma 90.000000
_cell_volume 3151.495783
_symmetry_space_group_name_H-M "C 2/M"
_symmetry_group_IT_number 12
_symmetry_cell_setting 'monoclinic'
loop_
_space_group_symop_operation_xyz
x,y,z
-x,y,-z
-x,-y,-z
x,-y,z
1/2+x,1/2+y,z
1/2-x,1/2+y,-z
1/2-x,1/2-y,-z
1/2+x,1/2-y,z
loop_
_atom_site_type_symbol
_atom_site_label
_atom_site_fract_x
_atom_site_fract_y
_atom_site_fract_z
Si Si1 0.609612 0.726201 0.162641
Si Si2 0.315554 0.595867 0.108415
Si Si3 0.555322 0.899791 0.544302
Si Si4 0.422557 0.401910 0.564267
Si Si5 0.500000 0.500000 0.000000
Si Si6 0.022632 0.290776 0.830235
Si Si7 0.163245 0.401035 0.220449
Si Si8 0.596261 0.625882 0.740489
O O1 0.648564 0.667368 0.016782
O O2 0.606465 0.670846 0.307130
O O3 0.537600 0.741452 0.179107
O O4 0.640351 0.820774 0.151128
O O5 0.336161 0.500000 0.040667
O O6 0.239324 0.603443 0.167859
O O7 0.339097 0.602634 0.242374
O O8 0.500000 0.861470 0.500000
O O9 0.546857 0.860670 0.700711
O O10 0.623088 0.888109 0.401251
O O11 0.543159 0.000000 0.567063
O O12 0.500000 0.395343 0.500000
O O13 0.405148 0.500000 0.623029
O O14 0.403900 0.389585 0.422778
O O15 0.539231 0.573025 0.871249
O O16 0.079802 0.223622 0.787914
O O17 0.000000 0.323914 0.000000
O O18 0.148104 0.500000 0.188640
#
# Coordination Sequence:
#
# PCOD9212225 Si02
#       8
#     8   8   8   8   2   8   8   8
#     4  12  22  39  62  92 127 159 206 262 309 365
#     4  11  23  41  64  88 127 173 207 243 305 382
#     4  10  21  41  66  88 114 156 209 269 315 354
#     4  11  23  34  55  91 128 160 204 255 310 361
#     4  12  20  36  58  84 122 172 200 244 292 368
#     4  12  23  36  59  95 127 155 203 256 319 367
#     4  10  23  42  67  91 116 163 218 257 305 370
#     4  12  22  36  57  89 126 164 201 245 301 369
#
# _framework density 18.403959
#
# number of rings (size 3 to 8) (size 9 to 14) (size 15 to 20)
#    0.000    0.828    6.207    1.655    0.000    0.276 
#    0.000    2.759    0.000    0.000    0.000    0.000 
#    0.000    0.000    0.000    0.000    0.000    0.000 
#
# Total GULP energy -161615.888312 kJ/mol
# GULP energy per Si atom -5572.961666 kJ/mol
# Density = 1.836207 g / cm^3
# Si number density = 18.403959 Si / 1000 Ang^3
#
#
#
# Elastic Constant Matrix: (Units=GPa)
#
#
# Indices 1 2 3 4 5 6 
#
# 1 48.5418 33.3726 14.2853 0.0000 1.1962 0.0000
# 2 33.3726 99.9805 45.5002 0.0000 1.0539 0.0000
# 3 14.2853 45.5002 82.4798 0.0000 10.1848 0.0000
# 4 0.0000 0.0000 0.0000 42.6696 0.0000 15.0917
# 5 1.1962 1.0539 10.1848 0.0000 21.3475 0.0000
# 6 0.0000 0.0000 0.0000 15.0917 0.0000 41.3935
#
#
#
# Elastic Compliance Matrix: (Units=1/GPa)
#
#
# Indices 1 2 3 4 5 6 
#
# 1 0.026781 -0.009199 0.000601 0.000000 -0.001333 0.000000
# 2 -0.009199 0.016702 -0.008057 0.000000 0.003535 0.000000
# 3 0.000601 -0.008057 0.017448 0.000000 -0.007960 0.000000
# 4 0.000000 0.000000 0.000000 0.026905 0.000000 -0.009809
# 5 -0.001333 0.003535 -0.007960 0.000000 0.050542 0.000000
# 6 0.000000 0.000000 0.000000 -0.009809 0.000000 0.027735
#
#
# Mechanical properties :
#
#
# Convention : Reuss Voigt Hill
#
# Bulk Modulus (GPa) = 36.20467 46.36870 41.28668
# Shear Modulus (GPa) = 23.96603 30.27174 27.11888
#
# Velocity S-wave (km/s) = 3.61255 4.06007 3.84283
# Velocity P-wave (km/s) = 6.09226 6.87231 6.49400
#
# Compressibility (1/GPa) = 0.02762075
#
# Stress axis : x y z
#
# Youngs Moduli (GPa) = 37.34004 59.87423 57.31423
#
# Poissons Ratio (x) = 0.55075 -0.03442
# Poissons Ratio (y) = 0.34347 0.46177
# Poissons Ratio (z) = -0.02243 0.48240
#
# Static dielectric constant tensor:
#      x y z
#    x 1.641870 0.000000 0.025350 
#    y 0.000000 1.707000 0.000000 
#    z 0.025350 0.000000 1.624030 
# 
# From -- ./inp_files/87882.got.cif
#   From: 2010.05.17/outbox.cif.g08.bks.cpg/sg12_44_cif.got.tgz:87882.got - 2010.06.03 13:09:07.
