data_PCOD9212257
_publ_section_title
;
Structure prediction by ZEFSAII (Michael W. Deem and Ramdas Pophale) SiO2 
 PCOD9212257
Probable space group: C 2/M
;
_chemical_formula_sum "Si O2"
_cell_formula_units_Z 48
_cell_length_a 23.221235
_cell_length_b 11.130328
_cell_length_c 16.014503
_cell_angle_alpha 90.000000
_cell_angle_beta 34.341363
_cell_angle_gamma 90.000000
_cell_volume 2334.962948
_symmetry_space_group_name_H-M "C 2/M"
_symmetry_group_IT_number 12
_symmetry_cell_setting 'monoclinic'
loop_
_space_group_symop_operation_xyz
x,y,z
-x,y,-z
-x,-y,-z
x,-y,z
1/2+x,1/2+y,z
1/2-x,1/2+y,-z
1/2-x,1/2-y,-z
1/2+x,1/2-y,z
loop_
_atom_site_type_symbol
_atom_site_label
_atom_site_fract_x
_atom_site_fract_y
_atom_site_fract_z
Si Si1 0.782724 0.703107 0.552434
Si Si2 0.419049 0.639790 0.672525
Si Si3 0.249556 0.140556 0.251482
Si Si4 0.564820 0.625303 0.837453
Si Si5 0.985396 0.632723 0.703012
Si Si6 0.536984 0.134109 0.085062
O O1 0.750000 0.750000 0.500000
O O2 0.787150 0.805234 0.617872
O O3 0.686566 0.626488 0.700199
O O4 0.893317 0.641641 0.421008
O O5 0.500000 0.635307 0.500000
O O6 0.410887 0.500000 0.714474
O O7 0.314728 0.681241 0.751946
O O8 0.453534 0.746833 0.692506
O O9 0.230579 0.000000 0.278481
O O10 0.369028 0.157637 0.089567
O O11 0.537749 0.500000 0.823542
O O12 0.536939 0.752877 0.831706
O O13 0.500000 0.622519 0.000000
O O14 0.968040 0.500000 0.683608
O O15 0.928125 0.631287 0.860659
O O16 0.494158 0.000000 0.117828
#
# Coordination Sequence:
#
# PCOD9212257 Si02
#       6
#     8   8   8   8   8   8
#     4  12  23  39  62  93 127 165 205 256 311 371
#     4  10  21  41  66  94 123 162 210 256 305 369
#     4  10  22  41  67  91 119 163 216 257 301 367
#     4  11  23  39  58  87 126 165 204 254 309 367
#     4  11  24  41  62  96 130 162 204 260 315 365
#     4  10  22  42  64  89 123 165 210 254 303 372
#
# _framework density 20.557071000000001
#
# number of rings (size 3 to 8) (size 9 to 14) (size 15 to 20)
#    0.000    1.333    5.000    0.500    0.000    4.000 
#    0.000    0.833    0.000    0.000    0.000    0.000 
#    0.000    0.000    0.000    0.000    0.000    0.000 
#
# Total GULP energy -133711.798280 kJ/mol
# GULP energy per Si atom -5571.324928 kJ/mol
# Density = 2.051028 g / cm^3
# Si number density = 20.557071 Si / 1000 Ang^3
#
#
#
# Elastic Constant Matrix: (Units=GPa)
#
#
# Indices 1 2 3 4 5 6 
#
# 1 74.7064 64.9885 7.9448 0.0000 1.7115 0.0000
# 2 64.9885 140.6503 10.1001 0.0000 -0.2863 0.0000
# 3 7.9448 10.1001 62.7126 0.0000 10.7481 0.0000
# 4 0.0000 0.0000 0.0000 -6.8272 0.0000 0.1271
# 5 1.7115 -0.2863 10.7481 0.0000 26.1304 0.0000
# 6 0.0000 0.0000 0.0000 0.1271 0.0000 26.2545
#
#
#
# Elastic Compliance Matrix: (Units=1/GPa)
#
#
# Indices 1 2 3 4 5 6 
#
# 1 0.022503 -0.010330 -0.000985 0.000000 -0.001182 0.000000
# 2 -0.010330 0.011943 -0.000810 0.000000 0.001141 0.000000
# 3 -0.000985 -0.000810 0.017419 0.000000 -0.007109 0.000000
# 4 0.000000 0.000000 0.000000 -0.146459 0.000000 0.000709
# 5 -0.001182 0.001141 -0.007109 0.000000 0.041284 0.000000
# 6 0.000000 0.000000 0.000000 0.000709 0.000000 0.038085
#
#
# Mechanical properties :
#
#
# Convention : Reuss Voigt Hill
#
# Bulk Modulus (GPa) = 36.20980 49.34849 42.77914
# Shear Modulus (GPa) = 274.26575 22.11394 148.18984
#
# Velocity S-wave (km/s) = 11.56315 3.28340 8.49962
# Velocity P-wave (km/s) = 13.99742 6.19935 10.82496
#
# Compressibility (1/GPa) = 0.02761683
#
# Stress axis : x y z
#
# Youngs Moduli (GPa) = 44.43772 83.72968 57.40706
#
# Poissons Ratio (x) = 0.86489 0.05653
# Poissons Ratio (y) = 0.45902 0.04652
# Poissons Ratio (z) = 0.04376 0.06785
#
# Static dielectric constant tensor:
#      x y z
#    x 1.815260 0.000000 -0.028820 
#    y 0.000000 1.797070 0.000000 
#    z -0.028820 0.000000 1.740160 
# 
# From -- ./inp_files/232802.got.cif
#   From: 2010.05.17/outbox.cif.g08.bks.cpg/sg12_117_cif.got.tgz:232802.got - 2010.06.03 13:09:07.
