data_PCOD9212411
_publ_section_title
;
Structure prediction by ZEFSAII (Michael W. Deem and Ramdas Pophale) SiO2 
 PCOD9212411
Probable space group: C 2/M
;
_chemical_formula_sum "Si O2"
_cell_formula_units_Z 56
_cell_length_a 21.542916
_cell_length_b 30.175278
_cell_length_c 9.481983
_cell_angle_alpha 90.000000
_cell_angle_beta 28.171245
_cell_angle_gamma 90.000000
_cell_volume 2910.024689
_symmetry_space_group_name_H-M "C 2/M"
_symmetry_group_IT_number 12
_symmetry_cell_setting 'monoclinic'
loop_
_space_group_symop_operation_xyz
x,y,z
-x,y,-z
-x,-y,-z
x,-y,z
1/2+x,1/2+y,z
1/2-x,1/2+y,-z
1/2-x,1/2-y,-z
1/2+x,1/2-y,z
loop_
_atom_site_type_symbol
_atom_site_label
_atom_site_fract_x
_atom_site_fract_y
_atom_site_fract_z
Si Si1 0.650397 0.949494 0.247340
Si Si2 0.904083 0.051755 0.557318
Si Si3 0.209609 0.204830 0.392405
Si Si4 0.871992 0.703061 0.343593
Si Si5 0.652807 0.208931 0.163744
Si Si6 0.210165 0.636905 0.283912
Si Si7 0.000131 0.130036 0.829839
O O1 0.500000 0.945699 0.500000
O O2 0.676729 0.913047 0.312191
O O3 0.674015 0.000000 0.248330
O O4 0.755804 0.941347 0.911309
O O5 0.000000 0.059523 0.500000
O O6 0.942731 0.085891 0.358299
O O7 0.918878 0.000000 0.486896
O O8 0.165266 0.256029 0.481753
O O9 0.260786 0.196847 0.448040
O O10 0.090876 0.171492 0.604112
O O11 0.321620 0.198145 0.051639
O O12 0.883839 0.659241 0.412041
O O13 0.000000 0.715374 0.000000
O O14 0.500000 0.219035 0.500000
O O15 0.695299 0.167200 0.174466
O O16 0.750000 0.250000 0.000000
O O17 0.355791 0.638597 0.056371
O O18 0.000000 0.126447 0.000000
#
# Coordination Sequence:
#
# PCOD9212411 Si02
#       7
#     8   8   8   8   8   8   8
#     4  10  22  43  71 100 131 168 214 267 329 391
#     4  10  21  41  69  99 131 169 210 260 326 391
#     4  11  25  41  63  88 133 173 223 258 323 389
#     4  11  24  41  62  87 128 182 215 264 318 391
#     4  12  27  42  64  98 131 167 219 276 323 381
#     4  12  24  42  66  96 130 171 219 271 326 377
#     4  12  25  42  64  98 129 173 219 270 321 384
#
# _framework density 19.243822999999999
#
# number of rings (size 3 to 8) (size 9 to 14) (size 15 to 20)
#    0.000    0.857    4.286    2.571    4.000    1.429 
#    0.000    0.000    0.000    0.429    0.000    0.000 
#    0.000    0.000    0.000    0.000    0.000    0.000 
#
# Total GULP energy -156528.177088 kJ/mol
# GULP energy per Si atom -5590.292039 kJ/mol
# Density = 1.920002 g / cm^3
# Si number density = 19.243823 Si / 1000 Ang^3
#
#
#
# Elastic Constant Matrix: (Units=GPa)
#
#
# Indices 1 2 3 4 5 6 
#
# 1 75.0590 57.6169 53.4779 0.0000 -1.6102 0.0000
# 2 57.6169 80.6872 40.5346 0.0000 3.7202 0.0000
# 3 53.4779 40.5346 126.0523 0.0000 -0.3632 0.0000
# 4 0.0000 0.0000 0.0000 28.8120 0.0000 3.2089
# 5 -1.6102 3.7202 -0.3632 0.0000 38.3563 0.0000
# 6 0.0000 0.0000 0.0000 3.2089 0.0000 34.1761
#
#
#
# Elastic Compliance Matrix: (Units=1/GPa)
#
#
# Indices 1 2 3 4 5 6 
#
# 1 0.035903 -0.021651 -0.008259 0.000000 0.003529 0.000000
# 2 -0.021651 0.027922 0.000196 0.000000 -0.003615 0.000000
# 3 -0.008259 0.000196 0.011373 0.000000 -0.000258 0.000000
# 4 0.000000 0.000000 0.000000 0.035074 0.000000 -0.003293
# 5 0.003529 -0.003615 -0.000258 0.000000 0.026568 0.000000
# 6 0.000000 0.000000 0.000000 -0.003293 0.000000 0.029569
#
#
# Mechanical properties :
#
#
# Convention : Reuss Voigt Hill
#
# Bulk Modulus (GPa) = 63.41121 65.00635 64.20878
# Shear Modulus (GPa) = 21.63614 28.94683 25.29148
#
# Velocity S-wave (km/s) = 3.35672 3.88263 3.62921
# Velocity P-wave (km/s) = 6.93155 7.34530 7.14142
#
# Compressibility (1/GPa) = 0.01577008
#
# Stress axis : x y z
#
# Youngs Moduli (GPa) = 27.85298 35.81400 87.92381
#
# Poissons Ratio (x) = 0.77540 0.72620
# Poissons Ratio (y) = 0.60304 -0.01724
# Poissons Ratio (z) = 0.23005 -0.00702
#
# Static dielectric constant tensor:
#      x y z
#    x 1.683150 0.000000 -0.016590 
#    y 0.000000 1.654930 0.000000 
#    z -0.016590 0.000000 1.668530 
# 
# From -- ./inp_files/91545.got.cif
#   From: 2010.05.17/outbox.cif.g08.bks.cpg/sg12_46_cif.got.tgz:91545.got - 2010.06.03 13:09:07.
