data_PCOD9212825
_publ_section_title
;
Structure prediction by ZEFSAII (Michael W. Deem and Ramdas Pophale) SiO2 
 PCOD9212825
Probable space group: C 2/M
;
_chemical_formula_sum "Si O2"
_cell_formula_units_Z 40
_cell_length_a 15.513631
_cell_length_b 9.436643
_cell_length_c 29.038441
_cell_angle_alpha 90.000000
_cell_angle_beta 156.900444
_cell_angle_gamma 90.000000
_cell_volume 1667.845375
_symmetry_space_group_name_H-M "C 2/M"
_symmetry_group_IT_number 12
_symmetry_cell_setting 'monoclinic'
loop_
_space_group_symop_operation_xyz
x,y,z
-x,y,-z
-x,-y,-z
x,-y,z
1/2+x,1/2+y,z
1/2-x,1/2+y,-z
1/2-x,1/2-y,-z
1/2+x,1/2-y,z
loop_
_atom_site_type_symbol
_atom_site_label
_atom_site_fract_x
_atom_site_fract_y
_atom_site_fract_z
Si Si1 0.078929 0.835906 0.646140
Si Si2 0.249033 0.837717 0.427399
Si Si3 0.500000 0.784494 0.000000
Si Si4 0.928126 0.681935 0.105294
Si Si5 0.696874 0.000000 0.020285
Si Si6 0.063873 0.653714 0.781997
O O1 0.922510 0.831620 0.614052
O O2 0.961082 0.747307 0.548233
O O3 0.316670 0.775771 0.775975
O O4 0.093932 0.000000 0.638560
O O5 0.116026 0.767552 0.320545
O O6 0.301264 0.000000 0.443515
O O7 0.614850 0.878297 0.017438
O O8 0.695050 0.693524 0.117820
O O9 0.978921 0.500000 0.109304
O O10 0.808612 0.853802 0.042445
O O11 0.906805 0.650417 0.148797
O O12 0.993977 0.500000 0.730283
#
# Coordination Sequence:
#
# PCOD9212825 Si02
#       6
#     8   8   4   8   4   8
#     4  10  21  45  72  94 133 184 235 283 344 410
#     4  10  24  43  70 101 133 182 239 286 337 413
#     4  11  25  40  72  98 134 186 240 282 332 418
#     4  12  24  42  67 102 140 183 227 280 349 416
#     4  11  22  44  68  98 133 191 230 271 349 404
#     4  12  25  41  65 102 141 177 229 288 344 406
#
# _framework density 23.983039000000002
#
# number of rings (size 3 to 8) (size 9 to 14) (size 15 to 20)
#    0.000    1.000    4.000    2.100    5.600    1.600 
#    1.800    3.000    0.000    0.000    0.000    0.000 
#    0.000    0.000    0.000    0.000    0.000    0.000 
#
# Total GULP energy -111378.320355 kJ/mol
# GULP energy per Si atom -5568.916018 kJ/mol
# Density = 2.392845 g / cm^3
# Si number density = 23.983039 Si / 1000 Ang^3
#
#
#
# Elastic Constant Matrix: (Units=GPa)
#
#
# Indices 1 2 3 4 5 6 
#
# 1 52.3637 42.6370 43.5897 -0.0005 -5.2133 -0.0003
# 2 42.6370 173.5848 87.6200 0.0000 -10.9897 0.0003
# 3 43.5897 87.6200 183.5506 -0.0004 -1.1728 -0.0004
# 4 -0.0005 0.0000 -0.0004 63.4775 -0.0002 23.9793
# 5 -5.2133 -10.9897 -1.1728 -0.0002 41.2550 0.0003
# 6 -0.0003 0.0003 -0.0004 23.9793 0.0003 87.4994
#
#
#
# Elastic Compliance Matrix: (Units=1/GPa)
#
#
# Indices 1 2 3 4 5 6 
#
# 1 0.026218 -0.004179 -0.004218 0.000000 0.002080 0.000000
# 2 -0.004179 0.008411 -0.003012 0.000000 0.001627 0.000000
# 3 -0.004218 -0.003012 0.007881 0.000000 -0.001111 0.000000
# 4 0.000000 0.000000 0.000000 0.017573 0.000000 -0.004816
# 5 0.002080 0.001627 -0.001111 0.000000 0.024904 0.000000
# 6 0.000000 0.000000 0.000000 -0.004816 0.000000 0.012748
#
#
# Mechanical properties :
#
#
# Convention : Reuss Voigt Hill
#
# Bulk Modulus (GPa) = 50.78439 84.13249 67.45844
# Shear Modulus (GPa) = 39.33365 54.15653 46.74509
#
# Velocity S-wave (km/s) = 4.05416 4.75712 4.41964
# Velocity P-wave (km/s) = 6.56780 8.08268 7.36430
#
# Compressibility (1/GPa) = 0.01969109
#
# Stress axis : x y z
#
# Youngs Moduli (GPa) = 38.14111 118.89505 126.89384
#
# Poissons Ratio (x) = 0.49687 0.53526
# Poissons Ratio (y) = 0.15939 0.38222
# Poissons Ratio (z) = 0.16089 0.35813
#
# Static dielectric constant tensor:
#      x y z
#    x 1.951350 0.000000 0.025550 
#    y 0.000000 2.400990 0.000000 
#    z 0.025550 0.000000 1.845180 
# 
# From -- ./inp_files/375761.got.cif
#   From: 2010.05.17/outbox.cif.g08.bks.cpg/sg12_188_cif.got.tgz:375761.got - 2010.06.03 13:09:07.
