data_PCOD9212490
_publ_section_title
;
Structure prediction by ZEFSAII (Michael W. Deem and Ramdas Pophale) SiO2 
 PCOD9212490
Probable space group: C 2/M
;
_chemical_formula_sum "Si O2"
_cell_formula_units_Z 46
_cell_length_a 12.736567
_cell_length_b 11.731595
_cell_length_c 13.526021
_cell_angle_alpha 90.000000
_cell_angle_beta 106.068382
_cell_angle_gamma 90.000000
_cell_volume 1942.102638
_symmetry_space_group_name_H-M "C 2/M"
_symmetry_group_IT_number 12
_symmetry_cell_setting 'monoclinic'
loop_
_space_group_symop_operation_xyz
x,y,z
-x,y,-z
-x,-y,-z
x,-y,z
1/2+x,1/2+y,z
1/2-x,1/2+y,-z
1/2-x,1/2-y,-z
1/2+x,1/2-y,z
loop_
_atom_site_type_symbol
_atom_site_label
_atom_site_fract_x
_atom_site_fract_y
_atom_site_fract_z
Si Si1 0.952565 0.188062 0.192894
Si Si2 0.500000 0.000000 0.000000
Si Si3 0.699760 0.330294 0.671906
Si Si4 0.500000 0.289683 0.500000
Si Si5 0.185722 0.873399 0.237365
Si Si6 0.556973 0.126753 0.334182
Si Si7 0.636948 0.764508 0.026287
O O1 0.852459 0.144788 0.233853
O O2 0.064698 0.126064 0.253487
O O3 0.977700 0.319265 0.230544
O O4 0.936505 0.192316 0.071528
O O5 0.406601 0.894388 0.975467
O O6 0.603429 0.357042 0.570521
O O7 0.724613 0.193723 0.676195
O O8 0.819199 0.376003 0.676070
O O9 0.545069 0.209907 0.423823
O O10 0.162089 0.794532 0.136847
O O11 0.219586 0.000000 0.220717
O O12 0.523720 0.000000 0.351077
O O13 0.750000 0.750000 0.000000
#
# Coordination Sequence:
#
# PCOD9212490 Si02
#       7
#     8   2   8   4   8   8   8
#     4  10  22  41  60  91 133 168 221 273 337 401
#     4  12  28  48  74  98 156 188 240 316 340 424
#     4  10  22  41  65  91 128 170 221 272 348 416
#     4  10  21  42  63  92 128 164 213 282 339 416
#     4  11  24  43  64  94 135 178 229 285 340 412
#     4  10  22  38  65  95 126 166 221 274 340 420
#     4  12  25  43  68 104 133 192 240 281 359 413
#
# _framework density 23.685668
#
# number of rings (size 3 to 8) (size 9 to 14) (size 15 to 20)
#    0.000    1.391    3.478    0.783    2.435    5.565 
#    0.000    0.435    0.000    0.000    0.000    0.000 
#    0.000    0.000    0.000    0.000    0.000    0.000 
#
# Total GULP energy -128080.277172 kJ/mol
# GULP energy per Si atom -5568.707703 kJ/mol
# Density = 2.363176 g / cm^3
# Si number density = 23.685668 Si / 1000 Ang^3
#
#
#
# Elastic Constant Matrix: (Units=GPa)
#
#
# Indices 1 2 3 4 5 6 
#
# 1 119.7283 7.6781 3.6411 0.0000 -4.2715 0.0000
# 2 7.6781 127.8834 1.4495 0.0000 -1.2184 0.0000
# 3 3.6411 1.4495 84.2229 0.0000 -1.2859 0.0000
# 4 0.0000 0.0000 0.0000 -9.7949 0.0000 4.7268
# 5 -4.2715 -1.2184 -1.2859 0.0000 44.1389 0.0000
# 6 0.0000 0.0000 0.0000 4.7268 0.0000 2.5583
#
#
#
# Elastic Compliance Matrix: (Units=1/GPa)
#
#
# Indices 1 2 3 4 5 6 
#
# 1 0.008423 -0.000494 -0.000344 0.000000 0.000791 0.000000
# 2 -0.000494 0.007852 -0.000111 0.000000 0.000166 0.000000
# 3 -0.000344 -0.000111 0.011895 0.000000 0.000310 0.000000
# 4 0.000000 0.000000 0.000000 -0.053972 0.000000 0.099721
# 5 0.000791 0.000166 0.000310 0.000000 0.022746 0.000000
# 6 0.000000 0.000000 0.000000 0.099721 0.000000 0.206642
#
#
# Mechanical properties :
#
#
# Convention : Reuss Voigt Hill
#
# Bulk Modulus (GPa) = 38.06411 39.70799 38.88605
# Shear Modulus (GPa) = 23.33814 28.65152 25.99483
#
# Velocity S-wave (km/s) = 3.14240 3.48178 3.31644
# Velocity P-wave (km/s) = 5.41033 5.74149 5.57837
#
# Compressibility (1/GPa) = 0.02627147
#
# Stress axis : x y z
#
# Youngs Moduli (GPa) = 118.72787 127.35390 84.07061
#
# Poissons Ratio (x) = 0.06295 0.02888
# Poissons Ratio (y) = 0.05868 0.00935
# Poissons Ratio (z) = 0.04079 0.01417
#
# Static dielectric constant tensor:
#      x y z
#    x 1.953370 0.000000 0.077740 
#    y 0.000000 1.893360 0.000000 
#    z 0.077740 0.000000 1.922930 
# 
# From -- ./inp_files/212960.got.cif
#   From: 2010.05.17/outbox.cif.g08.bks.cpg/sg12_107_cif.got.tgz:212960.got - 2010.06.03 13:09:07.
