data_PCOD9212886
_publ_section_title
;
Structure prediction by ZEFSAII (Michael W. Deem and Ramdas Pophale) SiO2 
 PCOD9212886
Probable space group: C 2/M
;
_chemical_formula_sum "Si O2"
_cell_formula_units_Z 44
_cell_length_a 12.377395
_cell_length_b 16.120677
_cell_length_c 12.082578
_cell_angle_alpha 90.000000
_cell_angle_beta 120.635463
_cell_angle_gamma 90.000000
_cell_volume 2074.369222
_symmetry_space_group_name_H-M "C 2/M"
_symmetry_group_IT_number 12
_symmetry_cell_setting 'monoclinic'
loop_
_space_group_symop_operation_xyz
x,y,z
-x,y,-z
-x,-y,-z
x,-y,z
1/2+x,1/2+y,z
1/2-x,1/2+y,-z
1/2-x,1/2-y,-z
1/2+x,1/2-y,z
loop_
_atom_site_type_symbol
_atom_site_label
_atom_site_fract_x
_atom_site_fract_y
_atom_site_fract_z
Si Si1 0.318667 0.839117 0.053216
Si Si2 0.873960 0.877911 0.868004
Si Si3 0.774916 0.902998 0.220421
Si Si4 0.137202 0.000000 0.349354
Si Si5 0.456943 0.339743 0.601125
Si Si6 0.401034 0.212276 0.749574
O O1 0.241523 0.885391 0.108738
O O2 0.461316 0.825838 0.163250
O O3 0.250000 0.750000 0.000000
O O4 0.306537 0.888008 0.932171
O O5 0.884771 0.782481 0.835285
O O6 0.858807 0.929216 0.748311
O O7 0.000000 0.900633 0.000000
O O8 0.911104 0.862772 0.268785
O O9 0.704898 0.855453 0.282548
O O10 0.793143 0.000000 0.249693
O O11 0.120335 0.075133 0.431648
O O12 0.500000 0.319378 0.500000
O O13 0.396426 0.261806 0.631834
#
# Coordination Sequence:
#
# PCOD9212886 Si02
#       6
#     8   8   8   4   8   8
#     4  12  20  36  60  88 128 166 199 248 309 386
#     4  11  19  32  55  87 121 161 201 247 305 369
#     4  12  25  39  62  97 131 167 203 256 318 374
#     4  10  22  34  56  90 119 150 202 272 308 352
#     4  11  23  42  68  90 119 163 223 266 310 362
#     4  11  22  40  61  89 127 167 204 255 317 374
#
# _framework density 21.211268
#
# number of rings (size 3 to 8) (size 9 to 14) (size 15 to 20)
#    0.000    0.727    6.364    2.182    1.273    2.182 
#    0.000    0.000    0.000    0.545    0.000    0.000 
#    0.000    0.000    0.000    0.000    0.000    0.000 
#
# Total GULP energy -122571.874562 kJ/mol
# GULP energy per Si atom -5571.448844 kJ/mol
# Density = 2.116299 g / cm^3
# Si number density = 21.211268 Si / 1000 Ang^3
#
#
#
# Elastic Constant Matrix: (Units=GPa)
#
#
# Indices 1 2 3 4 5 6 
#
# 1 102.1444 40.3330 24.1514 0.0000 -18.1779 0.0000
# 2 40.3330 57.0634 22.0046 0.0000 -8.2455 0.0000
# 3 24.1514 22.0046 69.8018 0.0000 -27.0415 0.0000
# 4 0.0000 0.0000 0.0000 15.1908 0.0000 -11.3942
# 5 -18.1779 -8.2455 -27.0415 0.0000 44.0849 0.0000
# 6 0.0000 0.0000 0.0000 -11.3942 0.0000 10.6088
#
#
#
# Elastic Compliance Matrix: (Units=1/GPa)
#
#
# Indices 1 2 3 4 5 6 
#
# 1 0.014282 -0.009344 -0.000514 0.000000 0.003826 0.000000
# 2 -0.009344 0.026063 -0.006017 0.000000 -0.002669 0.000000
# 3 -0.000514 -0.006017 0.020834 0.000000 0.011442 0.000000
# 4 0.000000 0.000000 0.000000 0.338627 0.000000 0.363696
# 5 0.003826 -0.002669 0.011442 0.000000 0.030780 0.000000
# 6 0.000000 0.000000 0.000000 0.363696 0.000000 0.484882
#
#
# Mechanical properties :
#
#
# Convention : Reuss Voigt Hill
#
# Bulk Modulus (GPa) = 33.97961 44.66528 39.32244
# Shear Modulus (GPa) = 5.22451 23.47829 14.35140
#
# Velocity S-wave (km/s) = 1.57112 3.33059 2.60396
# Velocity P-wave (km/s) = 4.39837 5.99112 5.25543
#
# Compressibility (1/GPa) = 0.02942942
#
# Stress axis : x y z
#
# Youngs Moduli (GPa) = 70.01869 38.36818 47.99931
#
# Poissons Ratio (x) = 0.35850 0.02466
# Poissons Ratio (y) = 0.65423 0.28883
# Poissons Ratio (z) = 0.03597 0.23088
#
# Static dielectric constant tensor:
#      x y z
#    x 1.768460 0.000000 0.001020 
#    y 0.000000 1.780050 0.000000 
#    z 0.001020 0.000000 1.814550 
# 
# From -- ./inp_files/130962.got.cif
#   From: 2010.05.17/outbox.cif.g08.bks.cpg/sg12_66_cif.got.tgz:130962.got - 2010.06.03 13:09:07.
