data_PCOD9212421
_publ_section_title
;
Structure prediction by ZEFSAII (Michael W. Deem and Ramdas Pophale) SiO2 
 PCOD9212421
Probable space group: C 2/M
;
_chemical_formula_sum "Si O2"
_cell_formula_units_Z 40
_cell_length_a 22.397623
_cell_length_b 12.966143
_cell_length_c 5.456272
_cell_angle_alpha 90.000000
_cell_angle_beta 88.402940
_cell_angle_gamma 90.000000
_cell_volume 1583.944694
_symmetry_space_group_name_H-M "C 2/M"
_symmetry_group_IT_number 12
_symmetry_cell_setting 'monoclinic'
loop_
_space_group_symop_operation_xyz
x,y,z
-x,y,-z
-x,-y,-z
x,-y,z
1/2+x,1/2+y,z
1/2-x,1/2+y,-z
1/2-x,1/2-y,-z
1/2+x,1/2-y,z
loop_
_atom_site_type_symbol
_atom_site_label
_atom_site_fract_x
_atom_site_fract_y
_atom_site_fract_z
Si Si1 0.948959 0.889326 0.304377
Si Si2 0.688667 0.614241 0.581088
Si Si3 0.788465 0.331024 0.238082
Si Si4 0.014922 0.678568 0.235380
Si Si5 0.357931 0.117881 0.737827
O O1 0.882706 0.881328 0.419793
O O2 0.000000 0.901273 0.500000
O O3 0.970017 0.777592 0.206197
O O4 0.947734 0.000000 0.160911
O O5 0.706100 0.500000 0.666139
O O6 0.721935 0.632612 0.318364
O O7 0.709039 0.707038 0.752904
O O8 0.825452 0.362836 0.480987
O O9 0.817607 0.370381 0.986113
O O10 0.085936 0.694338 0.240060
O O11 0.000000 0.633246 0.500000
O O12 0.000000 0.613370 0.000000
O O13 0.379829 0.000000 0.730652
#
# Coordination Sequence:
#
# PCOD9212421 Si02
#       5
#     8   8   8   8   8
#     4   9  18  36  63  94 130 172 219 273 332 394
#     4  10  21  41  70 102 137 179 223 274 340 404
#     4  11  25  45  70 103 139 174 223 281 334 403
#     4  11  23  40  63  92 130 171 220 272 327 392
#     4  12  25  45  71  99 136 180 226 280 339 399
#
# _framework density 25.253408
#
# number of rings (size 3 to 8) (size 9 to 14) (size 15 to 20)
#    0.000    1.400    0.000    6.600    0.000    4.400 
#    0.000    8.000    0.000   10.800    0.000    0.000 
#    0.000    0.000    0.000    0.000    0.000    0.000 
#
# Total GULP energy -111667.492604 kJ/mol
# GULP energy per Si atom -5583.374630 kJ/mol
# Density = 2.519593 g / cm^3
# Si number density = 25.253408 Si / 1000 Ang^3
#
#
#
# Elastic Constant Matrix: (Units=GPa)
#
#
# Indices 1 2 3 4 5 6 
#
# 1 170.9024 27.8595 70.1674 0.0000 -36.8645 0.0000
# 2 27.8595 182.9348 19.5338 0.0000 -6.1047 0.0000
# 3 70.1674 19.5338 180.1115 0.0000 -8.8384 0.0000
# 4 0.0000 0.0000 0.0000 7.0907 0.0000 -2.7428
# 5 -36.8645 -6.1047 -8.8384 0.0000 48.6494 0.0000
# 6 0.0000 0.0000 0.0000 -2.7428 0.0000 39.8817
#
#
#
# Elastic Compliance Matrix: (Units=1/GPa)
#
#
# Indices 1 2 3 4 5 6 
#
# 1 0.008414 -0.000779 -0.002911 0.000000 0.005749 0.000000
# 2 -0.000779 0.005619 -0.000303 0.000000 0.000060 0.000000
# 3 -0.002911 -0.000303 0.006668 0.000000 -0.001033 0.000000
# 4 0.000000 0.000000 0.000000 0.144884 0.000000 0.009964
# 5 0.005749 0.000060 -0.001033 0.000000 0.024731 0.000000
# 6 0.000000 0.000000 0.000000 0.009964 0.000000 0.025759
#
#
# Mechanical properties :
#
#
# Convention : Reuss Voigt Hill
#
# Bulk Modulus (GPa) = 78.64444 85.45221 82.04832
# Shear Modulus (GPa) = 21.90094 46.88356 34.39225
#
# Velocity S-wave (km/s) = 2.94810 4.31341 3.69438
# Velocity P-wave (km/s) = 6.54203 7.66282 7.12449
#
# Compressibility (1/GPa) = 0.01271546
#
# Stress axis : x y z
#
# Youngs Moduli (GPa) = 118.85652 177.95558 149.95981
#
# Poissons Ratio (x) = 0.13856 0.43656
# Poissons Ratio (y) = 0.09254 0.04546
# Poissons Ratio (z) = 0.34601 0.05395
#
# Static dielectric constant tensor:
#      x y z
#    x 2.020410 0.000000 0.021780 
#    y 0.000000 2.147690 0.000000 
#    z 0.021780 0.000000 2.003630 
# 
# From -- ./inp_files/24207.got.cif
#   From: 2010.05.17/outbox.cif.g08.bks.cpg/sg12_13_cif.got.tgz:24207.got - 2010.06.03 13:09:07.
