data_PCOD9212439
_publ_section_title
;
Structure prediction by ZEFSAII (Michael W. Deem and Ramdas Pophale) SiO2 
 PCOD9212439
Probable space group: C 2/M
;
_chemical_formula_sum "Si O2"
_cell_formula_units_Z 56
_cell_length_a 22.244043
_cell_length_b 16.502783
_cell_length_c 9.393148
_cell_angle_alpha 90.000000
_cell_angle_beta 57.535467
_cell_angle_gamma 90.000000
_cell_volume 2909.259238
_symmetry_space_group_name_H-M "C 2/M"
_symmetry_group_IT_number 12
_symmetry_cell_setting 'monoclinic'
loop_
_space_group_symop_operation_xyz
x,y,z
-x,y,-z
-x,-y,-z
x,-y,z
1/2+x,1/2+y,z
1/2-x,1/2+y,-z
1/2-x,1/2-y,-z
1/2+x,1/2-y,z
loop_
_atom_site_type_symbol
_atom_site_label
_atom_site_fract_x
_atom_site_fract_y
_atom_site_fract_z
Si Si1 0.608782 0.662844 0.059433
Si Si2 0.177533 0.710992 0.529701
Si Si3 0.844532 0.834773 0.688223
Si Si4 0.805058 0.404423 0.034523
Si Si5 0.575476 0.500000 0.486245
Si Si6 0.739480 0.904591 0.225697
Si Si7 0.421010 0.180241 0.072942
Si Si8 0.518571 0.500000 0.140768
O O1 0.623117 0.692819 0.201953
O O2 0.563281 0.580434 0.121331
O O3 0.685397 0.640382 0.894649
O O4 0.573432 0.732235 0.010659
O O5 0.250000 0.750000 0.500000
O O6 0.146205 0.773510 0.453251
O O7 0.200179 0.632324 0.410835
O O8 0.123431 0.691740 0.725239
O O9 0.760919 0.852358 0.820428
O O10 0.881013 0.920330 0.607703
O O11 0.791389 0.500000 0.076140
O O12 0.875225 0.375600 0.025331
O O13 0.804385 0.392012 0.865062
O O14 0.500000 0.500000 0.500000
O O15 0.553915 0.500000 0.678000
O O16 0.753048 0.000000 0.223670
O O17 0.500000 0.148602 0.000000
O O18 0.500000 0.500000 0.000000
#
# Coordination Sequence:
#
# PCOD9212439 Si02
#       8
#     8   8   8   8   4   8   8   4
#     4  11  21  41  63  91 130 176 210 247 322 391
#     4  12  24  41  62 100 130 166 219 267 323 381
#     4  11  22  40  67  93 132 172 218 265 302 393
#     4  10  21  43  69  94 118 169 223 266 325 375
#     4  12  24  40  62 102 141 173 212 253 321 405
#     4  10  21  41  71  95 122 161 220 273 311 384
#     4  12  27  43  61  92 135 170 210 269 332 384
#     4  12  26  38  58  96 144 179 202 250 321 392
#
# _framework density 19.248885999999999
#
# number of rings (size 3 to 8) (size 9 to 14) (size 15 to 20)
#    0.000    0.857    5.714    1.286    4.000    3.143 
#    1.286    2.143    0.000    1.714    0.000    0.000 
#    0.000    0.000    0.000    0.000    0.000    0.000 
#
# Total GULP energy -156600.980314 kJ/mol
# GULP energy per Si atom -5592.892154 kJ/mol
# Density = 1.920507 g / cm^3
# Si number density = 19.248886 Si / 1000 Ang^3
#
#
#
# Elastic Constant Matrix: (Units=GPa)
#
#
# Indices 1 2 3 4 5 6 
#
# 1 95.8707 -5.2691 18.9431 0.0000 3.9208 0.0000
# 2 -5.2691 28.0036 -4.4917 0.0000 10.1862 0.0000
# 3 18.9431 -4.4917 90.7616 0.0000 4.6041 0.0000
# 4 0.0000 0.0000 0.0000 22.3193 0.0000 -5.0913
# 5 3.9208 10.1862 4.6041 0.0000 26.0541 0.0000
# 6 0.0000 0.0000 0.0000 -5.0913 0.0000 4.4263
#
#
#
# Elastic Compliance Matrix: (Units=1/GPa)
#
#
# Indices 1 2 3 4 5 6 
#
# 1 0.011076 0.002595 -0.002066 0.000000 -0.002316 0.000000
# 2 0.002595 0.043015 0.002482 0.000000 -0.017646 0.000000
# 3 -0.002066 0.002482 0.011710 0.000000 -0.002729 0.000000
# 4 0.000000 0.000000 0.000000 0.060742 0.000000 0.069868
# 5 -0.002316 -0.017646 -0.002729 0.000000 0.046112 0.000000
# 6 0.000000 0.000000 0.000000 0.069868 0.000000 0.306290
#
#
# Mechanical properties :
#
#
# Convention : Reuss Voigt Hill
#
# Bulk Modulus (GPa) = 13.92271 25.88894 19.90583
# Shear Modulus (GPa) = 10.06314 24.25686 17.16000
#
# Velocity S-wave (km/s) = 2.28894 3.55374 2.98901
# Velocity P-wave (km/s) = 3.77285 5.50613 4.71974
#
# Compressibility (1/GPa) = 0.07182508
#
# Stress axis : x y z
#
# Youngs Moduli (GPa) = 90.28310 23.24774 85.39485
#
# Poissons Ratio (x) = -0.06034 0.17641
# Poissons Ratio (y) = -0.23431 -0.21197
# Poissons Ratio (z) = 0.18651 -0.05771
#
# Static dielectric constant tensor:
#      x y z
#    x 1.662190 0.000000 0.016220 
#    y 0.000000 1.662490 0.000000 
#    z 0.016220 0.000000 1.662990 
# 
# From -- ./inp_files/96804.got.cif
#   From: 2010.05.17/outbox.cif.g08.bks.cpg/sg12_49_cif.got.tgz:96804.got - 2010.06.03 13:09:07.
