data_PCOD9212086
_publ_section_title
;
Structure prediction by ZEFSAII (Michael W. Deem and Ramdas Pophale) SiO2 
 PCOD9212086
Probable space group: C 2/M
;
_chemical_formula_sum "Si O2"
_cell_formula_units_Z 40
_cell_length_a 15.636310
_cell_length_b 8.587616
_cell_length_c 31.552229
_cell_angle_alpha 90.000000
_cell_angle_beta 150.997373
_cell_angle_gamma 90.000000
_cell_volume 2054.206427
_symmetry_space_group_name_H-M "C 2/M"
_symmetry_group_IT_number 12
_symmetry_cell_setting 'monoclinic'
loop_
_space_group_symop_operation_xyz
x,y,z
-x,y,-z
-x,-y,-z
x,-y,z
1/2+x,1/2+y,z
1/2-x,1/2+y,-z
1/2-x,1/2-y,-z
1/2+x,1/2-y,z
loop_
_atom_site_type_symbol
_atom_site_label
_atom_site_fract_x
_atom_site_fract_y
_atom_site_fract_z
Si Si1 0.388189 0.677723 0.092560
Si Si2 0.478103 0.186208 0.717317
Si Si3 0.212827 0.686315 0.278447
Si Si4 0.790985 0.819397 0.907876
Si Si5 0.422391 0.812639 0.598061
O O1 0.424172 0.500000 0.096669
O O2 0.571701 0.764547 0.181227
O O3 0.287070 0.697794 0.093078
O O4 0.250000 0.750000 0.000000
O O5 0.365267 0.239800 0.709466
O O6 0.684949 0.209071 0.818529
O O7 0.429969 0.246906 0.650167
O O8 0.450846 0.000000 0.703842
O O9 0.225428 0.500000 0.284887
O O10 0.401094 0.758076 0.349261
O O11 0.744418 0.000000 0.900259
O O12 0.000000 0.809550 0.000000
O O13 0.250000 0.750000 0.500000
O O14 0.418641 0.000000 0.596974
#
# Coordination Sequence:
#
# PCOD9212086 Si02
#       5
#     8   8   8   8   8
#     4  11  22  36  55  84 119 158 199 242 291 352
#     4   8  18  37  59  83 117 158 196 236 298 366
#     4  10  21  41  63  87 117 155 198 249 304 364
#     4   9  18  34  57  84 114 153 196 239 295 361
#     4  11  23  40  62  90 119 157 202 249 301 360
#
# _framework density 19.472238999999998
#
# number of rings (size 3 to 8) (size 9 to 14) (size 15 to 20)
#    0.000    2.200    0.000    4.200    2.800    1.200 
#    0.000   14.000    0.000    0.000    0.000    0.000 
#    0.000    0.000    0.000    0.000    0.000    0.000 
#
# Total GULP energy -111527.540421 kJ/mol
# GULP energy per Si atom -5576.377021 kJ/mol
# Density = 1.942792 g / cm^3
# Si number density = 19.472239 Si / 1000 Ang^3
#
#
#
# Elastic Constant Matrix: (Units=GPa)
#
#
# Indices 1 2 3 4 5 6 
#
# 1 89.9821 22.8675 88.4189 0.0000 -4.0416 0.0000
# 2 22.8675 60.0094 41.9069 0.0000 1.8516 0.0001
# 3 88.4189 41.9069 197.0864 -0.0001 -2.7498 0.0000
# 4 0.0000 0.0000 -0.0001 34.4514 0.0000 3.7287
# 5 -4.0416 1.8516 -2.7498 0.0000 37.2521 0.0000
# 6 0.0000 0.0001 0.0000 3.7287 0.0000 26.4144
#
#
#
# Elastic Compliance Matrix: (Units=1/GPa)
#
#
# Indices 1 2 3 4 5 6 
#
# 1 0.020101 -0.001677 -0.008639 0.000000 0.001627 0.000000
# 2 -0.001677 0.019771 -0.003471 0.000000 -0.001421 0.000000
# 3 -0.008639 -0.003471 0.009687 0.000000 -0.000050 0.000000
# 4 0.000000 0.000000 0.000000 0.029477 0.000000 -0.004161
# 5 0.001627 -0.001421 -0.000050 0.000000 0.027088 0.000000
# 6 0.000000 0.000000 0.000000 -0.004161 0.000000 0.038445
#
#
# Mechanical properties :
#
#
# Convention : Reuss Voigt Hill
#
# Bulk Modulus (GPa) = 45.48616 72.60715 59.04666
# Shear Modulus (GPa) = 27.85948 32.54922 30.20435
#
# Velocity S-wave (km/s) = 3.78660 4.09292 3.94274
# Velocity P-wave (km/s) = 6.52135 7.72687 7.14956
#
# Compressibility (1/GPa) = 0.02198471
#
# Stress axis : x y z
#
# Youngs Moduli (GPa) = 49.74810 50.57859 103.23205
#
# Poissons Ratio (x) = 0.08484 0.89179
# Poissons Ratio (y) = 0.08344 0.35835
# Poissons Ratio (z) = 0.42976 0.17557
#
# Static dielectric constant tensor:
#      x y z
#    x 1.699390 0.000000 -0.022330 
#    y 0.000000 1.668290 0.000000 
#    z -0.022330 0.000000 1.685840 
# 
# From -- ./inp_files/211235.got.cif
#   From: 2010.05.17/outbox.cif.g08.bks.cpg/sg12_106_cif.got.tgz:211235.got - 2010.06.03 13:09:07.
