data_PCOD9212862
_publ_section_title
;
Structure prediction by ZEFSAII (Michael W. Deem and Ramdas Pophale) SiO2 
 PCOD9212862
Probable space group: C 2/M
;
_chemical_formula_sum "Si O2"
_cell_formula_units_Z 64
_cell_length_a 14.486355
_cell_length_b 27.343706
_cell_length_c 9.624155
_cell_angle_alpha 90.000000
_cell_angle_beta 104.647215
_cell_angle_gamma 90.000000
_cell_volume 3688.336921
_symmetry_space_group_name_H-M "C 2/M"
_symmetry_group_IT_number 12
_symmetry_cell_setting 'monoclinic'
loop_
_space_group_symop_operation_xyz
x,y,z
-x,y,-z
-x,-y,-z
x,-y,z
1/2+x,1/2+y,z
1/2-x,1/2+y,-z
1/2-x,1/2-y,-z
1/2+x,1/2-y,z
loop_
_atom_site_type_symbol
_atom_site_label
_atom_site_fract_x
_atom_site_fract_y
_atom_site_fract_z
Si Si1 0.677904 0.216986 0.562022
Si Si2 0.903458 0.184903 0.049279
Si Si3 0.907414 0.184621 0.377880
Si Si4 0.806626 0.346510 0.679437
Si Si5 0.905006 0.444102 0.655973
Si Si6 0.887601 0.296872 0.982567
Si Si7 0.774094 0.350799 0.168864
Si Si8 0.125075 0.444526 0.687733
O O1 0.750000 0.250000 0.500000
O O2 0.607447 0.257090 0.599818
O O3 0.641373 0.177978 0.434686
O O4 0.728937 0.186447 0.702256
O O5 0.920131 0.177360 0.218510
O O6 0.867053 0.240480 0.010809
O O7 0.822822 0.150557 0.954684
O O8 0.000000 0.179543 0.000000
O O9 0.807956 0.158124 0.382942
O O10 0.000000 0.168766 0.500000
O O11 0.845181 0.401524 0.706728
O O12 0.832570 0.314616 0.824300
O O13 0.885771 0.500000 0.695362
O O14 0.882204 0.441996 0.482399
O O15 0.018774 0.435301 0.707490
O O16 0.854927 0.330039 0.097340
O O17 0.000000 0.301185 0.000000
O O18 0.803385 0.403765 0.232459
O O19 0.151995 0.500000 0.734925
#
# Coordination Sequence:
#
# PCOD9212862 Si02
#       8
#     8   8   8   8   8   8   8   8
#     4  10  22  33  55  81 111 150 194 230 270 326
#     4  11  24  37  55  80 115 154 192 230 285 332
#     4  11  24  37  54  80 115 150 192 238 272 328
#     4  11  21  38  55  83 114 150 192 227 278 344
#     4   9  18  35  58  85 115 143 182 235 283 335
#     4  11  23  36  56  82 118 153 187 231 284 342
#     4  12  20  39  59  79 116 157 186 232 287 342
#     4   9  19  34  57  88 113 142 188 235 282 338
#
# _framework density 17.351994000000001
#
# number of rings (size 3 to 8) (size 9 to 14) (size 15 to 20)
#    0.000    1.500    3.750    3.375    7.000    1.000 
#    0.000    0.625    0.000    3.000    0.000    0.000 
#    0.000    0.000    0.000    0.000    0.000    0.000 
#
# Total GULP energy -178621.882625 kJ/mol
# GULP energy per Si atom -5581.933832 kJ/mol
# Density = 1.731250 g / cm^3
# Si number density = 17.351994 Si / 1000 Ang^3
#
#
#
# Elastic Constant Matrix: (Units=GPa)
#
#
# Indices 1 2 3 4 5 6 
#
# 1 67.6064 35.6435 29.2214 0.0000 10.6045 0.0000
# 2 35.6435 89.3815 33.0609 0.0000 15.1864 0.0000
# 3 29.2214 33.0609 105.7822 0.0000 6.5493 0.0000
# 4 0.0000 0.0000 0.0000 16.9182 0.0000 0.5731
# 5 10.6045 15.1864 6.5493 0.0000 29.3968 0.0000
# 6 0.0000 0.0000 0.0000 0.5731 0.0000 12.6775
#
#
#
# Elastic Compliance Matrix: (Units=1/GPa)
#
#
# Indices 1 2 3 4 5 6 
#
# 1 0.020030 -0.006172 -0.003401 0.000000 -0.003279 0.000000
# 2 -0.006172 0.015583 -0.002844 0.000000 -0.005190 0.000000
# 3 -0.003401 -0.002844 0.011270 0.000000 0.000185 0.000000
# 4 0.000000 0.000000 0.000000 0.059198 0.000000 -0.002676
# 5 -0.003279 -0.005190 0.000185 0.000000 0.037840 0.000000
# 6 0.000000 0.000000 0.000000 -0.002676 0.000000 0.079001
#
#
# Mechanical properties :
#
#
# Convention : Reuss Voigt Hill
#
# Bulk Modulus (GPa) = 45.35390 50.95797 48.15594
# Shear Modulus (GPa) = 19.59959 22.78813 21.19386
#
# Velocity S-wave (km/s) = 3.36449 3.62786 3.49866
# Velocity P-wave (km/s) = 6.42553 6.85416 6.64330
#
# Compressibility (1/GPa) = 0.02204882
#
# Stress axis : x y z
#
# Youngs Moduli (GPa) = 49.92478 64.17168 88.72914
#
# Poissons Ratio (x) = 0.39610 0.30177
# Poissons Ratio (y) = 0.30816 0.25234
# Poissons Ratio (z) = 0.16979 0.18250
#
# Static dielectric constant tensor:
#      x y z
#    x 1.600160 0.000000 -0.007790 
#    y 0.000000 1.594830 0.000000 
#    z -0.007790 0.000000 1.603960 
# 
# From -- ./inp_files/67008.got.cif
#   From: 2010.05.17/outbox.cif.g08.bks.cpg/sg12_34_cif.got.tgz:67008.got - 2010.06.03 13:09:07.
