data_PCOD9212969
_publ_section_title
;
Structure prediction by ZEFSAII (Michael W. Deem and Ramdas Pophale) SiO2 
 PCOD9212969
Probable space group: C 2/M
;
_chemical_formula_sum "Si O2"
_cell_formula_units_Z 48
_cell_length_a 11.849700
_cell_length_b 27.567899
_cell_length_c 9.547994
_cell_angle_alpha 90.000000
_cell_angle_beta 142.735634
_cell_angle_gamma 90.000000
_cell_volume 1888.568257
_symmetry_space_group_name_H-M "C 2/M"
_symmetry_group_IT_number 12
_symmetry_cell_setting 'monoclinic'
loop_
_space_group_symop_operation_xyz
x,y,z
-x,y,-z
-x,-y,-z
x,-y,z
1/2+x,1/2+y,z
1/2-x,1/2+y,-z
1/2-x,1/2-y,-z
1/2+x,1/2-y,z
loop_
_atom_site_type_symbol
_atom_site_label
_atom_site_fract_x
_atom_site_fract_y
_atom_site_fract_z
Si Si1 0.660947 0.678926 0.010239
Si Si2 0.234755 0.056930 0.854886
Si Si3 0.478751 0.118080 0.290216
Si Si4 0.183150 0.943421 0.470459
Si Si5 0.787376 0.780391 0.245059
Si Si6 0.245368 0.192250 0.495938
O O1 0.725654 0.693707 0.916561
O O2 0.440766 0.672373 0.761217
O O3 0.691971 0.728064 0.130859
O O4 0.786540 0.633237 0.183282
O O5 0.228724 0.061203 0.681578
O O6 0.037639 0.069027 0.736846
O O7 0.274679 0.000000 0.925146
O O8 0.386967 0.092173 0.067163
O O9 0.669462 0.085101 0.481543
O O10 0.572272 0.170378 0.388366
O O11 0.196182 0.000000 0.445650
O O12 0.729027 0.816743 0.311722
O O13 0.000000 0.771103 0.500000
O O14 0.250000 0.250000 0.500000
#
# Coordination Sequence:
#
# PCOD9212969 Si02
#       6
#     8   8   8   8   8   8
#     4  10  22  36  51  76 109 141 187 240 281 330
#     4   9  19  34  50  76 113 145 183 236 286 342
#     4  12  21  31  53  78 104 148 195 230 280 343
#     4   9  19  34  51  77 113 146 182 233 289 347
#     4   9  19  38  54  70 103 146 185 238 288 325
#     4  11  24  38  55  79 108 149 200 247 289 334
#
# _framework density 25.416079
#
# number of rings (size 3 to 8) (size 9 to 14) (size 15 to 20)
#    0.000    2.000    0.000    6.000    4.667    3.333 
#    0.000    0.000    0.000    0.000    0.000    0.000 
#    0.000   24.000    0.000   66.000    0.000    0.000 
#
# Total GULP energy -133818.256132 kJ/mol
# GULP energy per Si atom -5575.760672 kJ/mol
# Density = 2.535823 g / cm^3
# Si number density = 25.416079 Si / 1000 Ang^3
#
#
#
# Elastic Constant Matrix: (Units=GPa)
#
#
# Indices 1 2 3 4 5 6 
#
# 1 76.3881 24.0205 55.9584 0.0000 4.2951 0.0000
# 2 24.0205 109.9625 51.1279 0.0000 19.0907 0.0000
# 3 55.9584 51.1279 126.4977 0.0000 24.1675 0.0000
# 4 0.0000 0.0000 0.0000 39.3400 0.0000 11.0202
# 5 4.2951 19.0907 24.1675 0.0000 36.8726 0.0000
# 6 0.0000 0.0000 0.0000 11.0202 0.0000 -50.1015
#
#
#
# Elastic Compliance Matrix: (Units=1/GPa)
#
#
# Indices 1 2 3 4 5 6 
#
# 1 0.019903 -0.000747 -0.009298 0.000000 0.004163 0.000000
# 2 -0.000747 0.011575 -0.003680 0.000000 -0.003494 0.000000
# 3 -0.009298 -0.003680 0.014786 0.000000 -0.006703 0.000000
# 4 0.000000 0.000000 0.000000 0.023944 0.000000 0.005267
# 5 0.004163 -0.003494 -0.006703 0.000000 0.032838 0.000000
# 6 0.000000 0.000000 0.000000 0.005267 0.000000 -0.018801
#
#
# Mechanical properties :
#
#
# Convention : Reuss Voigt Hill
#
# Bulk Modulus (GPa) = 53.15242 63.89576 58.52409
# Shear Modulus (GPa) = 42.38472 17.33832 29.86152
#
# Velocity S-wave (km/s) = 4.08810 2.61469 3.43141
# Velocity P-wave (km/s) = 6.57584 5.85747 6.22702
#
# Compressibility (1/GPa) = 0.01881382
#
# Stress axis : x y z
#
# Youngs Moduli (GPa) = 50.24358 86.39315 67.62978
#
# Poissons Ratio (x) = 0.06456 0.62880
# Poissons Ratio (y) = 0.03755 0.24890
# Poissons Ratio (z) = 0.46715 0.31796
#
# Static dielectric constant tensor:
#      x y z
#    x 2.176180 0.000000 -0.055110 
#    y 0.000000 2.002990 0.000000 
#    z -0.055110 0.000000 2.059530 
# 
# From -- ./inp_files/149866.got.cif
#   From: 2010.05.17/outbox.cif.g08.bks.cpg/sg12_75_cif.got.tgz:149866.got - 2010.06.03 13:09:07.
