data_PCOD9212544
_publ_section_title
;
Structure prediction by ZEFSAII (Michael W. Deem and Ramdas Pophale) SiO2 
 PCOD9212544
Probable space group: C 2/M
;
_chemical_formula_sum "Si O2"
_cell_formula_units_Z 36
_cell_length_a 10.120677
_cell_length_b 9.593178
_cell_length_c 23.103084
_cell_angle_alpha 90.000000
_cell_angle_beta 38.377456
_cell_angle_gamma 90.000000
_cell_volume 1392.583603
_symmetry_space_group_name_H-M "C 2/M"
_symmetry_group_IT_number 12
_symmetry_cell_setting 'monoclinic'
loop_
_space_group_symop_operation_xyz
x,y,z
-x,y,-z
-x,-y,-z
x,-y,z
1/2+x,1/2+y,z
1/2-x,1/2+y,-z
1/2-x,1/2-y,-z
1/2+x,1/2-y,z
loop_
_atom_site_type_symbol
_atom_site_label
_atom_site_fract_x
_atom_site_fract_y
_atom_site_fract_z
Si Si1 0.138860 0.000000 0.882547
Si Si2 0.311945 0.500000 0.333335
Si Si3 0.047170 0.500000 0.826258
Si Si4 0.277569 0.304443 0.665045
Si Si5 0.164755 0.000000 0.537933
Si Si6 0.000000 0.752573 0.000000
Si Si7 0.270038 0.000000 0.119691
Si Si8 0.513813 0.000000 0.673832
O O1 0.327447 0.000000 0.866797
O O2 0.266150 0.000000 0.778456
O O3 0.011989 0.858783 0.941371
O O4 0.219561 0.641680 0.340114
O O5 0.285281 0.500000 0.411501
O O6 0.556786 0.500000 0.229475
O O7 0.181583 0.367214 0.757068
O O8 0.042723 0.500000 0.896115
O O9 0.510002 0.369631 0.577499
O O10 0.118402 0.367031 0.671427
O O11 0.364924 0.000000 0.428213
O O12 0.196448 0.644119 0.926213
#
# Coordination Sequence:
#
# PCOD9212544 Si02
#       8
#     4   4   4   8   4   4   4   4
#     4   9  19  40  59  90 121 170 208 282 318 381
#     4  12  22  38  69  93 142 167 221 270 322 386
#     4   9  18  38  63  82 131 171 213 257 337 387
#     4   9  19  38  60  95 129 173 211 270 311 390
#     4  10  21  42  66  94 128 187 212 258 335 392
#     4  10  22  36  62  92 128 156 230 268 320 392
#     4  11  20  37  60  93 123 178 205 269 328 389
#     4   9  18  39  67  83 134 176 212 266 337 375
#
# _framework density 25.851230999999999
#
# number of rings (size 3 to 8) (size 9 to 14) (size 15 to 20)
#    0.000    2.667    2.222    4.000    0.000    1.778 
#    0.000    7.778    0.000    0.000    0.000    0.000 
#    0.000    0.000    0.000    0.000    0.000    0.000 
#
# Total GULP energy -100792.176493 kJ/mol
# GULP energy per Si atom -5599.565361 kJ/mol
# Density = 2.579239 g / cm^3
# Si number density = 25.851231 Si / 1000 Ang^3
#
#
#
# Elastic Constant Matrix: (Units=GPa)
#
#
# Indices 1 2 3 4 5 6 
#
# 1 59.7765 30.9068 42.6938 0.0000 11.7242 0.0000
# 2 30.9068 237.1095 77.9879 0.0000 18.2285 0.0000
# 3 42.6938 77.9879 192.3979 0.0000 40.1081 0.0000
# 4 0.0000 0.0000 0.0000 11.0717 0.0000 -6.1301
# 5 11.7242 18.2285 40.1081 0.0000 20.8800 0.0000
# 6 0.0000 0.0000 0.0000 -6.1301 0.0000 1.9502
#
#
#
# Elastic Compliance Matrix: (Units=1/GPa)
#
#
# Indices 1 2 3 4 5 6 
#
# 1 0.020483 -0.001313 -0.003093 0.000000 -0.004414 0.000000
# 2 -0.001313 0.004958 -0.001617 0.000000 -0.000484 0.000000
# 3 -0.003093 -0.001617 0.009812 0.000000 -0.015700 0.000000
# 4 0.000000 0.000000 0.000000 -0.121990 0.000000 -0.383455
# 5 -0.004414 -0.000484 -0.015700 0.000000 0.080951 0.000000
# 6 0.000000 0.000000 0.000000 -0.383455 0.000000 -0.692560
#
#
# Mechanical properties :
#
#
# Convention : Reuss Voigt Hill
#
# Bulk Modulus (GPa) = 43.09216 88.05123 65.57169
# Shear Modulus (GPa) = -7.36850 29.29341 10.96246
#
# Velocity S-wave (km/s) = -1.69013 3.36989 2.06150
# Velocity P-wave (km/s) = 3.59121 7.01970 5.57553
#
# Compressibility (1/GPa) = 0.02320608
#
# Stress axis : x y z
#
# Youngs Moduli (GPa) = 48.82197 201.70200 101.91363
#
# Poissons Ratio (x) = 0.26490 0.31519
# Poissons Ratio (y) = 0.06412 0.16482
# Poissons Ratio (z) = 0.15099 0.32620
#
# Static dielectric constant tensor:
#      x y z
#    x 2.034970 0.000000 -0.000740 
#    y 0.000000 2.009460 0.000000 
#    z -0.000740 0.000000 2.008940 
# 
# From -- ./inp_files/374897.got.cif
#   From: 2010.05.17/outbox.cif.g08.bks.cpg/sg12_188_cif.got.tgz:374897.got - 2010.06.03 13:09:07.
