data_PCOD9212658
_publ_section_title
;
Structure prediction by ZEFSAII (Michael W. Deem and Ramdas Pophale) SiO2 
 PCOD9212658
Probable space group: C 2/M
;
_chemical_formula_sum "Si O2"
_cell_formula_units_Z 60
_cell_length_a 24.341943
_cell_length_b 9.356837
_cell_length_c 27.010639
_cell_angle_alpha 90.000000
_cell_angle_beta 28.409841
_cell_angle_gamma 90.000000
_cell_volume 2926.988695
_symmetry_space_group_name_H-M "C 2/M"
_symmetry_group_IT_number 12
_symmetry_cell_setting 'monoclinic'
loop_
_space_group_symop_operation_xyz
x,y,z
-x,y,-z
-x,-y,-z
x,-y,z
1/2+x,1/2+y,z
1/2-x,1/2+y,-z
1/2-x,1/2-y,-z
1/2+x,1/2-y,z
loop_
_atom_site_type_symbol
_atom_site_label
_atom_site_fract_x
_atom_site_fract_y
_atom_site_fract_z
Si Si1 0.404824 0.831824 0.536196
Si Si2 0.438799 0.661837 0.757237
Si Si3 0.295770 0.000000 0.451915
Si Si4 0.960646 0.332675 0.944980
Si Si5 0.626981 0.831264 0.097685
Si Si6 0.747381 0.168845 0.160248
Si Si7 0.846726 0.773930 0.477640
Si Si8 0.192430 0.164140 0.776496
O O1 0.500000 0.781585 0.500000
O O2 0.400584 0.746976 0.488692
O O3 0.281556 0.822608 0.660993
O O4 0.429332 0.000000 0.506394
O O5 0.397546 0.500000 0.800136
O O6 0.445326 0.753069 0.802211
O O7 0.350404 0.745404 0.791722
O O8 0.560186 0.655218 0.633100
O O9 0.263673 0.125155 0.436624
O O10 0.318620 0.123260 0.475738
O O11 0.949953 0.500000 0.966799
O O12 0.929491 0.318538 0.911528
O O13 0.087260 0.272577 0.855187
O O14 0.868464 0.236909 0.047445
O O15 0.641011 0.000000 0.097842
O O16 0.750000 0.750000 0.000000
O O17 0.740280 0.184518 0.225034
O O18 0.741135 0.000000 0.153235
O O19 0.147632 0.000000 0.812818
#
# Coordination Sequence:
#
# PCOD9212658 Si02
#       8
#     8   8   4   8   8   8   8   8
#     4  10  21  42  71  97 131 170 220 279 329 388
#     4  12  25  41  66  97 129 171 218 267 321 388
#     4  10  24  42  66  92 136 170 218 272 330 392
#     4  11  24  42  63  93 133 172 208 265 323 388
#     4  11  24  42  64  95 133 171 215 262 321 381
#     4  11  23  40  68  95 128 166 218 269 319 385
#     4  11  23  45  67  98 131 174 219 271 333 397
#     4  10  23  42  64  98 125 168 220 263 324 389
#
# _framework density 20.498884
#
# number of rings (size 3 to 8) (size 9 to 14) (size 15 to 20)
#    0.000    1.200    2.667    2.800    1.867    7.467 
#    3.600    0.333    0.000    0.000    0.000    0.000 
#    0.000    0.000    0.000    0.000    0.000    0.000 
#
# Total GULP energy -167228.355944 kJ/mol
# GULP energy per Si atom -5574.278531 kJ/mol
# Density = 2.045223 g / cm^3
# Si number density = 20.498884 Si / 1000 Ang^3
#
#
#
# Elastic Constant Matrix: (Units=GPa)
#
#
# Indices 1 2 3 4 5 6 
#
# 1 84.2158 34.9383 1.5334 0.0000 11.0914 0.0000
# 2 34.9383 143.5516 15.2188 0.0001 3.0019 -0.0004
# 3 1.5334 15.2188 35.4534 -0.0001 13.5508 -0.0001
# 4 0.0000 0.0001 -0.0001 10.5098 0.0000 -0.0272
# 5 11.0914 3.0019 13.5508 0.0000 34.5705 0.0001
# 6 0.0000 -0.0004 -0.0001 -0.0272 0.0001 24.3074
#
#
#
# Elastic Compliance Matrix: (Units=1/GPa)
#
#
# Indices 1 2 3 4 5 6 
#
# 1 0.014027 -0.003620 0.002996 0.000000 -0.005360 0.000000
# 2 -0.003620 0.008247 -0.004180 0.000000 0.002084 0.000000
# 3 0.002996 -0.004180 0.035403 0.000000 -0.014476 0.000000
# 4 0.000000 0.000000 0.000000 0.095149 0.000000 0.000106
# 5 -0.005360 0.002084 -0.014476 0.000000 0.036139 0.000000
# 6 0.000000 0.000000 0.000000 0.000106 0.000000 0.041140
#
#
# Mechanical properties :
#
#
# Convention : Reuss Voigt Hill
#
# Bulk Modulus (GPa) = 20.80277 40.73354 30.76816
# Shear Modulus (GPa) = 19.55139 27.97957 23.76548
#
# Velocity S-wave (km/s) = 3.09168 3.69851 3.40862
# Velocity P-wave (km/s) = 4.78695 6.17680 5.52575
#
# Compressibility (1/GPa) = 0.04807051
#
# Stress axis : x y z
#
# Youngs Moduli (GPa) = 71.28946 121.26155 28.24582
#
# Poissons Ratio (x) = 0.43891 -0.08462
# Poissons Ratio (y) = 0.25804 0.11806
# Poissons Ratio (z) = -0.21358 0.50685
#
# Static dielectric constant tensor:
#      x y z
#    x 1.718470 0.000000 -0.014080 
#    y 0.000000 1.706640 0.000000 
#    z -0.014080 0.000000 1.769730 
# 
# From -- ./inp_files/367559.got.cif
#   From: 2010.05.17/outbox.cif.g08.bks.cpg/sg12_184_cif.got.tgz:367559.got - 2010.06.03 13:09:07.
