data_PCOD9212213
_publ_section_title
;
Structure prediction by ZEFSAII (Michael W. Deem and Ramdas Pophale) SiO2 
 PCOD9212213
Probable space group: C 2/M
;
_chemical_formula_sum "Si O2"
_cell_formula_units_Z 48
_cell_length_a 18.533455
_cell_length_b 17.938746
_cell_length_c 14.629592
_cell_angle_alpha 90.000000
_cell_angle_beta 150.058778
_cell_angle_gamma 90.000000
_cell_volume 2427.605385
_symmetry_space_group_name_H-M "C 2/M"
_symmetry_group_IT_number 12
_symmetry_cell_setting 'monoclinic'
loop_
_space_group_symop_operation_xyz
x,y,z
-x,y,-z
-x,-y,-z
x,-y,z
1/2+x,1/2+y,z
1/2-x,1/2+y,-z
1/2-x,1/2-y,-z
1/2+x,1/2-y,z
loop_
_atom_site_type_symbol
_atom_site_label
_atom_site_fract_x
_atom_site_fract_y
_atom_site_fract_z
Si Si1 0.094157 0.419198 0.194622
Si Si2 0.384865 0.803212 0.451506
Si Si3 0.342732 0.417235 0.872040
Si Si4 0.865399 0.856266 0.098878
Si Si5 0.946875 0.684500 0.176727
Si Si6 0.912059 0.126431 0.494252
O O1 0.071235 0.500000 0.215366
O O2 0.261194 0.412462 0.350011
O O3 0.035753 0.353445 0.193832
O O4 0.000000 0.417301 0.000000
O O5 0.500000 0.822404 0.500000
O O6 0.246512 0.851646 0.274537
O O7 0.454703 0.821547 0.625284
O O8 0.369141 0.713700 0.432333
O O9 0.277428 0.500000 0.786246
O O10 0.500000 0.417444 0.000000
O O11 0.356418 0.401767 0.995362
O O12 0.909344 0.771387 0.120201
O O13 0.982190 0.880908 0.302469
O O14 0.708048 0.853414 0.973703
O O15 0.000000 0.102667 0.500000
#
# Coordination Sequence:
#
# PCOD9212213 Si02
#       6
#     8   8   8   8   8   8
#     4  11  26  42  61  93 125 166 212 258 321 374
#     4  10  21  41  65  96 121 162 216 250 309 376
#     4  11  26  41  60  94 132 169 205 253 321 384
#     4  10  22  41  65  96 124 164 214 256 316 370
#     4  10  22  40  67  94 123 164 213 264 306 371
#     4  10  23  41  68  95 123 164 212 266 314 369
#
# _framework density 19.772570999999999
#
# number of rings (size 3 to 8) (size 9 to 14) (size 15 to 20)
#    0.000    1.667    1.667    1.000    9.333    4.000 
#    0.000    0.000    0.000    0.000    0.000    0.000 
#    0.000    0.000    0.000    0.000    0.000    0.000 
#
# Total GULP energy -134075.281447 kJ/mol
# GULP energy per Si atom -5586.470060 kJ/mol
# Density = 1.972757 g / cm^3
# Si number density = 19.772571 Si / 1000 Ang^3
#
#
#
# Elastic Constant Matrix: (Units=GPa)
#
#
# Indices 1 2 3 4 5 6 
#
# 1 88.0481 27.0600 23.8792 0.0000 10.6334 0.0000
# 2 27.0600 37.5536 36.8183 0.0000 1.2914 0.0000
# 3 23.8792 36.8183 73.0341 0.0000 9.0325 0.0000
# 4 0.0000 0.0000 0.0000 49.2105 0.0000 -17.3151
# 5 10.6334 1.2914 9.0325 0.0000 25.2938 0.0000
# 6 0.0000 0.0000 0.0000 -17.3151 0.0000 52.7467
#
#
#
# Elastic Compliance Matrix: (Units=1/GPa)
#
#
# Indices 1 2 3 4 5 6 
#
# 1 0.015649 -0.013545 0.002553 0.000000 -0.006799 0.000000
# 2 -0.013545 0.065625 -0.030282 0.000000 0.013158 0.000000
# 3 0.002553 -0.030282 0.029362 0.000000 -0.010012 0.000000
# 4 0.000000 0.000000 0.000000 0.022975 0.000000 0.007542
# 5 -0.006799 0.013158 -0.010012 0.000000 0.045297 0.000000
# 6 0.000000 0.000000 0.000000 0.007542 0.000000 0.021434
#
#
# Mechanical properties :
#
#
# Convention : Reuss Voigt Hill
#
# Bulk Modulus (GPa) = 35.60316 41.57232 38.58774
# Shear Modulus (GPa) = 17.10843 32.84209 24.97526
#
# Velocity S-wave (km/s) = 2.94472 4.07995 3.55791
# Velocity P-wave (km/s) = 5.44126 6.57765 6.03626
#
# Compressibility (1/GPa) = 0.02808739
#
# Stress axis : x y z
#
# Youngs Moduli (GPa) = 63.90159 15.23801 34.05785
#
# Poissons Ratio (x) = 0.20640 -0.08694
# Poissons Ratio (y) = 0.86555 1.03134
# Poissons Ratio (z) = -0.16312 0.46144
#
# Static dielectric constant tensor:
#      x y z
#    x 1.654880 0.000000 0.007620 
#    y 0.000000 1.712550 0.000000 
#    z 0.007620 0.000000 1.657550 
# 
# From -- ./inp_files/75062.got.cif
#   From: 2010.05.17/outbox.cif.g08.bks.cpg/sg12_38_cif.got.tgz:75062.got - 2010.06.03 13:09:07.
