data_PCOD9212074
_publ_section_title
;
Structure prediction by ZEFSAII (Michael W. Deem and Ramdas Pophale) SiO2 
 PCOD9212074
Probable space group: C 2/M
;
_chemical_formula_sum "Si O2"
_cell_formula_units_Z 48
_cell_length_a 9.274835
_cell_length_b 29.362087
_cell_length_c 17.707874
_cell_angle_alpha 90.000000
_cell_angle_beta 149.001851
_cell_angle_gamma 90.000000
_cell_volume 2483.564945
_symmetry_space_group_name_H-M "C 2/M"
_symmetry_group_IT_number 12
_symmetry_cell_setting 'monoclinic'
loop_
_space_group_symop_operation_xyz
x,y,z
-x,y,-z
-x,-y,-z
x,-y,z
1/2+x,1/2+y,z
1/2-x,1/2+y,-z
1/2-x,1/2-y,-z
1/2+x,1/2-y,z
loop_
_atom_site_type_symbol
_atom_site_label
_atom_site_fract_x
_atom_site_fract_y
_atom_site_fract_z
Si Si1 0.941779 0.763090 0.391448
Si Si2 0.378380 0.000000 0.597771
Si Si3 0.750252 0.500000 0.721281
Si Si4 0.239678 0.585770 0.783109
Si Si5 0.749987 0.661888 0.331267
Si Si6 0.173219 0.329134 0.148020
Si Si7 0.116973 0.414492 0.904708
O O1 0.773848 0.715994 0.327673
O O2 0.777013 0.794530 0.259010
O O3 0.000000 0.784651 0.500000
O O4 0.250000 0.750000 0.500000
O O5 0.557577 0.954521 0.664957
O O6 0.314806 0.000000 0.659777
O O7 0.083933 0.000000 0.422484
O O8 0.899624 0.455265 0.820822
O O9 0.211928 0.632859 0.726566
O O10 0.140929 0.592237 0.825040
O O11 0.567822 0.572814 0.929776
O O12 0.456339 0.651173 0.238553
O O13 0.000000 0.650326 0.500000
O O14 0.988799 0.369014 0.102080
O O15 0.000000 0.308118 0.000000
#
# Coordination Sequence:
#
# PCOD9212074 Si02
#       7
#     8   4   4   8   8   8   8
#     4  11  24  46  67  93 127 175 214 262 325 382
#     4   9  19  35  63  93 129 158 217 262 306 376
#     4   9  19  37  59  99 121 165 212 264 306 373
#     4  10  21  41  62  95 123 171 211 260 316 377
#     4  11  24  43  64  90 131 167 210 265 321 385
#     4  12  25  44  65  99 132 168 213 269 322 382
#     4  10  22  39  66  89 130 167 211 259 319 377
#
# _framework density 19.327055999999999
#
# number of rings (size 3 to 8) (size 9 to 14) (size 15 to 20)
#    0.000    1.500    5.000    0.500    4.667    2.667 
#    6.000    1.667    0.000    0.000    0.000    0.000 
#    0.000    0.000    0.000    0.000    0.000    0.000 
#
# Total GULP energy -134011.091873 kJ/mol
# GULP energy per Si atom -5583.795495 kJ/mol
# Density = 1.928307 g / cm^3
# Si number density = 19.327056 Si / 1000 Ang^3
#
#
#
# Elastic Constant Matrix: (Units=GPa)
#
#
# Indices 1 2 3 4 5 6 
#
# 1 70.1183 33.0011 53.0712 0.0000 7.6953 0.0000
# 2 33.0011 81.8990 54.5989 0.0000 -9.5872 0.0000
# 3 53.0712 54.5989 147.4155 0.0001 -4.7313 0.0000
# 4 0.0000 0.0000 0.0001 -5.4081 0.0000 1.5323
# 5 7.6953 -9.5872 -4.7313 0.0000 38.1379 0.0000
# 6 0.0000 0.0000 0.0000 1.5323 0.0000 19.7651
#
#
#
# Elastic Compliance Matrix: (Units=1/GPa)
#
#
# Indices 1 2 3 4 5 6 
#
# 1 0.022323 -0.005680 -0.006147 0.000000 -0.006695 0.000000
# 2 -0.005680 0.018095 -0.004492 0.000000 0.005138 0.000000
# 3 -0.006147 -0.004492 0.010707 0.000000 0.001439 0.000000
# 4 0.000000 0.000000 0.000000 -0.180932 0.000000 0.014027
# 5 -0.006695 0.005138 0.001439 0.000000 0.029042 0.000000
# 6 0.000000 0.000000 0.000000 0.014027 0.000000 0.049507
#
#
# Mechanical properties :
#
#
# Convention : Reuss Voigt Hill
#
# Bulk Modulus (GPa) = 54.09861 64.53057 59.31459
# Shear Modulus (GPa) = -401.33618 21.08309 -190.12655
#
# Velocity S-wave (km/s) = -14.42588 3.30640 -9.92909
# Velocity P-wave (km/s) = 15.79312 6.93091 10.03457
#
# Compressibility (1/GPa) = 0.01848476
#
# Stress axis : x y z
#
# Youngs Moduli (GPa) = 44.79760 55.26330 93.39997
#
# Poissons Ratio (x) = 0.31391 0.57417
# Poissons Ratio (y) = 0.25446 0.41956
# Poissons Ratio (z) = 0.27539 0.24825
#
# Static dielectric constant tensor:
#      x y z
#    x 1.689350 0.000000 -0.007210 
#    y 0.000000 1.648390 0.000000 
#    z -0.007210 0.000000 1.675310 
# 
# From -- ./inp_files/260248.got.cif
#   From: 2010.05.17/outbox.cif.g08.bks.cpg/sg12_131_cif.got.tgz:260248.got - 2010.06.03 13:09:07.
