data_PCOD9212029
_publ_section_title
;
Structure prediction by ZEFSAII (Michael W. Deem and Ramdas Pophale) SiO2 
 PCOD9212029
Probable space group: C 2/M
;
_chemical_formula_sum "Si O2"
_cell_formula_units_Z 46
_cell_length_a 14.576103
_cell_length_b 24.140042
_cell_length_c 19.799738
_cell_angle_alpha 90.000000
_cell_angle_beta 160.292787
_cell_angle_gamma 90.000000
_cell_volume 2349.330973
_symmetry_space_group_name_H-M "C 2/M"
_symmetry_group_IT_number 12
_symmetry_cell_setting 'monoclinic'
loop_
_space_group_symop_operation_xyz
x,y,z
-x,y,-z
-x,-y,-z
x,-y,z
1/2+x,1/2+y,z
1/2-x,1/2+y,-z
1/2-x,1/2-y,-z
1/2+x,1/2-y,z
loop_
_atom_site_type_symbol
_atom_site_label
_atom_site_fract_x
_atom_site_fract_y
_atom_site_fract_z
Si Si1 0.500000 0.401282 0.000000
Si Si2 0.500000 0.000000 0.000000
Si Si3 0.621092 0.824100 0.651748
Si Si4 0.858180 0.852657 0.583214
Si Si5 0.881172 0.601168 0.022732
Si Si6 0.515257 0.062564 0.754382
Si Si7 0.711384 0.207526 0.205469
O O1 0.353856 0.361919 0.844427
O O2 0.269459 0.434942 0.879287
O O3 0.470193 0.049472 0.037835
O O4 0.500000 0.849292 0.500000
O O5 0.378034 0.823234 0.537853
O O6 0.733936 0.762779 0.714861
O O7 0.716670 0.899771 0.439888
O O8 0.015594 0.811880 0.642344
O O9 0.085964 0.879055 0.790657
O O10 0.891560 0.584621 0.108129
O O11 0.081231 0.653947 0.150882
O O12 0.414818 0.000000 0.691921
O O13 0.500000 0.223623 0.000000
#
# Coordination Sequence:
#
# PCOD9212029 Si02
#       7
#     4   2   8   8   8   8   8
#     4  10  23  45  58  90 127 155 208 260 290 364
#     4  12  20  42  66  82 136 164 194 256 306 358
#     4  11  22  39  63  86 119 162 201 252 305 356
#     4  10  23  40  59  89 122 159 206 247 296 370
#     4  11  23  42  62  92 125 163 198 252 308 368
#     4  11  24  39  66  90 119 164 207 250 307 353
#     4  10  21  41  59  86 126 156 195 251 307 363
#
# _framework density 19.580043
#
# number of rings (size 3 to 8) (size 9 to 14) (size 15 to 20)
#    0.000    1.391    4.348    1.826    3.652    0.000 
#    0.000    4.348    0.000    5.739    0.000    0.000 
#    0.000    0.000    0.000    0.000    0.000    0.000 
#
# Total GULP energy -128203.597468 kJ/mol
# GULP energy per Si atom -5574.069455 kJ/mol
# Density = 1.953548 g / cm^3
# Si number density = 19.580043 Si / 1000 Ang^3
#
#
#
# Elastic Constant Matrix: (Units=GPa)
#
#
# Indices 1 2 3 4 5 6 
#
# 1 42.5334 9.4287 8.9991 0.0035 -20.2177 -0.0525
# 2 9.4287 98.8631 26.2078 0.0187 -14.1897 -0.0163
# 3 8.9991 26.2078 69.3783 -0.0489 -10.3062 -0.1796
# 4 0.0035 0.0187 -0.0489 -18.5907 0.0096 31.1851
# 5 -20.2177 -14.1897 -10.3062 0.0096 32.7874 -0.0405
# 6 -0.0525 -0.0163 -0.1796 31.1851 -0.0405 -66.5345
#
#
#
# Elastic Compliance Matrix: (Units=1/GPa)
#
#
# Indices 1 2 3 4 5 6 
#
# 1 0.033377 0.000074 -0.001359 -0.000179 0.020186 -0.000119
# 2 0.000074 0.011686 -0.003845 0.000152 0.003895 0.000076
# 3 -0.001359 -0.003845 0.016437 -0.000560 0.002664 -0.000307
# 4 -0.000179 0.000152 -0.000560 -0.251609 -0.000293 -0.117929
# 5 0.020186 0.003895 0.002664 -0.000293 0.045470 -0.000189
# 6 -0.000119 0.000076 -0.000307 -0.117929 -0.000189 -0.070303
#
#
# Mechanical properties :
#
#
# Convention : Reuss Voigt Hill
#
# Bulk Modulus (GPa) = 19.51586 33.33842 26.42714
# Shear Modulus (GPa) = -26.65224 0.60838 -13.02193
#
# Velocity S-wave (km/s) = -3.69344 0.55802 -2.58168
# Velocity P-wave (km/s) = 2.86353 4.18078 2.15396
#
# Compressibility (1/GPa) = 0.05124037
#
# Stress axis : x y z
#
# Youngs Moduli (GPa) = 29.96065 85.57070 60.83767
#
# Poissons Ratio (x) = -0.00637 0.08269
# Poissons Ratio (y) = -0.00223 0.23394
# Poissons Ratio (z) = 0.04072 0.32904
#
# Static dielectric constant tensor:
#      x y z
#    x 1.680820 -0.000010 -0.005950 
#    y -0.000010 1.664180 0.000000 
#    z -0.005950 0.000000 1.696640 
# 
# From -- ./inp_files/312535.got.cif
#   From: 2010.05.17/outbox.cif.g08.bks.cpg/sg12_157_cif.got.tgz:312535.got - 2010.06.03 13:09:07.
