data_PCOD9212075
_publ_section_title
;
Structure prediction by ZEFSAII (Michael W. Deem and Ramdas Pophale) SiO2 
 PCOD9212075
Probable space group: C 2/M
;
_chemical_formula_sum "Si O2"
_cell_formula_units_Z 36
_cell_length_a 6.723436
_cell_length_b 26.854951
_cell_length_c 8.892811
_cell_angle_alpha 90.000000
_cell_angle_beta 68.846324
_cell_angle_gamma 90.000000
_cell_volume 1497.467840
_symmetry_space_group_name_H-M "C 2/M"
_symmetry_group_IT_number 12
_symmetry_cell_setting 'monoclinic'
loop_
_space_group_symop_operation_xyz
x,y,z
-x,y,-z
-x,-y,-z
x,-y,z
1/2+x,1/2+y,z
1/2-x,1/2+y,-z
1/2-x,1/2-y,-z
1/2+x,1/2-y,z
loop_
_atom_site_type_symbol
_atom_site_label
_atom_site_fract_x
_atom_site_fract_y
_atom_site_fract_z
Si Si1 0.200390 0.211168 0.836430
Si Si2 0.000000 0.593377 0.000000
Si Si3 0.678906 0.825002 0.775944
Si Si4 0.695239 0.442643 0.831060
Si Si5 0.243042 0.140953 0.568480
O O1 0.423313 0.185035 0.819960
O O2 0.241792 0.270014 0.812475
O O3 0.159172 0.188112 0.684643
O O4 0.000000 0.202037 0.000000
O O5 0.185088 0.630036 0.890700
O O6 0.904735 0.565420 0.880563
O O7 0.789938 0.847418 0.598276
O O8 0.689507 0.500000 0.782631
O O9 0.683923 0.406577 0.688855
O O10 0.500000 0.434500 0.000000
O O11 0.500000 0.140071 0.500000
#
# Coordination Sequence:
#
# PCOD9212075 Si02
#       5
#     8   4   8   8   8
#     4  11  21  37  61  92 130 179 223 267 316 391
#     4  12  23  44  68 100 138 168 223 274 330 400
#     4  11  24  38  63  95 136 181 224 262 334 390
#     4  11  25  47  75  99 127 172 223 279 343 399
#     4  10  21  41  62  95 132 174 220 273 334 386
#
# _framework density 24.040583999999999
#
# number of rings (size 3 to 8) (size 9 to 14) (size 15 to 20)
#    0.000    1.111    5.556    2.333    0.000    0.444 
#    0.000    3.333    0.000    2.667    0.000    0.000 
#    0.000    0.000    0.000    0.000    0.000    0.000 
#
# Total GULP energy -100588.235351 kJ/mol
# GULP energy per Si atom -5588.235297 kJ/mol
# Density = 2.398587 g / cm^3
# Si number density = 24.040584 Si / 1000 Ang^3
#
#
#
# Elastic Constant Matrix: (Units=GPa)
#
#
# Indices 1 2 3 4 5 6 
#
# 1 76.1673 35.0117 31.3656 0.0000 -7.2544 0.0000
# 2 35.0117 89.2568 59.3384 0.0000 -27.5084 0.0000
# 3 31.3656 59.3384 180.8024 0.0000 -25.2177 0.0000
# 4 0.0000 0.0000 0.0000 31.7995 0.0000 -3.5661
# 5 -7.2544 -27.5084 -25.2177 0.0000 41.3637 0.0000
# 6 0.0000 0.0000 0.0000 -3.5661 0.0000 26.9356
#
#
#
# Elastic Compliance Matrix: (Units=1/GPa)
#
#
# Indices 1 2 3 4 5 6 
#
# 1 0.016261 -0.006301 -0.001027 0.000000 -0.001965 0.000000
# 2 -0.006301 0.019106 -0.003890 0.000000 0.009229 0.000000
# 3 -0.001027 -0.003890 0.007213 0.000000 0.001630 0.000000
# 4 0.000000 0.000000 0.000000 0.031921 0.000000 0.004226
# 5 -0.001965 0.009229 0.001630 0.000000 0.030963 0.000000
# 6 0.000000 0.000000 0.000000 0.004226 0.000000 0.037685
#
#
# Mechanical properties :
#
#
# Convention : Reuss Voigt Hill
#
# Bulk Modulus (GPa) = 49.64362 66.40645 58.02504
# Shear Modulus (GPa) = 29.01896 34.72048 31.86972
#
# Velocity S-wave (km/s) = 3.47808 3.80444 3.64492
# Velocity P-wave (km/s) = 6.06829 6.85427 6.47322
#
# Compressibility (1/GPa) = 0.02014358
#
# Stress axis : x y z
#
# Youngs Moduli (GPa) = 61.49559 52.33960 138.63569
#
# Poissons Ratio (x) = 0.32982 0.14237
# Poissons Ratio (y) = 0.38751 0.53930
# Poissons Ratio (z) = 0.06315 0.20360
#
# Static dielectric constant tensor:
#      x y z
#    x 2.121920 0.000000 0.034930 
#    y 0.000000 1.868390 0.000000 
#    z 0.034930 0.000000 1.929490 
# 
# From -- ./inp_files/40170.got.cif
#   From: 2010.05.17/outbox.cif.g08.bks.cpg/sg12_21_cif.got.tgz:40170.got - 2010.06.03 13:09:07.
