data_PCOD9212835
_publ_section_title
;
Structure prediction by ZEFSAII (Michael W. Deem and Ramdas Pophale) SiO2 
 PCOD9212835
Probable space group: C 2/M
;
_chemical_formula_sum "Si O2"
_cell_formula_units_Z 28
_cell_length_a 12.430641
_cell_length_b 19.670516
_cell_length_c 4.845264
_cell_angle_alpha 90.000000
_cell_angle_beta 116.460678
_cell_angle_gamma 90.000000
_cell_volume 1060.636046
_symmetry_space_group_name_H-M "C 2/M"
_symmetry_group_IT_number 12
_symmetry_cell_setting 'monoclinic'
loop_
_space_group_symop_operation_xyz
x,y,z
-x,y,-z
-x,-y,-z
x,-y,z
1/2+x,1/2+y,z
1/2-x,1/2+y,-z
1/2-x,1/2-y,-z
1/2+x,1/2-y,z
loop_
_atom_site_type_symbol
_atom_site_label
_atom_site_fract_x
_atom_site_fract_y
_atom_site_fract_z
Si Si1 0.617476 0.000000 0.443323
Si Si2 0.328865 0.853445 0.654606
Si Si3 0.330445 0.648999 0.040947
Si Si4 0.121597 0.000000 0.958094
Si Si5 0.500000 0.243134 0.500000
O O1 0.500000 0.000000 0.500000
O O2 0.620967 0.929818 0.283315
O O3 0.746200 0.000000 0.747653
O O4 0.287709 0.835602 0.912628
O O5 0.420542 0.803738 0.609914
O O6 0.209935 0.852232 0.323120
O O7 0.375330 0.573710 0.182004
O O8 0.423674 0.706127 0.222561
O O9 0.000000 0.000000 0.000000
#
# Coordination Sequence:
#
# PCOD9212835 Si02
#       5
#     4   8   8   4   4
#     4  10  21  46  75 103 143 186 250 298 364 420
#     4  11  25  48  68 110 142 193 242 306 361 437
#     4  11  27  45  72 105 145 189 247 302 369 429
#     4  10  25  49  78 108 146 190 252 310 364 434
#     4  12  26  44  76 100 156 192 242 296 374 450
#
# _framework density 26.399253000000002
#
# number of rings (size 3 to 8) (size 9 to 14) (size 15 to 20)
#    0.000    1.143    1.429    2.571    8.000    4.000 
#    0.000    2.857    0.000    0.000    0.000    0.000 
#    0.000    0.000    0.000    0.000    0.000    0.000 
#
# Total GULP energy -78594.732210 kJ/mol
# GULP energy per Si atom -5613.909444 kJ/mol
# Density = 2.633917 g / cm^3
# Si number density = 26.399253 Si / 1000 Ang^3
#
#
#
# Elastic Constant Matrix: (Units=GPa)
#
#
# Indices 1 2 3 4 5 6 
#
# 1 154.4010 53.8649 32.5592 0.0000 4.0423 0.0000
# 2 53.8649 234.1454 39.1432 0.0000 17.7957 0.0000
# 3 32.5592 39.1432 96.6726 0.0000 5.5767 0.0000
# 4 0.0000 0.0000 0.0000 -67.6195 0.0000 -15.8969
# 5 4.0423 17.7957 5.5767 0.0000 42.2155 0.0000
# 6 0.0000 0.0000 0.0000 -15.8969 0.0000 40.6831
#
#
#
# Elastic Compliance Matrix: (Units=1/GPa)
#
#
# Indices 1 2 3 4 5 6 
#
# 1 0.007362 -0.001381 -0.001928 0.000000 0.000132 0.000000
# 2 -0.001381 0.004964 -0.001443 0.000000 -0.001770 0.000000
# 3 -0.001928 -0.001443 0.011620 0.000000 -0.000742 0.000000
# 4 0.000000 0.000000 0.000000 -0.013544 0.000000 -0.005292
# 5 0.000132 -0.001770 -0.000742 0.000000 0.024519 0.000000
# 6 0.000000 0.000000 0.000000 -0.005292 0.000000 0.022512
#
#
# Mechanical properties :
#
#
# Convention : Reuss Voigt Hill
#
# Bulk Modulus (GPa) = 69.23852 81.81708 75.52780
# Shear Modulus (GPa) = 69.68510 27.03259 48.35884
#
# Velocity S-wave (km/s) = 5.14334 3.20346 4.28463
# Velocity P-wave (km/s) = 7.84578 6.68897 7.29036
#
# Compressibility (1/GPa) = 0.01444283
#
# Stress axis : x y z
#
# Youngs Moduli (GPa) = 135.84055 201.43738 86.05531
#
# Poissons Ratio (x) = 0.27824 0.16589
# Poissons Ratio (y) = 0.18764 0.12416
# Poissons Ratio (z) = 0.26186 0.29063
#
# Static dielectric constant tensor:
#      x y z
#    x 2.044940 0.000000 0.071540 
#    y 0.000000 2.032750 0.000000 
#    z 0.071540 0.000000 2.081100 
# 
# From -- ./inp_files/5670.got.cif
#   From: 2010.05.17/outbox.cif.g08.bks.cpg/sg12_3_cif.got.tgz:5670.got - 2010.06.03 13:09:07.
