data_PCOD9212288
_publ_section_title
;
Structure prediction by ZEFSAII (Michael W. Deem and Ramdas Pophale) SiO2 
 PCOD9212288
Probable space group: C 2/M
;
_chemical_formula_sum "Si O2"
_cell_formula_units_Z 58
_cell_length_a 18.878077
_cell_length_b 25.922715
_cell_length_c 14.258771
_cell_angle_alpha 90.000000
_cell_angle_beta 22.893740
_cell_angle_gamma 90.000000
_cell_volume 2714.538137
_symmetry_space_group_name_H-M "C 2/M"
_symmetry_group_IT_number 12
_symmetry_cell_setting 'monoclinic'
loop_
_space_group_symop_operation_xyz
x,y,z
-x,y,-z
-x,-y,-z
x,-y,z
1/2+x,1/2+y,z
1/2-x,1/2+y,-z
1/2-x,1/2-y,-z
1/2+x,1/2-y,z
loop_
_atom_site_type_symbol
_atom_site_label
_atom_site_fract_x
_atom_site_fract_y
_atom_site_fract_z
Si Si1 0.354311 0.313690 0.459077
Si Si2 0.804615 0.941507 0.783753
Si Si3 0.922740 0.593577 0.223512
Si Si4 0.000000 0.500000 0.000000
Si Si5 0.169112 0.887703 0.063834
Si Si6 0.177181 0.788692 0.720510
Si Si7 0.145957 0.058584 0.904454
Si Si8 0.909015 0.609223 0.454378
O O1 0.192229 0.356089 0.662307
O O2 0.540345 0.342574 0.259062
O O3 0.297073 0.262895 0.584552
O O4 0.373222 0.295498 0.327731
O O5 0.833716 0.934584 0.858732
O O6 0.000000 0.933926 0.500000
O O7 0.735656 0.000000 0.841777
O O8 0.644245 0.902256 0.952185
O O9 0.889664 0.545888 0.195229
O O10 0.881984 0.584233 0.383855
O O11 0.099262 0.904886 0.047791
O O12 0.380920 0.875207 0.794032
O O13 0.290245 0.839436 0.607352
O O14 0.000000 0.785262 0.000000
O O15 0.337615 0.071859 0.622174
O O16 0.144266 0.000000 0.939846
O O17 0.000000 0.064895 0.000000
#
# Coordination Sequence:
#
# PCOD9212288 Si02
#       8
#     8   8   8   2   8   8   8   8
#     4  10  23  40  63  94 122 161 215 260 310 374
#     4  10  22  39  56  84 127 172 210 250 305 368
#     4  10  23  39  59  90 125 166 209 260 301 369
#     4  12  24  36  66  92 128 172 218 252 306 372
#     4  11  23  39  61  90 128 165 205 257 316 378
#     4  10  21  41  67  89 121 161 207 266 317 368
#     4  11  23  39  63  95 126 166 214 262 314 374
#     4  10  22  41  63  89 129 163 205 263 318 374
#
# _framework density 21.366434999999999
#
# number of rings (size 3 to 8) (size 9 to 14) (size 15 to 20)
#    0.000    1.655    0.690    3.724    3.862    2.207 
#    1.241    0.000    0.000    1.655    0.000    0.000 
#    0.000    0.000    0.000    0.000    0.000    0.000 
#
# Total GULP energy -161817.230764 kJ/mol
# GULP energy per Si atom -5579.904509 kJ/mol
# Density = 2.131780 g / cm^3
# Si number density = 21.366435 Si / 1000 Ang^3
#
#
#
# Elastic Constant Matrix: (Units=GPa)
#
#
# Indices 1 2 3 4 5 6 
#
# 1 38.7926 17.2717 15.5857 -0.0112 10.4560 0.0110
# 2 17.2717 90.5118 44.7395 -0.0181 13.9902 0.0184
# 3 15.5857 44.7395 141.6412 -0.1367 -2.7247 0.0466
# 4 -0.0112 -0.0181 -0.1367 25.4365 0.0321 13.7134
# 5 10.4560 13.9902 -2.7247 0.0321 29.3614 0.0177
# 6 0.0110 0.0184 0.0466 13.7134 0.0177 4.0065
#
#
#
# Elastic Compliance Matrix: (Units=1/GPa)
#
#
# Indices 1 2 3 4 5 6 
#
# 1 0.030827 -0.003089 -0.002604 -0.000010 -0.009748 0.000036
# 2 -0.003089 0.014833 -0.004468 0.000021 -0.006382 -0.000052
# 3 -0.002604 -0.004468 0.008832 -0.000104 0.003876 0.000264
# 4 -0.000010 0.000021 -0.000104 -0.046506 -0.000061 0.159182
# 5 -0.009748 -0.006382 0.003876 -0.000061 0.040930 0.000040
# 6 0.000036 -0.000052 0.000264 0.159182 0.000040 -0.295259
#
#
# Mechanical properties :
#
#
# Convention : Reuss Voigt Hill
#
# Bulk Modulus (GPa) = 29.26500 47.34885 38.30692
# Shear Modulus (GPa) = -23.29577 24.65079 0.67751
#
# Velocity S-wave (km/s) = -3.30555 3.40032 0.56372
# Velocity P-wave (km/s) = 0.91783 6.13390 4.28849
#
# Compressibility (1/GPa) = 0.03417051
#
# Stress axis : x y z
#
# Youngs Moduli (GPa) = 32.43922 67.41875 113.22100
#
# Poissons Ratio (x) = 0.20823 0.29483
# Poissons Ratio (y) = 0.10019 0.50587
# Poissons Ratio (z) = 0.08447 0.30123
#
# Static dielectric constant tensor:
#      x y z
#    x 1.288710 -0.000040 0.097210 
#    y -0.000040 1.735680 0.000070 
#    z 0.097210 0.000070 1.753930 
# 
# From -- ./inp_files/235937.got.cif
#   From: 2010.05.17/outbox.cif.g08.bks.cpg/sg12_118_cif.got.tgz:235937.got - 2010.06.03 13:09:07.
