data_PCOD9212112
_publ_section_title
;
Structure prediction by ZEFSAII (Michael W. Deem and Ramdas Pophale) SiO2 
 PCOD9212112
Probable space group: C 2/M
;
_chemical_formula_sum "Si O2"
_cell_formula_units_Z 38
_cell_length_a 8.425453
_cell_length_b 15.048652
_cell_length_c 23.741445
_cell_angle_alpha 90.000000
_cell_angle_beta 40.326041
_cell_angle_gamma 90.000000
_cell_volume 1948.021745
_symmetry_space_group_name_H-M "C 2/M"
_symmetry_group_IT_number 12
_symmetry_cell_setting 'monoclinic'
loop_
_space_group_symop_operation_xyz
x,y,z
-x,y,-z
-x,-y,-z
x,-y,z
1/2+x,1/2+y,z
1/2-x,1/2+y,-z
1/2-x,1/2-y,-z
1/2+x,1/2-y,z
loop_
_atom_site_type_symbol
_atom_site_label
_atom_site_fract_x
_atom_site_fract_y
_atom_site_fract_z
Si Si1 0.686160 0.671025 0.802108
Si Si2 0.000000 0.000000 0.500000
Si Si3 0.218154 0.000000 0.864002
Si Si4 0.859418 0.678906 0.091215
Si Si5 0.099952 0.656916 0.597339
Si Si6 0.500000 0.191268 0.500000
Si Si7 0.358667 0.000000 0.952006
O O1 0.777410 0.588932 0.814684
O O2 0.412789 0.653983 0.854066
O O3 0.664210 0.756712 0.848682
O O4 0.869832 0.673655 0.700104
O O5 0.784132 0.922340 0.563393
O O6 0.355277 0.000000 0.885749
O O7 0.924700 0.000000 0.953083
O O8 0.009724 0.589470 0.063245
O O9 0.000000 0.724504 0.000000
O O10 0.261963 0.746000 0.560262
O O11 0.008816 0.641442 0.557547
#
# Coordination Sequence:
#
# PCOD9212112 Si02
#       7
#     8   2   4   8   8   4   4
#     4  12  24  39  65  92 131 165 223 261 314 374
#     4  10  22  40  68  92 134 154 206 252 336 380
#     4  11  24  40  61  86 123 169 213 275 301 374
#     4  12  24  41  62  94 127 177 217 267 312 374
#     4  10  21  41  63  97 121 166 202 263 312 386
#     4   9  20  40  68  87 126 160 204 251 328 382
#     4  11  24  42  60  84 125 170 222 256 323 356
#
# _framework density 19.506971
#
# number of rings (size 3 to 8) (size 9 to 14) (size 15 to 20)
#    0.000    1.053    2.105    4.737    2.947    0.421 
#    0.000    6.316    0.000    0.000    0.000    0.000 
#    0.000    0.000    0.000    0.000    0.000    0.000 
#
# Total GULP energy -105860.179474 kJ/mol
# GULP energy per Si atom -5571.588393 kJ/mol
# Density = 1.946257 g / cm^3
# Si number density = 19.506971 Si / 1000 Ang^3
#
#
#
# Elastic Constant Matrix: (Units=GPa)
#
#
# Indices 1 2 3 4 5 6 
#
# 1 94.8384 11.4377 49.3805 -0.0029 9.2512 0.0054
# 2 11.4377 73.1829 21.0665 -0.0018 15.9493 0.0028
# 3 49.3805 21.0665 154.7354 -0.0040 9.5173 0.0126
# 4 -0.0029 -0.0018 -0.0040 18.0004 0.0033 -21.3577
# 5 9.2512 15.9493 9.5173 0.0033 28.8298 -0.0080
# 6 0.0054 0.0028 0.0126 -21.3577 -0.0080 73.5111
#
#
#
# Elastic Compliance Matrix: (Units=1/GPa)
#
#
# Indices 1 2 3 4 5 6 
#
# 1 0.012874 -0.000306 -0.003902 0.000002 -0.002674 0.000000
# 2 -0.000306 0.015953 -0.001569 0.000002 -0.008209 -0.000001
# 3 -0.003902 -0.001569 0.007953 0.000000 -0.000505 -0.000001
# 4 0.000002 0.000002 0.000000 0.084780 -0.000004 0.024632
# 5 -0.002674 -0.008209 -0.000505 -0.000004 0.040253 0.000004
# 6 0.000000 -0.000001 -0.000001 0.024632 0.000004 0.020760
#
#
# Mechanical properties :
#
#
# Convention : Reuss Voigt Hill
#
# Bulk Modulus (GPa) = 39.64442 54.05845 46.85143
# Shear Modulus (GPa) = 24.68703 40.12639 32.40671
#
# Velocity S-wave (km/s) = 3.56132 4.54037 4.08031
# Velocity P-wave (km/s) = 6.10557 7.43365 6.80210
#
# Compressibility (1/GPa) = 0.02522423
#
# Stress axis : x y z
#
# Youngs Moduli (GPa) = 77.67711 62.68381 125.74357
#
# Poissons Ratio (x) = 0.01918 0.49069
# Poissons Ratio (y) = 0.02377 0.19733
# Poissons Ratio (z) = 0.30312 0.09837
#
# Static dielectric constant tensor:
#      x y z
#    x 1.691990 0.000000 0.045140 
#    y 0.000000 1.614700 0.000000 
#    z 0.045140 0.000000 1.689590 
# 
# From -- ./inp_files/332506.got.cif
#   From: 2010.05.17/outbox.cif.g08.bks.cpg/sg12_167_cif.got.tgz:332506.got - 2010.06.03 13:09:07.
