data_PCOD9212865
_publ_section_title
;
Structure prediction by ZEFSAII (Michael W. Deem and Ramdas Pophale) SiO2 
 PCOD9212865
Probable space group: C 2/M
;
_chemical_formula_sum "Si O2"
_cell_formula_units_Z 44
_cell_length_a 11.023152
_cell_length_b 29.797546
_cell_length_c 12.771981
_cell_angle_alpha 90.000000
_cell_angle_beta 34.482389
_cell_angle_gamma 90.000000
_cell_volume 2375.080280
_symmetry_space_group_name_H-M "C 2/M"
_symmetry_group_IT_number 12
_symmetry_cell_setting 'monoclinic'
loop_
_space_group_symop_operation_xyz
x,y,z
-x,y,-z
-x,-y,-z
x,-y,z
1/2+x,1/2+y,z
1/2-x,1/2+y,-z
1/2-x,1/2-y,-z
1/2+x,1/2-y,z
loop_
_atom_site_type_symbol
_atom_site_label
_atom_site_fract_x
_atom_site_fract_y
_atom_site_fract_z
Si Si1 0.237627 0.802486 0.799845
Si Si2 0.156938 0.621121 0.109903
Si Si3 0.000000 0.230209 0.500000
Si Si4 0.249049 0.949052 0.785295
Si Si5 0.788954 0.857660 0.592791
Si Si6 0.359273 0.622231 0.302720
O O1 0.320037 0.834725 0.833322
O O2 0.392996 0.762030 0.661927
O O3 0.209687 0.835063 0.718817
O O4 0.000000 0.786551 0.000000
O O5 0.139696 0.579318 0.202081
O O6 0.938977 0.626714 0.200942
O O7 0.382402 0.617662 0.889529
O O8 0.823569 0.195916 0.579733
O O9 0.245407 0.920519 0.680882
O O10 0.323271 0.000000 0.721868
O O11 0.000000 0.949672 0.000000
O O12 0.794287 0.870807 0.467624
O O13 0.000000 0.876762 0.500000
#
# Coordination Sequence:
#
# PCOD9212865 Si02
#       6
#     8   8   4   8   8   8
#     4   9  18  32  52  77  98 122 163 215 268 299
#     4   9  18  34  54  75 103 131 156 203 261 300
#     4  10  22  34  46  68 100 134 180 214 232 278
#     4   8  15  31  59  89 104 117 153 203 258 312
#     4  10  23  35  46  68  99 141 183 200 230 287
#     4   9  18  34  54  75 103 131 156 203 261 300
#
# _framework density 18.525690000000001
#
# number of rings (size 3 to 8) (size 9 to 14) (size 15 to 20)
#    0.545    2.364    0.000    3.273    0.000    7.273 
#    0.000    5.455    0.000    2.182    0.000    5.091 
#    0.000    0.000    0.000    0.000    0.000    0.000 
#
# Total GULP energy -122651.811035 kJ/mol
# GULP energy per Si atom -5575.082320 kJ/mol
# Density = 1.848352 g / cm^3
# Si number density = 18.525690 Si / 1000 Ang^3
#
#
#
# Elastic Constant Matrix: (Units=GPa)
#
#
# Indices 1 2 3 4 5 6 
#
# 1 15.0581 -1.8342 11.0725 0.0000 -17.3808 0.0000
# 2 -1.8342 98.2458 22.9191 0.0000 -8.5575 0.0000
# 3 11.0725 22.9191 67.3783 0.0000 -21.5080 0.0000
# 4 0.0000 0.0000 0.0000 -60.6107 0.0000 -8.7310
# 5 -17.3808 -8.5575 -21.5080 0.0000 39.2161 0.0000
# 6 0.0000 0.0000 0.0000 -8.7310 0.0000 -3.0482
#
#
#
# Elastic Compliance Matrix: (Units=1/GPa)
#
#
# Indices 1 2 3 4 5 6 
#
# 1 0.145007 0.009836 -0.007243 0.000000 0.062441 0.000000
# 2 0.009836 0.011729 -0.004118 0.000000 0.004660 0.000000
# 3 -0.007243 -0.004118 0.019542 0.000000 0.006609 0.000000
# 4 0.000000 0.000000 0.000000 -0.028088 0.000000 0.080451
# 5 0.062441 0.004660 0.006609 0.000000 0.057816 0.000000
# 6 0.000000 0.000000 0.000000 0.080451 0.000000 -0.558496
#
#
# Mechanical properties :
#
#
# Convention : Reuss Voigt Hill
#
# Bulk Modulus (GPa) = 5.77280 27.22189 16.49735
# Shear Modulus (GPa) = -17.14109 5.01310 -6.06400
#
# Velocity S-wave (km/s) = -3.04511 1.64678 -1.81119
# Velocity P-wave (km/s) = 3.03986 4.28274 2.13321
#
# Compressibility (1/GPa) = 0.17322622
#
# Stress axis : x y z
#
# Youngs Moduli (GPa) = 6.89624 85.26003 51.17055
#
# Poissons Ratio (x) = -0.83859 0.37063
# Poissons Ratio (y) = -0.06783 0.21074
# Poissons Ratio (z) = 0.04995 0.35114
#
# Static dielectric constant tensor:
#      x y z
#    x 1.627450 0.000000 -0.032190 
#    y 0.000000 1.623560 0.000000 
#    z -0.032190 0.000000 1.699570 
# 
# From -- ./inp_files/209656.got.cif
#   From: 2010.05.17/outbox.cif.g08.bks.cpg/sg12_105_cif.got.tgz:209656.got - 2010.06.03 13:09:07.
