data_PCOD9212076
_publ_section_title
;
Structure prediction by ZEFSAII (Michael W. Deem and Ramdas Pophale) SiO2 
 PCOD9212076
Probable space group: C 2/M
;
_chemical_formula_sum "Si O2"
_cell_formula_units_Z 32
_cell_length_a 11.853995
_cell_length_b 16.613097
_cell_length_c 13.543934
_cell_angle_alpha 90.000000
_cell_angle_beta 148.105427
_cell_angle_gamma 90.000000
_cell_volume 1409.251124
_symmetry_space_group_name_H-M "C 2/M"
_symmetry_group_IT_number 12
_symmetry_cell_setting 'monoclinic'
loop_
_space_group_symop_operation_xyz
x,y,z
-x,y,-z
-x,-y,-z
x,-y,z
1/2+x,1/2+y,z
1/2-x,1/2+y,-z
1/2-x,1/2-y,-z
1/2+x,1/2-y,z
loop_
_atom_site_type_symbol
_atom_site_label
_atom_site_fract_x
_atom_site_fract_y
_atom_site_fract_z
Si Si1 0.826275 0.164179 0.514899
Si Si2 0.275689 0.907568 0.370934
Si Si3 0.660616 0.661802 0.911936
Si Si4 0.423164 0.907674 0.833884
O O1 0.750000 0.250000 0.500000
O O2 0.715277 0.097936 0.503292
O O3 0.751090 0.147335 0.349652
O O4 0.068541 0.157932 0.731392
O O5 0.500000 0.872433 0.500000
O O6 0.052469 0.861244 0.184351
O O7 0.258901 0.000000 0.325682
O O8 0.750000 0.750000 0.000000
O O9 0.858102 0.601845 0.067046
O O10 0.349413 0.000000 0.782569
O O11 0.500000 0.883883 0.000000
#
# Coordination Sequence:
#
# PCOD9212076 Si02
#       4
#     8   8   8   8
#     4  10  21  41  63  94 135 176 219 275 337 399
#     4   9  19  38  65  95 131 174 219 273 341 400
#     4  10  21  41  62  96 133 177 225 274 334 401
#     4  11  23  40  64  98 136 177 224 274 336 402
#
# _framework density 22.707097000000001
#
# number of rings (size 3 to 8) (size 9 to 14) (size 15 to 20)
#    1.500    0.500    2.500    1.500    0.000    1.000 
#    9.000    3.750    0.000    4.500    0.000    0.000 
#    0.000    0.000    0.000    0.000    0.000    0.000 
#
# Total GULP energy -89084.027906 kJ/mol
# GULP energy per Si atom -5567.751744 kJ/mol
# Density = 2.265541 g / cm^3
# Si number density = 22.707097 Si / 1000 Ang^3
#
#
#
# Elastic Constant Matrix: (Units=GPa)
#
#
# Indices 1 2 3 4 5 6 
#
# 1 65.1050 16.0421 45.8711 0.0002 8.9592 0.0000
# 2 16.0421 73.3252 53.8448 0.0001 -3.4185 0.0001
# 3 45.8711 53.8448 168.1512 0.0002 -2.5096 0.0008
# 4 0.0002 0.0001 0.0002 41.6945 0.0001 -3.0175
# 5 8.9592 -3.4185 -2.5096 0.0001 57.6518 0.0002
# 6 0.0000 0.0001 0.0008 -3.0175 0.0002 14.3818
#
#
#
# Elastic Compliance Matrix: (Units=1/GPa)
#
#
# Indices 1 2 3 4 5 6 
#
# 1 0.019639 -0.000629 -0.005206 0.000000 -0.003316 0.000000
# 2 -0.000629 0.017889 -0.005543 0.000000 0.000917 0.000000
# 3 -0.005206 -0.005543 0.009155 0.000000 0.000879 -0.000001
# 4 0.000000 0.000000 0.000000 0.024354 0.000000 0.005110
# 5 -0.003316 0.000917 0.000879 0.000000 0.017953 0.000000
# 6 0.000000 0.000000 -0.000001 0.005110 0.000000 0.070605
#
#
# Mechanical properties :
#
#
# Convention : Reuss Voigt Hill
#
# Bulk Modulus (GPa) = 41.79189 59.78858 50.79024
# Shear Modulus (GPa) = 26.27091 35.46718 30.86904
#
# Velocity S-wave (km/s) = 3.40508 3.95643 3.69106
# Velocity P-wave (km/s) = 5.82273 6.87449 6.37035
#
# Compressibility (1/GPa) = 0.02392809
#
# Stress axis : x y z
#
# Youngs Moduli (GPa) = 50.91991 55.90161 109.22757
#
# Poissons Ratio (x) = 0.03514 0.56859
# Poissons Ratio (y) = 0.03200 0.60546
# Poissons Ratio (z) = 0.26507 0.30987
#
# Static dielectric constant tensor:
#      x y z
#    x 1.971930 0.000000 0.042420 
#    y 0.000000 1.865910 0.000000 
#    z 0.042420 0.000000 1.897300 
# 
# From -- ./inp_files/206438.got.cif
#   From: 2010.05.17/outbox.cif.g08.bks.cpg/sg12_104_cif.got.tgz:206438.got - 2010.06.03 13:09:07.
