data_PCOD9212197
_publ_section_title
;
Structure prediction by ZEFSAII (Michael W. Deem and Ramdas Pophale) SiO2 
 PCOD9212197
Probable space group: C 2/M
;
_chemical_formula_sum "Si O2"
_cell_formula_units_Z 56
_cell_length_a 14.432114
_cell_length_b 18.570093
_cell_length_c 17.550268
_cell_angle_alpha 90.000000
_cell_angle_beta 144.152001
_cell_angle_gamma 90.000000
_cell_volume 2754.585379
_symmetry_space_group_name_H-M "C 2/M"
_symmetry_group_IT_number 12
_symmetry_cell_setting 'monoclinic'
loop_
_space_group_symop_operation_xyz
x,y,z
-x,y,-z
-x,-y,-z
x,-y,z
1/2+x,1/2+y,z
1/2-x,1/2+y,-z
1/2-x,1/2-y,-z
1/2+x,1/2-y,z
loop_
_atom_site_type_symbol
_atom_site_label
_atom_site_fract_x
_atom_site_fract_y
_atom_site_fract_z
Si Si1 0.373959 0.219466 0.021098
Si Si2 0.456043 0.918132 0.830060
Si Si3 0.093732 0.917918 0.642742
Si Si4 0.791527 0.228283 0.691779
Si Si5 0.835145 0.415845 0.438983
Si Si6 0.378980 0.835709 0.627592
Si Si7 0.369112 0.273892 0.268719
O O1 0.412499 0.134721 0.049533
O O2 0.540275 0.252703 0.158601
O O3 0.250000 0.250000 0.000000
O O4 0.295634 0.231217 0.887028
O O5 0.282537 0.911342 0.752897
O O6 0.428084 0.891865 0.725424
O O7 0.505503 0.000000 0.868075
O O8 0.059617 0.854554 0.680014
O O9 0.000000 0.908162 0.500000
O O10 0.059335 0.000000 0.644845
O O11 0.780418 0.143039 0.674829
O O12 0.769743 0.277236 0.600903
O O13 0.659865 0.252452 0.663739
O O14 0.790320 0.500000 0.409184
O O15 0.842116 0.383659 0.529335
O O16 0.000000 0.410801 0.500000
O O17 0.519944 0.783531 0.696777
#
# Coordination Sequence:
#
# PCOD9212197 Si02
#       7
#     8   8   8   8   8   8   8
#     4  11  22  42  62  95 125 166 216 264 305 373
#     4  10  21  41  65  92 127 167 209 259 320 375
#     4  10  23  40  61  96 133 162 201 257 322 383
#     4  11  23  41  66  94 125 166 213 258 320 371
#     4  11  24  42  65  96 130 166 212 263 317 378
#     4  11  22  40  67  95 124 166 213 258 316 382
#     4  12  22  39  68  90 129 166 215 260 310 375
#
# _framework density 20.329737999999999
#
# number of rings (size 3 to 8) (size 9 to 14) (size 15 to 20)
#    0.000    1.143    7.143    1.286    2.000    1.714 
#    0.000    4.286    0.000    0.857    0.000    0.000 
#    0.000    0.000    0.000    0.000    0.000    0.000 
#
# Total GULP energy -156268.030228 kJ/mol
# GULP energy per Si atom -5581.001080 kJ/mol
# Density = 2.028347 g / cm^3
# Si number density = 20.329738 Si / 1000 Ang^3
#
#
#
# Elastic Constant Matrix: (Units=GPa)
#
#
# Indices 1 2 3 4 5 6 
#
# 1 78.1475 29.8398 8.0141 0.0007 -6.3296 0.0009
# 2 29.8398 187.7325 39.0959 -0.0012 0.7698 0.0001
# 3 8.0141 39.0959 55.4069 -0.0005 -7.9868 0.0009
# 4 0.0007 -0.0012 -0.0005 23.6925 -0.0010 4.8209
# 5 -6.3296 0.7698 -7.9868 -0.0010 21.9646 0.0001
# 6 0.0009 0.0001 0.0009 4.8209 0.0001 26.5979
#
#
#
# Elastic Compliance Matrix: (Units=1/GPa)
#
#
# Indices 1 2 3 4 5 6 
#
# 1 0.013986 -0.002279 0.000188 0.000000 0.004178 0.000000
# 2 -0.002279 0.006694 -0.004772 0.000000 -0.002627 0.000000
# 3 0.000188 -0.004772 0.022605 0.000001 0.008441 -0.000001
# 4 0.000000 0.000000 0.000001 0.043824 0.000002 -0.007943
# 5 0.004178 -0.002627 0.008441 0.000002 0.049893 -0.000001
# 6 0.000000 0.000000 -0.000001 -0.007943 -0.000001 0.039037
#
#
# Mechanical properties :
#
#
# Convention : Reuss Voigt Hill
#
# Bulk Modulus (GPa) = 33.83262 52.79850 43.31556
# Shear Modulus (GPa) = 25.04785 30.74013 27.89399
#
# Velocity S-wave (km/s) = 3.51391 3.89276 3.70818
# Velocity P-wave (km/s) = 5.75686 6.79943 6.29975
#
# Compressibility (1/GPa) = 0.02955727
#
# Stress axis : x y z
#
# Youngs Moduli (GPa) = 71.50104 149.39704 44.23776
#
# Poissons Ratio (x) = 0.34051 -0.00830
# Poissons Ratio (y) = 0.16297 0.21110
# Poissons Ratio (z) = -0.01342 0.71293
#
# Static dielectric constant tensor:
#      x y z
#    x 1.766800 0.000000 -0.005440 
#    y 0.000000 1.738090 0.000000 
#    z -0.005440 0.000000 1.759730 
# 
# From -- ./inp_files/271443.got.cif
#   From: 2010.05.17/outbox.cif.g08.bks.cpg/sg12_136_cif.got.tgz:271443.got - 2010.06.03 13:09:07.
