data_PCOD9212181
_publ_section_title
;
Structure prediction by ZEFSAII (Michael W. Deem and Ramdas Pophale) SiO2 
 PCOD9212181
Probable space group: C 2/M
;
_chemical_formula_sum "Si O2"
_cell_formula_units_Z 64
_cell_length_a 12.285219
_cell_length_b 14.652207
_cell_length_c 25.982779
_cell_angle_alpha 90.000000
_cell_angle_beta 39.166057
_cell_angle_gamma 90.000000
_cell_volume 2953.881780
_symmetry_space_group_name_H-M "C 2/M"
_symmetry_group_IT_number 12
_symmetry_cell_setting 'monoclinic'
loop_
_space_group_symop_operation_xyz
x,y,z
-x,y,-z
-x,-y,-z
x,-y,z
1/2+x,1/2+y,z
1/2-x,1/2+y,-z
1/2-x,1/2-y,-z
1/2+x,1/2-y,z
loop_
_atom_site_type_symbol
_atom_site_label
_atom_site_fract_x
_atom_site_fract_y
_atom_site_fract_z
Si Si1 0.103208 0.341861 0.883894
Si Si2 0.970279 0.599201 0.741902
Si Si3 0.889722 0.149297 0.171488
Si Si4 0.997866 0.774112 0.575482
Si Si5 0.083355 0.103922 0.295546
Si Si6 0.363287 0.716041 0.295247
Si Si7 0.810767 0.394157 0.443724
Si Si8 0.234125 0.599769 0.939425
O O1 0.079020 0.243341 0.869028
O O2 0.226962 0.393326 0.798863
O O3 0.202149 0.334626 0.902624
O O4 0.917585 0.384015 0.964383
O O5 0.007559 0.500000 0.752698
O O6 0.770437 0.603324 0.798537
O O7 0.026249 0.690604 0.751084
O O8 0.080599 0.604789 0.648726
O O9 0.835904 0.169466 0.250106
O O10 0.076576 0.103875 0.106716
O O11 0.098324 0.680259 0.552251
O O12 0.123163 0.849220 0.504918
O O13 0.935077 0.826315 0.650495
O O14 0.821176 0.743812 0.613761
O O15 0.959978 0.146123 0.297010
O O16 0.038679 0.000000 0.325533
O O17 0.802890 0.500000 0.464651
O O18 0.209643 0.500000 0.924487
#
# Coordination Sequence:
#
# PCOD9212181 Si02
#       8
#     8   8   8   8   8   8   8   8
#     4  11  21  39  60  92 126 159 201 258 303 363
#     4  11  23  41  62  90 123 161 210 257 302 368
#     4  12  21  41  63  90 124 165 205 249 313 365
#     4  11  23  42  64  89 131 159 206 261 311 367
#     4  12  23  40  64  92 125 162 206 257 311 364
#     4  12  22  41  60  93 120 164 204 254 306 364
#     4  10  21  41  65  89 123 167 206 254 312 368
#     4  11  23  38  62  94 123 160 208 252 306 368
#
# _framework density 21.666405000000001
#
# number of rings (size 3 to 8) (size 9 to 14) (size 15 to 20)
#    0.000    0.750    6.250    2.625    0.000    2.500 
#    0.000    1.250    0.000    2.250    0.000    7.000 
#    0.000    0.000    0.000    0.000    0.000    0.000 
#
# Total GULP energy -178821.015848 kJ/mol
# GULP energy per Si atom -5588.156745 kJ/mol
# Density = 2.161709 g / cm^3
# Si number density = 21.666405 Si / 1000 Ang^3
#
#
#
# Elastic Constant Matrix: (Units=GPa)
#
#
# Indices 1 2 3 4 5 6 
#
# 1 30.5785 11.6622 23.6250 0.0000 -17.4274 0.0000
# 2 11.6622 129.4378 17.2401 0.0000 -9.3156 0.0000
# 3 23.6250 17.2401 107.4757 -0.0001 -29.9113 0.0001
# 4 0.0000 0.0000 -0.0001 18.2500 0.0000 -4.3018
# 5 -17.4274 -9.3156 -29.9113 0.0000 41.6301 0.0000
# 6 0.0000 0.0000 0.0001 -4.3018 0.0000 9.6283
#
#
#
# Elastic Compliance Matrix: (Units=1/GPa)
#
#
# Indices 1 2 3 4 5 6 
#
# 1 0.046459 -0.002359 -0.005710 0.000000 0.014819 0.000000
# 2 -0.002359 0.008053 -0.000683 0.000000 0.000324 0.000000
# 3 -0.005710 -0.000683 0.012451 0.000000 0.006403 0.000000
# 4 0.000000 0.000000 0.000000 0.061244 0.000000 0.027363
# 5 0.014819 0.000324 0.006403 0.000000 0.034897 0.000000
# 6 0.000000 0.000000 0.000000 0.027363 0.000000 0.116085
#
#
# Mechanical properties :
#
#
# Convention : Reuss Voigt Hill
#
# Bulk Modulus (GPa) = 20.21881 41.39407 30.80644
# Shear Modulus (GPa) = 15.96522 28.23267 22.09895
#
# Velocity S-wave (km/s) = 2.71747 3.61371 3.19715
# Velocity P-wave (km/s) = 4.38159 6.04637 5.28000
#
# Compressibility (1/GPa) = 0.04945889
#
# Stress axis : x y z
#
# Youngs Moduli (GPa) = 21.52417 124.18459 80.31375
#
# Poissons Ratio (x) = 0.29294 0.45860
# Poissons Ratio (y) = 0.05077 0.05486
# Poissons Ratio (z) = 0.12290 0.08483
#
# Static dielectric constant tensor:
#      x y z
#    x 1.789000 0.000000 -0.014060 
#    y 0.000000 1.777640 0.000000 
#    z -0.014060 0.000000 1.810950 
# 
# From -- ./inp_files/358417.got.cif
#   From: 2010.05.17/outbox.cif.g08.bks.cpg/sg12_180_cif.got.tgz:358417.got - 2010.06.03 13:09:07.
