data_PCOD9212198
_publ_section_title
;
Structure prediction by ZEFSAII (Michael W. Deem and Ramdas Pophale) SiO2 
 PCOD9212198
Probable space group: C 2/M
;
_chemical_formula_sum "Si O2"
_cell_formula_units_Z 40
_cell_length_a 14.892313
_cell_length_b 17.401923
_cell_length_c 15.972730
_cell_angle_alpha 90.000000
_cell_angle_beta 27.832554
_cell_angle_gamma 90.000000
_cell_volume 1932.646127
_symmetry_space_group_name_H-M "C 2/M"
_symmetry_group_IT_number 12
_symmetry_cell_setting 'monoclinic'
loop_
_space_group_symop_operation_xyz
x,y,z
-x,y,-z
-x,-y,-z
x,-y,z
1/2+x,1/2+y,z
1/2-x,1/2+y,-z
1/2-x,1/2-y,-z
1/2+x,1/2-y,z
loop_
_atom_site_type_symbol
_atom_site_label
_atom_site_fract_x
_atom_site_fract_y
_atom_site_fract_z
Si Si1 0.460609 0.408490 0.626875
Si Si2 0.146679 0.650539 0.632791
Si Si3 0.652418 0.154003 0.994556
Si Si4 0.846480 0.591365 0.554136
Si Si5 0.993014 0.802440 0.835647
O O1 0.500000 0.382749 0.500000
O O2 0.477674 0.500000 0.617740
O O3 0.631767 0.371631 0.539681
O O4 0.253788 0.384221 0.832674
O O5 0.082549 0.621148 0.595148
O O6 0.098555 0.740014 0.687960
O O7 0.026810 0.614571 0.810284
O O8 0.816252 0.160384 0.931708
O O9 0.591514 0.242362 0.026996
O O10 0.814172 0.500000 0.575781
O O11 0.648574 0.636313 0.735538
O O12 0.000000 0.607206 0.500000
#
# Coordination Sequence:
#
# PCOD9212198 Si02
#       5
#     8   8   8   8   8
#     4  11  24  40  63  96 133 170 212 269 337 398
#     4  10  21  41  65  92 127 176 220 268 327 386
#     4   9  21  40  66  94 125 167 220 268 326 384
#     4  11  23  39  64  99 135 177 222 270 330 392
#     4   9  20  41  66  92 127 167 224 271 316 386
#
# _framework density 20.697011
#
# number of rings (size 3 to 8) (size 9 to 14) (size 15 to 20)
#    1.200    0.800    2.000    1.200    0.000    3.200 
#    0.000    5.000    0.000    2.400    0.000    0.000 
#    0.000    0.800    0.000    0.000    0.000    0.000 
#
# Total GULP energy -111514.960851 kJ/mol
# GULP energy per Si atom -5575.748043 kJ/mol
# Density = 2.064990 g / cm^3
# Si number density = 20.697011 Si / 1000 Ang^3
#
#
#
# Elastic Constant Matrix: (Units=GPa)
#
#
# Indices 1 2 3 4 5 6 
#
# 1 83.1584 43.5141 16.7807 0.0034 8.6249 0.0043
# 2 43.5141 69.3176 16.1987 0.0127 -5.8095 -0.0075
# 3 16.7807 16.1987 103.1423 0.0095 3.1581 0.0057
# 4 0.0034 0.0127 0.0095 29.5650 -0.0018 -7.8215
# 5 8.6249 -5.8095 3.1581 -0.0018 29.7373 0.0004
# 6 0.0043 -0.0075 0.0057 -7.8215 0.0004 38.5170
#
#
#
# Elastic Compliance Matrix: (Units=1/GPa)
#
#
# Indices 1 2 3 4 5 6 
#
# 1 0.019814 -0.012901 -0.000947 0.000002 -0.008167 -0.000004
# 2 -0.012901 0.023683 -0.001883 -0.000006 0.008569 0.000005
# 3 -0.000947 -0.001883 0.010181 -0.000003 -0.001174 -0.000002
# 4 0.000002 -0.000006 -0.000003 0.035744 0.000001 0.007258
# 5 -0.008167 0.008569 -0.001174 0.000001 0.037795 0.000003
# 6 -0.000004 0.000005 -0.000002 0.007258 0.000003 0.027437
#
#
# Mechanical properties :
#
#
# Convention : Reuss Voigt Hill
#
# Bulk Modulus (GPa) = 45.01403 45.40058 45.20730
# Shear Modulus (GPa) = 25.83668 31.50552 28.67110
#
# Velocity S-wave (km/s) = 3.53700 3.90580 3.72597
# Velocity P-wave (km/s) = 6.20297 6.50568 6.35612
#
# Compressibility (1/GPa) = 0.02221530
#
# Stress axis : x y z
#
# Youngs Moduli (GPa) = 50.46842 42.22370 98.22077
#
# Poissons Ratio (x) = 0.54475 0.09306
# Poissons Ratio (y) = 0.65112 0.18494
# Poissons Ratio (z) = 0.04782 0.07950
#
# Static dielectric constant tensor:
#      x y z
#    x 1.749700 0.000000 0.040100 
#    y 0.000000 1.738590 0.000010 
#    z 0.040100 0.000010 1.806890 
# 
# From -- ./inp_files/217330.got.cif
#   From: 2010.05.17/outbox.cif.g08.bks.cpg/sg12_109_cif.got.tgz:217330.got - 2010.06.03 13:09:07.
