data_PCOD9212276
_publ_section_title
;
Structure prediction by ZEFSAII (Michael W. Deem and Ramdas Pophale) SiO2 
 PCOD9212276
Probable space group: C 2/M
;
_chemical_formula_sum "Si O2"
_cell_formula_units_Z 48
_cell_length_a 15.764510
_cell_length_b 14.606630
_cell_length_c 9.416468
_cell_angle_alpha 90.000000
_cell_angle_beta 97.451828
_cell_angle_gamma 90.000000
_cell_volume 2149.982975
_symmetry_space_group_name_H-M "C 2/M"
_symmetry_group_IT_number 12
_symmetry_cell_setting 'monoclinic'
loop_
_space_group_symop_operation_xyz
x,y,z
-x,y,-z
-x,-y,-z
x,-y,z
1/2+x,1/2+y,z
1/2-x,1/2+y,-z
1/2-x,1/2-y,-z
1/2+x,1/2-y,z
loop_
_atom_site_type_symbol
_atom_site_label
_atom_site_fract_x
_atom_site_fract_y
_atom_site_fract_z
Si Si1 0.690854 0.201419 0.598930
Si Si2 0.576034 0.195147 0.315518
Si Si3 0.083555 0.199804 0.808990
Si Si4 0.828602 0.302760 0.942813
Si Si5 0.788797 0.500000 0.051422
Si Si6 0.407816 0.500000 0.061772
Si Si7 0.943050 0.500000 0.628775
Si Si8 0.698772 0.000000 0.632223
O O1 0.750000 0.250000 0.500000
O O2 0.605938 0.186849 0.484386
O O3 0.657340 0.261379 0.721485
O O4 0.734073 0.103749 0.644111
O O5 0.506474 0.273233 0.279086
O O6 0.542051 0.092230 0.279913
O O7 0.651791 0.211620 0.218485
O O8 0.092573 0.258428 0.954885
O O9 0.093536 0.093310 0.846919
O O10 0.814049 0.408926 0.972932
O O11 0.750000 0.250000 0.000000
O O12 0.837891 0.500000 0.213917
O O13 0.683547 0.500000 0.044615
O O14 0.500000 0.500000 0.000000
O O15 0.849249 0.500000 0.531896
O O16 0.000000 0.500000 0.500000
#
# Coordination Sequence:
#
# PCOD9212276 Si02
#       8
#     8   8   8   8   4   4   4   4
#     4  11  24  43  70 101 140 185 237 282 347 412
#     4  11  24  42  68 101 138 178 223 283 351 412
#     4  12  25  46  68 100 140 183 229 285 352 416
#     4  12  24  42  68 100 135 179 231 286 338 411
#     4  12  25  42  73 101 137 175 236 281 350 404
#     4  12  28  46  69 100 142 189 233 289 346 416
#     4  10  21  41  66  97 136 174 212 281 350 408
#     4  10  22  41  65 102 136 174 225 288 345 400
#
# _framework density 22.325758
#
# number of rings (size 3 to 8) (size 9 to 14) (size 15 to 20)
#    0.000    0.667    3.333    5.500    0.000    0.667 
#    0.000    3.333    0.000    0.000    0.000    0.000 
#    0.000    0.000    0.000    0.000    0.000    0.000 
#
# Total GULP energy -133871.674504 kJ/mol
# GULP energy per Si atom -5577.986438 kJ/mol
# Density = 2.227494 g / cm^3
# Si number density = 22.325758 Si / 1000 Ang^3
#
#
#
# Elastic Constant Matrix: (Units=GPa)
#
#
# Indices 1 2 3 4 5 6 
#
# 1 67.4422 35.2124 11.5429 0.0000 -18.8517 0.0000
# 2 35.2124 205.0436 43.3784 0.0000 -19.4300 0.0000
# 3 11.5429 43.3784 103.0071 0.0000 -17.4024 0.0000
# 4 0.0000 0.0000 0.0000 41.6638 0.0000 -0.6984
# 5 -18.8517 -19.4300 -17.4024 0.0000 45.2259 0.0000
# 6 0.0000 0.0000 0.0000 -0.6984 0.0000 25.5060
#
#
#
# Elastic Compliance Matrix: (Units=1/GPa)
#
#
# Indices 1 2 3 4 5 6 
#
# 1 0.017908 -0.002492 0.000132 0.000000 0.006444 0.000000
# 2 -0.002492 0.005802 -0.002052 0.000000 0.000664 0.000000
# 3 0.000132 -0.002052 0.011142 0.000000 0.003461 0.000000
# 4 0.000000 0.000000 0.000000 0.024013 0.000000 0.000657
# 5 0.006444 0.000664 0.003461 0.000000 0.026414 0.000000
# 6 0.000000 0.000000 0.000000 0.000657 0.000000 0.039225
#
#
# Mechanical properties :
#
#
# Convention : Reuss Voigt Hill
#
# Bulk Modulus (GPa) = 38.42247 61.75114 50.08681
# Shear Modulus (GPa) = 35.21019 41.50308 38.35664
#
# Velocity S-wave (km/s) = 3.97559 4.31626 4.14943
# Velocity P-wave (km/s) = 6.19040 7.24978 6.74094
#
# Compressibility (1/GPa) = 0.02602644
#
# Stress axis : x y z
#
# Youngs Moduli (GPa) = 55.84194 172.35217 89.75001
#
# Poissons Ratio (x) = 0.42959 -0.01182
# Poissons Ratio (y) = 0.13919 0.18415
# Poissons Ratio (z) = -0.00735 0.35364
#
# Static dielectric constant tensor:
#      x y z
#    x 1.989010 0.000000 0.123810 
#    y 0.000000 1.895180 0.000000 
#    z 0.123810 0.000000 1.861210 
# 
# From -- ./inp_files/73692.got.cif
#   From: 2010.05.17/outbox.cif.g08.bks.cpg/sg12_37_cif.got.tgz:73692.got - 2010.06.03 13:09:07.
