data_PCOD9212869
_publ_section_title
;
Structure prediction by ZEFSAII (Michael W. Deem and Ramdas Pophale) SiO2 
 PCOD9212869
Probable space group: C 2/M
;
_chemical_formula_sum "Si O2"
_cell_formula_units_Z 40
_cell_length_a 5.197156
_cell_length_b 28.203725
_cell_length_c 15.048959
_cell_angle_alpha 90.000000
_cell_angle_beta 103.964910
_cell_angle_gamma 90.000000
_cell_volume 2140.666591
_symmetry_space_group_name_H-M "C 2/M"
_symmetry_group_IT_number 12
_symmetry_cell_setting 'monoclinic'
loop_
_space_group_symop_operation_xyz
x,y,z
-x,y,-z
-x,-y,-z
x,-y,z
1/2+x,1/2+y,z
1/2-x,1/2+y,-z
1/2-x,1/2-y,-z
1/2+x,1/2-y,z
loop_
_atom_site_type_symbol
_atom_site_label
_atom_site_fract_x
_atom_site_fract_y
_atom_site_fract_z
Si Si1 0.568021 0.406844 0.103193
Si Si2 0.593927 0.219676 0.608167
Si Si3 0.387388 0.053069 0.814042
Si Si4 0.533611 0.852973 0.757670
Si Si5 0.111411 0.717752 0.103027
O O1 0.327155 0.432809 0.130523
O O2 0.681637 0.365299 0.174903
O O3 0.820379 0.441934 0.119004
O O4 0.500000 0.389210 0.000000
O O5 0.500000 0.209069 0.500000
O O6 0.389786 0.259433 0.627966
O O7 0.566231 0.175015 0.669935
O O8 0.391760 0.095656 0.742142
O O9 0.343205 0.000000 0.777197
O O10 0.390261 0.820658 0.819398
O O11 0.394195 0.742290 0.111505
O O12 0.000000 0.697528 0.000000
#
# Coordination Sequence:
#
# PCOD9212869 Si02
#       5
#     8   8   8   8   8
#     4  10  23  35  54  81 112 155 196 235 278 331
#     4  10  22  40  64  91 116 144 188 238 287 345
#     4  10  23  38  55  82 114 153 196 241 283 331
#     4  10  24  35  61  80 116 151 187 236 287 335
#     4  10  22  34  49  74 108 145 181 218 265 333
#
# _framework density 18.685770000000002
#
# number of rings (size 3 to 8) (size 9 to 14) (size 15 to 20)
#    1.200    0.800    0.000    2.400    8.400    3.200 
#    0.000    0.000    0.000    0.600    0.000    1.400 
#    0.000    0.000    0.000    0.000    0.000    0.000 
#
# Total GULP energy -111595.022280 kJ/mol
# GULP energy per Si atom -5579.751114 kJ/mol
# Density = 1.864324 g / cm^3
# Si number density = 18.685770 Si / 1000 Ang^3
#
#
#
# Elastic Constant Matrix: (Units=GPa)
#
#
# Indices 1 2 3 4 5 6 
#
# 1 82.9822 10.5395 19.8295 0.0000 -27.9196 0.0000
# 2 10.5395 100.5777 63.7615 0.0000 -7.1196 0.0000
# 3 19.8295 63.7615 85.2156 0.0000 -16.3889 0.0000
# 4 0.0000 0.0000 0.0000 6.7610 0.0000 11.9513
# 5 -27.9196 -7.1196 -16.3889 0.0000 18.5003 0.0000
# 6 0.0000 0.0000 0.0000 11.9513 0.0000 -12.4187
#
#
#
# Elastic Compliance Matrix: (Units=1/GPa)
#
#
# Indices 1 2 3 4 5 6 
#
# 1 0.024858 -0.001837 0.003217 0.000000 0.039658 0.000000
# 2 -0.001837 0.019688 -0.016127 0.000000 -0.009483 0.000000
# 3 0.003217 -0.016127 0.027475 0.000000 0.022988 0.000000
# 4 0.000000 0.000000 0.000000 0.054757 0.000000 0.052696
# 5 0.039658 -0.009483 0.022988 0.000000 0.130618 0.000000
# 6 0.000000 0.000000 0.000000 0.052696 0.000000 -0.029811
#
#
# Mechanical properties :
#
#
# Convention : Reuss Voigt Hill
#
# Bulk Modulus (GPa) = 23.51508 50.78184 37.14846
# Shear Modulus (GPa) = 18.43287 14.21152 16.32220
#
# Velocity S-wave (km/s) = 3.14421 2.76080 2.95873
# Velocity P-wave (km/s) = 5.07870 6.11543 5.62102
#
# Compressibility (1/GPa) = 0.04252591
#
# Stress axis : x y z
#
# Youngs Moduli (GPa) = 40.22806 50.79276 36.39737
#
# Poissons Ratio (x) = 0.09332 -0.11710
# Poissons Ratio (y) = 0.07391 0.58700
# Poissons Ratio (z) = -0.12943 0.81916
#
# Static dielectric constant tensor:
#      x y z
#    x 1.678200 0.000000 0.003450 
#    y 0.000000 1.783490 0.000000 
#    z 0.003450 0.000000 1.616860 
# 
# From -- ./inp_files/192154.got.cif
#   From: 2010.05.17/outbox.cif.g08.bks.cpg/sg12_97_cif.got.tgz:192154.got - 2010.06.03 13:09:07.
