data_PCOD9212071
_publ_section_title
;
Structure prediction by ZEFSAII (Michael W. Deem and Ramdas Pophale) SiO2 
 PCOD9212071
Probable space group: C 2/M
;
_chemical_formula_sum "Si O2"
_cell_formula_units_Z 44
_cell_length_a 28.677590
_cell_length_b 7.184115
_cell_length_c 8.903249
_cell_angle_alpha 90.000000
_cell_angle_beta 66.866529
_cell_angle_gamma 90.000000
_cell_volume 1686.784881
_symmetry_space_group_name_H-M "C 2/M"
_symmetry_group_IT_number 12
_symmetry_cell_setting 'monoclinic'
loop_
_space_group_symop_operation_xyz
x,y,z
-x,y,-z
-x,-y,-z
x,-y,z
1/2+x,1/2+y,z
1/2-x,1/2+y,-z
1/2-x,1/2-y,-z
1/2+x,1/2-y,z
loop_
_atom_site_type_symbol
_atom_site_label
_atom_site_fract_x
_atom_site_fract_y
_atom_site_fract_z
Si Si1 0.926009 0.225430 0.677025
Si Si2 0.299220 0.719130 0.537812
Si Si3 0.309724 0.722135 0.855796
Si Si4 0.474803 0.725458 0.295188
Si Si5 0.331032 0.000000 0.045348
Si Si6 0.387191 0.274515 0.198353
O O1 0.869557 0.290768 0.777158
O O2 0.945643 0.278799 0.486323
O O3 0.967460 0.284215 0.748024
O O4 0.924958 0.000000 0.678485
O O5 0.305785 0.500000 0.550973
O O6 0.250000 0.750000 0.500000
O O7 0.293166 0.790298 0.712639
O O8 0.348737 0.776059 0.383646
O O9 0.310528 0.500000 0.873206
O O10 0.292460 0.838902 0.019984
O O11 0.475070 0.500000 0.292717
O O12 0.442820 0.778145 0.189660
O O13 0.364265 0.837588 0.090424
O O14 0.385691 0.500000 0.175245
#
# Coordination Sequence:
#
# PCOD9212071 Si02
#       6
#     8   8   8   8   4   8
#     4   8  13  27  57  90 117 153 202 258 307 347
#     4  10  22  40  71  95 116 150 199 267 307 353
#     4  10  21  41  62  91 124 159 206 251 303 358
#     4   8  13  27  57  90 117 153 202 258 307 347
#     4  12  26  38  63  86 130 182 192 240 301 380
#     4  10  21  41  62  91 124 159 206 251 303 358
#
# _framework density 26.085128000000001
#
# number of rings (size 3 to 8) (size 9 to 14) (size 15 to 20)
#    0.000    2.545    1.818    1.636    2.545    0.000 
#    0.000    3.636    0.000    6.545    0.000    0.000 
#    0.000    0.000    0.000    0.000    0.000    0.000 
#
# Total GULP energy -122607.789731 kJ/mol
# GULP energy per Si atom -5573.081351 kJ/mol
# Density = 2.602576 g / cm^3
# Si number density = 26.085128 Si / 1000 Ang^3
#
#
#
# Elastic Constant Matrix: (Units=GPa)
#
#
# Indices 1 2 3 4 5 6 
#
# 1 89.6297 4.2669 57.1614 0.0000 29.1234 0.0000
# 2 4.2669 166.7569 33.0317 0.0000 23.0901 0.0000
# 3 57.1614 33.0317 128.4187 0.0000 52.4586 0.0000
# 4 0.0000 0.0000 0.0000 -32.8350 0.0000 113.0958
# 5 29.1234 23.0901 52.4586 0.0000 66.6976 0.0000
# 6 0.0000 0.0000 0.0000 113.0958 0.0000 223.1605
#
#
#
# Elastic Compliance Matrix: (Units=1/GPa)
#
#
# Indices 1 2 3 4 5 6 
#
# 1 0.015980 0.001193 -0.006484 0.000000 -0.002291 0.000000
# 2 0.001193 0.006490 -0.001576 0.000000 -0.001528 0.000000
# 3 -0.006484 -0.001576 0.014290 0.000000 -0.007863 0.000000
# 4 0.000000 0.000000 0.000000 -0.011093 0.000000 0.005622
# 5 -0.002291 -0.001528 -0.007863 0.000000 0.022707 0.000000
# 6 0.000000 0.000000 0.000000 0.005622 0.000000 0.001632
#
#
# Mechanical properties :
#
#
# Convention : Reuss Voigt Hill
#
# Bulk Modulus (GPa) = 43.42989 63.74725 53.58857
# Shear Modulus (GPa) = 70.01248 70.76099 70.38673
#
# Velocity S-wave (km/s) = 5.18635 5.21400 5.20020
# Velocity P-wave (km/s) = 7.24912 7.79352 7.52625
#
# Compressibility (1/GPa) = 0.02302562
#
# Stress axis : x y z
#
# Youngs Moduli (GPa) = 62.57965 154.08331 69.97686
#
# Poissons Ratio (x) = -0.18377 0.45372
# Poissons Ratio (y) = -0.07464 0.11029
# Poissons Ratio (z) = 0.40576 0.24284
#
# Static dielectric constant tensor:
#      x y z
#    x 2.146040 0.000000 -0.105220 
#    y 0.000000 2.074090 0.000000 
#    z -0.105220 0.000000 2.148870 
# 
# From -- ./inp_files/108200.got.cif
#   From: 2010.05.17/outbox.cif.g08.bks.cpg/sg12_55_cif.got.tgz:108200.got - 2010.06.03 13:09:07.
