data_PCOD9212719
_publ_section_title
;
Structure prediction by ZEFSAII (Michael W. Deem and Ramdas Pophale) SiO2 
 PCOD9212719
Probable space group: C 2/M
;
_chemical_formula_sum "Si O2"
_cell_formula_units_Z 36
_cell_length_a 22.536004
_cell_length_b 14.472629
_cell_length_c 14.845522
_cell_angle_alpha 90.000000
_cell_angle_beta 160.763391
_cell_angle_gamma 90.000000
_cell_volume 1595.275412
_symmetry_space_group_name_H-M "C 2/M"
_symmetry_group_IT_number 12
_symmetry_cell_setting 'monoclinic'
loop_
_space_group_symop_operation_xyz
x,y,z
-x,y,-z
-x,-y,-z
x,-y,z
1/2+x,1/2+y,z
1/2-x,1/2+y,-z
1/2-x,1/2-y,-z
1/2+x,1/2-y,z
loop_
_atom_site_type_symbol
_atom_site_label
_atom_site_fract_x
_atom_site_fract_y
_atom_site_fract_z
Si Si1 0.829439 0.294906 0.521882
Si Si2 0.813016 0.000000 0.677986
Si Si3 0.608479 0.330699 0.534532
Si Si4 0.781195 0.338415 0.963275
Si Si5 0.647133 0.000000 0.789722
Si Si6 0.960269 0.000000 0.692939
O O1 0.750000 0.250000 0.500000
O O2 0.788255 0.403344 0.452078
O O3 0.771445 0.244517 0.345795
O O4 0.045893 0.283698 0.826039
O O5 0.855261 0.000000 0.633583
O O6 0.000000 0.000000 0.000000
O O7 0.700832 0.376219 0.753727
O O8 0.406957 0.292361 0.271370
O O9 0.582317 0.410702 0.425688
O O10 0.842028 0.412616 0.125816
O O11 0.500000 0.000000 0.500000
O O12 0.827763 0.000000 0.989889
#
# Coordination Sequence:
#
# PCOD9212719 Si02
#       6
#     8   4   8   8   4   4
#     4  12  26  45  71 103 146 192 241 296 367 436
#     4  12  29  46  67 101 152 193 243 296 364 439
#     4  10  22  45  75 103 143 184 241 308 357 432
#     4  10  23  44  71 106 137 184 246 297 366 431
#     4  10  22  43  72 104 141 188 240 303 364 432
#     4  10  21  43  69 103 140 188 236 297 363 425
#
# _framework density 22.566635999999999
#
# number of rings (size 3 to 8) (size 9 to 14) (size 15 to 20)
#    0.000    1.333    2.222    2.000    6.222    2.667 
#    8.000    1.111    0.000    0.000    0.000    0.000 
#    0.000    0.000    0.000    0.000    0.000    0.000 
#
# Total GULP energy -100356.279535 kJ/mol
# GULP energy per Si atom -5575.348863 kJ/mol
# Density = 2.251527 g / cm^3
# Si number density = 22.566636 Si / 1000 Ang^3
#
#
#
# Elastic Constant Matrix: (Units=GPa)
#
#
# Indices 1 2 3 4 5 6 
#
# 1 129.5636 55.1565 50.9620 0.0000 -0.3543 0.0000
# 2 55.1565 128.5547 24.5987 0.0000 -1.0363 0.0000
# 3 50.9620 24.5987 93.2832 0.0000 -25.8374 0.0000
# 4 0.0000 0.0000 0.0000 11.7652 0.0000 7.2568
# 5 -0.3543 -1.0363 -25.8374 0.0000 30.3026 0.0000
# 6 0.0000 0.0000 0.0000 7.2568 0.0000 28.9819
#
#
#
# Elastic Compliance Matrix: (Units=1/GPa)
#
#
# Indices 1 2 3 4 5 6 
#
# 1 0.012286 -0.003899 -0.007438 0.000000 -0.006331 0.000000
# 2 -0.003899 0.009528 -0.000399 0.000000 -0.000060 0.000000
# 3 -0.007438 -0.000399 0.019455 0.000000 0.016488 0.000000
# 4 0.000000 0.000000 0.000000 0.100521 0.000000 -0.025170
# 5 -0.006331 -0.000060 0.016488 0.000000 0.046983 0.000000
# 6 0.000000 0.000000 0.000000 -0.025170 0.000000 0.040807
#
#
# Mechanical properties :
#
#
# Convention : Reuss Voigt Hill
#
# Bulk Modulus (GPa) = 56.18636 68.09286 62.13961
# Shear Modulus (GPa) = 19.30622 28.92223 24.11422
#
# Velocity S-wave (km/s) = 2.92810 3.58388 3.27246
# Velocity P-wave (km/s) = 6.03189 6.88224 6.47105
#
# Compressibility (1/GPa) = 0.01779791
#
# Stress axis : x y z
#
# Youngs Moduli (GPa) = 81.39087 104.95806 51.39999
#
# Poissons Ratio (x) = 0.40927 0.38230
# Poissons Ratio (y) = 0.31737 0.02049
# Poissons Ratio (z) = 0.60536 0.04184
#
# Static dielectric constant tensor:
#      x y z
#    x 1.910290 0.000000 0.003920 
#    y 0.000000 1.876330 0.000000 
#    z 0.003920 0.000000 1.890930 
# 
# From -- ./inp_files/240837.got.cif
#   From: 2010.05.17/outbox.cif.g08.bks.cpg/sg12_121_cif.got.tgz:240837.got - 2010.06.03 13:09:07.
