data_PCOD9212422
_publ_section_title
;
Structure prediction by ZEFSAII (Michael W. Deem and Ramdas Pophale) SiO2 
 PCOD9212422
Probable space group: C 2/M
;
_chemical_formula_sum "Si O2"
_cell_formula_units_Z 64
_cell_length_a 8.621886
_cell_length_b 17.321263
_cell_length_c 30.488694
_cell_angle_alpha 90.000000
_cell_angle_beta 139.693163
_cell_angle_gamma 90.000000
_cell_volume 2945.404209
_symmetry_space_group_name_H-M "C 2/M"
_symmetry_group_IT_number 12
_symmetry_cell_setting 'monoclinic'
loop_
_space_group_symop_operation_xyz
x,y,z
-x,y,-z
-x,-y,-z
x,-y,z
1/2+x,1/2+y,z
1/2-x,1/2+y,-z
1/2-x,1/2-y,-z
1/2+x,1/2-y,z
loop_
_atom_site_type_symbol
_atom_site_label
_atom_site_fract_x
_atom_site_fract_y
_atom_site_fract_z
Si Si1 0.266854 0.406804 0.575621
Si Si2 0.588724 0.151031 0.699523
Si Si3 0.038978 0.179695 0.297075
Si Si4 0.216729 0.808860 0.939894
Si Si5 0.814935 0.089020 0.835286
Si Si6 0.094881 0.908436 0.566024
Si Si7 0.006110 0.342922 0.847737
Si Si8 0.740292 0.416928 0.023790
O O1 0.281328 0.500000 0.584128
O O2 0.340784 0.367241 0.637090
O O3 0.454168 0.380008 0.578586
O O4 0.000000 0.389227 0.500000
O O5 0.802763 0.168620 0.712196
O O6 0.478563 0.231104 0.693067
O O7 0.679571 0.103860 0.760906
O O8 0.375456 0.106008 0.630080
O O9 0.764057 0.156384 0.227827
O O10 0.086505 0.880933 0.887953
O O11 0.082047 0.737352 0.887892
O O12 0.500000 0.798320 0.000000
O O13 0.196179 0.841088 0.985078
O O14 0.683115 0.138114 0.845260
O O15 0.805447 0.000000 0.846087
O O16 0.000000 0.874330 0.500000
O O17 0.047227 0.000000 0.555108
O O18 0.049303 0.403438 0.896078
O O19 0.774738 0.500000 0.008105
O O20 0.500000 0.422393 0.000000
#
# Coordination Sequence:
#
# PCOD9212422 Si02
#       8
#     8   8   8   8   8   8   8   8
#     4  10  22  43  72 107 147 191 242 299 359 426
#     4  12  26  45  67 101 143 186 237 297 363 433
#     4  12  27  44  71 103 142 188 242 296 359 438
#     4  12  28  44  72 103 137 183 235 296 364 438
#     4  12  27  48  73 101 143 190 238 300 373 440
#     4  10  21  41  70 102 141 188 235 289 355 425
#     4  12  26  46  72 101 137 192 238 297 366 443
#     4  11  24  44  68  98 136 179 233 293 360 435
#
# _framework density 21.728766
#
# number of rings (size 3 to 8) (size 9 to 14) (size 15 to 20)
#    0.000    0.625    2.500    4.875    3.500    5.500 
#    0.000    2.500    0.000    0.000    0.000    0.000 
#    0.000    0.000    0.000    0.000    0.000    0.000 
#
# Total GULP energy -178822.088757 kJ/mol
# GULP energy per Si atom -5588.190274 kJ/mol
# Density = 2.167931 g / cm^3
# Si number density = 21.728766 Si / 1000 Ang^3
#
#
#
# Elastic Constant Matrix: (Units=GPa)
#
#
# Indices 1 2 3 4 5 6 
#
# 1 88.7487 38.8933 29.1763 0.0000 -3.8400 0.0000
# 2 38.8933 87.0054 24.5274 0.0000 -10.7156 0.0000
# 3 29.1763 24.5274 156.6060 0.0000 -6.5836 0.0001
# 4 0.0000 0.0000 0.0000 31.2813 0.0000 3.2654
# 5 -3.8400 -10.7156 -6.5836 0.0000 35.3618 0.0000
# 6 0.0000 0.0000 0.0001 3.2654 0.0000 32.6422
#
#
#
# Elastic Compliance Matrix: (Units=1/GPa)
#
#
# Indices 1 2 3 4 5 6 
#
# 1 0.014474 -0.006042 -0.001775 0.000000 -0.000590 0.000000
# 2 -0.006042 0.014946 -0.001061 0.000000 0.003676 0.000000
# 3 -0.001775 -0.001061 0.006915 0.000000 0.000773 0.000000
# 4 0.000000 0.000000 0.000000 0.032305 0.000000 -0.003232
# 5 -0.000590 0.003676 0.000773 0.000000 0.029473 0.000000
# 6 0.000000 0.000000 0.000000 -0.003232 0.000000 0.030958
#
#
# Mechanical properties :
#
#
# Convention : Reuss Voigt Hill
#
# Bulk Modulus (GPa) = 53.82448 57.50601 55.66524
# Shear Modulus (GPa) = 32.67540 35.84126 34.25833
#
# Velocity S-wave (km/s) = 3.88207 4.06579 3.97499
# Velocity P-wave (km/s) = 6.70215 6.96877 6.83676
#
# Compressibility (1/GPa) = 0.01857891
#
# Stress axis : x y z
#
# Youngs Moduli (GPa) = 69.09049 66.90633 144.61822
#
# Poissons Ratio (x) = 0.40427 0.25669
# Poissons Ratio (y) = 0.41747 0.15339
# Poissons Ratio (z) = 0.12263 0.07096
#
# Static dielectric constant tensor:
#      x y z
#    x 1.815490 0.000000 -0.017140 
#    y 0.000000 1.814560 0.000000 
#    z -0.017140 0.000000 1.772840 
# 
# From -- ./inp_files/373006.got.cif
#   From: 2010.05.17/outbox.cif.g08.bks.cpg/sg12_187_cif.got.tgz:373006.got - 2010.06.03 13:09:07.
