data_PCOD9212222
_publ_section_title
;
Structure prediction by ZEFSAII (Michael W. Deem and Ramdas Pophale) SiO2 
 PCOD9212222
Probable space group: C 2/M
;
_chemical_formula_sum "Si O2"
_cell_formula_units_Z 44
_cell_length_a 11.231576
_cell_length_b 17.829291
_cell_length_c 12.061369
_cell_angle_alpha 90.000000
_cell_angle_beta 117.833261
_cell_angle_gamma 90.000000
_cell_volume 2135.875599
_symmetry_space_group_name_H-M "C 2/M"
_symmetry_group_IT_number 12
_symmetry_cell_setting 'monoclinic'
loop_
_space_group_symop_operation_xyz
x,y,z
-x,y,-z
-x,-y,-z
x,-y,z
1/2+x,1/2+y,z
1/2-x,1/2+y,-z
1/2-x,1/2-y,-z
1/2+x,1/2-y,z
loop_
_atom_site_type_symbol
_atom_site_label
_atom_site_fract_x
_atom_site_fract_y
_atom_site_fract_z
Si Si1 0.658643 0.000000 0.174557
Si Si2 0.000000 0.373078 0.000000
Si Si3 0.905049 0.129809 0.731851
Si Si4 0.855849 0.000000 0.881997
Si Si5 0.565763 0.000000 0.732388
Si Si6 0.885171 0.659128 0.364589
Si Si7 0.888350 0.738498 0.129144
Si Si8 0.471106 0.500000 0.359732
O O1 0.621607 0.927373 0.086277
O O2 0.812834 0.000000 0.271262
O O3 0.560370 0.000000 0.239521
O O4 0.967438 0.322640 0.091202
O O5 0.759515 0.162699 0.636985
O O6 0.017229 0.188503 0.819339
O O7 0.863056 0.075419 0.813912
O O8 0.965091 0.073816 0.667539
O O9 0.705274 0.000000 0.865736
O O10 0.000000 0.000000 0.000000
O O11 0.572867 0.074823 0.659333
O O12 0.869171 0.707674 0.245327
O O13 0.000000 0.684986 0.500000
O O14 0.750000 0.750000 0.000000
O O15 0.500000 0.500000 0.500000
#
# Coordination Sequence:
#
# PCOD9212222 Si02
#       8
#     4   4   8   4   4   8   8   4
#     4  11  23  42  65  97 137 171 234 274 336 412
#     4  11  24  40  66  97 136 178 224 275 346 398
#     4  10  25  44  62 101 131 170 233 273 338 417
#     4   9  21  37  67  93 131 172 215 278 339 387
#     4  10  21  41  66 101 130 178 223 287 332 410
#     4  11  25  44  71  98 134 181 228 283 344 409
#     4  12  25  42  68  99 141 181 223 283 345 404
#     4  11  26  44  69  94 131 181 218 286 341 399
#
# _framework density 20.600449999999999
#
# number of rings (size 3 to 8) (size 9 to 14) (size 15 to 20)
#    0.000    1.273    1.818    3.000    8.909    4.364 
#    0.000    0.000    0.000    0.000    0.000    0.000 
#    0.000    0.000    0.000    0.000    0.000    0.000 
#
# Total GULP energy -122878.670131 kJ/mol
# GULP energy per Si atom -5585.394097 kJ/mol
# Density = 2.055356 g / cm^3
# Si number density = 20.600450 Si / 1000 Ang^3
#
#
#
# Elastic Constant Matrix: (Units=GPa)
#
#
# Indices 1 2 3 4 5 6 
#
# 1 158.6289 50.4914 80.2819 0.0000 19.1149 0.0000
# 2 50.4914 112.9558 47.8671 0.0000 3.3495 0.0000
# 3 80.2819 47.8671 153.8693 0.0000 29.6672 0.0000
# 4 0.0000 0.0000 0.0000 42.6399 0.0000 -28.6881
# 5 19.1149 3.3495 29.6672 0.0000 39.0693 0.0000
# 6 0.0000 0.0000 0.0000 -28.6881 0.0000 64.4541
#
#
#
# Elastic Compliance Matrix: (Units=1/GPa)
#
#
# Indices 1 2 3 4 5 6 
#
# 1 0.009150 -0.002467 -0.003730 0.000000 -0.001432 0.000000
# 2 -0.002467 0.010971 -0.002551 0.000000 0.002203 0.000000
# 3 -0.003730 -0.002551 0.010362 0.000000 -0.005824 0.000000
# 4 0.000000 0.000000 0.000000 0.033477 0.000000 0.014901
# 5 -0.001432 0.002203 -0.005824 0.000000 0.030530 0.000000
# 6 0.000000 0.000000 0.000000 0.014901 0.000000 0.022147
#
#
# Mechanical properties :
#
#
# Convention : Reuss Voigt Hill
#
# Bulk Modulus (GPa) = 76.99929 86.97055 81.98492
# Shear Modulus (GPa) = 36.11095 45.68691 40.89893
#
# Velocity S-wave (km/s) = 4.19133 4.71442 4.46055
# Velocity P-wave (km/s) = 7.80267 8.48197 8.14940
#
# Compressibility (1/GPa) = 0.01298713
#
# Stress axis : x y z
#
# Youngs Moduli (GPa) = 109.29342 91.14732 96.50740
#
# Poissons Ratio (x) = 0.22483 0.36001
# Poissons Ratio (y) = 0.26959 0.24618
# Poissons Ratio (z) = 0.40770 0.23250
#
# Static dielectric constant tensor:
#      x y z
#    x 1.816630 0.000000 0.092940 
#    y 0.000000 1.754000 0.000000 
#    z 0.092940 0.000000 1.816160 
# 
# From -- ./inp_files/131630.got.cif
#   From: 2010.05.17/outbox.cif.g08.bks.cpg/sg12_66_cif.got.tgz:131630.got - 2010.06.03 13:09:07.
