data_PCOD9212261
_publ_section_title
;
Structure prediction by ZEFSAII (Michael W. Deem and Ramdas Pophale) SiO2 
 PCOD9212261
Probable space group: C 2/M
;
_chemical_formula_sum "Si O2"
_cell_formula_units_Z 48
_cell_length_a 24.802931
_cell_length_b 14.938768
_cell_length_c 5.343225
_cell_angle_alpha 90.000000
_cell_angle_beta 86.382170
_cell_angle_gamma 90.000000
_cell_volume 1975.854219
_symmetry_space_group_name_H-M "C 2/M"
_symmetry_group_IT_number 12
_symmetry_cell_setting 'monoclinic'
loop_
_space_group_symop_operation_xyz
x,y,z
-x,y,-z
-x,-y,-z
x,-y,z
1/2+x,1/2+y,z
1/2-x,1/2+y,-z
1/2-x,1/2-y,-z
1/2+x,1/2-y,z
loop_
_atom_site_type_symbol
_atom_site_label
_atom_site_fract_x
_atom_site_fract_y
_atom_site_fract_z
Si Si1 0.674637 0.500000 0.996201
Si Si2 0.948844 0.154854 0.178380
Si Si3 0.269411 0.671115 0.809767
Si Si4 0.627000 0.255027 0.146672
Si Si5 0.555390 0.837391 0.541148
Si Si6 0.602949 0.500000 0.520890
Si Si7 0.162584 0.602638 0.759843
O O1 0.712899 0.585901 0.031801
O O2 0.631054 0.500000 0.241750
O O3 0.648321 0.500000 0.728252
O O4 0.957805 0.256729 0.264941
O O5 0.933889 0.087057 0.405830
O O6 0.894748 0.167472 0.027926
O O7 0.000000 0.123785 0.000000
O O8 0.326486 0.706843 0.684878
O O9 0.220699 0.639167 0.646515
O O10 0.250000 0.750000 0.000000
O O11 0.575380 0.217596 0.298255
O O12 0.649803 0.170770 0.987706
O O13 0.500000 0.888179 0.500000
O O14 0.608937 0.889907 0.607069
O O15 0.168848 0.500000 0.833472
#
# Coordination Sequence:
#
# PCOD9212261 Si02
#       7
#     4   8   8   8   8   4   8
#     4  12  24  48  69 104 153 187 239 303 359 435
#     4  11  22  40  65  97 135 180 232 285 344 424
#     4  10  21  44  69  98 139 183 235 291 362 430
#     4  10  21  41  66  94 131 179 228 281 359 425
#     4  11  23  41  67  93 130 181 231 290 352 429
#     4  12  27  42  70 108 148 190 238 288 361 423
#     4  10  23  41  63  98 134 171 231 292 360 430
#
# _framework density 24.293292000000001
#
# number of rings (size 3 to 8) (size 9 to 14) (size 15 to 20)
#    0.000    1.333    4.167    1.250    0.000    1.667 
#    6.000    2.083    0.000    0.000    0.000    0.000 
#    0.000    0.000    0.000    0.000    0.000    0.000 
#
# Total GULP energy -134026.081287 kJ/mol
# GULP energy per Si atom -5584.420054 kJ/mol
# Density = 2.423800 g / cm^3
# Si number density = 24.293292 Si / 1000 Ang^3
#
#
#
# Elastic Constant Matrix: (Units=GPa)
#
#
# Indices 1 2 3 4 5 6 
#
# 1 167.3397 30.4903 13.8066 0.0000 27.6115 0.0000
# 2 30.4903 120.6761 11.3068 0.0000 7.8051 0.0000
# 3 13.8066 11.3068 54.8202 0.0000 -0.1405 0.0000
# 4 0.0000 0.0000 0.0000 71.7478 0.0000 -36.9786
# 5 27.6115 7.8051 -0.1405 0.0000 35.7084 0.0000
# 6 0.0000 0.0000 0.0000 -36.9786 0.0000 48.8611
#
#
#
# Elastic Compliance Matrix: (Units=1/GPa)
#
#
# Indices 1 2 3 4 5 6 
#
# 1 0.007222 -0.001336 -0.001557 0.000000 -0.005299 0.000000
# 2 -0.001336 0.008822 -0.001485 0.000000 -0.000901 0.000000
# 3 -0.001557 -0.001485 0.018944 0.000000 0.001603 0.000000
# 4 0.000000 0.000000 0.000000 0.022851 0.000000 0.017294
# 5 -0.005299 -0.000901 0.001603 0.000000 0.032305 0.000000
# 6 0.000000 0.000000 0.000000 0.017294 0.000000 0.033554
#
#
# Mechanical properties :
#
#
# Convention : Reuss Voigt Hill
#
# Bulk Modulus (GPa) = 38.12275 50.44926 44.28601
# Shear Modulus (GPa) = 35.41125 50.41231 42.91178
#
# Velocity S-wave (km/s) = 3.82207 4.56033 4.20742
# Velocity P-wave (km/s) = 5.93333 6.96711 6.47090
#
# Compressibility (1/GPa) = 0.02623105
#
# Stress axis : x y z
#
# Youngs Moduli (GPa) = 138.46491 113.35715 52.78715
#
# Poissons Ratio (x) = 0.15146 0.08218
# Poissons Ratio (y) = 0.18501 0.07840
# Poissons Ratio (z) = 0.21557 0.16837
#
# Static dielectric constant tensor:
#      x y z
#    x 2.069390 0.000000 0.053810 
#    y 0.000000 1.940590 0.000000 
#    z 0.053810 0.000000 1.963820 
# 
# From -- ./inp_files/28195.got.cif
#   From: 2010.05.17/outbox.cif.g08.bks.cpg/sg12_15_cif.got.tgz:28195.got - 2010.06.03 13:09:07.
