data_PCOD9212505
_publ_section_title
;
Structure prediction by ZEFSAII (Michael W. Deem and Ramdas Pophale) SiO2 
 PCOD9212505
Probable space group: C 2/M
;
_chemical_formula_sum "Si O2"
_cell_formula_units_Z 58
_cell_length_a 20.205571
_cell_length_b 26.522562
_cell_length_c 14.556884
_cell_angle_alpha 90.000000
_cell_angle_beta 158.942084
_cell_angle_gamma 90.000000
_cell_volume 2803.019264
_symmetry_space_group_name_H-M "C 2/M"
_symmetry_group_IT_number 12
_symmetry_cell_setting 'monoclinic'
loop_
_space_group_symop_operation_xyz
x,y,z
-x,y,-z
-x,-y,-z
x,-y,z
1/2+x,1/2+y,z
1/2-x,1/2+y,-z
1/2-x,1/2-y,-z
1/2+x,1/2-y,z
loop_
_atom_site_type_symbol
_atom_site_label
_atom_site_fract_x
_atom_site_fract_y
_atom_site_fract_z
Si Si1 0.660334 0.789495 0.640146
Si Si2 0.812087 0.439487 0.203112
Si Si3 0.866216 0.306496 0.900013
Si Si4 0.773466 0.912694 0.312227
Si Si5 0.673960 0.196549 0.442176
Si Si6 0.500000 0.000000 0.000000
Si Si7 0.196215 0.060558 0.857500
Si Si8 0.477691 0.631376 0.077320
O O1 0.500000 0.806385 0.500000
O O2 0.702823 0.730894 0.711739
O O3 0.627089 0.797171 0.489021
O O4 0.842649 0.820520 0.901041
O O5 0.788309 0.500000 0.180029
O O6 0.000000 0.426205 0.500000
O O7 0.822181 0.426719 0.107821
O O8 0.633805 0.411259 0.012600
O O9 0.793362 0.356412 0.756387
O O10 0.000000 0.279167 0.000000
O O11 0.991729 0.317153 0.150048
O O12 0.739790 0.921633 0.159287
O O13 0.991008 0.918756 0.608683
O O14 0.658757 0.955505 0.214359
O O15 0.750000 0.250000 0.500000
O O16 0.828890 0.152836 0.635125
O O17 0.182488 0.000000 0.833319
O O18 0.500000 0.615068 0.000000
#
# Coordination Sequence:
#
# PCOD9212505 Si02
#       8
#     8   8   8   8   8   2   8   8
#     4  11  24  41  64  93 125 168 219 266 318 390
#     4  10  23  42  68  97 129 169 217 271 320 383
#     4  12  24  39  61  95 129 165 212 267 316 386
#     4  11  23  38  62  94 127 165 212 259 319 383
#     4  11  22  44  65  87 128 171 208 261 329 374
#     4  12  20  38  64  92 126 170 210 264 316 388
#     4  10  21  42  64  87 131 169 203 256 324 381
#     4  10  22  42  68  89 127 174 211 267 322 386
#
# _framework density 20.691973000000001
#
# number of rings (size 3 to 8) (size 9 to 14) (size 15 to 20)
#    0.000    1.241    4.828    1.241    3.862    4.138 
#    0.000    0.000    0.000    0.000    0.000    0.000 
#    0.000    0.000    0.000    0.000    0.000    0.000 
#
# Total GULP energy -161787.338649 kJ/mol
# GULP energy per Si atom -5578.873747 kJ/mol
# Density = 2.064488 g / cm^3
# Si number density = 20.691973 Si / 1000 Ang^3
#
#
#
# Elastic Constant Matrix: (Units=GPa)
#
#
# Indices 1 2 3 4 5 6 
#
# 1 76.0006 8.1382 37.0661 0.0000 -6.1902 0.0000
# 2 8.1382 71.7800 11.5120 0.0000 -1.8025 0.0000
# 3 37.0661 11.5120 79.2863 -0.0003 -24.3272 0.0000
# 4 0.0000 0.0000 -0.0003 -6.3231 -0.0001 13.8049
# 5 -6.1902 -1.8025 -24.3272 -0.0001 31.6034 0.0000
# 6 0.0000 0.0000 0.0000 13.8049 0.0000 25.0267
#
#
#
# Elastic Compliance Matrix: (Units=1/GPa)
#
#
# Indices 1 2 3 4 5 6 
#
# 1 0.017398 -0.000593 -0.009180 0.000000 -0.003693 0.000000
# 2 -0.000593 0.014309 -0.002076 0.000000 -0.000898 0.000000
# 3 -0.009180 -0.002076 0.021756 -0.000001 0.014831 0.000000
# 4 0.000000 0.000000 -0.000001 -0.071747 -0.000001 0.039576
# 5 -0.003693 -0.000898 0.014831 -0.000001 0.042284 0.000000
# 6 0.000000 0.000000 0.000000 0.039576 0.000000 0.018127
#
#
# Mechanical properties :
#
#
# Convention : Reuss Voigt Hill
#
# Bulk Modulus (GPa) = 33.59702 37.83328 35.71515
# Shear Modulus (GPa) = 66.00878 21.41811 43.71344
#
# Velocity S-wave (km/s) = 5.65419 3.22078 4.60127
# Velocity P-wave (km/s) = 7.67454 5.67053 6.74735
#
# Compressibility (1/GPa) = 0.02976454
#
# Stress axis : x y z
#
# Youngs Moduli (GPa) = 57.47822 69.88579 45.96385
#
# Poissons Ratio (x) = 0.04144 0.42197
# Poissons Ratio (y) = 0.03408 0.09542
# Poissons Ratio (z) = 0.52768 0.14508
#
# Static dielectric constant tensor:
#      x y z
#    x 1.661630 0.000000 -0.034170 
#    y 0.000000 1.723580 0.000000 
#    z -0.034170 0.000000 1.729400 
# 
# From -- ./inp_files/235830.got.cif
#   From: 2010.05.17/outbox.cif.g08.bks.cpg/sg12_118_cif.got.tgz:235830.got - 2010.06.03 13:09:07.
