data_PCOD9212108
_publ_section_title
;
Structure prediction by ZEFSAII (Michael W. Deem and Ramdas Pophale) SiO2 
 PCOD9212108
Probable space group: C 2/M
;
_chemical_formula_sum "Si O2"
_cell_formula_units_Z 34
_cell_length_a 11.533411
_cell_length_b 22.482779
_cell_length_c 5.543170
_cell_angle_alpha 90.000000
_cell_angle_beta 102.528102
_cell_angle_gamma 90.000000
_cell_volume 1403.137376
_symmetry_space_group_name_H-M "C 2/M"
_symmetry_group_IT_number 12
_symmetry_cell_setting 'monoclinic'
loop_
_space_group_symop_operation_xyz
x,y,z
-x,y,-z
-x,-y,-z
x,-y,z
1/2+x,1/2+y,z
1/2-x,1/2+y,-z
1/2-x,1/2-y,-z
1/2+x,1/2-y,z
loop_
_atom_site_type_symbol
_atom_site_label
_atom_site_fract_x
_atom_site_fract_y
_atom_site_fract_z
Si Si1 0.694023 0.821203 0.676437
Si Si2 0.403157 0.712934 0.141677
Si Si3 0.000000 0.000000 0.500000
Si Si4 0.379189 0.065608 0.097455
Si Si5 0.666522 0.394024 0.654130
O O1 0.619879 0.760393 0.656009
O O2 0.761476 0.846163 0.474420
O O3 0.790087 0.803718 0.924156
O O4 0.619271 0.877987 0.727629
O O5 0.429609 0.647175 0.250854
O O6 0.500000 0.737518 0.000000
O O7 0.100419 0.052275 0.495405
O O8 0.263484 0.076450 0.877305
O O9 0.368998 0.000000 0.208626
O O10 0.500000 0.066353 0.000000
#
# Coordination Sequence:
#
# PCOD9212108 Si02
#       5
#     8   8   2   8   8
#     4  10  22  39  65  94 129 172 220 271 330 389
#     4  10  21  41  63  94 131 170 220 271 329 390
#     4  12  24  40  64  98 134 168 218 256 326 406
#     4  10  22  41  62  91 130 172 221 272 326 388
#     4  11  23  41  63  98 131 174 217 271 327 396
#
# _framework density 24.231411999999999
#
# number of rings (size 3 to 8) (size 9 to 14) (size 15 to 20)
#    0.000    1.647    1.176    2.824    1.647    0.941 
#    0.000   10.000    0.000    0.000    0.000    0.000 
#    0.000    0.000    0.000    0.000    0.000    0.000 
#
# Total GULP energy -94634.685061 kJ/mol
# GULP energy per Si atom -5566.746180 kJ/mol
# Density = 2.417626 g / cm^3
# Si number density = 24.231412 Si / 1000 Ang^3
#
#
#
# Elastic Constant Matrix: (Units=GPa)
#
#
# Indices 1 2 3 4 5 6 
#
# 1 68.3498 36.2046 -1.4201 0.0000 0.9873 0.0000
# 2 36.2046 217.9885 22.8555 0.0000 -24.6785 0.0000
# 3 -1.4201 22.8555 22.7809 0.0000 -5.2318 0.0000
# 4 0.0000 0.0000 0.0000 3.6026 0.0000 -16.8792
# 5 0.9873 -24.6785 -5.2318 0.0000 43.4059 0.0000
# 6 0.0000 0.0000 0.0000 -16.8792 0.0000 70.5034
#
#
#
# Elastic Compliance Matrix: (Units=1/GPa)
#
#
# Indices 1 2 3 4 5 6 
#
# 1 0.016524 -0.003368 0.003993 0.000000 -0.001809 0.000000
# 2 -0.003368 0.006060 -0.005637 0.000000 0.002842 0.000000
# 3 0.003993 -0.005637 0.050440 0.000000 0.002784 0.000000
# 4 0.000000 0.000000 0.000000 -2.280742 0.000000 -0.546033
# 5 -0.001809 0.002842 0.002784 0.000000 0.025031 0.000000
# 6 0.000000 0.000000 0.000000 -0.546033 0.000000 -0.116542
#
#
# Mechanical properties :
#
#
# Convention : Reuss Voigt Hill
#
# Bulk Modulus (GPa) = 15.87278 47.15549 31.51413
# Shear Modulus (GPa) = -2.20438 40.26765 19.03163
#
# Velocity S-wave (km/s) = -0.95483 4.08094 2.80556
# Velocity P-wave (km/s) = 2.31282 6.45818 4.85063
#
# Compressibility (1/GPa) = 0.06300095
#
# Stress axis : x y z
#
# Youngs Moduli (GPa) = 60.51929 165.02988 19.82562
#
# Poissons Ratio (x) = 0.55580 -0.07917
# Poissons Ratio (y) = 0.20382 0.11175
# Poissons Ratio (z) = -0.24168 0.93020
#
# Static dielectric constant tensor:
#      x y z
#    x 2.007760 0.000000 0.018980 
#    y 0.000000 1.859420 0.000000 
#    z 0.018980 0.000000 1.975650 
# 
# From -- ./inp_files/6907.got.cif
#   From: 2010.05.17/outbox.cif.g08.bks.cpg/sg12_4_cif.got.tgz:6907.got - 2010.06.03 13:09:07.
