data_PCOD9212578
_publ_section_title
;
Structure prediction by ZEFSAII (Michael W. Deem and Ramdas Pophale) SiO2 
 PCOD9212578
Probable space group: C 2/M
;
_chemical_formula_sum "Si O2"
_cell_formula_units_Z 48
_cell_length_a 11.833335
_cell_length_b 17.350154
_cell_length_c 24.650754
_cell_angle_alpha 90.000000
_cell_angle_beta 154.793807
_cell_angle_gamma 90.000000
_cell_volume 2155.385611
_symmetry_space_group_name_H-M "C 2/M"
_symmetry_group_IT_number 12
_symmetry_cell_setting 'monoclinic'
loop_
_space_group_symop_operation_xyz
x,y,z
-x,y,-z
-x,-y,-z
x,-y,z
1/2+x,1/2+y,z
1/2-x,1/2+y,-z
1/2-x,1/2-y,-z
1/2+x,1/2-y,z
loop_
_atom_site_type_symbol
_atom_site_label
_atom_site_fract_x
_atom_site_fract_y
_atom_site_fract_z
Si Si1 0.607585 0.588146 0.318464
Si Si2 0.157025 0.908216 0.459923
Si Si3 0.065714 0.640446 0.221011
Si Si4 0.356034 0.908962 0.246587
Si Si5 0.493593 0.318727 0.166636
Si Si6 0.478263 0.916584 0.068070
O O1 0.691781 0.500000 0.343222
O O2 0.724516 0.614701 0.427095
O O3 0.642755 0.641936 0.282271
O O4 0.289510 0.587861 0.190564
O O5 0.390395 0.896944 0.603934
O O6 0.884769 0.869209 0.360758
O O7 0.102158 0.000000 0.432825
O O8 0.938446 0.613976 0.221861
O O9 0.003569 0.728184 0.178463
O O10 0.962042 0.590147 0.125780
O O11 0.132320 0.852850 0.173251
O O12 0.283160 0.000000 0.217847
O O13 0.195026 0.350392 0.033832
O O14 0.373760 0.000000 0.004314
#
# Coordination Sequence:
#
# PCOD9212578 Si02
#       6
#     8   8   8   8   8   8
#     4   9  19  39  66  90 118 163 212 254 302 373
#     4   9  20  42  69  89 117 165 218 253 296 376
#     4  11  24  40  62  93 127 164 207 259 314 370
#     4  11  24  43  66  93 126 168 212 258 309 372
#     4  12  25  38  60  95 134 160 201 264 322 363
#     4  10  21  42  68  88 118 168 215 251 300 380
#
# _framework density 22.269798000000002
#
# number of rings (size 3 to 8) (size 9 to 14) (size 15 to 20)
#    0.000    1.667    0.000    5.500    4.667    4.667 
#    6.000    4.167    0.000    0.000    0.000    0.000 
#    0.000    0.000    0.000    0.000    0.000    0.000 
#
# Total GULP energy -134332.967366 kJ/mol
# GULP energy per Si atom -5597.206974 kJ/mol
# Density = 2.221911 g / cm^3
# Si number density = 22.269798 Si / 1000 Ang^3
#
#
#
# Elastic Constant Matrix: (Units=GPa)
#
#
# Indices 1 2 3 4 5 6 
#
# 1 105.4767 18.1503 6.4108 0.0082 -32.9627 -0.0036
# 2 18.1503 90.5066 24.5241 0.0107 0.3251 -0.0032
# 3 6.4108 24.5241 73.8142 -0.0099 -0.7501 0.0004
# 4 0.0082 0.0107 -0.0099 -38.0180 0.0021 -4.8250
# 5 -32.9627 0.3251 -0.7501 0.0021 31.9895 0.0008
# 6 -0.0036 -0.0032 0.0004 -4.8250 0.0008 28.2304
#
#
#
# Elastic Compliance Matrix: (Units=1/GPa)
#
#
# Indices 1 2 3 4 5 6 
#
# 1 0.014765 -0.002978 -0.000138 0.000003 0.015241 0.000002
# 2 -0.002978 0.012744 -0.004009 0.000004 -0.003292 0.000002
# 3 -0.000138 -0.004009 0.014894 -0.000005 0.000248 -0.000002
# 4 0.000003 0.000004 -0.000005 -0.025745 0.000005 -0.004400
# 5 0.015241 -0.003292 0.000248 0.000005 0.047004 0.000001
# 6 0.000002 0.000002 -0.000002 -0.004400 0.000001 0.034671
#
#
# Mechanical properties :
#
#
# Convention : Reuss Voigt Hill
#
# Bulk Modulus (GPa) = 35.52080 40.88532 38.20306
# Shear Modulus (GPa) = 40.99461 19.15454 30.07457
#
# Velocity S-wave (km/s) = 4.29513 2.93595 3.67885
# Velocity P-wave (km/s) = 6.37043 5.46736 5.93609
#
# Compressibility (1/GPa) = 0.02815252
#
# Stress axis : x y z
#
# Youngs Moduli (GPa) = 67.72959 78.46638 67.14129
#
# Poissons Ratio (x) = 0.23370 0.00926
# Poissons Ratio (y) = 0.20172 0.26917
# Poissons Ratio (z) = 0.00934 0.31457
#
# Static dielectric constant tensor:
#      x y z
#    x 1.831960 0.000000 0.001050 
#    y 0.000000 1.769300 0.000000 
#    z 0.001050 0.000000 1.824650 
# 
# From -- ./inp_files/336488.got.cif
#   From: 2010.05.17/outbox.cif.g08.bks.cpg/sg12_169_cif.got.tgz:336488.got - 2010.06.03 13:09:07.
