data_PCOD9212718
_publ_section_title
;
Structure prediction by ZEFSAII (Michael W. Deem and Ramdas Pophale) SiO2 
 PCOD9212718
Probable space group: C 2/M
;
_chemical_formula_sum "Si O2"
_cell_formula_units_Z 58
_cell_length_a 17.070003
_cell_length_b 22.529077
_cell_length_c 8.123457
_cell_angle_alpha 90.000000
_cell_angle_beta 58.609651
_cell_angle_gamma 90.000000
_cell_volume 2666.808923
_symmetry_space_group_name_H-M "C 2/M"
_symmetry_group_IT_number 12
_symmetry_cell_setting 'monoclinic'
loop_
_space_group_symop_operation_xyz
x,y,z
-x,y,-z
-x,-y,-z
x,-y,z
1/2+x,1/2+y,z
1/2-x,1/2+y,-z
1/2-x,1/2-y,-z
1/2+x,1/2-y,z
loop_
_atom_site_type_symbol
_atom_site_label
_atom_site_fract_x
_atom_site_fract_y
_atom_site_fract_z
Si Si1 0.763204 0.604590 0.405677
Si Si2 0.597974 0.679461 0.105161
Si Si3 0.000000 0.500000 0.500000
Si Si4 0.916835 0.296522 0.694609
Si Si5 0.618339 0.693044 0.699781
Si Si6 0.673244 0.087607 0.313976
Si Si7 0.194354 0.064785 0.134845
Si Si8 0.061559 0.320924 0.780430
O O1 0.690143 0.657558 0.511801
O O2 0.770297 0.575872 0.579733
O O3 0.732758 0.569315 0.278093
O O4 0.866382 0.628386 0.260691
O O5 0.626496 0.741929 0.159071
O O6 0.487420 0.676460 0.220714
O O7 0.633694 0.622458 0.163038
O O8 0.632684 0.680147 0.878392
O O9 0.080222 0.551184 0.426369
O O10 0.850801 0.341779 0.673862
O O11 0.000000 0.267824 0.500000
O O12 0.980587 0.337190 0.743628
O O13 0.620562 0.763467 0.666285
O O14 0.726455 0.069903 0.090330
O O15 0.149156 0.000000 0.163729
O O16 0.000000 0.299845 0.000000
#
# Coordination Sequence:
#
# PCOD9212718 Si02
#       8
#     8   8   2   8   8   8   8   8
#     4  12  26  42  70 103 140 184 241 292 352 419
#     4  10  23  44  71  99 145 184 234 296 360 423
#     4  12  24  48  82  96 142 206 234 272 358 420
#     4  11  21  38  69 105 140 185 232 283 356 422
#     4  10  21  43  69 102 140 186 228 293 362 428
#     4  12  25  47  72 104 144 190 237 290 347 428
#     4  12  29  48  69 101 142 188 244 301 351 418
#     4  11  20  39  64 102 148 178 228 284 352 434
#
# _framework density 21.748839
#
# number of rings (size 3 to 8) (size 9 to 14) (size 15 to 20)
#    0.000    0.828    6.897    1.241    4.828    1.655 
#    0.000    3.448    0.000    0.000    0.000    0.000 
#    0.000    0.000    0.000    0.000    0.000    0.000 
#
# Total GULP energy -161678.803409 kJ/mol
# GULP energy per Si atom -5575.131152 kJ/mol
# Density = 2.169934 g / cm^3
# Si number density = 21.748839 Si / 1000 Ang^3
#
#
#
# Elastic Constant Matrix: (Units=GPa)
#
#
# Indices 1 2 3 4 5 6 
#
# 1 83.2784 38.6459 27.2441 0.0000 19.6581 0.0000
# 2 38.6459 125.3309 30.6083 0.0000 13.7097 0.0000
# 3 27.2441 30.6083 81.3967 0.0000 19.0485 0.0000
# 4 0.0000 0.0000 0.0000 -8.9713 0.0000 -1.9680
# 5 19.6581 13.7097 19.0485 0.0000 36.3915 0.0000
# 6 0.0000 0.0000 0.0000 -1.9680 0.0000 21.4777
#
#
#
# Elastic Compliance Matrix: (Units=1/GPa)
#
#
# Indices 1 2 3 4 5 6 
#
# 1 0.015930 -0.003637 -0.002588 0.000000 -0.005881 0.000000
# 2 -0.003637 0.009721 -0.002326 0.000000 -0.000480 0.000000
# 3 -0.002588 -0.002326 0.015378 0.000000 -0.005775 0.000000
# 4 0.000000 0.000000 0.000000 -0.109270 0.000000 -0.010012
# 5 -0.005881 -0.000480 -0.005775 0.000000 0.033859 0.000000
# 6 0.000000 0.000000 0.000000 -0.010012 0.000000 0.045642
#
#
# Mechanical properties :
#
#
# Convention : Reuss Voigt Hill
#
# Bulk Modulus (GPa) = 41.79308 53.66695 47.73001
# Shear Modulus (GPa) = 137.59455 22.68010 80.13732
#
# Velocity S-wave (km/s) = 7.96257 3.23277 6.07673
# Velocity P-wave (km/s) = 10.18797 6.21802 8.43974
#
# Compressibility (1/GPa) = 0.02392741
#
# Stress axis : x y z
#
# Youngs Moduli (GPa) = 62.77280 102.87206 65.02847
#
# Poissons Ratio (x) = 0.37413 0.16831
# Poissons Ratio (y) = 0.22829 0.15124
# Poissons Ratio (z) = 0.16247 0.23926
#
# Static dielectric constant tensor:
#      x y z
#    x 1.808480 0.000000 0.074430 
#    y 0.000000 1.789200 0.000000 
#    z 0.074430 0.000000 1.875740 
# 
# From -- ./inp_files/78020.got.cif
#   From: 2010.05.17/outbox.cif.g08.bks.cpg/sg12_40_cif.got.tgz:78020.got - 2010.06.03 13:09:07.
