data_PCOD9212871
_publ_section_title
;
Structure prediction by ZEFSAII (Michael W. Deem and Ramdas Pophale) SiO2 
 PCOD9212871
Probable space group: C 2/M
;
_chemical_formula_sum "Si O2"
_cell_formula_units_Z 56
_cell_length_a 16.238694
_cell_length_b 28.336005
_cell_length_c 14.780429
_cell_angle_alpha 90.000000
_cell_angle_beta 28.348880
_cell_angle_gamma 90.000000
_cell_volume 3229.410928
_symmetry_space_group_name_H-M "C 2/M"
_symmetry_group_IT_number 12
_symmetry_cell_setting 'monoclinic'
loop_
_space_group_symop_operation_xyz
x,y,z
-x,y,-z
-x,-y,-z
x,-y,z
1/2+x,1/2+y,z
1/2-x,1/2+y,-z
1/2-x,1/2-y,-z
1/2+x,1/2-y,z
loop_
_atom_site_type_symbol
_atom_site_label
_atom_site_fract_x
_atom_site_fract_y
_atom_site_fract_z
Si Si1 0.292780 0.219629 0.193159
Si Si2 0.313226 0.625229 0.367697
Si Si3 0.306602 0.387341 0.035674
Si Si4 0.489499 0.055044 0.400276
Si Si5 0.802553 0.301433 0.988807
Si Si6 0.718312 0.796640 0.592131
Si Si7 0.791732 0.674298 0.705046
O O1 0.220916 0.209094 0.362697
O O2 0.253903 0.274485 0.214700
O O3 0.500000 0.213178 0.000000
O O4 0.234016 0.194037 0.158247
O O5 0.159100 0.588781 0.496459
O O6 0.298525 0.655917 0.472374
O O7 0.289125 0.665602 0.314447
O O8 0.497000 0.600074 0.177323
O O9 0.255819 0.344913 0.016699
O O10 0.291788 0.363769 0.148540
O O11 0.166523 0.428862 0.179366
O O12 0.500000 0.061701 0.500000
O O13 0.454165 0.000000 0.419278
O O14 0.010731 0.302522 0.790851
O O15 0.750000 0.250000 0.000000
O O16 0.750000 0.750000 0.500000
O O17 0.000000 0.669589 0.500000
#
# Coordination Sequence:
#
# PCOD9212871 Si02
#       7
#     8   8   8   8   8   8   8
#     4  10  22  34  50  78 115 157 202 236 271 329
#     4  12  22  37  58  82 114 155 192 233 289 342
#     4  12  22  37  58  82 114 155 192 233 289 342
#     4  11  24  42  62  87 115 149 197 244 287 343
#     4  11  21  34  52  81 115 155 198 234 277 340
#     4  11  21  34  52  81 115 155 198 234 277 340
#     4  12  20  32  52  78 116 158 193 231 277 335
#
# _framework density 17.340623999999998
#
# number of rings (size 3 to 8) (size 9 to 14) (size 15 to 20)
#    0.000    0.714    7.143    2.143    0.000    1.714 
#    0.000    1.429    0.000    0.000    0.000    2.000 
#    0.000    2.286    0.000    0.000    0.000    0.000 
#
# Total GULP energy -156304.922655 kJ/mol
# GULP energy per Si atom -5582.318666 kJ/mol
# Density = 1.730116 g / cm^3
# Si number density = 17.340624 Si / 1000 Ang^3
#
#
#
# Elastic Constant Matrix: (Units=GPa)
#
#
# Indices 1 2 3 4 5 6 
#
# 1 45.9338 12.1158 34.2939 -0.0038 11.5231 0.0027
# 2 12.1158 65.3029 14.2025 -0.0003 11.5513 -0.0003
# 3 34.2939 14.2025 76.4611 -0.0146 5.8104 0.0071
# 4 -0.0038 -0.0003 -0.0146 13.7501 0.0082 5.3022
# 5 11.5231 11.5513 5.8104 0.0082 32.1294 -0.0047
# 6 0.0027 -0.0003 0.0071 5.3022 -0.0047 16.8291
#
#
#
# Elastic Compliance Matrix: (Units=1/GPa)
#
#
# Indices 1 2 3 4 5 6 
#
# 1 0.035828 -0.001694 -0.015031 0.000001 -0.009522 -0.000002
# 2 -0.001694 0.016971 -0.002003 0.000001 -0.005132 0.000000
# 3 -0.015031 -0.002003 0.020003 0.000020 0.002493 -0.000012
# 4 0.000001 0.000001 0.000020 0.082784 -0.000029 -0.026082
# 5 -0.009522 -0.005132 0.002493 -0.000029 0.035933 0.000020
# 6 -0.000002 0.000000 -0.000012 -0.026082 0.000020 0.067638
#
#
# Mechanical properties :
#
#
# Convention : Reuss Voigt Hill
#
# Bulk Modulus (GPa) = 28.29136 34.32470 31.30803
# Shear Modulus (GPa) = 16.21298 21.01410 18.61354
#
# Velocity S-wave (km/s) = 3.06105 3.48493 3.27984
# Velocity P-wave (km/s) = 5.37065 6.00253 5.69536
#
# Compressibility (1/GPa) = 0.03534648
#
# Stress axis : x y z
#
# Youngs Moduli (GPa) = 27.91093 58.92475 49.99302
#
# Poissons Ratio (x) = 0.09981 0.75146
# Poissons Ratio (y) = 0.04728 0.10012
# Poissons Ratio (z) = 0.41954 0.11800
#
# Static dielectric constant tensor:
#      x y z
#    x 1.612990 0.000000 0.000970 
#    y 0.000000 1.575960 0.000000 
#    z 0.000970 0.000000 1.640570 
# 
# From -- ./inp_files/228426.got.cif
#   From: 2010.05.17/outbox.cif.g08.bks.cpg/sg12_115_cif.got.tgz:228426.got - 2010.06.03 13:09:07.
