data_PCOD9212343
_publ_section_title
;
Structure prediction by ZEFSAII (Michael W. Deem and Ramdas Pophale) SiO2 
 PCOD9212343
Probable space group: C 2/M
;
_chemical_formula_sum "Si O2"
_cell_formula_units_Z 56
_cell_length_a 9.950296
_cell_length_b 20.640999
_cell_length_c 10.793921
_cell_angle_alpha 90.000000
_cell_angle_beta 94.233283
_cell_angle_gamma 90.000000
_cell_volume 2210.850986
_symmetry_space_group_name_H-M "C 2/M"
_symmetry_group_IT_number 12
_symmetry_cell_setting 'monoclinic'
loop_
_space_group_symop_operation_xyz
x,y,z
-x,y,-z
-x,-y,-z
x,-y,z
1/2+x,1/2+y,z
1/2-x,1/2+y,-z
1/2-x,1/2-y,-z
1/2+x,1/2-y,z
loop_
_atom_site_type_symbol
_atom_site_label
_atom_site_fract_x
_atom_site_fract_y
_atom_site_fract_z
Si Si1 0.136355 0.621539 0.579713
Si Si2 0.754686 0.749389 0.648401
Si Si3 0.863174 0.000000 0.909786
Si Si4 0.888685 0.260403 0.885230
Si Si5 0.996017 0.570338 0.792117
Si Si6 0.000613 0.000000 0.345763
Si Si7 0.289170 0.391945 0.341452
Si Si8 0.783106 0.637414 0.049347
O O1 0.191486 0.680732 0.663344
O O2 0.085503 0.569244 0.673226
O O3 0.245090 0.600679 0.484276
O O4 0.000000 0.642949 0.500000
O O5 0.750000 0.750000 0.500000
O O6 0.893821 0.738497 0.735056
O O7 0.676843 0.683406 0.675295
O O8 0.787625 0.067105 0.944313
O O9 0.889316 0.000000 0.760461
O O10 0.000000 0.000000 0.000000
O O11 0.803643 0.194282 0.894651
O O12 0.808236 0.324936 0.922061
O O13 0.000000 0.253235 0.000000
O O14 0.998496 0.500000 0.852889
O O15 0.070712 0.623048 0.880888
O O16 0.845469 0.584752 0.737395
O O17 0.912485 0.936258 0.313526
O O18 0.000000 0.000000 0.500000
#
# Coordination Sequence:
#
# PCOD9212343 Si02
#       8
#     8   8   4   8   8   4   8   8
#     4   9  20  36  67 108 151 197 246 317 401 463
#     4  10  21  41  68 103 152 192 251 319 384 467
#     4  12  30  53  73 104 158 208 262 317 404 473
#     4  11  24  46  77 114 156 200 266 325 397 482
#     4  11  20  39  73 108 149 196 257 323 387 467
#     4  12  30  47  73 112 154 210 266 329 406 474
#     4  10  23  41  66 108 152 198 259 324 392 465
#     4  11  25  46  77 110 148 206 257 321 394 481
#
# _framework density 25.329609999999999
#
# number of rings (size 3 to 8) (size 9 to 14) (size 15 to 20)
#    0.000    1.429    2.857    1.286    5.000    1.429 
#    0.000    0.357    0.000    0.000    0.000    0.000 
#    0.000    0.000    0.000    0.000    0.000    0.000 
#
# Total GULP energy -156119.528206 kJ/mol
# GULP energy per Si atom -5575.697436 kJ/mol
# Density = 2.527196 g / cm^3
# Si number density = 25.329610 Si / 1000 Ang^3
#
#
#
# Elastic Constant Matrix: (Units=GPa)
#
#
# Indices 1 2 3 4 5 6 
#
# 1 72.2391 48.8850 44.5202 0.0000 2.6874 0.0000
# 2 48.8850 178.7500 55.1751 0.0000 0.5395 0.0000
# 3 44.5202 55.1751 190.5719 0.0000 22.4868 0.0000
# 4 0.0000 0.0000 0.0000 -161.7400 0.0000 49.8110
# 5 2.6874 0.5395 22.4868 0.0000 23.4127 0.0000
# 6 0.0000 0.0000 0.0000 49.8110 0.0000 29.5332
#
#
#
# Elastic Compliance Matrix: (Units=1/GPa)
#
#
# Indices 1 2 3 4 5 6 
#
# 1 0.018586 -0.004069 -0.003297 0.000000 0.001127 0.000000
# 2 -0.004069 0.007100 -0.001287 0.000000 0.001539 0.000000
# 3 -0.003297 -0.001287 0.007153 0.000000 -0.006462 0.000000
# 4 0.000000 0.000000 0.000000 -0.004069 0.000000 0.006863
# 5 0.001127 0.001539 -0.006462 0.000000 0.048753 0.000000
# 6 0.000000 0.000000 0.000000 0.006863 0.000000 0.022285
#
#
# Mechanical properties :
#
#
# Convention : Reuss Voigt Hill
#
# Bulk Modulus (GPa) = 64.37597 82.08017 73.22807
# Shear Modulus (GPa) = 40.88648 -2.22677 19.32985
#
# Velocity S-wave (km/s) = 4.02204 -0.93863 2.76548
# Velocity P-wave (km/s) = 6.85854 5.59468 6.25860
#
# Compressibility (1/GPa) = 0.01553375
#
# Stress axis : x y z
#
# Youngs Moduli (GPa) = 53.80326 140.85244 139.81049
#
# Poissons Ratio (x) = 0.57309 0.46095
# Poissons Ratio (y) = 0.21891 0.17988
# Poissons Ratio (z) = 0.17739 0.18122
#
# Static dielectric constant tensor:
#      x y z
#    x 2.059410 0.000000 -0.067260 
#    y 0.000000 1.994790 0.000000 
#    z -0.067260 0.000000 2.270490 
# 
# From -- ./inp_files/134023.got.cif
#   From: 2010.05.17/outbox.cif.g08.bks.cpg/sg12_68_cif.got.tgz:134023.got - 2010.06.03 13:09:07.
