data_PCOD9212353
_publ_section_title
;
Structure prediction by ZEFSAII (Michael W. Deem and Ramdas Pophale) SiO2 
 PCOD9212353
Probable space group: C 2/M
;
_chemical_formula_sum "Si O2"
_cell_formula_units_Z 56
_cell_length_a 9.333168
_cell_length_b 16.822496
_cell_length_c 31.437506
_cell_angle_alpha 90.000000
_cell_angle_beta 31.516165
_cell_angle_gamma 90.000000
_cell_volume 2580.195356
_symmetry_space_group_name_H-M "C 2/M"
_symmetry_group_IT_number 12
_symmetry_cell_setting 'monoclinic'
loop_
_space_group_symop_operation_xyz
x,y,z
-x,y,-z
-x,-y,-z
x,-y,z
1/2+x,1/2+y,z
1/2-x,1/2+y,-z
1/2-x,1/2-y,-z
1/2+x,1/2-y,z
loop_
_atom_site_type_symbol
_atom_site_label
_atom_site_fract_x
_atom_site_fract_y
_atom_site_fract_z
Si Si1 0.607577 0.185392 0.927724
Si Si2 0.957826 0.093585 0.459741
Si Si3 0.352356 0.592448 0.232885
Si Si4 0.802252 0.160801 0.743397
Si Si5 0.208882 0.650221 0.076734
Si Si6 0.064681 0.323454 0.711076
Si Si7 0.360030 0.906043 0.622334
O O1 0.709809 0.273488 0.914698
O O2 0.387520 0.178846 0.945598
O O3 0.869685 0.138396 0.844999
O O4 0.500000 0.151579 0.000000
O O5 0.646398 0.123076 0.530920
O O6 0.000000 0.093610 0.500000
O O7 0.174518 0.151994 0.383335
O O8 0.995052 0.000000 0.436639
O O9 0.407359 0.500000 0.224893
O O10 0.197939 0.622451 0.314654
O O11 0.155725 0.608104 0.242912
O O12 0.568353 0.118289 0.831161
O O13 0.666419 0.179086 0.733036
O O14 0.907998 0.242665 0.738018
O O15 0.081944 0.111462 0.667735
O O16 0.500000 0.604564 0.000000
O O17 0.402473 0.000000 0.614824
#
# Coordination Sequence:
#
# PCOD9212353 Si02
#       7
#     8   8   8   8   8   8   8
#     4  11  22  37  64  93 124 162 208 260 315 379
#     4  10  21  41  68  93 125 168 214 256 308 378
#     4  11  22  40  65  91 125 169 211 257 314 378
#     4  12  25  42  66  95 127 167 208 266 316 371
#     4  11  22  38  63  94 125 164 208 256 315 369
#     4  12  25  40  64  95 128 162 216 261 314 370
#     4  10  22  43  67  91 126 171 210 253 315 380
#
# _framework density 21.703783000000001
#
# number of rings (size 3 to 8) (size 9 to 14) (size 15 to 20)
#    0.000    1.000    4.286    3.857    2.000    2.571 
#    0.000    1.429    0.000    0.857    0.000    0.000 
#    0.000    0.000    0.000    0.000    0.000    0.000 
#
# Total GULP energy -156391.883354 kJ/mol
# GULP energy per Si atom -5585.424405 kJ/mol
# Density = 2.165438 g / cm^3
# Si number density = 21.703783 Si / 1000 Ang^3
#
#
#
# Elastic Constant Matrix: (Units=GPa)
#
#
# Indices 1 2 3 4 5 6 
#
# 1 153.1923 -5.6927 32.2759 0.0015 -13.8910 -0.0064
# 2 -5.6927 13.9898 17.9344 0.0183 -2.3923 -0.0040
# 3 32.2759 17.9344 141.3130 -0.0600 -32.5961 -0.0054
# 4 0.0015 0.0183 -0.0600 14.7061 -0.0060 -7.4071
# 5 -13.8910 -2.3923 -32.5961 -0.0060 39.0394 0.0110
# 6 -0.0064 -0.0040 -0.0054 -7.4071 0.0110 19.3350
#
#
#
# Elastic Compliance Matrix: (Units=1/GPa)
#
#
# Indices 1 2 3 4 5 6 
#
# 1 0.007308 0.005933 -0.002153 -0.000019 0.001166 -0.000005
# 2 0.005933 0.090897 -0.013772 -0.000201 -0.003818 -0.000058
# 3 -0.002153 -0.013772 0.011078 0.000078 0.007640 0.000025
# 4 -0.000019 -0.000201 0.000078 0.084258 0.000050 0.032278
# 5 0.001166 -0.003818 0.007640 0.000050 0.032175 0.000003
# 6 -0.000005 -0.000058 0.000025 0.032278 0.000003 0.064085
#
#
# Mechanical properties :
#
#
# Convention : Reuss Voigt Hill
#
# Bulk Modulus (GPa) = 11.19823 44.17002 27.68413
# Shear Modulus (GPa) = 14.72532 32.21460 23.46996
#
# Velocity S-wave (km/s) = 2.60757 3.85682 3.29200
# Velocity P-wave (km/s) = 3.77315 6.34263 5.21850
#
# Compressibility (1/GPa) = 0.08929980
#
# Stress axis : x y z
#
# Youngs Moduli (GPa) = 136.84412 11.00143 90.26600
#
# Poissons Ratio (x) = -0.06527 0.19435
# Poissons Ratio (y) = -0.81192 1.24313
# Poissons Ratio (z) = 0.29464 0.15151
#
# Static dielectric constant tensor:
#      x y z
#    x 1.796120 -0.000010 -0.017560 
#    y -0.000010 1.789700 0.000010 
#    z -0.017560 0.000010 1.856230 
# 
# From -- ./inp_files/258247.got.cif
#   From: 2010.05.17/outbox.cif.g08.bks.cpg/sg12_130_cif.got.tgz:258247.got - 2010.06.03 13:09:07.
