data_PCOD9212661
_publ_section_title
;
Structure prediction by ZEFSAII (Michael W. Deem and Ramdas Pophale) SiO2 
 PCOD9212661
Probable space group: C 2/M
;
_chemical_formula_sum "Si O2"
_cell_formula_units_Z 48
_cell_length_a 9.509768
_cell_length_b 18.558530
_cell_length_c 27.724968
_cell_angle_alpha 90.000000
_cell_angle_beta 149.925728
_cell_angle_gamma 90.000000
_cell_volume 2452.043621
_symmetry_space_group_name_H-M "C 2/M"
_symmetry_group_IT_number 12
_symmetry_cell_setting 'monoclinic'
loop_
_space_group_symop_operation_xyz
x,y,z
-x,y,-z
-x,-y,-z
x,-y,z
1/2+x,1/2+y,z
1/2-x,1/2+y,-z
1/2-x,1/2-y,-z
1/2+x,1/2-y,z
loop_
_atom_site_type_symbol
_atom_site_label
_atom_site_fract_x
_atom_site_fract_y
_atom_site_fract_z
Si Si1 0.155915 0.185462 0.262021
Si Si2 0.253503 0.586311 0.198387
Si Si3 0.821526 0.675764 0.203896
Si Si4 0.286697 0.675657 0.482517
Si Si5 0.159519 0.085742 0.664016
Si Si6 0.624532 0.581769 0.983996
O O1 0.187086 0.196498 0.214629
O O2 0.469758 0.164116 0.371395
O O3 0.965374 0.120542 0.223743
O O4 0.005456 0.256766 0.239137
O O5 0.266408 0.500000 0.202820
O O6 0.321540 0.609909 0.273905
O O7 0.943307 0.605680 0.087746
O O8 0.567704 0.641468 0.098180
O O9 0.052451 0.612272 0.274936
O O10 0.500000 0.679970 0.500000
O O11 0.250000 0.750000 0.500000
O O12 0.411894 0.620252 0.558839
O O13 0.138668 0.000000 0.657382
O O14 0.617127 0.500000 0.959494
O O15 0.500000 0.573601 0.000000
#
# Coordination Sequence:
#
# PCOD9212661 Si02
#       6
#     8   8   8   8   8   8
#     4  12  26  44  67  99 134 176 222 276 338 386
#     4  10  24  45  69 100 136 173 219 274 330 393
#     4  12  24  43  67  97 134 177 220 275 330 395
#     4  12  25  44  68  94 129 180 221 272 332 396
#     4  11  23  42  69  99 130 174 224 270 327 395
#     4  10  21  42  72  98 130 178 221 267 331 397
#
# _framework density 19.575507999999999
#
# number of rings (size 3 to 8) (size 9 to 14) (size 15 to 20)
#    0.000    0.833    5.000    1.500    2.333    3.667 
#    0.000    3.333    0.000    0.000    0.000    0.000 
#    0.000    0.000    0.000    0.000    0.000    0.000 
#
# Total GULP energy -133907.126975 kJ/mol
# GULP energy per Si atom -5579.463624 kJ/mol
# Density = 1.953095 g / cm^3
# Si number density = 19.575508 Si / 1000 Ang^3
#
#
#
# Elastic Constant Matrix: (Units=GPa)
#
#
# Indices 1 2 3 4 5 6 
#
# 1 126.4822 36.4471 72.5055 -0.0227 15.6747 0.0084
# 2 36.4471 49.1096 61.8300 -0.0133 -6.4937 0.0010
# 3 72.5055 61.8300 173.2631 -0.0310 13.4292 0.0075
# 4 -0.0227 -0.0133 -0.0310 22.8614 -0.0089 21.8735
# 5 15.6747 -6.4937 13.4292 -0.0089 30.5717 0.0039
# 6 0.0084 0.0010 0.0075 21.8735 0.0039 31.5301
#
#
#
# Elastic Compliance Matrix: (Units=1/GPa)
#
#
# Indices 1 2 3 4 5 6 
#
# 1 0.011965 -0.007588 -0.001759 0.000012 -0.006974 -0.000010
# 2 -0.007588 0.048803 -0.015886 0.000018 0.021235 -0.000011
# 3 -0.001759 -0.015886 0.012804 0.000013 -0.008097 -0.000010
# 4 0.000012 0.000018 0.000013 0.130091 0.000042 -0.090249
# 5 -0.006974 0.021235 -0.008097 0.000042 0.044353 -0.000031
# 6 -0.000010 -0.000011 -0.000010 -0.090249 -0.000031 0.094324
#
#
# Mechanical properties :
#
#
# Convention : Reuss Voigt Hill
#
# Bulk Modulus (GPa) = 43.27749 76.71334 59.99542
# Shear Modulus (GPa) = 12.48411 28.86413 20.67412
#
# Velocity S-wave (km/s) = 2.52809 3.84409 3.25333
# Velocity P-wave (km/s) = 5.53874 7.67960 6.69529
#
# Compressibility (1/GPa) = 0.02310670
#
# Stress axis : x y z
#
# Youngs Moduli (GPa) = 83.57503 20.49053 78.09927
#
# Poissons Ratio (x) = 0.15548 0.13736
# Poissons Ratio (y) = 0.63417 1.24070
# Poissons Ratio (z) = 0.14699 0.32552
#
# Static dielectric constant tensor:
#      x y z
#    x 1.661980 0.000000 -0.067510 
#    y 0.000000 1.721010 0.000000 
#    z -0.067510 0.000000 1.674760 
# 
# From -- ./inp_files/258297.got.cif
#   From: 2010.05.17/outbox.cif.g08.bks.cpg/sg12_130_cif.got.tgz:258297.got - 2010.06.03 13:09:07.
