data_PCOD9212639
_publ_section_title
;
Structure prediction by ZEFSAII (Michael W. Deem and Ramdas Pophale) SiO2 
 PCOD9212639
Probable space group: C 2/M
;
_chemical_formula_sum "Si O2"
_cell_formula_units_Z 42
_cell_length_a 19.382044
_cell_length_b 9.184370
_cell_length_c 11.749984
_cell_angle_alpha 90.000000
_cell_angle_beta 70.591355
_cell_angle_gamma 90.000000
_cell_volume 1972.774133
_symmetry_space_group_name_H-M "C 2/M"
_symmetry_group_IT_number 12
_symmetry_cell_setting 'monoclinic'
loop_
_space_group_symop_operation_xyz
x,y,z
-x,y,-z
-x,-y,-z
x,-y,z
1/2+x,1/2+y,z
1/2-x,1/2+y,-z
1/2-x,1/2-y,-z
1/2+x,1/2-y,z
loop_
_atom_site_type_symbol
_atom_site_label
_atom_site_fract_x
_atom_site_fract_y
_atom_site_fract_z
Si Si1 0.107506 0.665390 0.650893
Si Si2 0.775175 0.824454 0.288646
Si Si3 0.394769 0.771180 0.602771
Si Si4 0.182900 0.678175 0.967537
Si Si5 0.044895 0.335537 0.186220
Si Si6 0.000000 0.000000 0.500000
O O1 0.123935 0.500000 0.681000
O O2 0.175243 0.771643 0.633824
O O3 0.089609 0.655291 0.527220
O O4 0.035956 0.729210 0.754028
O O5 0.692891 0.765596 0.341890
O O6 0.811761 0.745956 0.160274
O O7 0.773106 0.000000 0.280110
O O8 0.420683 0.841108 0.706569
O O9 0.440051 0.624323 0.568864
O O10 0.187753 0.500000 0.966207
O O11 0.250000 0.750000 0.000000
O O12 0.106880 0.725037 0.069423
O O13 0.031454 0.500000 0.153609
#
# Coordination Sequence:
#
# PCOD9212639 Si02
#       6
#     8   8   8   8   8   2
#     4  11  24  43  68  99 136 183 227 279 343 408
#     4  12  27  45  68  99 140 182 229 283 341 405
#     4  12  24  43  67  99 137 174 222 278 343 400
#     4  11  23  42  69 101 135 178 231 284 342 404
#     4  10  21  42  70  95 131 177 228 280 334 403
#     4  12  28  40  70 108 134 178 224 284 330 418
#
# _framework density 21.289816999999999
#
# number of rings (size 3 to 8) (size 9 to 14) (size 15 to 20)
#    0.000    0.762    3.810    3.429    4.000    2.286 
#    1.714    3.810    0.000    0.000    0.000    0.000 
#    0.000    0.000    0.000    0.000    0.000    0.000 
#
# Total GULP energy -116967.153044 kJ/mol
# GULP energy per Si atom -5569.864431 kJ/mol
# Density = 2.124136 g / cm^3
# Si number density = 21.289817 Si / 1000 Ang^3
#
#
#
# Elastic Constant Matrix: (Units=GPa)
#
#
# Indices 1 2 3 4 5 6 
#
# 1 98.4028 34.9690 25.2503 0.0000 -40.5709 0.0000
# 2 34.9690 118.2840 36.0370 0.0000 -13.2243 0.0000
# 3 25.2503 36.0370 100.4872 0.0000 -32.0158 0.0000
# 4 0.0000 0.0000 0.0000 61.4006 0.0000 26.5850
# 5 -40.5709 -13.2243 -32.0158 0.0000 47.5574 0.0000
# 6 0.0000 0.0000 0.0000 26.5850 0.0000 91.2841
#
#
#
# Elastic Compliance Matrix: (Units=1/GPa)
#
#
# Indices 1 2 3 4 5 6 
#
# 1 0.017216 -0.003990 0.001821 0.000000 0.014804 0.000000
# 2 -0.003990 0.010423 -0.003687 0.000000 -0.002987 0.000000
# 3 0.001821 -0.003687 0.013984 0.000000 0.009942 0.000000
# 4 0.000000 0.000000 0.000000 0.018637 0.000000 -0.005428
# 5 0.014804 -0.002987 0.009942 0.000000 0.039519 0.000000
# 6 0.000000 0.000000 0.000000 -0.005428 0.000000 0.012536
#
#
# Mechanical properties :
#
#
# Convention : Reuss Voigt Hill
#
# Bulk Modulus (GPa) = 33.43129 56.63184 45.03157
# Shear Modulus (GPa) = 37.31460 54.77626 46.04543
#
# Velocity S-wave (km/s) = 4.19106 5.07786 4.65563
# Velocity P-wave (km/s) = 6.25756 7.81267 7.07795
#
# Compressibility (1/GPa) = 0.02991210
#
# Stress axis : x y z
#
# Youngs Moduli (GPa) = 58.08474 95.94105 71.51070
#
# Poissons Ratio (x) = 0.38276 -0.13024
# Poissons Ratio (y) = 0.23173 0.26368
# Poissons Ratio (z) = -0.10579 0.35376
#
# Static dielectric constant tensor:
#      x y z
#    x 1.794360 0.000000 0.016030 
#    y 0.000000 1.744860 0.000000 
#    z 0.016030 0.000000 1.822090 
# 
# From -- ./inp_files/163043.got.cif
#   From: 2010.05.17/outbox.cif.g08.bks.cpg/sg12_82_cif.got.tgz:163043.got - 2010.06.03 13:09:07.
