data_PCOD9212937
_publ_section_title
;
Structure prediction by ZEFSAII (Michael W. Deem and Ramdas Pophale) SiO2 
 PCOD9212937
Probable space group: C 2/M
;
_chemical_formula_sum "Si O2"
_cell_formula_units_Z 32
_cell_length_a 18.715487
_cell_length_b 18.213725
_cell_length_c 18.768962
_cell_angle_alpha 90.000000
_cell_angle_beta 14.906374
_cell_angle_gamma 90.000000
_cell_volume 1645.807993
_symmetry_space_group_name_H-M "C 2/M"
_symmetry_group_IT_number 12
_symmetry_cell_setting 'monoclinic'
loop_
_space_group_symop_operation_xyz
x,y,z
-x,y,-z
-x,-y,-z
x,-y,z
1/2+x,1/2+y,z
1/2-x,1/2+y,-z
1/2-x,1/2-y,-z
1/2+x,1/2-y,z
loop_
_atom_site_type_symbol
_atom_site_label
_atom_site_fract_x
_atom_site_fract_y
_atom_site_fract_z
Si Si1 0.755751 0.500000 0.523577
Si Si2 0.686331 0.500000 0.927086
Si Si3 0.500000 0.622732 0.000000
Si Si4 0.777007 0.418896 0.364584
Si Si5 0.782192 0.649254 0.146338
Si Si6 0.000000 0.278770 0.500000
O O1 0.551936 0.500000 0.785201
O O2 0.726424 0.431505 0.497318
O O3 0.047093 0.500000 0.281088
O O4 0.657982 0.429690 0.903317
O O5 0.736091 0.671429 0.734050
O O6 0.881347 0.500000 0.239906
O O7 0.484318 0.402050 0.609257
O O8 0.012114 0.359721 0.118990
O O9 0.634905 0.725794 0.309884
O O10 0.000000 0.631177 0.000000
#
# Coordination Sequence:
#
# PCOD9212937 Si02
#       6
#     4   4   4   8   8   4
#     4  10  22  41  61  91 128 158 185 263 306 348
#     4  11  22  44  70  96 110 142 199 267 321 359
#     4  11  24  40  72  96 111 140 204 262 317 370
#     4  10  22  35  57  90 123 168 208 240 287 345
#     4  12  20  37  56  89 126 170 205 241 286 346
#     4  12  22  41  57  94 128 162 184 260 306 348
#
# _framework density 19.443337
#
# number of rings (size 3 to 8) (size 9 to 14) (size 15 to 20)
#    0.750    0.250    3.750    3.750    0.000    5.000 
#    0.000    0.000    0.000   30.000    0.000    0.000 
#    0.000    0.000    0.000    0.000    0.000    0.000 
#
# Total GULP energy -89094.699200 kJ/mol
# GULP energy per Si atom -5568.418700 kJ/mol
# Density = 1.939908 g / cm^3
# Si number density = 19.443337 Si / 1000 Ang^3
#
#
#
# Elastic Constant Matrix: (Units=GPa)
#
#
# Indices 1 2 3 4 5 6 
#
# 1 89.1903 37.4517 39.2176 0.3889 -6.5066 -0.1186
# 2 37.4517 74.5477 38.6506 0.4902 -6.7412 -0.0815
# 3 39.2176 38.6506 155.3972 0.4888 -6.5577 -0.1230
# 4 0.3889 0.4902 0.4888 90.2462 -0.1410 3.2832
# 5 -6.5066 -6.7412 -6.5577 -0.1410 40.5099 0.0275
# 6 -0.1186 -0.0815 -0.1230 3.2832 0.0275 -4.6810
#
#
#
# Elastic Compliance Matrix: (Units=1/GPa)
#
#
# Indices 1 2 3 4 5 6 
#
# 1 0.014859 -0.006260 -0.002151 -0.000009 0.000997 -0.000211
# 2 -0.006260 0.018193 -0.002879 -0.000050 0.001556 -0.000108
# 3 -0.002151 -0.002879 0.007712 -0.000012 0.000424 -0.000104
# 4 -0.000009 -0.000050 -0.000012 0.010805 0.000021 0.007580
# 5 0.000997 0.001556 0.000424 0.000021 0.025173 0.000099
# 6 -0.000211 -0.000108 -0.000104 0.007580 0.000099 -0.208303
#
#
# Mechanical properties :
#
#
# Convention : Reuss Voigt Hill
#
# Bulk Modulus (GPa) = 54.99566 61.08611 58.04089
# Shear Modulus (GPa) = -48.58144 38.80272 -4.88936
#
# Velocity S-wave (km/s) = -5.00404 4.47215 -1.58749
# Velocity P-wave (km/s) = 2.24515 7.62578 5.15324
#
# Compressibility (1/GPa) = 0.01818325
#
# Stress axis : x y z
#
# Youngs Moduli (GPa) = 67.30040 54.96685 129.66781
#
# Poissons Ratio (x) = 0.34407 0.27893
# Poissons Ratio (y) = 0.42127 0.37338
# Poissons Ratio (z) = 0.14477 0.15828
#
# Static dielectric constant tensor:
#      x y z
#    x 1.655570 -0.000030 0.023020 
#    y -0.000030 1.728400 0.000180 
#    z 0.023020 0.000180 1.670040 
# 
# From -- ./inp_files/349987.got.cif
#   From: 2010.05.17/outbox.cif.g08.bks.cpg/sg12_175_cif.got.tgz:349987.got - 2010.06.03 13:09:07.
