data_PCOD9212348
_publ_section_title
;
Structure prediction by ZEFSAII (Michael W. Deem and Ramdas Pophale) SiO2 
 PCOD9212348
Probable space group: C 2/M
;
_chemical_formula_sum "Si O2"
_cell_formula_units_Z 34
_cell_length_a 27.377962
_cell_length_b 14.413504
_cell_length_c 7.990208
_cell_angle_alpha 90.000000
_cell_angle_beta 30.532180
_cell_angle_gamma 90.000000
_cell_volume 1601.811758
_symmetry_space_group_name_H-M "C 2/M"
_symmetry_group_IT_number 12
_symmetry_cell_setting 'monoclinic'
loop_
_space_group_symop_operation_xyz
x,y,z
-x,y,-z
-x,-y,-z
x,-y,z
1/2+x,1/2+y,z
1/2-x,1/2+y,-z
1/2-x,1/2-y,-z
1/2+x,1/2-y,z
loop_
_atom_site_type_symbol
_atom_site_label
_atom_site_fract_x
_atom_site_fract_y
_atom_site_fract_z
Si Si1 0.134574 0.691173 0.002466
Si Si2 0.079582 0.500000 0.005948
Si Si3 0.149656 0.701489 0.324981
Si Si4 0.638667 0.000000 0.471258
Si Si5 0.131432 0.818600 0.694739
Si Si6 0.000000 0.000000 0.000000
O O1 0.094033 0.592657 0.065937
O O2 0.111637 0.768968 0.931234
O O3 0.251447 0.676735 0.659166
O O4 0.099405 0.712026 0.294252
O O5 0.149679 0.500000 0.638272
O O6 0.973097 0.500000 0.247283
O O7 0.175032 0.595118 0.288172
O O8 0.103224 0.749249 0.624216
O O9 0.250000 0.750000 0.000000
O O10 0.078138 0.916350 0.824510
#
# Coordination Sequence:
#
# PCOD9212348 Si02
#       6
#     8   4   8   4   8   2
#     4  10  21  41  68  91 122 170 220 257 315 381
#     4  11  22  37  68  94 128 161 209 269 318 371
#     4  10  22  41  65  92 128 166 213 265 314 379
#     4  11  23  38  63 101 127 161 212 269 319 368
#     4  10  23  43  62  94 128 173 212 259 319 390
#     4  12  26  42  68  90 146 172 204 272 340 376
#
# _framework density 21.225964000000001
#
# number of rings (size 3 to 8) (size 9 to 14) (size 15 to 20)
#    0.000    1.647    2.353    1.412    3.294    4.706 
#    0.000    2.353    0.000    0.000    0.000    0.000 
#    0.000    0.000    0.000    0.000    0.000    0.000 
#
# Total GULP energy -94703.888895 kJ/mol
# GULP energy per Si atom -5570.816994 kJ/mol
# Density = 2.117765 g / cm^3
# Si number density = 21.225964 Si / 1000 Ang^3
#
#
#
# Elastic Constant Matrix: (Units=GPa)
#
#
# Indices 1 2 3 4 5 6 
#
# 1 145.0367 76.4289 43.0213 0.0000 26.6400 0.0000
# 2 76.4289 214.1020 51.6530 0.0000 17.7013 0.0000
# 3 43.0213 51.6530 70.0192 0.0000 11.5931 0.0000
# 4 0.0000 0.0000 0.0000 35.2352 0.0000 -1.9593
# 5 26.6400 17.7013 11.5931 0.0000 46.8772 0.0000
# 6 0.0000 0.0000 0.0000 -1.9593 0.0000 61.4887
#
#
#
# Elastic Compliance Matrix: (Units=1/GPa)
#
#
# Indices 1 2 3 4 5 6 
#
# 1 0.009940 -0.002324 -0.003756 0.000000 -0.003842 0.000000
# 2 -0.002324 0.006286 -0.003164 0.000000 -0.000270 0.000000
# 3 -0.003756 -0.003164 0.019157 0.000000 -0.001408 0.000000
# 4 0.000000 0.000000 0.000000 0.028431 0.000000 0.000906
# 5 -0.003842 -0.000270 -0.001408 0.000000 0.023966 0.000000
# 6 0.000000 0.000000 0.000000 0.000906 0.000000 0.016292
#
#
# Mechanical properties :
#
#
# Convention : Reuss Voigt Hill
#
# Bulk Modulus (GPa) = 59.19657 85.70713 72.45185
# Shear Modulus (GPa) = 39.00365 45.92386 42.46375
#
# Velocity S-wave (km/s) = 4.29131 4.65647 4.47761
# Velocity P-wave (km/s) = 7.24590 8.32924 7.80639
#
# Compressibility (1/GPa) = 0.01689287
#
# Stress axis : x y z
#
# Youngs Moduli (GPa) = 100.60855 159.07964 52.19934
#
# Poissons Ratio (x) = 0.36975 0.19608
# Poissons Ratio (y) = 0.23384 0.16518
# Poissons Ratio (z) = 0.37792 0.50340
#
# Static dielectric constant tensor:
#      x y z
#    x 2.011570 0.000000 0.143690 
#    y 0.000000 1.632130 0.000000 
#    z 0.143690 0.000000 1.938450 
# 
# From -- ./inp_files/109268.got.cif
#   From: 2010.05.17/outbox.cif.g08.bks.cpg/sg12_55_cif.got.tgz:109268.got - 2010.06.03 13:09:07.
