data_PCOD9212400
_publ_section_title
;
Structure prediction by ZEFSAII (Michael W. Deem and Ramdas Pophale) SiO2 
 PCOD9212400
Probable space group: C 2/M
;
_chemical_formula_sum "Si O2"
_cell_formula_units_Z 40
_cell_length_a 19.536607
_cell_length_b 13.972356
_cell_length_c 8.781273
_cell_angle_alpha 90.000000
_cell_angle_beta 137.010059
_cell_angle_gamma 90.000000
_cell_volume 1634.473238
_symmetry_space_group_name_H-M "C 2/M"
_symmetry_group_IT_number 12
_symmetry_cell_setting 'monoclinic'
loop_
_space_group_symop_operation_xyz
x,y,z
-x,y,-z
-x,-y,-z
x,-y,z
1/2+x,1/2+y,z
1/2-x,1/2+y,-z
1/2-x,1/2-y,-z
1/2+x,1/2-y,z
loop_
_atom_site_type_symbol
_atom_site_label
_atom_site_fract_x
_atom_site_fract_y
_atom_site_fract_z
Si Si1 0.951176 0.603420 0.251065
Si Si2 0.091680 0.317429 0.236144
Si Si3 0.280135 0.677270 0.352926
Si Si4 0.880063 0.000000 0.670194
Si Si5 0.393836 0.684059 0.237829
Si Si6 0.114485 0.000000 0.985190
O O1 0.895300 0.500000 0.144628
O O2 0.906986 0.711580 0.184523
O O3 0.000000 0.599384 0.500000
O O4 0.032765 0.608243 0.246746
O O5 0.167660 0.344325 0.224845
O O6 0.167103 0.265641 0.475156
O O7 0.000000 0.261607 0.000000
O O8 0.342910 0.590614 0.520403
O O9 0.306706 0.687556 0.220994
O O10 0.998712 0.000000 0.845377
O O11 0.834340 0.000000 0.766045
O O12 0.500000 0.663908 0.500000
O O13 0.369624 0.597254 0.083769
#
# Coordination Sequence:
#
# PCOD9212400 Si02
#       6
#     8   8   8   4   8   4
#     4  10  21  41  69  95 136 190 237 289 350 419
#     4  11  25  45  71 100 136 185 243 295 350 427
#     4  11  24  43  70 101 141 187 230 296 363 425
#     4  11  23  38  66 107 138 179 235 293 365 420
#     4  11  19  40  67 102 141 188 230 292 370 428
#     4  11  22  35  72 108 142 182 231 309 360 426
#
# _framework density 24.472716999999999
#
# number of rings (size 3 to 8) (size 9 to 14) (size 15 to 20)
#    0.000    1.200    6.000    0.900    7.000    0.400 
#    0.000    3.000    0.000    0.000    0.000    0.000 
#    0.000    0.000    0.000    0.000    0.000    0.000 
#
# Total GULP energy -111675.786989 kJ/mol
# GULP energy per Si atom -5583.789349 kJ/mol
# Density = 2.441702 g / cm^3
# Si number density = 24.472717 Si / 1000 Ang^3
#
#
#
# Elastic Constant Matrix: (Units=GPa)
#
#
# Indices 1 2 3 4 5 6 
#
# 1 195.8490 57.9513 41.4561 0.0000 -28.9958 0.0000
# 2 57.9513 174.6809 12.4910 0.0000 -38.4431 0.0000
# 3 41.4561 12.4910 58.8914 0.0000 -20.8270 0.0000
# 4 0.0000 0.0000 0.0000 129.4659 0.0000 -17.1615
# 5 -28.9958 -38.4431 -20.8270 0.0000 51.9031 0.0000
# 6 0.0000 0.0000 0.0000 -17.1615 0.0000 21.5251
#
#
#
# Elastic Compliance Matrix: (Units=1/GPa)
#
#
# Indices 1 2 3 4 5 6 
#
# 1 0.006576 -0.001721 -0.003981 0.000000 0.000802 0.000000
# 2 -0.001721 0.007298 0.001439 0.000000 0.005022 0.000000
# 3 -0.003981 0.001439 0.022221 0.000000 0.007759 0.000000
# 4 0.000000 0.000000 0.000000 0.008637 0.000000 0.006886
# 5 0.000802 0.005022 0.007759 0.000000 0.026547 0.000000
# 6 0.000000 0.000000 0.000000 0.006886 0.000000 0.051947
#
#
# Mechanical properties :
#
#
# Convention : Reuss Voigt Hill
#
# Bulk Modulus (GPa) = 36.26982 72.57978 54.42480
# Shear Modulus (GPa) = 35.47560 61.74702 48.61131
#
# Velocity S-wave (km/s) = 3.81149 5.02849 4.46168
# Velocity P-wave (km/s) = 5.85001 7.96468 6.98780
#
# Compressibility (1/GPa) = 0.02757113
#
# Stress axis : x y z
#
# Youngs Moduli (GPa) = 152.05663 137.02872 45.00182
#
# Poissons Ratio (x) = 0.23577 0.17914
# Poissons Ratio (y) = 0.26163 -0.06477
# Poissons Ratio (z) = 0.60531 -0.19721
#
# Static dielectric constant tensor:
#      x y z
#    x 1.928720 0.000000 0.003580 
#    y 0.000000 1.855630 0.000000 
#    z 0.003580 0.000000 2.026480 
# 
# From -- ./inp_files/86097.got.cif
#   From: 2010.05.17/outbox.cif.g08.bks.cpg/sg12_44_cif.got.tgz:86097.got - 2010.06.03 13:09:07.
