data_PCOD9212116
_publ_section_title
;
Structure prediction by ZEFSAII (Michael W. Deem and Ramdas Pophale) SiO2 
 PCOD9212116
Probable space group: C 2/M
;
_chemical_formula_sum "Si O2"
_cell_formula_units_Z 64
_cell_length_a 16.204506
_cell_length_b 23.520568
_cell_length_c 7.963336
_cell_angle_alpha 90.000000
_cell_angle_beta 76.512070
_cell_angle_gamma 90.000000
_cell_volume 2951.427448
_symmetry_space_group_name_H-M "C 2/M"
_symmetry_group_IT_number 12
_symmetry_cell_setting 'monoclinic'
loop_
_space_group_symop_operation_xyz
x,y,z
-x,y,-z
-x,-y,-z
x,-y,z
1/2+x,1/2+y,z
1/2-x,1/2+y,-z
1/2-x,1/2-y,-z
1/2+x,1/2-y,z
loop_
_atom_site_type_symbol
_atom_site_label
_atom_site_fract_x
_atom_site_fract_y
_atom_site_fract_z
Si Si1 0.755848 0.383225 0.463545
Si Si2 0.331935 0.434623 0.808888
Si Si3 0.159691 0.253207 0.956261
Si Si4 0.127110 0.212197 0.598766
Si Si5 0.464309 0.658198 0.836314
Si Si6 0.434848 0.830427 0.401056
Si Si7 0.933864 0.363056 0.910395
Si Si8 0.787798 0.432718 0.810726
O O1 0.723479 0.423738 0.331550
O O2 0.697725 0.326727 0.480784
O O3 0.854513 0.368221 0.396576
O O4 0.749920 0.407397 0.656200
O O5 0.360165 0.500000 0.799550
O O6 0.408832 0.390505 0.778037
O O7 0.275667 0.423691 0.002408
O O8 0.095263 0.211647 0.085783
O O9 0.129719 0.318304 0.975689
O O10 0.250000 0.250000 0.000000
O O11 0.161955 0.232377 0.763559
O O12 0.100810 0.270109 0.517268
O O13 0.042066 0.177440 0.682804
O O14 0.500000 0.637664 0.000000
O O15 0.500000 0.857878 0.500000
O O16 0.498646 0.822485 0.216955
O O17 0.875578 0.402155 0.821595
O O18 0.000000 0.395964 0.000000
O O19 0.800594 0.500000 0.783754
#
# Coordination Sequence:
#
# PCOD9212116 Si02
#       8
#     8   8   8   8   8   8   8   8
#     4  12  26  46  70 103 139 181 238 283 346 409
#     4  11  26  47  74 101 134 186 238 289 343 402
#     4  11  21  35  67  99 135 181 221 273 348 414
#     4  11  24  40  64 102 141 184 217 279 351 417
#     4  10  21  41  64 102 141 178 229 282 344 412
#     4  12  25  41  63 101 143 179 217 279 348 418
#     4  12  21  42  66  95 137 177 223 281 341 407
#     4  11  25  48  71  96 134 182 234 287 339 399
#
# _framework density 21.684424
#
# number of rings (size 3 to 8) (size 9 to 14) (size 15 to 20)
#    0.000    0.750    3.750    4.875    3.500    0.500 
#    0.000    3.750    0.000    0.000    0.000    0.000 
#    0.000    0.000    0.000    0.000    0.000    0.000 
#
# Total GULP energy -178983.984316 kJ/mol
# GULP energy per Si atom -5593.249510 kJ/mol
# Density = 2.163507 g / cm^3
# Si number density = 21.684424 Si / 1000 Ang^3
#
#
#
# Elastic Constant Matrix: (Units=GPa)
#
#
# Indices 1 2 3 4 5 6 
#
# 1 121.3958 30.7726 26.0097 0.0000 25.3416 0.0000
# 2 30.7726 76.1372 13.5672 0.0000 11.7975 0.0000
# 3 26.0097 13.5672 70.4529 0.0000 19.8385 0.0000
# 4 0.0000 0.0000 0.0000 23.5456 0.0000 11.3459
# 5 25.3416 11.7975 19.8385 0.0000 36.0709 0.0000
# 6 0.0000 0.0000 0.0000 11.3459 0.0000 20.5042
#
#
#
# Elastic Compliance Matrix: (Units=1/GPa)
#
#
# Indices 1 2 3 4 5 6 
#
# 1 0.010533 -0.003103 -0.001767 0.000000 -0.005413 0.000000
# 2 -0.003103 0.014913 -0.001144 0.000000 -0.002068 0.000000
# 3 -0.001767 -0.001144 0.017289 0.000000 -0.007894 0.000000
# 4 0.000000 0.000000 0.000000 0.057913 0.000000 -0.032046
# 5 -0.005413 -0.002068 -0.007894 0.000000 0.036544 0.000000
# 6 0.000000 0.000000 0.000000 -0.032046 0.000000 0.066503
#
#
# Mechanical properties :
#
#
# Convention : Reuss Voigt Hill
#
# Bulk Modulus (GPa) = 32.56584 45.40943 38.98763
# Shear Modulus (GPa) = 22.12812 29.19989 25.66401
#
# Velocity S-wave (km/s) = 3.19793 3.67356 3.44397
# Velocity P-wave (km/s) = 5.35597 6.24339 5.81663
#
# Compressibility (1/GPa) = 0.03070703
#
# Stress axis : x y z
#
# Youngs Moduli (GPa) = 94.94230 67.05660 57.84021
#
# Poissons Ratio (x) = 0.20811 0.10218
# Poissons Ratio (y) = 0.29465 0.06615
# Poissons Ratio (z) = 0.16772 0.07669
#
# Static dielectric constant tensor:
#      x y z
#    x 1.767690 0.000000 0.018130 
#    y 0.000000 1.748780 0.000000 
#    z 0.018130 0.000000 1.888550 
# 
# From -- ./inp_files/65870.got.cif
#   From: 2010.05.17/outbox.cif.g08.bks.cpg/sg12_33_cif.got.tgz:65870.got - 2010.06.03 13:09:07.
