data_PCOD9212893
_publ_section_title
;
Structure prediction by ZEFSAII (Michael W. Deem and Ramdas Pophale) SiO2 
 PCOD9212893
Probable space group: C 2/M
;
_chemical_formula_sum "Si O2"
_cell_formula_units_Z 56
_cell_length_a 20.998943
_cell_length_b 30.598108
_cell_length_c 9.256584
_cell_angle_alpha 90.000000
_cell_angle_beta 29.081690
_cell_angle_gamma 90.000000
_cell_volume 2890.874073
_symmetry_space_group_name_H-M "C 2/M"
_symmetry_group_IT_number 12
_symmetry_cell_setting 'monoclinic'
loop_
_space_group_symop_operation_xyz
x,y,z
-x,y,-z
-x,-y,-z
x,-y,z
1/2+x,1/2+y,z
1/2-x,1/2+y,-z
1/2-x,1/2-y,-z
1/2+x,1/2-y,z
loop_
_atom_site_type_symbol
_atom_site_label
_atom_site_fract_x
_atom_site_fract_y
_atom_site_fract_z
Si Si1 0.497470 0.714723 0.829564
Si Si2 0.155470 0.904850 0.729209
Si Si3 0.643476 0.500000 0.139795
Si Si4 0.273613 0.651884 0.160707
Si Si5 0.654138 0.407239 0.226034
Si Si6 0.142288 0.000000 0.792693
Si Si7 0.995731 0.308975 0.683336
Si Si8 0.768641 0.852373 0.677265
O O1 0.503101 0.761882 0.745165
O O2 0.619525 0.684687 0.538830
O O3 0.500000 0.717102 0.000000
O O4 0.367385 0.690715 0.028079
O O5 0.175928 0.890104 0.851926
O O6 0.234484 0.869510 0.480146
O O7 0.202996 0.954421 0.621290
O O8 0.000000 0.901503 0.000000
O O9 0.500000 0.500000 0.500000
O O10 0.706499 0.454324 0.069430
O O11 0.631505 0.500000 0.989178
O O12 0.123947 0.664445 0.477220
O O13 0.291219 0.635691 0.962731
O O14 0.500000 0.407349 0.500000
O O15 0.683490 0.395753 0.332781
O O16 0.000000 0.000000 0.000000
O O17 0.000000 0.304539 0.500000
O O18 0.865830 0.333415 0.995792
#
# Coordination Sequence:
#
# PCOD9212893 Si02
#       8
#     8   8   4   8   8   4   8   8
#     4  12  26  45  67  93 124 163 218 267 316 373
#     4  11  21  41  67  98 128 166 210 260 317 373
#     4  10  22  34  58 103 131 161 209 260 316 369
#     4  12  22  43  67  89 132 169 208 258 317 376
#     4  11  21  37  67  94 127 170 209 256 315 372
#     4  10  22  34  60  99 136 156 204 273 311 364
#     4  12  30  43  61  96 128 168 214 264 315 375
#     4  12  24  43  66  92 130 166 213 258 316 380
#
# _framework density 19.371303000000001
#
# number of rings (size 3 to 8) (size 9 to 14) (size 15 to 20)
#    0.000    0.571    7.143    0.857   10.000    2.286 
#    0.000    0.000    0.000    5.143    0.000    0.000 
#    0.000    0.000    0.000    0.000    0.000    0.000 
#
# Total GULP energy -156289.886789 kJ/mol
# GULP energy per Si atom -5581.781671 kJ/mol
# Density = 1.932721 g / cm^3
# Si number density = 19.371303 Si / 1000 Ang^3
#
#
#
# Elastic Constant Matrix: (Units=GPa)
#
#
# Indices 1 2 3 4 5 6 
#
# 1 56.6395 20.1222 29.8255 0.0322 -5.3954 -0.0115
# 2 20.1222 114.1426 38.1544 -0.0066 -9.0282 0.0023
# 3 29.8255 38.1544 107.6963 0.0011 -10.2293 -0.0006
# 4 0.0322 -0.0066 0.0011 5337.1751 0.0180-1873.2412
# 5 -5.3954 -9.0282 -10.2293 0.0180 28.5378 -0.0064
# 6 -0.0115 0.0023 -0.0006-1873.2412 -0.0064 696.0357
#
#
#
# Elastic Compliance Matrix: (Units=1/GPa)
#
#
# Indices 1 2 3 4 5 6 
#
# 1 0.021134 -0.001922 -0.005021 0.000000 0.001588 0.000000
# 2 -0.001922 0.010218 -0.002915 0.000000 0.001825 0.000000
# 3 -0.005021 -0.002915 0.011937 0.000000 0.002407 0.000000
# 4 0.000000 0.000000 0.000000 0.003382 0.000000 0.009101
# 5 0.001588 0.001825 0.002407 0.000000 0.036782 0.000000
# 6 0.000000 0.000000 0.000000 0.009101 0.000000 0.025930
#
#
# Mechanical properties :
#
#
# Convention : Reuss Voigt Hill
#
# Bulk Modulus (GPa) = 42.41918 50.52030 46.46974
# Shear Modulus (GPa) = 36.50835 1225.04147 630.77491
#
# Velocity S-wave (km/s) = 4.34598 25.17485 18.06461
# Velocity P-wave (km/s) = 6.86505 29.51554 21.42774
#
# Compressibility (1/GPa) = 0.02357424
#
# Stress axis : x y z
#
# Youngs Moduli (GPa) = 47.31814 97.86333 83.77179
#
# Poissons Ratio (x) = 0.18806 0.42063
# Poissons Ratio (y) = 0.09093 0.24416
# Poissons Ratio (z) = 0.23759 0.28524
#
# Static dielectric constant tensor:
#      x y z
#    x 1.646960 0.000000 0.013620 
#    y 0.000000 1.704120 0.000000 
#    z 0.013620 0.000000 1.671950 
# 
# From -- ./inp_files/91575.got.cif
#   From: 2010.05.17/outbox.cif.g08.bks.cpg/sg12_46_cif.got.tgz:91575.got - 2010.06.03 13:09:07.
