data_PCOD9212303
_publ_section_title
;
Structure prediction by ZEFSAII (Michael W. Deem and Ramdas Pophale) SiO2 
 PCOD9212303
Probable space group: C 2/M
;
_chemical_formula_sum "Si O2"
_cell_formula_units_Z 44
_cell_length_a 14.794147
_cell_length_b 8.090385
_cell_length_c 16.841023
_cell_angle_alpha 90.000000
_cell_angle_beta 90.469153
_cell_angle_gamma 90.000000
_cell_volume 2015.640279
_symmetry_space_group_name_H-M "C 2/M"
_symmetry_group_IT_number 12
_symmetry_cell_setting 'monoclinic'
loop_
_space_group_symop_operation_xyz
x,y,z
-x,y,-z
-x,-y,-z
x,-y,z
1/2+x,1/2+y,z
1/2-x,1/2+y,-z
1/2-x,1/2-y,-z
1/2+x,1/2-y,z
loop_
_atom_site_type_symbol
_atom_site_label
_atom_site_fract_x
_atom_site_fract_y
_atom_site_fract_z
Si Si1 0.347642 0.311690 0.625929
Si Si2 0.000000 0.747436 0.500000
Si Si3 0.622861 0.804988 0.778187
Si Si4 0.921038 0.799155 0.797132
Si Si5 0.265145 0.301375 0.910156
Si Si6 0.655927 0.310928 0.602137
O O1 0.315961 0.500000 0.634622
O O2 0.436774 0.312884 0.571998
O O3 0.373994 0.249109 0.713582
O O4 0.262299 0.216354 0.589426
O O5 0.913761 0.692185 0.445154
O O6 0.519676 0.776377 0.800645
O O7 0.687117 0.743929 0.849304
O O8 0.641420 0.714352 0.695548
O O9 0.640349 0.000000 0.765861
O O10 0.859229 0.748821 0.870666
O O11 0.928201 0.000000 0.795024
O O12 0.264043 0.500000 0.908287
O O13 0.250000 0.250000 0.000000
O O14 0.631419 0.500000 0.578700
#
# Coordination Sequence:
#
# PCOD9212303 Si02
#       6
#     8   4   8   8   8   8
#     4  11  22  42  65  90 128 169 210 261 316 371
#     4  12  25  42  65  92 129 172 213 262 317 368
#     4  11  23  42  66  95 129 166 209 260 317 373
#     4  10  21  41  67  92 127 171 208 252 317 380
#     4  10  23  43  66  94 128 165 206 258 317 374
#     4  12  24  41  64  93 126 169 217 260 314 374
#
# _framework density 21.829291000000001
#
# number of rings (size 3 to 8) (size 9 to 14) (size 15 to 20)
#    0.000    1.091    3.636    3.273    0.000    3.636 
#    0.000    6.818    0.000    0.000    0.000    0.000 
#    0.000    0.000    0.000    0.000    0.000    0.000 
#
# Total GULP energy -122774.772126 kJ/mol
# GULP energy per Si atom -5580.671460 kJ/mol
# Density = 2.177961 g / cm^3
# Si number density = 21.829291 Si / 1000 Ang^3
#
#
#
# Elastic Constant Matrix: (Units=GPa)
#
#
# Indices 1 2 3 4 5 6 
#
# 1 150.2957 12.1923 35.3950 0.0000 -17.5928 0.0000
# 2 12.1923 36.6765 -0.1488 0.0000 -3.6333 0.0000
# 3 35.3950 -0.1488 119.6645 0.0000 -25.3058 0.0000
# 4 0.0000 0.0000 0.0000 -140.5963 0.0000 -17.8960
# 5 -17.5928 -3.6333 -25.3058 0.0000 38.1360 0.0000
# 6 0.0000 0.0000 0.0000 -17.8960 0.0000 15.8880
#
#
#
# Elastic Compliance Matrix: (Units=1/GPa)
#
#
# Indices 1 2 3 4 5 6 
#
# 1 0.007501 -0.002297 -0.001787 0.000000 0.002056 0.000000
# 2 -0.002297 0.028277 0.001233 0.000000 0.002453 0.000000
# 3 -0.001787 0.001233 0.010164 0.000000 0.006037 0.000000
# 4 0.000000 0.000000 0.000000 -0.006221 0.000000 -0.007007
# 5 0.002056 0.002453 0.006037 0.000000 0.031410 0.000000
# 6 0.000000 0.000000 0.000000 -0.007007 0.000000 0.055048
#
#
# Mechanical properties :
#
#
# Convention : Reuss Voigt Hill
#
# Bulk Modulus (GPa) = 24.85067 44.61261 34.73164
# Shear Modulus (GPa) = 34.41281 -0.03458 17.18911
#
# Velocity S-wave (km/s) = 3.97476 -0.12600 2.80917
# Velocity P-wave (km/s) = 5.69858 4.52330 5.14461
#
# Compressibility (1/GPa) = 0.04024036
#
# Stress axis : x y z
#
# Youngs Moduli (GPa) = 133.30887 35.36434 98.39127
#
# Poissons Ratio (x) = 0.08124 0.17581
# Poissons Ratio (y) = 0.30624 -0.12135
# Poissons Ratio (z) = 0.23821 -0.04362
#
# Static dielectric constant tensor:
#      x y z
#    x 1.776620 0.000000 0.002720 
#    y 0.000000 1.822340 0.000000 
#    z 0.002720 0.000000 1.770490 
# 
# From -- ./inp_files/267228.got.cif
#   From: 2010.05.17/outbox.cif.g08.bks.cpg/sg12_134_cif.got.tgz:267228.got - 2010.06.03 13:09:07.
