data_PCOD9212765
_publ_section_title
;
Structure prediction by ZEFSAII (Michael W. Deem and Ramdas Pophale) SiO2 
 PCOD9212765
Probable space group: C 2/M
;
_chemical_formula_sum "Si O2"
_cell_formula_units_Z 36
_cell_length_a 18.441872
_cell_length_b 16.690177
_cell_length_c 9.422350
_cell_angle_alpha 90.000000
_cell_angle_beta 31.127179
_cell_angle_gamma 90.000000
_cell_volume 1499.218237
_symmetry_space_group_name_H-M "C 2/M"
_symmetry_group_IT_number 12
_symmetry_cell_setting 'monoclinic'
loop_
_space_group_symop_operation_xyz
x,y,z
-x,y,-z
-x,-y,-z
x,-y,z
1/2+x,1/2+y,z
1/2-x,1/2+y,-z
1/2-x,1/2-y,-z
1/2+x,1/2-y,z
loop_
_atom_site_type_symbol
_atom_site_label
_atom_site_fract_x
_atom_site_fract_y
_atom_site_fract_z
Si Si1 0.657458 0.633913 0.257422
Si Si2 0.364791 0.000000 0.402172
Si Si3 0.343131 0.755308 0.111186
Si Si4 0.364272 0.500000 0.465605
Si Si5 0.818207 0.000000 0.020418
Si Si6 0.876747 0.326900 0.359532
O O1 0.500000 0.664992 0.500000
O O2 0.764783 0.703415 0.113621
O O3 0.657840 0.575467 0.393439
O O4 0.689363 0.577160 0.070150
O O5 0.240704 0.000000 0.491426
O O6 0.442870 0.084700 0.256589
O O7 0.301766 0.000000 0.663909
O O8 0.256154 0.678943 0.312503
O O9 0.332617 0.809102 0.272560
O O10 0.508268 0.757813 0.801375
O O11 0.530451 0.500000 0.154675
#
# Coordination Sequence:
#
# PCOD9212765 Si02
#       6
#     8   4   8   4   4   8
#     4   9  18  37  63  89 129 178 217 258 330 402
#     4  12  21  39  62 106 126 171 219 281 320 379
#     4  10  21  44  63  96 128 179 214 278 322 394
#     4   9  17  34  59  93 131 170 219 265 323 387
#     4   9  21  34  56  97 136 172 213 272 322 400
#     4  10  24  40  69  95 134 166 228 271 328 380
#
# _framework density 24.012516000000002
#
# number of rings (size 3 to 8) (size 9 to 14) (size 15 to 20)
#    0.000    2.222    2.222    1.667    0.000    7.111 
#    8.000    6.667    0.000    1.333    0.000    0.000 
#    0.000    0.000    0.000    0.000    0.000    0.000 
#
# Total GULP energy -100587.628955 kJ/mol
# GULP energy per Si atom -5588.201609 kJ/mol
# Density = 2.395786 g / cm^3
# Si number density = 24.012516 Si / 1000 Ang^3
#
#
#
# Elastic Constant Matrix: (Units=GPa)
#
#
# Indices 1 2 3 4 5 6 
#
# 1 120.5888 10.5040 30.1560 0.0001 -6.0583 -0.0001
# 2 10.5040 64.4955 16.3278 0.0000 -1.1284 0.0000
# 3 30.1560 16.3278 80.1509 0.0000 7.8054 0.0000
# 4 0.0001 0.0000 0.0000 20.8338 0.0000 2.2362
# 5 -6.0583 -1.1284 7.8054 0.0000 28.2125 0.0000
# 6 -0.0001 0.0000 0.0000 2.2362 0.0000 34.2068
#
#
#
# Elastic Compliance Matrix: (Units=1/GPa)
#
#
# Indices 1 2 3 4 5 6 
#
# 1 0.009425 -0.000537 -0.003732 0.000000 0.003035 0.000000
# 2 -0.000537 0.016451 -0.003291 0.000000 0.001453 0.000000
# 3 -0.003732 -0.003291 0.015047 0.000000 -0.005096 0.000000
# 4 0.000000 0.000000 0.000000 0.048338 0.000000 -0.003160
# 5 0.003035 0.001453 -0.005096 0.000000 0.037565 0.000000
# 6 0.000000 0.000000 0.000000 -0.003160 0.000000 0.029440
#
#
# Mechanical properties :
#
#
# Convention : Reuss Voigt Hill
#
# Bulk Modulus (GPa) = 38.75463 42.13453 40.44458
# Shear Modulus (GPa) = 27.77955 30.53379 29.15667
#
# Velocity S-wave (km/s) = 3.40498 3.56979 3.48836
# Velocity P-wave (km/s) = 5.62431 5.88015 5.75365
#
# Compressibility (1/GPa) = 0.02580337
#
# Stress axis : x y z
#
# Youngs Moduli (GPa) = 106.09785 60.78685 66.45680
#
# Poissons Ratio (x) = 0.03265 0.24804
# Poissons Ratio (y) = 0.05698 0.21869
# Poissons Ratio (z) = 0.39599 0.20003
#
# Static dielectric constant tensor:
#      x y z
#    x 1.862290 0.000000 -0.029320 
#    y 0.000000 1.955010 0.000000 
#    z -0.029320 0.000000 1.940400 
# 
# From -- ./inp_files/74930.got.cif
#   From: 2010.05.17/outbox.cif.g08.bks.cpg/sg12_38_cif.got.tgz:74930.got - 2010.06.03 13:09:07.
