data_PCOD9212734
_publ_section_title
;
Structure prediction by ZEFSAII (Michael W. Deem and Ramdas Pophale) SiO2 
 PCOD9212734
Probable space group: C 2/M
;
_chemical_formula_sum "Si O2"
_cell_formula_units_Z 52
_cell_length_a 8.668937
_cell_length_b 21.682599
_cell_length_c 21.241243
_cell_angle_alpha 90.000000
_cell_angle_beta 42.572132
_cell_angle_gamma 90.000000
_cell_volume 2701.073356
_symmetry_space_group_name_H-M "C 2/M"
_symmetry_group_IT_number 12
_symmetry_cell_setting 'monoclinic'
loop_
_space_group_symop_operation_xyz
x,y,z
-x,y,-z
-x,-y,-z
x,-y,z
1/2+x,1/2+y,z
1/2-x,1/2+y,-z
1/2-x,1/2-y,-z
1/2+x,1/2-y,z
loop_
_atom_site_type_symbol
_atom_site_label
_atom_site_fract_x
_atom_site_fract_y
_atom_site_fract_z
Si Si1 0.033446 0.929684 0.065199
Si Si2 0.500000 0.846056 0.500000
Si Si3 0.626920 0.815115 0.027512
Si Si4 0.157592 0.318135 0.760152
Si Si5 0.123653 0.243288 0.651942
Si Si6 0.021375 0.570931 0.260816
Si Si7 0.243144 0.627590 0.551061
O O1 0.788896 0.915318 0.170229
O O2 0.102690 0.000000 0.063252
O O3 0.207433 0.874393 0.024990
O O4 0.000000 0.930911 0.000000
O O5 0.663773 0.802552 0.409064
O O6 0.329993 0.878303 0.500331
O O7 0.459809 0.820061 0.137299
O O8 0.500000 0.812672 0.000000
O O9 0.750000 0.750000 0.000000
O O10 0.048885 0.271055 0.741830
O O11 0.414830 0.294759 0.686748
O O12 0.125626 0.384892 0.739438
O O13 0.197717 0.301696 0.587228
O O14 0.988531 0.500000 0.254408
O O15 0.933127 0.585825 0.356799
O O16 0.500000 0.613483 0.500000
#
# Coordination Sequence:
#
# PCOD9212734 Si02
#       7
#     8   4   8   8   8   8   8
#     4  10  21  43  70  90 121 174 223 263 320 397
#     4  12  20  38  63  92 131 162 214 268 328 396
#     4  12  26  39  60  96 138 166 212 273 335 383
#     4  11  23  38  61  91 123 169 208 263 326 381
#     4  11  21  37  59  92 126 161 212 259 326 399
#     4  10  23  43  67  92 125 172 222 261 315 391
#     4  11  23  38  63  97 132 168 216 270 333 393
#
# _framework density 19.251605000000001
#
# number of rings (size 3 to 8) (size 9 to 14) (size 15 to 20)
#    0.000    1.077    3.846    3.692    4.308    1.846 
#    0.000    0.385    0.000    2.769    0.000    0.000 
#    0.000    0.000    0.000    0.000    0.000    0.000 
#
# Total GULP energy -145098.687997 kJ/mol
# GULP energy per Si atom -5580.718769 kJ/mol
# Density = 1.920779 g / cm^3
# Si number density = 19.251605 Si / 1000 Ang^3
#
#
#
# Elastic Constant Matrix: (Units=GPa)
#
#
# Indices 1 2 3 4 5 6 
#
# 1 120.8270 43.7747 34.7845 0.0001 10.6872 -0.0001
# 2 43.7747 78.3141 25.9408 0.0001 -13.2663 -0.0001
# 3 34.7845 25.9408 96.6637 0.0000 7.0770 0.0000
# 4 0.0001 0.0001 0.0000 -45.6187 -0.0001 35.0844
# 5 10.6872 -13.2663 7.0770 -0.0001 36.3819 0.0001
# 6 -0.0001 -0.0001 0.0000 35.0844 0.0001 -4.4784
#
#
#
# Elastic Compliance Matrix: (Units=1/GPa)
#
#
# Indices 1 2 3 4 5 6 
#
# 1 0.011853 -0.006915 -0.001999 0.000000 -0.005615 0.000000
# 2 -0.006915 0.019433 -0.003443 0.000000 0.009787 0.000000
# 3 -0.001999 -0.003443 0.012211 0.000000 -0.003044 0.000000
# 4 0.000000 0.000000 0.000000 0.004362 0.000000 0.034175
# 5 -0.005615 0.009787 -0.003044 0.000000 0.033296 0.000000
# 6 0.000000 0.000000 0.000000 0.034175 0.000000 0.044436
#
#
# Mechanical properties :
#
#
# Convention : Reuss Voigt Hill
#
# Bulk Modulus (GPa) = 53.23699 56.08943 54.66321
# Shear Modulus (GPa) = 31.93531 10.01062 20.97297
#
# Velocity S-wave (km/s) = 4.07730 2.28280 3.30421
# Velocity P-wave (km/s) = 7.06252 6.01219 6.55841
#
# Compressibility (1/GPa) = 0.01878393
#
# Stress axis : x y z
#
# Youngs Moduli (GPa) = 84.36360 51.46006 81.89150
#
# Poissons Ratio (x) = 0.35583 0.16368
# Poissons Ratio (y) = 0.58335 0.28197
# Poissons Ratio (z) = 0.16863 0.17719
#
# Static dielectric constant tensor:
#      x y z
#    x 1.688100 0.000000 0.004480 
#    y 0.000000 1.700350 0.000000 
#    z 0.004480 0.000000 1.702960 
# 
# From -- ./inp_files/302271.got.cif
#   From: 2010.05.17/outbox.cif.g08.bks.cpg/sg12_152_cif.got.tgz:302271.got - 2010.06.03 13:09:07.
