data_PCOD9212975
_publ_section_title
;
Structure prediction by ZEFSAII (Michael W. Deem and Ramdas Pophale) SiO2 
 PCOD9212975
Probable space group: C 2/M
;
_chemical_formula_sum "Si O2"
_cell_formula_units_Z 56
_cell_length_a 31.095300
_cell_length_b 10.729753
_cell_length_c 21.560235
_cell_angle_alpha 90.000000
_cell_angle_beta 156.009983
_cell_angle_gamma 90.000000
_cell_volume 2924.699621
_symmetry_space_group_name_H-M "C 2/M"
_symmetry_group_IT_number 12
_symmetry_cell_setting 'monoclinic'
loop_
_space_group_symop_operation_xyz
x,y,z
-x,y,-z
-x,-y,-z
x,-y,z
1/2+x,1/2+y,z
1/2-x,1/2+y,-z
1/2-x,1/2-y,-z
1/2+x,1/2-y,z
loop_
_atom_site_type_symbol
_atom_site_label
_atom_site_fract_x
_atom_site_fract_y
_atom_site_fract_z
Si Si1 0.728816 0.864685 0.017311
Si Si2 0.076812 0.642279 0.458023
Si Si3 0.266057 0.858495 0.438269
Si Si4 0.630043 0.138350 0.290505
Si Si5 0.578017 0.277180 0.656892
Si Si6 0.890485 0.643389 0.019971
Si Si7 0.234421 0.361918 0.779631
O O1 0.829831 0.864815 0.196637
O O2 0.628701 0.845604 0.930932
O O3 0.721036 0.000000 0.976053
O O4 0.750000 0.750000 0.000000
O O5 0.037281 0.500000 0.401474
O O6 0.129796 0.678723 0.463258
O O7 0.174070 0.642624 0.634906
O O8 0.989496 0.729179 0.373934
O O9 0.300019 0.866160 0.554701
O O10 0.176533 0.753658 0.313131
O O11 0.236362 0.000000 0.379474
O O12 0.636846 0.000000 0.269899
O O13 0.510097 0.158588 0.154882
O O14 0.500000 0.326359 0.500000
O O15 0.642408 0.164485 0.709050
O O16 0.858766 0.500000 0.962886
O O17 0.817747 0.750604 0.895054
O O18 0.279920 0.500000 0.848946
#
# Coordination Sequence:
#
# PCOD9212975 Si02
#       7
#     8   8   8   8   8   8   8
#     4  10  22  36  52  79 111 141 176 218 261 311
#     4   9  17  30  52  78 104 133 169 210 258 307
#     4   9  18  32  52  75  97 125 165 213 258 302
#     4   9  18  34  53  71  95 129 168 208 255 308
#     4   9  18  33  54  78 108 144 179 215 257 309
#     4   9  19  35  53  71  98 139 173 199 253 316
#     4   9  17  31  51  79 105 131 170 212 248 297
#
# _framework density 19.147265000000001
#
# number of rings (size 3 to 8) (size 9 to 14) (size 15 to 20)
#    0.000    2.857    0.000    0.429    2.000    5.429 
#    0.000    4.286    0.000    4.286    0.000    0.000 
#    0.000    0.000    0.000    0.000    0.000    0.000 
#
# Total GULP energy -155993.137618 kJ/mol
# GULP energy per Si atom -5571.183486 kJ/mol
# Density = 1.910368 g / cm^3
# Si number density = 19.147265 Si / 1000 Ang^3
#
#
#
# Elastic Constant Matrix: (Units=GPa)
#
#
# Indices 1 2 3 4 5 6 
#
# 1 43.2499 26.8502 7.0786 0.0000 17.7481 0.0000
# 2 26.8502 106.1238 47.1989 0.0000 17.4727 0.0000
# 3 7.0786 47.1989 64.7945 0.0000 19.3097 0.0000
# 4 0.0000 0.0000 0.0000 14.9262 0.0000 -0.8391
# 5 17.7481 17.4727 19.3097 0.0000 25.6177 0.0000
# 6 0.0000 0.0000 0.0000 -0.8391 0.0000 21.0868
#
#
#
# Elastic Compliance Matrix: (Units=1/GPa)
#
#
# Indices 1 2 3 4 5 6 
#
# 1 0.039865 -0.010651 0.012213 0.000000 -0.029560 0.000000
# 2 -0.010651 0.016899 -0.012782 0.000000 0.005487 0.000000
# 3 0.012213 -0.012782 0.030093 0.000000 -0.022426 0.000000
# 4 0.000000 0.000000 0.000000 0.067146 0.000000 0.002672
# 5 -0.029560 0.005487 -0.022426 0.000000 0.072676 0.000000
# 6 0.000000 0.000000 0.000000 0.002672 0.000000 0.047529
#
#
# Mechanical properties :
#
#
# Convention : Reuss Voigt Hill
#
# Bulk Modulus (GPa) = 15.52381 41.82484 28.67432
# Shear Modulus (GPa) = 15.71730 21.19552 18.45641
#
# Velocity S-wave (km/s) = 2.86818 3.33073 3.10807
# Velocity P-wave (km/s) = 4.36964 6.05664 5.28094
#
# Compressibility (1/GPa) = 0.06441720
#
# Stress axis : x y z
#
# Youngs Moduli (GPa) = 25.08470 59.17551 33.23019
#
# Poissons Ratio (x) = 0.63027 -0.40583
# Poissons Ratio (y) = 0.26718 0.42473
# Poissons Ratio (z) = -0.30635 0.75635
#
# Static dielectric constant tensor:
#      x y z
#    x 1.678880 0.000000 -0.020560 
#    y 0.000000 1.681580 0.000000 
#    z -0.020560 0.000000 1.681260 
# 
# From -- ./inp_files/327610.got.cif
#   From: 2010.05.17/outbox.cif.g08.bks.cpg/sg12_164_cif.got.tgz:327610.got - 2010.06.03 13:09:07.
