data_PCOD9212406
_publ_section_title
;
Structure prediction by ZEFSAII (Michael W. Deem and Ramdas Pophale) SiO2 
 PCOD9212406
Probable space group: C 2/M
;
_chemical_formula_sum "Si O2"
_cell_formula_units_Z 40
_cell_length_a 12.656092
_cell_length_b 30.092565
_cell_length_c 9.906844
_cell_angle_alpha 90.000000
_cell_angle_beta 34.405985
_cell_angle_gamma 90.000000
_cell_volume 2131.981765
_symmetry_space_group_name_H-M "C 2/M"
_symmetry_group_IT_number 12
_symmetry_cell_setting 'monoclinic'
loop_
_space_group_symop_operation_xyz
x,y,z
-x,y,-z
-x,-y,-z
x,-y,z
1/2+x,1/2+y,z
1/2-x,1/2+y,-z
1/2-x,1/2-y,-z
1/2+x,1/2-y,z
loop_
_atom_site_type_symbol
_atom_site_label
_atom_site_fract_x
_atom_site_fract_y
_atom_site_fract_z
Si Si1 0.074636 0.074303 0.190789
Si Si2 0.153074 0.500000 0.032646
Si Si3 0.673201 0.799884 0.726931
Si Si4 0.500000 0.370311 0.000000
Si Si5 0.275317 0.500000 0.589063
Si Si6 0.500000 0.640842 0.500000
Si Si7 0.180719 0.299691 0.403965
O O1 0.256452 0.043039 0.993136
O O2 0.097568 0.109694 0.286493
O O3 0.034696 0.099384 0.094141
O O4 0.899885 0.042459 0.415603
O O5 0.235184 0.500000 0.792185
O O6 0.929662 0.500000 0.261890
O O7 0.720527 0.748481 0.708594
O O8 0.628983 0.804955 0.615818
O O9 0.852436 0.828780 0.577296
O O10 0.500000 0.814247 0.000000
O O11 0.323753 0.338127 0.211287
O O12 0.000000 0.300151 0.500000
#
# Coordination Sequence:
#
# PCOD9212406 Si02
#       7
#     8   4   8   4   4   4   8
#     4  11  23  42  64  96 132 167 209 267 330 382
#     4  10  21  41  71  96 127 165 206 272 324 387
#     4  11  25  41  66  94 124 176 229 272 322 380
#     4  12  26  43  62  96 140 174 214 271 326 394
#     4  10  21  41  69  98 129 159 213 265 326 393
#     4  12  22  41  66 100 130 168 226 271 310 394
#     4  11  25  43  62  92 133 175 219 274 331 376
#
# _framework density 18.761887000000002
#
# number of rings (size 3 to 8) (size 9 to 14) (size 15 to 20)
#    0.000    1.000    6.000    0.600    2.800    5.600 
#    0.000    1.000    0.000    0.000    0.000    0.000 
#    0.000    0.000    0.000    0.000    0.000    0.000 
#
# Total GULP energy -111814.114557 kJ/mol
# GULP energy per Si atom -5590.705728 kJ/mol
# Density = 1.871918 g / cm^3
# Si number density = 18.761887 Si / 1000 Ang^3
#
#
#
# Elastic Constant Matrix: (Units=GPa)
#
#
# Indices 1 2 3 4 5 6 
#
# 1 158.8982 50.9932 40.2963 0.0000 0.2032 0.0000
# 2 50.9932 96.0046 23.0407 0.0000 7.5365 0.0000
# 3 40.2963 23.0407 58.3198 0.0000 -10.1032 0.0000
# 4 0.0000 0.0000 0.0000 5.1342 0.0000 2.5513
# 5 0.2032 7.5365 -10.1032 0.0000 31.8183 0.0000
# 6 0.0000 0.0000 0.0000 2.5513 0.0000 40.2210
#
#
#
# Elastic Compliance Matrix: (Units=1/GPa)
#
#
# Indices 1 2 3 4 5 6 
#
# 1 0.008571 -0.003358 -0.004727 0.000000 -0.000760 0.000000
# 2 -0.003358 0.013440 -0.003743 0.000000 -0.004350 0.000000
# 3 -0.004727 -0.003743 0.023334 0.000000 0.008326 0.000000
# 4 0.000000 0.000000 0.000000 0.201113 0.000000 -0.012757
# 5 -0.000760 -0.004350 0.008326 0.000000 0.035107 0.000000
# 6 0.000000 0.000000 0.000000 -0.012757 0.000000 0.025672
#
#
# Mechanical properties :
#
#
# Convention : Reuss Voigt Hill
#
# Bulk Modulus (GPa) = 46.10794 60.20922 53.15858
# Shear Modulus (GPa) = 14.78754 28.69418 21.74086
#
# Velocity S-wave (km/s) = 2.81048 3.91498 3.40778
# Velocity P-wave (km/s) = 5.92962 7.25238 6.62410
#
# Compressibility (1/GPa) = 0.02168824
#
# Stress axis : x y z
#
# Youngs Moduli (GPa) = 116.67545 74.40622 42.85580
#
# Poissons Ratio (x) = 0.24988 0.20258
# Poissons Ratio (y) = 0.39183 0.16041
# Poissons Ratio (z) = 0.55152 0.27850
#
# Static dielectric constant tensor:
#      x y z
#    x 1.614990 0.000000 0.005170 
#    y 0.000000 1.640010 0.000000 
#    z 0.005170 0.000000 1.627020 
# 
# From -- ./inp_files/54044.got.cif
#   From: 2010.05.17/outbox.cif.g08.bks.cpg/sg12_28_cif.got.tgz:54044.got - 2010.06.03 13:09:07.
