data_PCOD9212546
_publ_section_title
;
Structure prediction by ZEFSAII (Michael W. Deem and Ramdas Pophale) SiO2 
 PCOD9212546
Probable space group: C 2/M
;
_chemical_formula_sum "Si O2"
_cell_formula_units_Z 44
_cell_length_a 10.188733
_cell_length_b 10.555631
_cell_length_c 20.170395
_cell_angle_alpha 90.000000
_cell_angle_beta 79.963691
_cell_angle_gamma 90.000000
_cell_volume 2136.100223
_symmetry_space_group_name_H-M "C 2/M"
_symmetry_group_IT_number 12
_symmetry_cell_setting 'monoclinic'
loop_
_space_group_symop_operation_xyz
x,y,z
-x,y,-z
-x,-y,-z
x,-y,z
1/2+x,1/2+y,z
1/2-x,1/2+y,-z
1/2-x,1/2-y,-z
1/2+x,1/2-y,z
loop_
_atom_site_type_symbol
_atom_site_label
_atom_site_fract_x
_atom_site_fract_y
_atom_site_fract_z
Si Si1 0.884708 0.500000 0.414207
Si Si2 0.663701 0.640903 0.110922
Si Si3 0.693421 0.000000 0.425524
Si Si4 0.889910 0.249798 0.744713
Si Si5 0.476497 0.000000 0.817979
Si Si6 0.445012 0.797964 0.073726
Si Si7 0.333850 0.263480 0.345388
O O1 0.828877 0.500000 0.493778
O O2 0.838507 0.627331 0.381133
O O3 0.046017 0.500000 0.405496
O O4 0.709125 0.500000 0.091687
O O5 0.633509 0.658022 0.191005
O O6 0.533519 0.675726 0.081709
O O7 0.788513 0.730352 0.083260
O O8 0.771765 0.125316 0.395425
O O9 0.925083 0.387397 0.771671
O O10 0.758544 0.253479 0.711453
O O11 0.015813 0.206646 0.690201
O O12 0.527042 0.890196 0.866964
O O13 0.500000 0.851062 0.000000
#
# Coordination Sequence:
#
# PCOD9212546 Si02
#       7
#     4   8   4   8   4   8   8
#     4  11  25  48  72 102 149 180 227 286 336 400
#     4  11  25  43  64  98 134 175 215 290 338 391
#     4  11  25  48  70 107 143 184 229 280 340 400
#     4  11  24  41  68 101 140 168 235 273 341 411
#     4  10  21  42  66  95 129 184 206 282 344 390
#     4  11  23  45  69  95 130 178 231 273 342 411
#     4  12  24  45  74 106 133 193 225 281 342 410
#
# _framework density 20.598285000000001
#
# number of rings (size 3 to 8) (size 9 to 14) (size 15 to 20)
#    0.000    0.909    2.727    4.636    2.545    0.364 
#   13.091    0.909    0.000    0.000    0.000    0.000 
#    0.000    0.000    0.000    0.000    0.000    0.000 
#
# Total GULP energy -122486.604559 kJ/mol
# GULP energy per Si atom -5567.572934 kJ/mol
# Density = 2.055140 g / cm^3
# Si number density = 20.598285 Si / 1000 Ang^3
#
#
#
# Elastic Constant Matrix: (Units=GPa)
#
#
# Indices 1 2 3 4 5 6 
#
# 1 63.1932 28.2657 8.6543 0.0000 -2.5377 0.0000
# 2 28.2657 82.7749 24.8559 0.0000 -1.4293 0.0000
# 3 8.6543 24.8559 58.3267 0.0000 1.5465 0.0000
# 4 0.0000 0.0000 0.0000 0.8315 0.0000 -1.2413
# 5 -2.5377 -1.4293 1.5465 0.0000 31.3824 0.0000
# 6 0.0000 0.0000 0.0000 -1.2413 0.0000 6.9427
#
#
#
# Elastic Compliance Matrix: (Units=1/GPa)
#
#
# Indices 1 2 3 4 5 6 
#
# 1 0.018725 -0.006340 -0.000109 0.000000 0.001231 0.000000
# 2 -0.006340 0.016027 -0.005903 0.000000 0.000508 0.000000
# 3 -0.000109 -0.005903 0.019710 0.000000 -0.001249 0.000000
# 4 0.000000 0.000000 0.000000 1.640527 0.000000 0.293301
# 5 0.001231 0.000508 -0.001249 0.000000 0.032049 0.000000
# 6 0.000000 0.000000 0.000000 0.293301 0.000000 0.196474
#
#
# Mechanical properties :
#
#
# Convention : Reuss Voigt Hill
#
# Bulk Modulus (GPa) = 33.60482 36.42740 35.01611
# Shear Modulus (GPa) = 2.55345 17.33258 9.94302
#
# Velocity S-wave (km/s) = 1.11460 2.90394 2.19945
# Velocity P-wave (km/s) = 4.24338 5.38209 4.84629
#
# Compressibility (1/GPa) = 0.02975764
#
# Stress axis : x y z
#
# Youngs Moduli (GPa) = 53.40542 62.39400 50.73679
#
# Poissons Ratio (x) = 0.39558 0.00554
# Poissons Ratio (y) = 0.33859 0.29949
# Poissons Ratio (z) = 0.00583 0.36829
#
# Static dielectric constant tensor:
#      x y z
#    x 1.724740 0.000000 -0.015500 
#    y 0.000000 1.703650 0.000000 
#    z -0.015500 0.000000 1.735830 
# 
# From -- ./inp_files/299327.got.cif
#   From: 2010.05.17/outbox.cif.g08.bks.cpg/sg12_150_cif.got.tgz:299327.got - 2010.06.03 13:09:07.
