data_PCOD9212586
_publ_section_title
;
Structure prediction by ZEFSAII (Michael W. Deem and Ramdas Pophale) SiO2 
 PCOD9212586
Probable space group: C 2/M
;
_chemical_formula_sum "Si O2"
_cell_formula_units_Z 64
_cell_length_a 10.958216
_cell_length_b 25.418197
_cell_length_c 10.783682
_cell_angle_alpha 90.000000
_cell_angle_beta 83.231724
_cell_angle_gamma 90.000000
_cell_volume 2982.733415
_symmetry_space_group_name_H-M "C 2/M"
_symmetry_group_IT_number 12
_symmetry_cell_setting 'monoclinic'
loop_
_space_group_symop_operation_xyz
x,y,z
-x,y,-z
-x,-y,-z
x,-y,z
1/2+x,1/2+y,z
1/2-x,1/2+y,-z
1/2-x,1/2-y,-z
1/2+x,1/2-y,z
loop_
_atom_site_type_symbol
_atom_site_label
_atom_site_fract_x
_atom_site_fract_y
_atom_site_fract_z
Si Si1 0.139017 0.749814 0.170582
Si Si2 0.122944 0.256157 0.672246
Si Si3 0.501107 0.560333 0.642714
Si Si4 0.359615 0.147346 0.513375
Si Si5 0.362960 0.939036 0.067779
Si Si6 0.836914 0.852326 0.276401
Si Si7 0.777580 0.836095 0.008938
Si Si8 0.273870 0.059701 0.340657
O O1 0.255130 0.755868 0.253349
O O2 0.172278 0.706347 0.061720
O O3 0.008502 0.733498 0.245680
O O4 0.140295 0.806600 0.103142
O O5 0.143508 0.296354 0.557172
O O6 0.109306 0.194345 0.644093
O O7 0.500000 0.577641 0.500000
O O8 0.539441 0.500000 0.639616
O O9 0.594098 0.594664 0.706244
O O10 0.361166 0.564217 0.703111
O O11 0.500000 0.131094 0.500000
O O12 0.302409 0.146329 0.657041
O O13 0.289079 0.104372 0.440122
O O14 0.366452 0.933094 0.216317
O O15 0.321255 0.000000 0.048109
O O16 0.500000 0.933620 0.000000
O O17 0.279154 0.891731 0.025272
O O18 0.847016 0.841473 0.130678
O O19 0.283661 0.000000 0.389952
#
# Coordination Sequence:
#
# PCOD9212586 Si02
#       8
#     8   8   8   8   8   8   8   8
#     4  10  24  43  68  96 125 183 221 272 328 390
#     4  11  25  44  66  95 134 172 227 273 329 396
#     4  10  21  42  68  94 130 173 223 268 321 397
#     4  12  25  41  65  96 133 174 213 271 335 391
#     4  10  23  41  67  97 130 174 219 270 331 393
#     4  11  25  40  63 100 132 169 216 268 333 395
#     4  10  23  41  63  94 135 167 217 268 325 398
#     4  10  23  44  67  96 128 172 226 271 325 396
#
# _framework density 21.456827000000001
#
# number of rings (size 3 to 8) (size 9 to 14) (size 15 to 20)
#    0.000    1.500    1.250    2.625    8.750    5.250 
#    0.000    0.000    0.000    2.250    0.000    0.000 
#    0.000    0.000    0.000    0.000    0.000    0.000 
#
# Total GULP energy -178638.805995 kJ/mol
# GULP energy per Si atom -5582.462687 kJ/mol
# Density = 2.140799 g / cm^3
# Si number density = 21.456827 Si / 1000 Ang^3
#
#
#
# Elastic Constant Matrix: (Units=GPa)
#
#
# Indices 1 2 3 4 5 6 
#
# 1 64.8957 16.0729 19.1146 0.0000 -0.2408 0.0000
# 2 16.0729 74.9168 5.2728 0.0000 22.1334 0.0000
# 3 19.1146 5.2728 48.6718 0.0000 -2.2491 0.0000
# 4 0.0000 0.0000 0.0000 28.7935 0.0000 3.9339
# 5 -0.2408 22.1334 -2.2491 0.0000 22.9166 0.0000
# 6 0.0000 0.0000 0.0000 3.9339 0.0000 28.7169
#
#
#
# Elastic Compliance Matrix: (Units=1/GPa)
#
#
# Indices 1 2 3 4 5 6 
#
# 1 0.018533 -0.004730 -0.006576 0.000000 0.004118 0.000000
# 2 -0.004730 0.020293 -0.001255 0.000000 -0.019772 0.000000
# 3 -0.006576 -0.001255 0.023423 0.000000 0.003441 0.000000
# 4 0.000000 0.000000 0.000000 0.035392 0.000000 -0.004848
# 5 0.004118 -0.019772 0.003441 0.000000 0.063114 0.000000
# 6 0.000000 0.000000 0.000000 -0.004848 0.000000 0.035487
#
#
# Mechanical properties :
#
#
# Convention : Reuss Voigt Hill
#
# Bulk Modulus (GPa) = 26.93333 29.93386 28.43360
# Shear Modulus (GPa) = 21.39150 25.95367 23.67258
#
# Velocity S-wave (km/s) = 3.16089 3.48167 3.32515
# Velocity P-wave (km/s) = 5.08932 5.49033 5.29362
#
# Compressibility (1/GPa) = 0.03712871
#
# Stress axis : x y z
#
# Youngs Moduli (GPa) = 53.95816 49.27903 42.69284
#
# Poissons Ratio (x) = 0.23308 0.28073
# Poissons Ratio (y) = 0.25521 0.05356
# Poissons Ratio (z) = 0.35481 0.06182
#
# Static dielectric constant tensor:
#      x y z
#    x 1.806740 0.000000 -0.037420 
#    y 0.000000 1.817100 0.000000 
#    z -0.037420 0.000000 1.795100 
# 
# From -- ./inp_files/135339.got.cif
#   From: 2010.05.17/outbox.cif.g08.bks.cpg/sg12_68_cif.got.tgz:135339.got - 2010.06.03 13:09:07.
