data_PCOD9212398
_publ_section_title
;
Structure prediction by ZEFSAII (Michael W. Deem and Ramdas Pophale) SiO2 
 PCOD9212398
Probable space group: C 2/M
;
_chemical_formula_sum "Si O2"
_cell_formula_units_Z 58
_cell_length_a 19.745401
_cell_length_b 18.091942
_cell_length_c 21.364452
_cell_angle_alpha 90.000000
_cell_angle_beta 156.983237
_cell_angle_gamma 90.000000
_cell_volume 2984.146432
_symmetry_space_group_name_H-M "C 2/M"
_symmetry_group_IT_number 12
_symmetry_cell_setting 'monoclinic'
loop_
_space_group_symop_operation_xyz
x,y,z
-x,y,-z
-x,-y,-z
x,-y,z
1/2+x,1/2+y,z
1/2-x,1/2+y,-z
1/2-x,1/2-y,-z
1/2+x,1/2-y,z
loop_
_atom_site_type_symbol
_atom_site_label
_atom_site_fract_x
_atom_site_fract_y
_atom_site_fract_z
Si Si1 0.096855 0.264628 0.320888
Si Si2 0.918720 0.918381 0.317370
Si Si3 0.333167 0.920567 0.667810
Si Si4 0.370527 0.153230 0.339915
Si Si5 0.188252 0.759331 0.824722
Si Si6 0.854938 0.612208 0.824159
Si Si7 0.500000 0.000000 0.500000
Si Si8 0.906148 0.226340 0.822244
O O1 0.250000 0.250000 0.500000
O O2 0.089334 0.351607 0.301415
O O3 0.136837 0.226244 0.288179
O O4 0.918131 0.243418 0.201562
O O5 0.835563 0.844573 0.216918
O O6 0.825584 0.919036 0.305136
O O7 0.125273 0.909107 0.495001
O O8 0.884673 0.000000 0.259329
O O9 0.403238 0.919267 0.798026
O O10 0.366356 0.000000 0.666594
O O11 0.500000 0.191508 0.500000
O O12 0.383034 0.199840 0.286733
O O13 0.429576 0.067593 0.392589
O O14 0.181466 0.161830 0.211809
O O15 0.387907 0.736659 0.000227
O O16 0.836254 0.699486 0.796106
O O17 0.000000 0.597806 0.000000
#
# Coordination Sequence:
#
# PCOD9212398 Si02
#       8
#     8   8   8   8   8   8   2   8
#     4  11  23  40  63  87 119 170 217 261 310 380
#     4  11  22  36  58  91 129 165 205 251 297 370
#     4  10  23  39  56  84 121 161 211 260 312 369
#     4  10  21  41  69  95 122 159 212 262 321 382
#     4  12  22  41  62  95 125 172 213 258 325 376
#     4  11  20  35  57  94 125 165 197 245 314 378
#     4   8  24  40  66 108 118 156 210 286 324 376
#     4  11  22  39  65  94 127 165 209 260 313 386
#
# _framework density 19.436043999999999
#
# number of rings (size 3 to 8) (size 9 to 14) (size 15 to 20)
#    0.414    0.828    4.138    2.483    1.931    2.207 
#    1.241    1.379    1.517    0.000    0.000    0.000 
#    0.000    0.000    0.000    0.000    0.000    0.000 
#
# Total GULP energy -161446.884210 kJ/mol
# GULP energy per Si atom -5567.133938 kJ/mol
# Density = 1.939181 g / cm^3
# Si number density = 19.436044 Si / 1000 Ang^3
#
#
#
# Elastic Constant Matrix: (Units=GPa)
#
#
# Indices 1 2 3 4 5 6 
#
# 1 72.1532 24.1592 8.1727 -0.0021 1.0242 -0.0011
# 2 24.1592 101.3158 12.8563 0.0030 -5.0011 0.0029
# 3 8.1727 12.8563 68.8970 -0.0050 -10.5468 -0.0023
# 4 -0.0021 0.0030 -0.0050 9.7012 -0.0009 7.6310
# 5 1.0242 -5.0011 -10.5468 -0.0009 28.4618 0.0025
# 6 -0.0011 0.0029 -0.0023 7.6310 0.0025 -9.4683
#
#
#
# Elastic Compliance Matrix: (Units=1/GPa)
#
#
# Indices 1 2 3 4 5 6 
#
# 1 0.015226 -0.003536 -0.001405 0.000004 -0.001690 0.000000
# 2 -0.003536 0.010966 -0.001391 -0.000005 0.001539 0.000000
# 3 -0.001405 -0.001391 0.015808 0.000007 0.005664 0.000003
# 4 0.000004 -0.000005 0.000007 0.063086 -0.000001 0.050844
# 5 -0.001690 0.001539 0.005664 -0.000001 0.037565 0.000008
# 6 0.000000 0.000000 0.000003 0.050844 0.000008 -0.064637
#
#
# Mechanical properties :
#
#
# Convention : Reuss Voigt Hill
#
# Bulk Modulus (GPa) = 34.08851 36.97138 35.52994
# Shear Modulus (GPa) = 49.77310 18.88415 34.32862
#
# Velocity S-wave (km/s) = 5.06599 3.12044 4.20722
# Velocity P-wave (km/s) = 7.19694 5.66094 6.47465
#
# Compressibility (1/GPa) = 0.02933540
#
# Stress axis : x y z
#
# Youngs Moduli (GPa) = 65.67512 91.19287 63.26027
#
# Poissons Ratio (x) = 0.32245 0.08888
# Poissons Ratio (y) = 0.23222 0.08801
# Poissons Ratio (z) = 0.09228 0.12688
#
# Static dielectric constant tensor:
#      x y z
#    x 1.684970 0.000000 0.001150 
#    y 0.000000 1.652910 -0.000020 
#    z 0.001150 -0.000020 1.737990 
# 
# From -- ./inp_files/278834.got.cif
#   From: 2010.05.17/outbox.cif.g08.bks.cpg/sg12_140_cif.got.tgz:278834.got - 2010.06.03 13:09:07.
