data_PCOD9212520
_publ_section_title
;
Structure prediction by ZEFSAII (Michael W. Deem and Ramdas Pophale) SiO2 
 PCOD9212520
Probable space group: C 2/M
;
_chemical_formula_sum "Si O2"
_cell_formula_units_Z 56
_cell_length_a 14.736545
_cell_length_b 19.270394
_cell_length_c 18.237293
_cell_angle_alpha 90.000000
_cell_angle_beta 26.013774
_cell_angle_gamma 90.000000
_cell_volume 2271.446974
_symmetry_space_group_name_H-M "C 2/M"
_symmetry_group_IT_number 12
_symmetry_cell_setting 'monoclinic'
loop_
_space_group_symop_operation_xyz
x,y,z
-x,y,-z
-x,-y,-z
x,-y,z
1/2+x,1/2+y,z
1/2-x,1/2+y,-z
1/2-x,1/2-y,-z
1/2+x,1/2-y,z
loop_
_atom_site_type_symbol
_atom_site_label
_atom_site_fract_x
_atom_site_fract_y
_atom_site_fract_z
Si Si1 0.234673 0.286146 0.125938
Si Si2 0.649553 0.418387 0.560372
Si Si3 0.777295 0.219266 0.255735
Si Si4 0.669304 0.084304 0.935761
Si Si5 0.789530 0.578014 0.931533
Si Si6 0.681946 0.215126 0.625668
Si Si7 0.705753 0.423596 0.687712
O O1 0.188976 0.261347 0.241105
O O2 0.198380 0.369059 0.144180
O O3 0.059260 0.260557 0.198159
O O4 0.473431 0.273701 0.935531
O O5 0.659402 0.500000 0.533668
O O6 0.405145 0.398647 0.742456
O O7 0.767699 0.366107 0.421411
O O8 0.742782 0.410607 0.574629
O O9 0.719969 0.259805 0.370371
O O10 0.727163 0.139120 0.310014
O O11 0.660835 0.000000 0.943638
O O12 0.500000 0.109312 0.000000
O O13 0.624841 0.105611 0.052191
O O14 0.864931 0.500000 0.861856
O O15 0.544009 0.573949 0.125689
O O16 0.750000 0.250000 0.500000
O O17 0.778602 0.500000 0.656295
#
# Coordination Sequence:
#
# PCOD9212520 Si02
#       7
#     8   8   8   8   8   8   8
#     4  10  23  40  64  89 125 169 214 266 317 390
#     4   9  18  35  60  95 133 168 207 266 334 387
#     4  10  21  42  65  93 123 166 221 265 318 388
#     4   8  14  29  58  94 130 170 216 266 324 387
#     4   8  15  30  56  89 127 162 201 254 311 373
#     4  12  24  41  65  91 128 172 213 265 330 394
#     4   8  14  30  58  90 125 162 199 250 312 373
#
# _framework density 24.653888999999999
#
# number of rings (size 3 to 8) (size 9 to 14) (size 15 to 20)
#    0.000    2.714    1.429    2.143    0.000    1.714 
#    0.000    5.714    0.000    1.714    0.000    9.000 
#    0.000    0.000    0.000    0.000    0.000    0.143 
#
# Total GULP energy -156525.315306 kJ/mol
# GULP energy per Si atom -5590.189832 kJ/mol
# Density = 2.459778 g / cm^3
# Si number density = 24.653889 Si / 1000 Ang^3
#
#
#
# Elastic Constant Matrix: (Units=GPa)
#
#
# Indices 1 2 3 4 5 6 
#
# 1 132.4792 38.7156 41.1217 -0.0164 8.4832 0.0041
# 2 38.7156 103.0123 10.0001 -0.0195 25.5120 0.0084
# 3 41.1217 10.0001 104.5409 -0.0885 1.3953 0.0226
# 4 -0.0164 -0.0195 -0.0885 21.0691 0.0230 6.1881
# 5 8.4832 25.5120 1.3953 0.0230 42.1502 0.0008
# 6 0.0041 0.0084 0.0226 6.1881 0.0008 17.2295
#
#
#
# Elastic Compliance Matrix: (Units=1/GPa)
#
#
# Indices 1 2 3 4 5 6 
#
# 1 0.009575 -0.003311 -0.003452 -0.000013 0.000191 0.000008
# 2 -0.003311 0.012670 0.000184 0.000021 -0.007008 -0.000013
# 3 -0.003452 0.000184 0.010903 0.000053 0.000223 -0.000033
# 4 -0.000013 0.000021 0.000053 0.053060 -0.000041 -0.019057
# 5 0.000191 -0.007008 0.000223 -0.000041 0.027921 0.000016
# 6 0.000008 -0.000013 -0.000033 -0.019057 0.000016 0.064884
#
#
# Mechanical properties :
#
#
# Convention : Reuss Voigt Hill
#
# Bulk Modulus (GPa) = 50.02608 57.74525 53.88566
# Shear Modulus (GPa) = 25.14643 32.76941 28.95792
#
# Velocity S-wave (km/s) = 3.19717 3.64974 3.43093
# Velocity P-wave (km/s) = 5.82792 6.42138 6.13183
#
# Compressibility (1/GPa) = 0.01998958
#
# Stress axis : x y z
#
# Youngs Moduli (GPa) = 104.43528 78.92813 91.71688
#
# Poissons Ratio (x) = 0.26132 0.31664
# Poissons Ratio (y) = 0.34578 -0.01687
# Poissons Ratio (z) = 0.36055 -0.01452
#
# Static dielectric constant tensor:
#      x y z
#    x 1.886740 -0.000020 -0.030750 
#    y -0.000020 1.989210 0.000120 
#    z -0.030750 0.000120 2.023250 
# 
# From -- ./inp_files/272343.got.cif
#   From: 2010.05.17/outbox.cif.g08.bks.cpg/sg12_137_cif.got.tgz:272343.got - 2010.06.03 13:09:07.
