data_PCOD9212368
_publ_section_title
;
Structure prediction by ZEFSAII (Michael W. Deem and Ramdas Pophale) SiO2 
 PCOD9212368
Probable space group: C 2/M
;
_chemical_formula_sum "Si O2"
_cell_formula_units_Z 36
_cell_length_a 4.891576
_cell_length_b 27.221730
_cell_length_c 11.990451
_cell_angle_alpha 90.000000
_cell_angle_beta 111.076304
_cell_angle_gamma 90.000000
_cell_volume 1489.804648
_symmetry_space_group_name_H-M "C 2/M"
_symmetry_group_IT_number 12
_symmetry_cell_setting 'monoclinic'
loop_
_space_group_symop_operation_xyz
x,y,z
-x,y,-z
-x,-y,-z
x,-y,z
1/2+x,1/2+y,z
1/2-x,1/2+y,-z
1/2-x,1/2-y,-z
1/2+x,1/2-y,z
loop_
_atom_site_type_symbol
_atom_site_label
_atom_site_fract_x
_atom_site_fract_y
_atom_site_fract_z
Si Si1 0.905263 0.283337 0.153246
Si Si2 0.676729 0.591611 0.633268
Si Si3 0.796579 0.053664 0.118900
Si Si4 0.500000 0.363185 0.000000
Si Si5 0.333999 0.158938 0.369559
O O1 0.699291 0.235571 0.139133
O O2 0.887371 0.305253 0.274803
O O3 0.767906 0.327199 0.061630
O O4 0.500000 0.570685 0.500000
O O5 0.731427 0.560420 0.752548
O O6 0.488570 0.640173 0.643967
O O7 0.987725 0.609499 0.633791
O O8 0.973378 0.100205 0.099909
O O9 0.933067 0.000000 0.118505
O O10 0.500000 0.055270 0.000000
O O11 0.500000 0.181046 0.500000
#
# Coordination Sequence:
#
# PCOD9212368 Si02
#       5
#     8   8   8   4   8
#     4  12  26  41  65  99 130 176 230 272 333 399
#     4  10  21  42  70  99 135 182 222 271 340 401
#     4  11  25  43  71 103 133 178 228 278 343 407
#     4  12  25  44  68  88 140 178 215 286 336 402
#     4  10  21  41  68  95 133 180 222 273 337 396
#
# _framework density 24.164242999999999
#
# number of rings (size 3 to 8) (size 9 to 14) (size 15 to 20)
#    0.000    1.111    2.222    3.667    3.111    1.333 
#    0.000    0.000    0.000    4.000    0.000    0.000 
#    0.000    0.000    0.000    0.000    0.000    0.000 
#
# Total GULP energy -100673.097884 kJ/mol
# GULP energy per Si atom -5592.949882 kJ/mol
# Density = 2.410924 g / cm^3
# Si number density = 24.164243 Si / 1000 Ang^3
#
#
#
# Elastic Constant Matrix: (Units=GPa)
#
#
# Indices 1 2 3 4 5 6 
#
# 1 66.8725 6.0761 9.1454 0.0000 -9.9118 0.0000
# 2 6.0761 94.2983 56.5071 0.0000 -1.1333 0.0000
# 3 9.1454 56.5071 198.9163 0.0000 -9.7210 0.0000
# 4 0.0000 0.0000 0.0000 -648.4349 0.0000 543.6573
# 5 -9.9118 -1.1333 -9.7210 0.0000 34.1026 0.0000
# 6 0.0000 0.0000 0.0000 543.6573 0.0000 -438.2114
#
#
#
# Elastic Compliance Matrix: (Units=1/GPa)
#
#
# Indices 1 2 3 4 5 6 
#
# 1 0.015726 -0.000792 -0.000280 0.000000 0.004465 0.000000
# 2 -0.000792 0.012833 -0.003650 0.000000 -0.000844 0.000000
# 3 -0.000280 -0.003650 0.006153 0.000000 0.001551 0.000000
# 4 0.000000 0.000000 0.000000 0.038400 0.000000 0.047641
# 5 0.004465 -0.000844 0.001551 0.000000 0.031035 0.000000
# 6 0.000000 0.000000 0.000000 0.047641 0.000000 0.056822
#
#
# Mechanical properties :
#
#
# Convention : Reuss Voigt Hill
#
# Bulk Modulus (GPa) = 39.57683 55.94938 47.76310
# Shear Modulus (GPa) = 27.95856 -191.28485 -81.66314
#
# Velocity S-wave (km/s) = 3.40519 -8.90686 -5.81966
# Velocity P-wave (km/s) = 5.64573 9.08692 5.03477
#
# Compressibility (1/GPa) = 0.02526731
#
# Stress axis : x y z
#
# Youngs Moduli (GPa) = 63.58982 77.92428 162.52517
#
# Poissons Ratio (x) = 0.06171 0.04548
# Poissons Ratio (y) = 0.05036 0.59328
# Poissons Ratio (z) = 0.01780 0.28445
#
# Static dielectric constant tensor:
#      x y z
#    x 1.909180 0.000000 0.043660 
#    y 0.000000 1.887530 0.000000 
#    z 0.043660 0.000000 1.997760 
# 
# From -- ./inp_files/115047.got.cif
#   From: 2010.05.17/outbox.cif.g08.bks.cpg/sg12_58_cif.got.tgz:115047.got - 2010.06.03 13:09:07.
