data_PCOD9212878
_publ_section_title
;
Structure prediction by ZEFSAII (Michael W. Deem and Ramdas Pophale) SiO2 
 PCOD9212878
Probable space group: C 2/M
;
_chemical_formula_sum "Si O2"
_cell_formula_units_Z 64
_cell_length_a 10.522623
_cell_length_b 25.808190
_cell_length_c 15.828539
_cell_angle_alpha 90.000000
_cell_angle_beta 124.619652
_cell_angle_gamma 90.000000
_cell_volume 3537.458726
_symmetry_space_group_name_H-M "C 2/M"
_symmetry_group_IT_number 12
_symmetry_cell_setting 'monoclinic'
loop_
_space_group_symop_operation_xyz
x,y,z
-x,y,-z
-x,-y,-z
x,-y,z
1/2+x,1/2+y,z
1/2-x,1/2+y,-z
1/2-x,1/2-y,-z
1/2+x,1/2-y,z
loop_
_atom_site_type_symbol
_atom_site_label
_atom_site_fract_x
_atom_site_fract_y
_atom_site_fract_z
Si Si1 0.597158 0.771439 0.116382
Si Si2 0.431261 0.736754 0.567434
Si Si3 0.107122 0.643166 0.870408
Si Si4 0.650747 0.061320 0.179730
Si Si5 0.525866 0.438691 0.605235
Si Si6 0.710395 0.636336 0.898058
Si Si7 0.906605 0.141526 0.682076
Si Si8 0.317873 0.814726 0.277701
O O1 0.485431 0.804853 0.135001
O O2 0.711527 0.813737 0.117413
O O3 0.691478 0.728589 0.202497
O O4 0.500000 0.749722 0.000000
O O5 0.500000 0.726330 0.500000
O O6 0.250000 0.750000 0.500000
O O7 0.455304 0.687982 0.638014
O O8 0.526740 0.784709 0.640555
O O9 0.155928 0.649295 0.792934
O O10 0.993150 0.594895 0.842643
O O11 0.249621 0.638779 0.988789
O O12 0.704035 0.086838 0.111302
O O13 0.798552 0.070311 0.296888
O O14 0.621849 0.000000 0.162811
O O15 0.500000 0.420283 0.500000
O O16 0.498275 0.500000 0.597522
O O17 0.415150 0.409211 0.628047
O O18 0.533685 0.635789 0.803916
O O19 0.747162 0.155456 0.666014
#
# Coordination Sequence:
#
# PCOD9212878 Si02
#       8
#     8   8   8   8   8   8   8   8
#     4   9  19  33  53  77 108 149 191 238 278 328
#     4  12  25  42  59  84 117 158 202 240 290 350
#     4  10  22  34  52  83 115 146 192 236 282 352
#     4   9  18  36  60  84 112 144 190 251 302 347
#     4   9  19  38  64  88 106 140 194 248 300 344
#     4   9  19  35  54  83 112 144 191 237 287 341
#     4  11  22  37  57  84 116 153 190 240 290 344
#     4  12  24  36  53  81 118 157 193 233 284 355
#
# _framework density 18.092084
#
# number of rings (size 3 to 8) (size 9 to 14) (size 15 to 20)
#    0.000    1.875    2.500    2.250    1.750    3.000 
#    0.000    0.625    0.000    0.000    0.000    8.750 
#    0.000    0.000    0.000    0.000    0.000    0.000 
#
# Total GULP energy -178722.862498 kJ/mol
# GULP energy per Si atom -5585.089453 kJ/mol
# Density = 1.805091 g / cm^3
# Si number density = 18.092084 Si / 1000 Ang^3
#
#
#
# Elastic Constant Matrix: (Units=GPa)
#
#
# Indices 1 2 3 4 5 6 
#
# 1 69.1834 26.5024 37.4583 0.0000 -11.7575 0.0000
# 2 26.5024 60.6432 31.6935 0.0000 1.6941 0.0000
# 3 37.4583 31.6935 89.6894 0.0000 -6.8414 0.0000
# 4 0.0000 0.0000 0.0000 20.4625 0.0000 -5.4948
# 5 -11.7575 1.6941 -6.8414 0.0000 27.7123 0.0000
# 6 0.0000 0.0000 0.0000 -5.4948 0.0000 -0.9585
#
#
#
# Elastic Compliance Matrix: (Units=1/GPa)
#
#
# Indices 1 2 3 4 5 6 
#
# 1 0.021620 -0.006471 -0.006129 0.000000 0.008055 0.000000
# 2 -0.006471 0.022419 -0.005640 0.000000 -0.005508 0.000000
# 3 -0.006129 -0.005640 0.015828 0.000000 0.001652 0.000000
# 4 0.000000 0.000000 0.000000 0.019244 0.000000 -0.110325
# 5 0.008055 -0.005508 0.001652 0.000000 0.040247 0.000000
# 6 0.000000 0.000000 0.000000 -0.110325 0.000000 -0.410845
#
#
# Mechanical properties :
#
#
# Convention : Reuss Voigt Hill
#
# Bulk Modulus (GPa) = 42.75478 45.64716 44.20097
# Shear Modulus (GPa) = -20.22560 17.70070 -1.26245
#
# Velocity S-wave (km/s) = -3.34717 3.13128 -0.83625
# Velocity P-wave (km/s) = 2.95720 6.19342 4.85301
#
# Compressibility (1/GPa) = 0.02338920
#
# Stress axis : x y z
#
# Youngs Moduli (GPa) = 46.25281 44.60469 63.17832
#
# Poissons Ratio (x) = 0.28862 0.38720
# Poissons Ratio (y) = 0.29928 0.35633
# Poissons Ratio (z) = 0.28347 0.25157
#
# Static dielectric constant tensor:
#      x y z
#    x 1.614570 0.000000 0.011340 
#    y 0.000000 1.606930 0.000000 
#    z 0.011340 0.000000 1.639300 
# 
# From -- ./inp_files/200960.got.cif
#   From: 2010.05.17/outbox.cif.g08.bks.cpg/sg12_101_cif.got.tgz:200960.got - 2010.06.03 13:09:07.
