data_PCOD9212475
_publ_section_title
;
Structure prediction by ZEFSAII (Michael W. Deem and Ramdas Pophale) SiO2 
 PCOD9212475
Probable space group: C 2/M
;
_chemical_formula_sum "Si O2"
_cell_formula_units_Z 44
_cell_length_a 16.421221
_cell_length_b 25.683469
_cell_length_c 13.274239
_cell_angle_alpha 90.000000
_cell_angle_beta 157.397482
_cell_angle_gamma 90.000000
_cell_volume 2151.690034
_symmetry_space_group_name_H-M "C 2/M"
_symmetry_group_IT_number 12
_symmetry_cell_setting 'monoclinic'
loop_
_space_group_symop_operation_xyz
x,y,z
-x,y,-z
-x,-y,-z
x,-y,z
1/2+x,1/2+y,z
1/2-x,1/2+y,-z
1/2-x,1/2-y,-z
1/2+x,1/2-y,z
loop_
_atom_site_type_symbol
_atom_site_label
_atom_site_fract_x
_atom_site_fract_y
_atom_site_fract_z
Si Si1 0.097692 0.207365 0.009425
Si Si2 0.501557 0.904306 0.891671
Si Si3 0.457760 0.369878 0.702481
Si Si4 0.500000 0.866900 0.500000
Si Si5 0.351378 0.939960 0.158143
Si Si6 0.194300 0.190632 0.796561
O O1 0.296607 0.170267 0.260748
O O2 0.176208 0.256841 0.036456
O O3 0.931885 0.169118 0.766363
O O4 0.000000 0.229000 0.000000
O O5 0.588009 0.933478 0.890715
O O6 0.263228 0.887827 0.593643
O O7 0.500000 0.930942 0.000000
O O8 0.650802 0.853320 0.071737
O O9 0.591792 0.335199 0.777270
O O10 0.612142 0.418509 0.900708
O O11 0.492826 0.903444 0.392516
O O12 0.370681 0.000000 0.208615
O O13 0.000000 0.202684 0.500000
#
# Coordination Sequence:
#
# PCOD9212475 Si02
#       6
#     8   8   8   4   8   8
#     4  11  22  36  59  91 122 159 202 241 291 358
#     4  11  22  39  62  87 121 160 198 251 299 353
#     4  10  23  40  59  86 122 160 201 247 297 354
#     4  10  21  42  62  88 128 158 195 248 300 360
#     4  10  23  41  65  91 117 156 203 253 307 357
#     4  11  21  37  59  86 122 163 200 238 294 358
#
# _framework density 20.449041999999999
#
# number of rings (size 3 to 8) (size 9 to 14) (size 15 to 20)
#    0.000    1.455    2.727    2.455    0.000    1.818 
#    0.000    0.909    0.000    6.000    0.000    0.000 
#    0.000    0.000    0.000    0.000    0.000    0.000 
#
# Total GULP energy -122853.109458 kJ/mol
# GULP energy per Si atom -5584.232248 kJ/mol
# Density = 2.040250 g / cm^3
# Si number density = 20.449042 Si / 1000 Ang^3
#
#
#
# Elastic Constant Matrix: (Units=GPa)
#
#
# Indices 1 2 3 4 5 6 
#
# 1 53.4520 -3.9380 -19.5796 0.0000 2.9048 0.0000
# 2 -3.9380 82.0632 -5.4658 0.0001 8.3034 0.0000
# 3 -19.5796 -5.4658 46.3127 0.0002 -0.7015 0.0002
# 4 0.0000 0.0001 0.0002 10.3097 0.0001 -7.7778
# 5 2.9048 8.3034 -0.7015 0.0001 25.8499 0.0001
# 6 0.0000 0.0000 0.0002 -7.7778 0.0001 13.1536
#
#
#
# Elastic Compliance Matrix: (Units=1/GPa)
#
#
# Indices 1 2 3 4 5 6 
#
# 1 0.022586 0.002029 0.009744 -0.000001 -0.002925 -0.000001
# 2 0.002029 0.012872 0.002312 0.000000 -0.004300 0.000000
# 3 0.009744 0.002312 0.025967 -0.000002 -0.001133 -0.000001
# 4 -0.000001 0.000000 -0.000002 0.175114 -0.000001 0.103546
# 5 -0.002925 -0.004300 -0.001133 -0.000001 0.040364 -0.000001
# 6 -0.000001 0.000000 -0.000001 0.103546 -0.000001 0.137252
#
#
# Mechanical properties :
#
#
# Convention : Reuss Voigt Hill
#
# Bulk Modulus (GPa) = 11.16144 13.76236 12.46190
# Shear Modulus (GPa) = 12.02352 23.91671 17.97012
#
# Velocity S-wave (km/s) = 2.42745 3.42362 2.96763
# Velocity P-wave (km/s) = 3.65058 4.73000 4.22490
#
# Compressibility (1/GPa) = 0.08959419
#
# Stress axis : x y z
#
# Youngs Moduli (GPa) = 44.27523 77.68717 38.50984
#
# Poissons Ratio (x) = -0.15761 -0.37523
# Poissons Ratio (y) = -0.08983 -0.08902
# Poissons Ratio (z) = -0.43141 -0.17959
#
# Static dielectric constant tensor:
#      x y z
#    x 1.777750 0.000000 -0.024070 
#    y 0.000000 1.698130 0.000000 
#    z -0.024070 0.000000 1.693790 
# 
# From -- ./inp_files/11654.got.cif
#   From: 2010.05.17/outbox.cif.g08.bks.cpg/sg12_6_cif.got.tgz:11654.got - 2010.06.03 13:09:07.
