data_PCOD9212784
_publ_section_title
;
Structure prediction by ZEFSAII (Michael W. Deem and Ramdas Pophale) SiO2 
 PCOD9212784
Probable space group: C 2/M
;
_chemical_formula_sum "Si O2"
_cell_formula_units_Z 32
_cell_length_a 11.844116
_cell_length_b 25.374777
_cell_length_c 8.272281
_cell_angle_alpha 90.000000
_cell_angle_beta 35.706339
_cell_angle_gamma 90.000000
_cell_volume 1451.003823
_symmetry_space_group_name_H-M "C 2/M"
_symmetry_group_IT_number 12
_symmetry_cell_setting 'monoclinic'
loop_
_space_group_symop_operation_xyz
x,y,z
-x,y,-z
-x,-y,-z
x,-y,z
1/2+x,1/2+y,z
1/2-x,1/2+y,-z
1/2-x,1/2-y,-z
1/2+x,1/2-y,z
loop_
_atom_site_type_symbol
_atom_site_label
_atom_site_fract_x
_atom_site_fract_y
_atom_site_fract_z
Si Si1 0.042936 0.245188 0.140691
Si Si2 0.431455 0.636713 0.751359
Si Si3 0.656014 0.561173 0.675864
Si Si4 0.013483 0.359289 0.785632
O O1 0.996092 0.184042 0.220858
O O2 0.938191 0.298877 0.322643
O O3 0.250000 0.250000 0.000000
O O4 0.000000 0.252168 0.000000
O O5 0.500000 0.657504 0.500000
O O6 0.538698 0.582207 0.657964
O O7 0.203380 0.630252 0.022656
O O8 0.708730 0.500000 0.609411
O O9 0.841181 0.598977 0.460684
O O10 0.500000 0.569434 0.000000
O O11 0.000000 0.364120 0.000000
#
# Coordination Sequence:
#
# PCOD9212784 Si02
#       4
#     8   8   8   8
#     4   9  20  40  68 103 144 186 230 287 356 429
#     4  11  22  42  68 104 138 178 231 289 354 429
#     4  11  26  46  67  95 133 182 238 294 354 417
#     4  10  21  44  67  99 135 177 230 285 350 425
#
# _framework density 22.053698000000001
#
# number of rings (size 3 to 8) (size 9 to 14) (size 15 to 20)
#    0.000    1.750    2.500    0.750    0.000    4.000 
#   13.500    2.500    0.000    0.000    0.000    0.000 
#    0.000    0.000    0.000    0.000    0.000    0.000 
#
# Total GULP energy -89086.739227 kJ/mol
# GULP energy per Si atom -5567.921202 kJ/mol
# Density = 2.200350 g / cm^3
# Si number density = 22.053698 Si / 1000 Ang^3
#
#
#
# Elastic Constant Matrix: (Units=GPa)
#
#
# Indices 1 2 3 4 5 6 
#
# 1 93.6664 34.7768 38.9051 0.0000 -23.7078 0.0000
# 2 34.7768 184.5436 85.6867 0.0000 -15.4875 0.0000
# 3 38.9051 85.6867 96.1202 0.0000 -33.0948 0.0000
# 4 0.0000 0.0000 0.0000 31.5458 0.0000 -19.8833
# 5 -23.7078 -15.4875 -33.0948 0.0000 38.5726 0.0000
# 6 0.0000 0.0000 0.0000 -19.8833 0.0000 33.9036
#
#
#
# Elastic Compliance Matrix: (Units=1/GPa)
#
#
# Indices 1 2 3 4 5 6 
#
# 1 0.013566 -0.000727 -0.002941 0.000000 0.005523 0.000000
# 2 -0.000727 0.009947 -0.010434 0.000000 -0.005405 0.000000
# 3 -0.002941 -0.010434 0.026725 0.000000 0.016933 0.000000
# 4 0.000000 0.000000 0.000000 0.050289 0.000000 0.029493
# 5 0.005523 -0.005405 0.016933 0.000000 0.041678 0.000000
# 6 0.000000 0.000000 0.000000 0.029493 0.000000 0.046792
#
#
# Mechanical properties :
#
#
# Convention : Reuss Voigt Hill
#
# Bulk Modulus (GPa) = 45.38498 77.00749 61.19623
# Shear Modulus (GPa) = 22.26721 35.13516 28.70118
#
# Velocity S-wave (km/s) = 3.18100 3.99578 3.61144
# Velocity P-wave (km/s) = 5.84086 7.50215 6.72302
#
# Compressibility (1/GPa) = 0.02203372
#
# Stress axis : x y z
#
# Youngs Moduli (GPa) = 73.71599 100.53475 37.41761
#
# Poissons Ratio (x) = 0.07314 0.11004
# Poissons Ratio (y) = 0.05363 0.39041
# Poissons Ratio (z) = 0.21678 1.04896
#
# Static dielectric constant tensor:
#      x y z
#    x 1.954550 0.000000 0.015430 
#    y 0.000000 1.770660 0.000000 
#    z 0.015430 0.000000 1.877850 
# 
# From -- ./inp_files/40078.got.cif
#   From: 2010.05.17/outbox.cif.g08.bks.cpg/sg12_21_cif.got.tgz:40078.got - 2010.06.03 13:09:07.
