data_PCOD9212820
_publ_section_title
;
Structure prediction by ZEFSAII (Michael W. Deem and Ramdas Pophale) SiO2 
 PCOD9212820
Probable space group: C 2/M
;
_chemical_formula_sum "Si O2"
_cell_formula_units_Z 50
_cell_length_a 15.683919
_cell_length_b 15.324934
_cell_length_c 11.716077
_cell_angle_alpha 90.000000
_cell_angle_beta 59.692346
_cell_angle_gamma 90.000000
_cell_volume 2431.147562
_symmetry_space_group_name_H-M "C 2/M"
_symmetry_group_IT_number 12
_symmetry_cell_setting 'monoclinic'
loop_
_space_group_symop_operation_xyz
x,y,z
-x,y,-z
-x,-y,-z
x,-y,z
1/2+x,1/2+y,z
1/2-x,1/2+y,-z
1/2-x,1/2-y,-z
1/2+x,1/2-y,z
loop_
_atom_site_type_symbol
_atom_site_label
_atom_site_fract_x
_atom_site_fract_y
_atom_site_fract_z
Si Si1 0.388458 0.643364 0.232291
Si Si2 0.421912 0.731543 0.790551
Si Si3 0.237897 0.354660 0.519144
Si Si4 0.000000 0.000000 0.000000
Si Si5 0.116999 0.292675 0.937693
Si Si6 0.786937 0.099412 0.743603
Si Si7 0.989145 0.597647 0.371117
O O1 0.474166 0.684330 0.253635
O O2 0.302457 0.608242 0.371148
O O3 0.440453 0.575490 0.113509
O O4 0.350116 0.722871 0.179881
O O5 0.360391 0.669127 0.750187
O O6 0.443411 0.826215 0.724478
O O7 0.370869 0.748946 0.947073
O O8 0.250000 0.250000 0.500000
O O9 0.277671 0.385948 0.614453
O O10 0.123966 0.381417 0.585040
O O11 0.181363 0.377883 0.872043
O O12 0.000000 0.308108 0.000000
O O13 0.816643 0.000000 0.747665
O O14 0.014433 0.500000 0.313301
O O15 0.000000 0.599445 0.500000
#
# Coordination Sequence:
#
# PCOD9212820 Si02
#       7
#     8   8   8   2   8   8   8
#     4  11  24  41  70  98 134 185 230 282 341 399
#     4  11  23  44  66  96 143 180 224 280 352 413
#     4  12  22  44  71  98 136 181 227 284 357 415
#     4  12  24  44  68 102 136 184 248 280 332 412
#     4  10  21  45  68  92 129 184 234 277 340 403
#     4  12  27  41  66 106 140 178 225 285 352 426
#     4  11  25  44  68 101 134 174 236 290 343 414
#
# _framework density 20.566420000000001
#
# number of rings (size 3 to 8) (size 9 to 14) (size 15 to 20)
#    0.000    0.800    5.600    2.880    3.360    0.960 
#    0.000    0.800    0.000    0.000    0.000    0.000 
#    0.000    0.000    0.000    0.000    0.000    0.000 
#
# Total GULP energy -139560.845727 kJ/mol
# GULP energy per Si atom -5582.433829 kJ/mol
# Density = 2.051961 g / cm^3
# Si number density = 20.566420 Si / 1000 Ang^3
#
#
#
# Elastic Constant Matrix: (Units=GPa)
#
#
# Indices 1 2 3 4 5 6 
#
# 1 84.9595 55.1686 49.8797 0.0000 17.4195 0.0000
# 2 55.1686 151.5210 37.8443 0.0000 -0.8306 0.0000
# 3 49.8797 37.8443 113.0685 0.0000 3.4299 0.0000
# 4 0.0000 0.0000 0.0000 54.0170 0.0000 -22.1416
# 5 17.4195 -0.8306 3.4299 0.0000 22.5382 0.0000
# 6 0.0000 0.0000 0.0000 -22.1416 0.0000 18.6953
#
#
#
# Elastic Compliance Matrix: (Units=1/GPa)
#
#
# Indices 1 2 3 4 5 6 
#
# 1 0.024869 -0.007151 -0.008023 0.000000 -0.018263 0.000000
# 2 -0.007151 0.009267 -0.000126 0.000000 0.005888 0.000000
# 3 -0.008023 -0.000126 0.012295 0.000000 0.004326 0.000000
# 4 0.000000 0.000000 0.000000 0.035979 0.000000 0.042612
# 5 -0.018263 0.005888 0.004326 0.000000 0.058043 0.000000
# 6 0.000000 0.000000 0.000000 0.042612 0.000000 0.103957
#
#
# Mechanical properties :
#
#
# Convention : Reuss Voigt Hill
#
# Bulk Modulus (GPa) = 63.16914 70.59269 66.88091
# Shear Modulus (GPa) = 17.83885 32.82717 25.33301
#
# Velocity S-wave (km/s) = 2.94832 3.99952 3.51346
# Velocity P-wave (km/s) = 6.50934 7.46505 7.00352
#
# Compressibility (1/GPa) = 0.01583052
#
# Stress axis : x y z
#
# Youngs Moduli (GPa) = 40.21083 107.90920 81.33688
#
# Poissons Ratio (x) = 0.77165 0.65260
# Poissons Ratio (y) = 0.28754 0.01022
# Poissons Ratio (z) = 0.32263 0.01356
#
# Static dielectric constant tensor:
#      x y z
#    x 1.736570 0.000000 -0.004640 
#    y 0.000000 1.725570 0.000000 
#    z -0.004640 0.000000 1.727770 
# 
# From -- ./inp_files/143675.got.cif
#   From: 2010.05.17/outbox.cif.g08.bks.cpg/sg12_72_cif.got.tgz:143675.got - 2010.06.03 13:09:07.
