data_PCOD9212741
_publ_section_title
;
Structure prediction by ZEFSAII (Michael W. Deem and Ramdas Pophale) SiO2 
 PCOD9212741
Probable space group: C 2/M
;
_chemical_formula_sum "Si O2"
_cell_formula_units_Z 32
_cell_length_a 14.147908
_cell_length_b 13.902910
_cell_length_c 18.563185
_cell_angle_alpha 90.000000
_cell_angle_beta 20.277785
_cell_angle_gamma 90.000000
_cell_volume 1265.446771
_symmetry_space_group_name_H-M "C 2/M"
_symmetry_group_IT_number 12
_symmetry_cell_setting 'monoclinic'
loop_
_space_group_symop_operation_xyz
x,y,z
-x,y,-z
-x,-y,-z
x,-y,z
1/2+x,1/2+y,z
1/2-x,1/2+y,-z
1/2-x,1/2-y,-z
1/2+x,1/2-y,z
loop_
_atom_site_type_symbol
_atom_site_label
_atom_site_fract_x
_atom_site_fract_y
_atom_site_fract_z
Si Si1 0.136808 0.612914 0.471800
Si Si2 0.922655 0.731824 0.736830
Si Si3 0.752774 0.886151 0.999487
Si Si4 0.772398 0.110988 0.725684
O O1 0.146103 0.500000 0.457418
O O2 0.457574 0.638103 0.244931
O O3 0.000000 0.659902 0.500000
O O4 0.927205 0.636908 0.683713
O O5 0.805721 0.816371 0.768760
O O6 0.250000 0.750000 0.500000
O O7 0.798457 0.687582 0.898533
O O8 0.756286 0.000000 0.019244
O O9 0.510946 0.878090 0.114339
O O10 0.000000 0.123107 0.500000
O O11 0.796617 0.000000 0.734787
#
# Coordination Sequence:
#
# PCOD9212741 Si02
#       4
#     8   8   8   8
#     4  10  24  47  71 102 144 186 236 296 358 429
#     4  12  24  41  71 107 141 185 238 293 357 428
#     4  10  23  47  76 102 141 191 237 295 361 425
#     4  10  21  43  71 103 144 186 237 298 357 423
#
# _framework density 25.287512
#
# number of rings (size 3 to 8) (size 9 to 14) (size 15 to 20)
#    0.000    1.500    2.500    1.500    0.000    3.000 
#    4.500    3.750    0.000    6.000    0.000    0.000 
#    0.000    0.000    0.000    0.000    0.000    0.000 
#
# Total GULP energy -89421.006165 kJ/mol
# GULP energy per Si atom -5588.812885 kJ/mol
# Density = 2.522996 g / cm^3
# Si number density = 25.287512 Si / 1000 Ang^3
#
#
#
# Elastic Constant Matrix: (Units=GPa)
#
#
# Indices 1 2 3 4 5 6 
#
# 1 123.7080 70.0377 82.2672 -0.1784 25.0193 -0.1727
# 2 70.0377 203.0866 84.6509 -0.0598 10.1015 -0.0074
# 3 82.2672 84.6509 124.0452 -0.3753 12.9331 -0.4015
# 4 -0.1784 -0.0598 -0.3753 214.7490 -0.2100 347.4869
# 5 25.0193 10.1015 12.9331 -0.2100 57.2760 -0.4262
# 6 -0.1727 -0.0074 -0.4015 347.4869 -0.4262 624.3913
#
#
#
# Elastic Compliance Matrix: (Units=1/GPa)
#
#
# Indices 1 2 3 4 5 6 
#
# 1 0.015859 -0.001476 -0.009028 -0.000001 -0.004629 -0.000004
# 2 -0.001476 0.007020 -0.003840 -0.000015 0.000274 0.000006
# 3 -0.009028 -0.003840 0.016578 0.000072 0.000877 -0.000031
# 4 -0.000001 -0.000015 0.000072 0.046806 -0.000035 -0.026048
# 5 -0.004629 0.000274 0.000877 -0.000035 0.019235 0.000032
# 6 -0.000004 0.000006 -0.000031 -0.026048 0.000032 0.016098
#
#
# Mechanical properties :
#
#
# Convention : Reuss Voigt Hill
#
# Bulk Modulus (GPa) = 92.86020 102.75017 97.80518
# Shear Modulus (GPa) = 32.49408 193.54218 113.01813
#
# Velocity S-wave (km/s) = 3.58856 8.75801 6.69255
# Velocity P-wave (km/s) = 7.34655 11.95790 9.92379
#
# Compressibility (1/GPa) = 0.01076888
#
# Stress axis : x y z
#
# Youngs Moduli (GPa) = 63.05586 142.44686 60.31971
#
# Poissons Ratio (x) = 0.21025 0.54456
# Poissons Ratio (y) = 0.09307 0.23165
# Poissons Ratio (z) = 0.56926 0.54705
#
# Static dielectric constant tensor:
#      x y z
#    x 1.932350 -0.000330 -0.545630 
#    y -0.000330 2.109060 -0.000730 
#    z -0.545630 -0.000730 1.252810 
# 
# From -- ./inp_files/310978.got.cif
#   From: 2010.05.17/outbox.cif.g08.bks.cpg/sg12_156_cif.got.tgz:310978.got - 2010.06.03 13:09:07.
