data_PCOD9212512
_publ_section_title
;
Structure prediction by ZEFSAII (Michael W. Deem and Ramdas Pophale) SiO2 
 PCOD9212512
Probable space group: C 2/M
;
_chemical_formula_sum "Si O2"
_cell_formula_units_Z 64
_cell_length_a 13.905310
_cell_length_b 18.080905
_cell_length_c 22.854698
_cell_angle_alpha 90.000000
_cell_angle_beta 32.596377
_cell_angle_gamma 90.000000
_cell_volume 3095.547130
_symmetry_space_group_name_H-M "C 2/M"
_symmetry_group_IT_number 12
_symmetry_cell_setting 'monoclinic'
loop_
_space_group_symop_operation_xyz
x,y,z
-x,y,-z
-x,-y,-z
x,-y,z
1/2+x,1/2+y,z
1/2-x,1/2+y,-z
1/2-x,1/2-y,-z
1/2+x,1/2-y,z
loop_
_atom_site_type_symbol
_atom_site_label
_atom_site_fract_x
_atom_site_fract_y
_atom_site_fract_z
Si Si1 0.627156 0.085680 0.262998
Si Si2 0.124499 0.723398 0.884926
Si Si3 0.592095 0.085171 0.831128
Si Si4 0.758090 0.412678 0.923488
Si Si5 0.708462 0.192499 0.573430
Si Si6 0.483510 0.681524 0.276016
Si Si7 0.941991 0.852475 0.164957
Si Si8 0.988062 0.086913 0.389957
O O1 0.732362 0.107420 0.149457
O O2 0.460021 0.140007 0.354971
O O3 0.773274 0.095271 0.238465
O O4 0.570710 0.000000 0.286327
O O5 0.054496 0.642829 0.901670
O O6 0.324260 0.714647 0.805586
O O7 0.116671 0.773343 0.831191
O O8 0.000000 0.753224 0.000000
O O9 0.455137 0.099670 0.848893
O O10 0.799928 0.094439 0.708241
O O11 0.567165 0.000000 0.862284
O O12 0.718632 0.500000 0.946082
O O13 0.612917 0.374654 0.038691
O O14 0.750000 0.250000 0.500000
O O15 0.653658 0.249412 0.652310
O O16 0.874649 0.137112 0.492495
O O17 0.487402 0.648701 0.209580
O O18 0.448199 0.621217 0.345524
O O19 0.942623 0.000000 0.415959
#
# Coordination Sequence:
#
# PCOD9212512 Si02
#       8
#     8   8   8   8   8   8   8   8
#     4  11  23  41  65  94 130 171 214 261 314 378
#     4  11  22  36  59  89 124 166 211 251 309 378
#     4   9  20  38  60  88 122 157 207 264 315 369
#     4  10  22  40  62  93 131 170 210 254 307 378
#     4  10  21  42  65  88 126 163 210 264 321 373
#     4  10  23  40  60  95 128 163 208 258 316 376
#     4  12  24  38  64  92 132 170 205 255 313 380
#     4   9  19  40  68  92 120 161 208 266 320 371
#
# _framework density 20.674858
#
# number of rings (size 3 to 8) (size 9 to 14) (size 15 to 20)
#    0.000    1.750    1.250    2.625    1.750    3.250 
#    0.000    6.875    0.000    6.750    0.000    0.000 
#    0.000    0.000    0.000    0.000    0.000    0.000 
#
# Total GULP energy -178744.633713 kJ/mol
# GULP energy per Si atom -5585.769804 kJ/mol
# Density = 2.062780 g / cm^3
# Si number density = 20.674858 Si / 1000 Ang^3
#
#
#
# Elastic Constant Matrix: (Units=GPa)
#
#
# Indices 1 2 3 4 5 6 
#
# 1 65.6296 14.7160 10.5583 0.0004 -2.3394 0.0002
# 2 14.7160 90.5839 34.8858 0.0010 -7.8272 0.0001
# 3 10.5583 34.8858 58.8897 0.0070 -1.6558 -0.0001
# 4 0.0004 0.0010 0.0070 40.1010 -0.0004 -4.2835
# 5 -2.3394 -7.8272 -1.6558 -0.0004 13.7443 0.0001
# 6 0.0002 0.0001 -0.0001 -4.2835 0.0001 25.9368
#
#
#
# Elastic Compliance Matrix: (Units=1/GPa)
#
#
# Indices 1 2 3 4 5 6 
#
# 1 0.015975 -0.001787 -0.001763 0.000000 0.001489 0.000000
# 2 -0.001787 0.015239 -0.008500 0.000001 0.007350 0.000000
# 3 -0.001763 -0.008500 0.022263 -0.000004 -0.002459 0.000000
# 4 0.000000 0.000001 -0.000004 0.025385 0.000001 0.004192
# 5 0.001489 0.007350 -0.002459 0.000001 0.076900 0.000000
# 6 0.000000 0.000000 0.000000 0.004192 0.000000 0.039248
#
#
# Mechanical properties :
#
#
# Convention : Reuss Voigt Hill
#
# Bulk Modulus (GPa) = 34.04291 37.26925 35.65608
# Shear Modulus (GPa) = 21.84337 26.28596 24.06466
#
# Velocity S-wave (km/s) = 3.25394 3.56953 3.41538
# Velocity P-wave (km/s) = 5.53345 5.92066 5.73033
#
# Compressibility (1/GPa) = 0.02937469
#
# Stress axis : x y z
#
# Youngs Moduli (GPa) = 62.59945 65.62319 44.91699
#
# Poissons Ratio (x) = 0.11730 0.07920
# Poissons Ratio (y) = 0.11189 0.38180
# Poissons Ratio (z) = 0.11039 0.55780
#
# Static dielectric constant tensor:
#      x y z
#    x 1.717830 0.000000 -0.008690 
#    y 0.000000 1.767320 0.000000 
#    z -0.008690 0.000000 1.741060 
# 
# From -- ./inp_files/340795.got.cif
#   From: 2010.05.17/outbox.cif.g08.bks.cpg/sg12_171_cif.got.tgz:340795.got - 2010.06.03 13:09:07.
