data_PCOD9212634
_publ_section_title
;
Structure prediction by ZEFSAII (Michael W. Deem and Ramdas Pophale) SiO2 
 PCOD9212634
Probable space group: C 2/M
;
_chemical_formula_sum "Si O2"
_cell_formula_units_Z 58
_cell_length_a 11.424822
_cell_length_b 21.636491
_cell_length_c 16.036707
_cell_angle_alpha 90.000000
_cell_angle_beta 44.691540
_cell_angle_gamma 90.000000
_cell_volume 2787.954928
_symmetry_space_group_name_H-M "C 2/M"
_symmetry_group_IT_number 12
_symmetry_cell_setting 'monoclinic'
loop_
_space_group_symop_operation_xyz
x,y,z
-x,y,-z
-x,-y,-z
x,-y,z
1/2+x,1/2+y,z
1/2-x,1/2+y,-z
1/2-x,1/2-y,-z
1/2+x,1/2-y,z
loop_
_atom_site_type_symbol
_atom_site_label
_atom_site_fract_x
_atom_site_fract_y
_atom_site_fract_z
Si Si1 0.594498 0.569901 0.638793
Si Si2 0.141680 0.145791 0.361044
Si Si3 0.066028 0.713287 0.870287
Si Si4 0.379384 0.069784 0.361465
Si Si5 0.966794 0.849067 0.180166
Si Si6 0.247860 0.070393 0.827682
Si Si7 0.179246 0.603030 0.023552
Si Si8 0.000000 0.500000 0.000000
O O1 0.552751 0.500000 0.689932
O O2 0.451980 0.595118 0.648585
O O3 0.761174 0.566348 0.500661
O O4 0.623021 0.620299 0.695556
O O5 0.244030 0.191581 0.247522
O O6 0.282019 0.112315 0.345738
O O7 0.000000 0.169463 0.500000
O O8 0.042319 0.776856 0.832721
O O9 0.946580 0.659288 0.896999
O O10 0.000000 0.721223 0.000000
O O11 0.564424 0.088842 0.293401
O O12 0.394866 0.000000 0.317307
O O13 0.885264 0.883392 0.142563
O O14 0.156083 0.868710 0.099556
O O15 0.260653 0.073836 0.920511
O O16 0.212444 0.000000 0.818905
O O17 0.091891 0.553832 0.009394
#
# Coordination Sequence:
#
# PCOD9212634 Si02
#       8
#     8   8   8   8   8   8   8   2
#     4  10  22  40  69 101 135 174 228 293 348 401
#     4  10  21  42  70 105 134 173 232 297 354 399
#     4  12  25  47  69  98 139 189 232 276 346 418
#     4   9  19  40  67 100 133 175 222 283 358 413
#     4  12  28  43  63  96 139 190 230 269 328 424
#     4  11  23  41  67  95 136 181 225 275 345 414
#     4  12  25  44  71  99 134 173 224 289 351 407
#     4  12  28  44  70 112 130 160 226 314 354 396
#
# _framework density 20.803778999999999
#
# number of rings (size 3 to 8) (size 9 to 14) (size 15 to 20)
#    0.000    1.103    2.759    3.310    1.931    3.862 
#    2.483    3.448    0.000    0.000    0.000    0.000 
#    0.000    0.000    0.000    0.000    0.000    0.000 
#
# Total GULP energy -161660.533347 kJ/mol
# GULP energy per Si atom -5574.501150 kJ/mol
# Density = 2.075643 g / cm^3
# Si number density = 20.803779 Si / 1000 Ang^3
#
#
#
# Elastic Constant Matrix: (Units=GPa)
#
#
# Indices 1 2 3 4 5 6 
#
# 1 85.5115 50.4447 33.5764 -0.0001 -6.5139 0.0000
# 2 50.4447 135.1203 46.1068 -0.0005 -9.3927 0.0001
# 3 33.5764 46.1068 106.3241 -0.0002 3.2073 0.0003
# 4 -0.0001 -0.0005 -0.0002 -6.2870 0.0000 -18.3641
# 5 -6.5139 -9.3927 3.2073 0.0000 21.5154 0.0001
# 6 0.0000 0.0001 0.0003 -18.3641 0.0001 49.7242
#
#
#
# Elastic Compliance Matrix: (Units=1/GPa)
#
#
# Indices 1 2 3 4 5 6 
#
# 1 0.015905 -0.004653 -0.003103 0.000000 0.003246 0.000000
# 2 -0.004653 0.010478 -0.003184 0.000000 0.003640 0.000000
# 3 -0.003103 -0.003184 0.011889 0.000000 -0.004102 0.000000
# 4 0.000000 0.000000 0.000000 -0.076516 0.000000 -0.028259
# 5 0.003246 0.003640 -0.004102 0.000000 0.049661 0.000000
# 6 0.000000 0.000000 0.000000 -0.028259 0.000000 0.009675
#
#
# Mechanical properties :
#
#
# Convention : Reuss Voigt Hill
#
# Bulk Modulus (GPa) = 61.00510 65.24576 63.12543
# Shear Modulus (GPa) = 103.22854 26.11238 64.67046
#
# Velocity S-wave (km/s) = 7.05179 3.54669 5.58152
# Velocity P-wave (km/s) = 9.78220 6.94280 8.48216
#
# Compressibility (1/GPa) = 0.01639207
#
# Stress axis : x y z
#
# Youngs Moduli (GPa) = 62.87297 95.44255 84.10890
#
# Poissons Ratio (x) = 0.44414 0.26096
# Poissons Ratio (y) = 0.29258 0.26778
# Poissons Ratio (z) = 0.19507 0.30387
#
# Static dielectric constant tensor:
#      x y z
#    x 1.724720 0.000000 0.015830 
#    y 0.000000 1.711390 0.000000 
#    z 0.015830 0.000000 1.854880 
# 
# From -- ./inp_files/265230.got.cif
#   From: 2010.05.17/outbox.cif.g08.bks.cpg/sg12_133_cif.got.tgz:265230.got - 2010.06.03 13:09:07.
