data_PCOD9212307
_publ_section_title
;
Structure prediction by ZEFSAII (Michael W. Deem and Ramdas Pophale) SiO2 
 PCOD9212307
Probable space group: C 2/M
;
_chemical_formula_sum "Si O2"
_cell_formula_units_Z 48
_cell_length_a 18.193395
_cell_length_b 14.677224
_cell_length_c 9.412395
_cell_angle_alpha 90.000000
_cell_angle_beta 98.613863
_cell_angle_gamma 90.000000
_cell_volume 2485.027562
_symmetry_space_group_name_H-M "C 2/M"
_symmetry_group_IT_number 12
_symmetry_cell_setting 'monoclinic'
loop_
_space_group_symop_operation_xyz
x,y,z
-x,y,-z
-x,-y,-z
x,-y,z
1/2+x,1/2+y,z
1/2-x,1/2+y,-z
1/2-x,1/2-y,-z
1/2+x,1/2-y,z
loop_
_atom_site_type_symbol
_atom_site_label
_atom_site_fract_x
_atom_site_fract_y
_atom_site_fract_z
Si Si1 0.048177 0.749309 0.152694
Si Si2 0.780983 0.742250 0.851500
Si Si3 0.933023 0.107823 0.591280
Si Si4 0.797672 0.391999 0.341817
Si Si5 0.468223 0.108584 0.333845
Si Si6 0.222826 0.891772 0.605156
O O1 0.131429 0.724572 0.128830
O O2 0.054081 0.832132 0.266019
O O3 0.009977 0.666781 0.227719
O O4 0.000000 0.771801 0.000000
O O5 0.761474 0.835648 0.764485
O O6 0.738859 0.664651 0.749927
O O7 0.750000 0.750000 0.000000
O O8 0.855859 0.131979 0.490171
O O9 0.000000 0.122458 0.500000
O O10 0.929717 0.000000 0.624475
O O11 0.785543 0.500000 0.323955
O O12 0.880473 0.370154 0.314126
O O13 0.785387 0.370119 0.504518
O O14 0.500000 0.129007 0.500000
O O15 0.477190 0.000000 0.312686
O O16 0.223419 0.000000 0.632359
#
# Coordination Sequence:
#
# PCOD9212307 Si02
#       6
#     8   8   8   8   8   8
#     4  12  26  41  63  94 133 173 207 258 321 384
#     4  12  26  40  62  94 130 168 210 258 321 378
#     4  10  23  42  66  94 124 164 215 268 316 373
#     4  10  21  41  67  93 124 162 211 264 314 373
#     4  10  22  40  66  96 125 165 213 262 316 377
#     4  10  22  42  68  95 123 164 216 268 319 373
#
# _framework density 19.315681000000001
#
# number of rings (size 3 to 8) (size 9 to 14) (size 15 to 20)
#    0.000    1.333    1.667    3.000    7.000    3.333 
#    0.000    0.000    0.000    0.000    0.000    0.000 
#    0.000    0.000    0.000    0.000    0.000    0.000 
#
# Total GULP energy -134242.642182 kJ/mol
# GULP energy per Si atom -5593.443424 kJ/mol
# Density = 1.927172 g / cm^3
# Si number density = 19.315681 Si / 1000 Ang^3
#
#
#
# Elastic Constant Matrix: (Units=GPa)
#
#
# Indices 1 2 3 4 5 6 
#
# 1 140.0422 58.8550 74.8353 0.0000 -5.4018 0.0000
# 2 58.8550 69.3089 70.9444 0.0000 -1.4432 0.0000
# 3 74.8353 70.9444 165.7924 0.0000 -1.2065 0.0000
# 4 0.0000 0.0000 0.0000 17.7078 0.0000 7.9530
# 5 -5.4018 -1.4432 -1.2065 0.0000 35.3227 0.0000
# 6 0.0000 0.0000 0.0000 7.9530 0.0000 33.0036
#
#
#
# Elastic Compliance Matrix: (Units=1/GPa)
#
#
# Indices 1 2 3 4 5 6 
#
# 1 0.011458 -0.007860 -0.001798 0.000000 0.001370 0.000000
# 2 -0.007860 0.031082 -0.009754 0.000000 -0.000265 0.000000
# 3 -0.001798 -0.009754 0.011015 0.000000 -0.000297 0.000000
# 4 0.000000 0.000000 0.000000 0.063326 0.000000 -0.015260
# 5 0.001370 -0.000265 -0.000297 0.000000 0.028499 0.000000
# 6 0.000000 0.000000 0.000000 -0.015260 0.000000 0.033977
#
#
# Mechanical properties :
#
#
# Convention : Reuss Voigt Hill
#
# Bulk Modulus (GPa) = 67.89319 87.15700 77.52510
# Shear Modulus (GPa) = 22.41224 28.57407 25.49316
#
# Velocity S-wave (km/s) = 3.41003 3.85037 3.63687
# Velocity P-wave (km/s) = 7.12250 8.06148 7.60649
#
# Compressibility (1/GPa) = 0.01472902
#
# Stress axis : x y z
#
# Youngs Moduli (GPa) = 87.27500 32.17317 90.78436
#
# Poissons Ratio (x) = 0.25290 0.16326
# Poissons Ratio (y) = 0.68602 0.88552
# Poissons Ratio (z) = 0.15695 0.31382
#
# Static dielectric constant tensor:
#      x y z
#    x 1.681080 0.000000 -0.006520 
#    y 0.000000 1.674300 0.000000 
#    z -0.006520 0.000000 1.637060 
# 
# From -- ./inp_files/73619.got.cif
#   From: 2010.05.17/outbox.cif.g08.bks.cpg/sg12_37_cif.got.tgz:73619.got - 2010.06.03 13:09:07.
