data_PCOD9212309
_publ_section_title
;
Structure prediction by ZEFSAII (Michael W. Deem and Ramdas Pophale) SiO2 
 PCOD9212309
Probable space group: C 2/M
;
_chemical_formula_sum "Si O2"
_cell_formula_units_Z 56
_cell_length_a 27.141029
_cell_length_b 17.708266
_cell_length_c 5.427511
_cell_angle_alpha 90.000000
_cell_angle_beta 71.034140
_cell_angle_gamma 90.000000
_cell_volume 2466.960192
_symmetry_space_group_name_H-M "C 2/M"
_symmetry_group_IT_number 12
_symmetry_cell_setting 'monoclinic'
loop_
_space_group_symop_operation_xyz
x,y,z
-x,y,-z
-x,-y,-z
x,-y,z
1/2+x,1/2+y,z
1/2-x,1/2+y,-z
1/2-x,1/2-y,-z
1/2+x,1/2-y,z
loop_
_atom_site_type_symbol
_atom_site_label
_atom_site_fract_x
_atom_site_fract_y
_atom_site_fract_z
Si Si1 0.631723 0.628250 0.441932
Si Si2 0.113964 0.299151 0.405302
Si Si3 0.519152 0.585591 0.718125
Si Si4 0.653554 0.084469 0.941406
Si Si5 0.780227 0.327448 0.503830
Si Si6 0.692074 0.411294 0.843416
Si Si7 0.551966 0.082177 0.754243
O O1 0.609385 0.709949 0.395336
O O2 0.580799 0.581897 0.600320
O O3 0.666062 0.624966 0.637179
O O4 0.661258 0.599955 0.149352
O O5 0.161574 0.305146 0.519591
O O6 0.062953 0.345068 0.570076
O O7 0.136516 0.347213 0.143453
O O8 0.500000 0.623337 0.500000
O O9 0.496166 0.500000 0.757462
O O10 0.500000 0.623194 0.000000
O O11 0.707524 0.110469 0.726036
O O12 0.604212 0.077996 0.835686
O O13 0.659328 0.000000 0.044541
O O14 0.750000 0.250000 0.500000
O O15 0.747745 0.370001 0.766795
O O16 0.697186 0.500000 0.789599
O O17 0.548820 0.000000 0.627784
O O18 0.500000 0.089946 0.000000
#
# Coordination Sequence:
#
# PCOD9212309 Si02
#       7
#     8   8   8   8   8   8   8
#     4  12  26  44  68  99 138 174 221 280 337 400
#     4  11  24  40  65  93 133 172 220 276 339 403
#     4  10  21  41  67  93 125 169 216 268 329 393
#     4  10  22  40  65  95 129 172 226 275 329 407
#     4  11  23  43  63  91 131 175 219 272 336 394
#     4  12  26  44  69  99 133 178 226 276 330 400
#     4   9  20  41  66  95 132 173 220 276 337 404
#
# _framework density 22.700002000000001
#
# number of rings (size 3 to 8) (size 9 to 14) (size 15 to 20)
#    0.000    1.286    1.429    3.857    4.000    5.143 
#    2.571    2.143    0.000    0.000    0.000    0.000 
#    0.000    0.000    0.000    0.000    0.000    0.000 
#
# Total GULP energy -156175.216686 kJ/mol
# GULP energy per Si atom -5577.686310 kJ/mol
# Density = 2.264834 g / cm^3
# Si number density = 22.700002 Si / 1000 Ang^3
#
#
#
# Elastic Constant Matrix: (Units=GPa)
#
#
# Indices 1 2 3 4 5 6 
#
# 1 58.0620 13.2224 22.9189 0.0000 -15.1326 0.0000
# 2 13.2224 132.4077 37.7648 0.0000 -16.1918 0.0000
# 3 22.9189 37.7648 137.5346 0.0000 -20.1492 0.0000
# 4 0.0000 0.0000 0.0000 27.2771 0.0000 -6.7015
# 5 -15.1326 -16.1918 -20.1492 0.0000 42.5971 0.0000
# 6 0.0000 0.0000 0.0000 -6.7015 0.0000 28.0961
#
#
#
# Elastic Compliance Matrix: (Units=1/GPa)
#
#
# Indices 1 2 3 4 5 6 
#
# 1 0.019752 -0.000624 -0.002285 0.000000 0.005699 0.000000
# 2 -0.000624 0.008411 -0.001901 0.000000 0.002076 0.000000
# 3 -0.002285 -0.001901 0.008541 0.000000 0.002505 0.000000
# 4 0.000000 0.000000 0.000000 0.038943 0.000000 0.009289
# 5 0.005699 0.002076 0.002505 0.000000 0.027475 0.000000
# 6 0.000000 0.000000 0.000000 0.009289 0.000000 0.037808
#
#
# Mechanical properties :
#
#
# Convention : Reuss Voigt Hill
#
# Bulk Modulus (GPa) = 36.92338 52.86851 44.89595
# Shear Modulus (GPa) = 31.33262 36.53393 33.93327
#
# Velocity S-wave (km/s) = 3.71926 4.01611 3.87053
# Velocity P-wave (km/s) = 5.89449 6.69673 6.30837
#
# Compressibility (1/GPa) = 0.02708311
#
# Stress axis : x y z
#
# Youngs Moduli (GPa) = 50.62663 118.89309 117.08402
#
# Poissons Ratio (x) = 0.07416 0.26758
# Poissons Ratio (y) = 0.03158 0.22262
# Poissons Ratio (z) = 0.11570 0.22606
#
# Static dielectric constant tensor:
#      x y z
#    x 1.928000 0.000000 0.066070 
#    y 0.000000 1.861750 0.000000 
#    z 0.066070 0.000000 1.874880 
# 
# From -- ./inp_files/31990.got.cif
#   From: 2010.05.17/outbox.cif.g08.bks.cpg/sg12_16_cif.got.tgz:31990.got - 2010.06.03 13:09:07.
