data_PCOD9212793
_publ_section_title
;
Structure prediction by ZEFSAII (Michael W. Deem and Ramdas Pophale) SiO2 
 PCOD9212793
Probable space group: C 2/M
;
_chemical_formula_sum "Si O2"
_cell_formula_units_Z 28
_cell_length_a 10.898072
_cell_length_b 15.587884
_cell_length_c 7.157651
_cell_angle_alpha 90.000000
_cell_angle_beta 67.834319
_cell_angle_gamma 90.000000
_cell_volume 1126.065651
_symmetry_space_group_name_H-M "C 2/M"
_symmetry_group_IT_number 12
_symmetry_cell_setting 'monoclinic'
loop_
_space_group_symop_operation_xyz
x,y,z
-x,y,-z
-x,-y,-z
x,-y,z
1/2+x,1/2+y,z
1/2-x,1/2+y,-z
1/2-x,1/2-y,-z
1/2+x,1/2-y,z
loop_
_atom_site_type_symbol
_atom_site_label
_atom_site_fract_x
_atom_site_fract_y
_atom_site_fract_z
Si Si1 0.242622 0.405814 0.762814
Si Si2 0.500000 0.323107 0.500000
Si Si3 0.155098 0.404794 0.385307
Si Si4 0.124853 0.226938 0.812393
O O1 0.214382 0.500000 0.858639
O O2 0.396631 0.380476 0.675827
O O3 0.211589 0.411427 0.560806
O O4 0.159465 0.322052 0.866878
O O5 0.417059 0.274218 0.384308
O O6 0.166420 0.500000 0.293152
O O7 0.246831 0.333572 0.236395
O O8 0.000000 0.386597 0.500000
O O9 0.000000 0.194386 0.000000
#
# Coordination Sequence:
#
# PCOD9212793 Si02
#       4
#     8   4   8   8
#     4  10  22  39  64  94 131 175 215 263 326 385
#     4  10  21  44  69  90 128 176 219 270 321 384
#     4   9  19  39  67  94 127 172 217 266 324 384
#     4  11  25  40  68  99 132 169 220 266 326 385
#
# _framework density 24.865333
#
# number of rings (size 3 to 8) (size 9 to 14) (size 15 to 20)
#    0.000    2.000    0.000    3.857    8.000    3.429 
#    0.000    0.000    0.000    0.000    0.000    0.000 
#    0.000    0.000    0.000    0.000    0.000    0.000 
#
# Total GULP energy -78257.142529 kJ/mol
# GULP energy per Si atom -5589.795895 kJ/mol
# Density = 2.480874 g / cm^3
# Si number density = 24.865333 Si / 1000 Ang^3
#
#
#
# Elastic Constant Matrix: (Units=GPa)
#
#
# Indices 1 2 3 4 5 6 
#
# 1 129.0795 89.1128 45.5271 0.0000 -19.2724 0.0000
# 2 89.1128 209.9213 46.1922 0.0000 -22.8959 0.0000
# 3 45.5271 46.1922 106.3062 0.0000 -7.8458 0.0000
# 4 0.0000 0.0000 0.0000 -30.2126 0.0000 -2.9642
# 5 -19.2724 -22.8959 -7.8458 0.0000 52.6699 0.0000
# 6 0.0000 0.0000 0.0000 -2.9642 0.0000 75.0006
#
#
#
# Elastic Compliance Matrix: (Units=1/GPa)
#
#
# Indices 1 2 3 4 5 6 
#
# 1 0.012089 -0.004197 -0.003197 0.000000 0.002123 0.000000
# 2 -0.004197 0.006935 -0.001119 0.000000 0.001312 0.000000
# 3 -0.003197 -0.001119 0.011264 0.000000 0.000022 0.000000
# 4 0.000000 0.000000 0.000000 -0.032971 0.000000 -0.001303
# 5 0.002123 0.001312 0.000022 0.000000 0.020337 0.000000
# 6 0.000000 0.000000 0.000000 -0.001303 0.000000 0.013282
#
#
# Mechanical properties :
#
#
# Convention : Reuss Voigt Hill
#
# Bulk Modulus (GPa) = 75.40514 89.66347 82.53431
# Shear Modulus (GPa) = 95.45381 37.12326 66.28853
#
# Velocity S-wave (km/s) = 6.20255 3.86809 5.16884
# Velocity P-wave (km/s) = 9.03807 7.48915 8.29983
#
# Compressibility (1/GPa) = 0.01326170
#
# Stress axis : x y z
#
# Youngs Moduli (GPa) = 82.71890 144.20359 88.78006
#
# Poissons Ratio (x) = 0.60520 0.28383
# Poissons Ratio (y) = 0.34716 0.09935
# Poissons Ratio (z) = 0.26445 0.16137
#
# Static dielectric constant tensor:
#      x y z
#    x 2.011240 0.000000 -0.013520 
#    y 0.000000 2.058900 0.000000 
#    z -0.013520 0.000000 1.926480 
# 
# From -- ./inp_files/44738.got.cif
#   From: 2010.05.17/outbox.cif.g08.bks.cpg/sg12_23_cif.got.tgz:44738.got - 2010.06.03 13:09:07.
