data_PCOD9212760
_publ_section_title
;
Structure prediction by ZEFSAII (Michael W. Deem and Ramdas Pophale) SiO2 
 PCOD9212760
Probable space group: C 2/M
;
_chemical_formula_sum "Si O2"
_cell_formula_units_Z 32
_cell_length_a 5.426396
_cell_length_b 32.135536
_cell_length_c 9.025689
_cell_angle_alpha 90.000000
_cell_angle_beta 109.352989
_cell_angle_gamma 90.000000
_cell_volume 1484.967482
_symmetry_space_group_name_H-M "C 2/M"
_symmetry_group_IT_number 12
_symmetry_cell_setting 'monoclinic'
loop_
_space_group_symop_operation_xyz
x,y,z
-x,y,-z
-x,-y,-z
x,-y,z
1/2+x,1/2+y,z
1/2-x,1/2+y,-z
1/2-x,1/2-y,-z
1/2+x,1/2-y,z
loop_
_atom_site_type_symbol
_atom_site_label
_atom_site_fract_x
_atom_site_fract_y
_atom_site_fract_z
Si Si1 0.805740 0.000000 0.105176
Si Si2 0.500000 0.278179 0.000000
Si Si3 0.500000 0.886152 0.500000
Si Si4 0.519859 0.661744 0.270322
Si Si5 0.000000 0.224477 0.500000
Si Si6 0.304225 0.421326 0.318476
O O1 0.840330 0.959992 0.218436
O O2 0.500000 0.000000 0.000000
O O3 0.000000 0.000000 0.000000
O O4 0.591255 0.310937 0.143867
O O5 0.250000 0.250000 0.000000
O O6 0.733692 0.855763 0.590295
O O7 0.541090 0.914336 0.361395
O O8 0.387862 0.695400 0.348929
O O9 0.346418 0.620221 0.228419
O O10 0.250000 0.250000 0.500000
O O11 0.500000 0.423966 0.500000
#
# Coordination Sequence:
#
# PCOD9212760 Si02
#       6
#     4   4   4   8   4   8
#     4  12  31  49  74 116 148 187 234 291 367 433
#     4  12  30  46  64 101 148 193 236 298 366 426
#     4  10  21  43  80 105 134 192 245 296 354 422
#     4  11  24  44  70 104 139 191 237 291 367 419
#     4  12  23  38  68  98 136 175 237 292 330 409
#     4  10  24  46  77 105 142 190 238 299 353 434
#
# _framework density 21.549295000000001
#
# number of rings (size 3 to 8) (size 9 to 14) (size 15 to 20)
#    0.000    1.000    3.750    2.625   12.250    0.500 
#    0.000    0.000    0.000    0.000    0.000    0.000 
#    0.000    0.000    0.000    0.000    0.000    0.000 
#
# Total GULP energy -89175.104593 kJ/mol
# GULP energy per Si atom -5573.444037 kJ/mol
# Density = 2.150025 g / cm^3
# Si number density = 21.549295 Si / 1000 Ang^3
#
#
#
# Elastic Constant Matrix: (Units=GPa)
#
#
# Indices 1 2 3 4 5 6 
#
# 1 103.2730 60.8130 36.9859 0.0000 -30.2031 0.0000
# 2 60.8130 205.4236 86.1745 0.0000 -39.1540 0.0000
# 3 36.9859 86.1745 114.3465 0.0000 -32.3691 0.0000
# 4 0.0000 0.0000 0.0000 58.7312 0.0000 -19.0534
# 5 -30.2031 -39.1540 -32.3691 0.0000 34.4968 0.0000
# 6 0.0000 0.0000 0.0000 -19.0534 0.0000 26.1399
#
#
#
# Elastic Compliance Matrix: (Units=1/GPa)
#
#
# Indices 1 2 3 4 5 6 
#
# 1 0.013802 -0.002244 -0.000100 0.000000 0.009443 0.000000
# 2 -0.002244 0.007947 -0.004448 0.000000 0.002882 0.000000
# 3 -0.000100 -0.004448 0.014537 0.000000 0.008505 0.000000
# 4 0.000000 0.000000 0.000000 0.022300 0.000000 0.016254
# 5 0.009443 0.002882 0.008505 0.000000 0.048508 0.000000
# 6 0.000000 0.000000 0.000000 0.016254 0.000000 0.050103
#
#
# Mechanical properties :
#
#
# Convention : Reuss Voigt Hill
#
# Bulk Modulus (GPa) = 44.04637 87.88778 65.96707
# Shear Modulus (GPa) = 28.03491 39.81157 33.92324
#
# Velocity S-wave (km/s) = 3.61080 4.30288 3.97194
# Velocity P-wave (km/s) = 6.15370 8.09688 7.19123
#
# Compressibility (1/GPa) = 0.02270335
#
# Stress axis : x y z
#
# Youngs Moduli (GPa) = 72.45265 125.82634 68.78965
#
# Poissons Ratio (x) = 0.28237 0.00687
# Poissons Ratio (y) = 0.16259 0.30595
# Poissons Ratio (z) = 0.00724 0.55963
#
# Static dielectric constant tensor:
#      x y z
#    x 1.755860 0.000000 0.069620 
#    y 0.000000 1.775390 0.000000 
#    z 0.069620 0.000000 1.803180 
# 
# From -- ./inp_files/34616.got.cif
#   From: 2010.05.17/outbox.cif.g08.bks.cpg/sg12_18_cif.got.tgz:34616.got - 2010.06.03 13:09:07.
