data_PCOD9212596
_publ_section_title
;
Structure prediction by ZEFSAII (Michael W. Deem and Ramdas Pophale) SiO2 
 PCOD9212596
Probable space group: C 2/M
;
_chemical_formula_sum "Si O2"
_cell_formula_units_Z 36
_cell_length_a 21.964632
_cell_length_b 13.734129
_cell_length_c 18.540468
_cell_angle_alpha 90.000000
_cell_angle_beta 17.788706
_cell_angle_gamma 90.000000
_cell_volume 1708.707752
_symmetry_space_group_name_H-M "C 2/M"
_symmetry_group_IT_number 12
_symmetry_cell_setting 'monoclinic'
loop_
_space_group_symop_operation_xyz
x,y,z
-x,y,-z
-x,-y,-z
x,-y,z
1/2+x,1/2+y,z
1/2-x,1/2+y,-z
1/2-x,1/2-y,-z
1/2+x,1/2-y,z
loop_
_atom_site_type_symbol
_atom_site_label
_atom_site_fract_x
_atom_site_fract_y
_atom_site_fract_z
Si Si1 0.301331 0.886204 0.618935
Si Si2 0.424632 0.265048 0.244773
Si Si3 0.225984 0.387627 0.900384
Si Si4 0.000000 0.249680 0.500000
Si Si5 0.243935 0.608040 0.053019
O O1 0.151289 0.832692 0.734297
O O2 0.334275 0.821198 0.652789
O O3 0.519245 0.882291 0.335149
O O4 0.253966 0.000000 0.685853
O O5 0.250000 0.250000 0.500000
O O6 0.515360 0.162033 0.117214
O O7 0.606962 0.316604 0.079968
O O8 0.239037 0.500000 0.862724
O O9 0.398832 0.321360 0.671858
O O10 0.241446 0.384943 0.969654
O O11 0.314970 0.500000 0.993125
#
# Coordination Sequence:
#
# PCOD9212596 Si02
#       5
#     8   8   8   4   8
#     4  11  24  43  69  99 130 169 220 276 331 390
#     4  12  22  39  70 101 132 165 219 277 332 384
#     4  11  24  43  67  97 135 178 222 266 320 391
#     4  12  24  46  66  92 140 182 214 264 330 396
#     4  10  21  42  68  97 129 167 218 276 328 382
#
# _framework density 21.068553999999999
#
# number of rings (size 3 to 8) (size 9 to 14) (size 15 to 20)
#    0.000    0.889    4.444    3.333    0.000    1.778 
#    0.000    4.444    0.000    0.000    0.000    0.000 
#    0.000    0.000    0.000    0.000    0.000    0.000 
#
# Total GULP energy -100708.570725 kJ/mol
# GULP energy per Si atom -5594.920596 kJ/mol
# Density = 2.102060 g / cm^3
# Si number density = 21.068554 Si / 1000 Ang^3
#
#
#
# Elastic Constant Matrix: (Units=GPa)
#
#
# Indices 1 2 3 4 5 6 
#
# 1 49.1843 53.7422 4.2772 0.0025 -11.3575 0.0009
# 2 53.7422 185.2070 27.4858 -0.0059 -18.1648 -0.0006
# 3 4.2772 27.4858 57.5006 0.0024 -6.4388 -0.0018
# 4 0.0025 -0.0059 0.0024 37.3978 -0.0011 -8.0156
# 5 -11.3575 -18.1648 -6.4388 -0.0011 31.3323 -0.0003
# 6 0.0009 -0.0006 -0.0018 -8.0156 -0.0003 29.6968
#
#
#
# Elastic Compliance Matrix: (Units=1/GPa)
#
#
# Indices 1 2 3 4 5 6 
#
# 1 0.031290 -0.008807 0.002641 -0.000004 0.006779 -0.000002
# 2 -0.008807 0.008553 -0.003312 0.000002 0.001086 0.000001
# 3 0.002641 -0.003312 0.019110 -0.000002 0.002965 0.000001
# 4 -0.000004 0.000002 -0.000002 0.028381 0.000001 0.007661
# 5 0.006779 0.001086 0.002965 0.000001 0.035612 0.000001
# 6 -0.000002 0.000001 0.000001 0.007661 0.000001 0.035741
#
#
# Mechanical properties :
#
#
# Convention : Reuss Voigt Hill
#
# Bulk Modulus (GPa) = 25.00091 51.43358 38.21725
# Shear Modulus (GPa) = 26.18154 33.44451 29.81302
#
# Velocity S-wave (km/s) = 3.52900 3.98856 3.76579
# Velocity P-wave (km/s) = 5.33829 6.75847 6.08992
#
# Compressibility (1/GPa) = 0.03999854
#
# Stress axis : x y z
#
# Youngs Moduli (GPa) = 31.95885 116.92121 52.32973
#
# Poissons Ratio (x) = 1.02969 -0.13822
# Poissons Ratio (y) = 0.28145 0.17330
# Poissons Ratio (z) = -0.08441 0.38720
#
# Static dielectric constant tensor:
#      x y z
#    x 1.730630 0.000000 0.026830 
#    y 0.000000 1.791280 0.000000 
#    z 0.026830 0.000000 1.755100 
# 
# From -- ./inp_files/284178.got.cif
#   From: 2010.05.17/outbox.cif.g08.bks.cpg/sg12_143_cif.got.tgz:284178.got - 2010.06.03 13:09:07.
