data_PCOD9212575
_publ_section_title
;
Structure prediction by ZEFSAII (Michael W. Deem and Ramdas Pophale) SiO2 
 PCOD9212575
Probable space group: C 2/M
;
_chemical_formula_sum "Si O2"
_cell_formula_units_Z 36
_cell_length_a 11.001554
_cell_length_b 24.543511
_cell_length_c 5.584268
_cell_angle_alpha 90.000000
_cell_angle_beta 85.228032
_cell_angle_gamma 90.000000
_cell_volume 1502.619284
_symmetry_space_group_name_H-M "C 2/M"
_symmetry_group_IT_number 12
_symmetry_cell_setting 'monoclinic'
loop_
_space_group_symop_operation_xyz
x,y,z
-x,y,-z
-x,-y,-z
x,-y,z
1/2+x,1/2+y,z
1/2-x,1/2+y,-z
1/2-x,1/2-y,-z
1/2+x,1/2-y,z
loop_
_atom_site_type_symbol
_atom_site_label
_atom_site_fract_x
_atom_site_fract_y
_atom_site_fract_z
Si Si1 0.500000 0.403694 0.500000
Si Si2 0.701789 0.558870 0.127857
Si Si3 0.072304 0.390398 0.737074
Si Si4 0.126921 0.156098 0.853363
Si Si5 0.122052 0.264213 0.646893
O O1 0.425579 0.438026 0.706060
O O2 0.396554 0.363558 0.412013
O O3 0.708261 0.500000 0.004391
O O4 0.815049 0.567994 0.283941
O O5 0.714584 0.611924 0.955286
O O6 0.114516 0.326782 0.725839
O O7 0.000000 0.397249 0.500000
O O8 0.000000 0.398992 0.000000
O O9 0.133581 0.220760 0.860906
O O10 0.000000 0.144021 0.000000
O O11 0.250000 0.250000 0.500000
O O12 0.000000 0.254732 0.500000
#
# Coordination Sequence:
#
# PCOD9212575 Si02
#       5
#     4   8   8   8   8
#     4  10  21  42  68 104 140 180 241 310 380 442
#     4  11  26  44  71 103 144 194 249 312 371 445
#     4  11  28  50  74 109 149 198 253 308 376 451
#     4  10  22  40  69 103 140 181 237 298 376 445
#     4  11  24  43  75 109 147 194 243 311 384 456
#
# _framework density 23.958165000000001
#
# number of rings (size 3 to 8) (size 9 to 14) (size 15 to 20)
#    0.000    1.333    1.111    2.333   12.444    6.667 
#    0.000    0.000    0.000    0.000    0.000    0.000 
#    0.000    0.000    0.000    0.000    0.000    0.000 
#
# Total GULP energy -100368.061301 kJ/mol
# GULP energy per Si atom -5576.003406 kJ/mol
# Density = 2.390364 g / cm^3
# Si number density = 23.958165 Si / 1000 Ang^3
#
#
#
# Elastic Constant Matrix: (Units=GPa)
#
#
# Indices 1 2 3 4 5 6 
#
# 1 107.7743 36.3534 30.4780 0.0000 -5.2059 0.0000
# 2 36.3534 98.9056 12.1794 0.0000 19.3594 0.0000
# 3 30.4780 12.1794 67.8644 0.0000 1.8484 0.0000
# 4 0.0000 0.0000 0.0000 -7.5042 0.0000 -13.3214
# 5 -5.2059 19.3594 1.8484 0.0000 39.6823 0.0000
# 6 0.0000 0.0000 0.0000 -13.3214 0.0000 6.6227
#
#
#
# Elastic Compliance Matrix: (Units=1/GPa)
#
#
# Indices 1 2 3 4 5 6 
#
# 1 0.012479 -0.004813 -0.004855 0.000000 0.004211 0.000000
# 2 -0.004813 0.013274 -0.000027 0.000000 -0.007106 0.000000
# 3 -0.004855 -0.000027 0.016959 0.000000 -0.001414 0.000000
# 4 0.000000 0.000000 0.000000 -0.029155 0.000000 -0.058644
# 5 0.004211 -0.007106 -0.001414 0.000000 0.029285 0.000000
# 6 0.000000 0.000000 0.000000 -0.058644 0.000000 0.033035
#
#
# Mechanical properties :
#
#
# Convention : Reuss Voigt Hill
#
# Bulk Modulus (GPa) = 42.87960 48.06287 45.47124
# Shear Modulus (GPa) = 48.52428 20.79573 34.66000
#
# Velocity S-wave (km/s) = 4.50530 2.94938 3.80766
# Velocity P-wave (km/s) = 6.70822 5.63056 6.19287
#
# Compressibility (1/GPa) = 0.02332111
#
# Stress axis : x y z
#
# Youngs Moduli (GPa) = 80.13757 75.33549 58.96549
#
# Poissons Ratio (x) = 0.36259 0.28628
# Poissons Ratio (y) = 0.38570 0.00160
# Poissons Ratio (z) = 0.38907 0.00205
#
# Static dielectric constant tensor:
#      x y z
#    x 1.985470 0.000000 0.001240 
#    y 0.000000 1.989580 0.000000 
#    z 0.001240 0.000000 2.241540 
# 
# From -- ./inp_files/6958.got.cif
#   From: 2010.05.17/outbox.cif.g08.bks.cpg/sg12_4_cif.got.tgz:6958.got - 2010.06.03 13:09:07.
