data_PCOD9212165
_publ_section_title
;
Structure prediction by ZEFSAII (Michael W. Deem and Ramdas Pophale) SiO2 
 PCOD9212165
Probable space group: C 2/M
;
_chemical_formula_sum "Si O2"
_cell_formula_units_Z 44
_cell_length_a 28.604647
_cell_length_b 16.999062
_cell_length_c 6.149627
_cell_angle_alpha 90.000000
_cell_angle_beta 39.830610
_cell_angle_gamma 90.000000
_cell_volume 1915.327574
_symmetry_space_group_name_H-M "C 2/M"
_symmetry_group_IT_number 12
_symmetry_cell_setting 'monoclinic'
loop_
_space_group_symop_operation_xyz
x,y,z
-x,y,-z
-x,-y,-z
x,-y,z
1/2+x,1/2+y,z
1/2-x,1/2+y,-z
1/2-x,1/2-y,-z
1/2+x,1/2-y,z
loop_
_atom_site_type_symbol
_atom_site_label
_atom_site_fract_x
_atom_site_fract_y
_atom_site_fract_z
Si Si1 0.215587 0.171079 0.531438
Si Si2 0.921178 0.821627 0.672401
Si Si3 0.963931 0.500000 0.382498
Si Si4 0.421051 0.833923 0.391689
Si Si5 0.328392 0.413354 0.711727
Si Si6 0.312079 0.913770 0.474691
O O1 0.250000 0.250000 0.500000
O O2 0.194780 0.157808 0.359830
O O3 0.278574 0.108029 0.362904
O O4 0.139666 0.162902 0.928726
O O5 0.906720 0.738497 0.603159
O O6 0.903398 0.889234 0.560195
O O7 0.000000 0.821880 0.500000
O O8 0.923079 0.416397 0.515468
O O9 0.000000 0.500000 0.500000
O O10 0.000000 0.500000 0.000000
O O11 0.364851 0.850025 0.395219
O O12 0.500000 0.820016 0.000000
O O13 0.334151 0.500000 0.586205
O O14 0.261185 0.417173 0.119267
O O15 0.347493 0.000000 0.346249
#
# Coordination Sequence:
#
# PCOD9212165 Si02
#       6
#     8   8   4   8   8   8
#     4  11  23  41  68  96 129 174 222 274 342 408
#     4  11  26  42  65  97 133 171 223 287 339 404
#     4  10  22  44  62  96 142 192 235 284 349 428
#     4  11  23  41  66  97 141 181 227 276 342 421
#     4  10  23  45  68  95 129 173 223 281 345 413
#     4  10  21  41  64  96 132 169 221 272 333 407
#
# _framework density 22.972572
#
# number of rings (size 3 to 8) (size 9 to 14) (size 15 to 20)
#    0.000    1.455    0.909    3.273    5.091    4.000 
#    6.545    0.909    0.000    0.000    0.000    0.000 
#    0.000    0.000    0.000    0.000    0.000    0.000 
#
# Total GULP energy -122804.527031 kJ/mol
# GULP energy per Si atom -5582.023956 kJ/mol
# Density = 2.292029 g / cm^3
# Si number density = 22.972572 Si / 1000 Ang^3
#
#
#
# Elastic Constant Matrix: (Units=GPa)
#
#
# Indices 1 2 3 4 5 6 
#
# 1 160.3291 20.0302 18.6758 0.0000 -20.4416 0.0000
# 2 20.0302 75.8193 4.8816 0.0000 -6.9460 0.0000
# 3 18.6758 4.8816 46.7624 0.0000 -6.4229 0.0000
# 4 0.0000 0.0000 0.0000 19.9892 0.0000 -6.4323
# 5 -20.4416 -6.9460 -6.4229 0.0000 28.1128 0.0000
# 6 0.0000 0.0000 0.0000 -6.4323 0.0000 30.8037
#
#
#
# Elastic Compliance Matrix: (Units=1/GPa)
#
#
# Indices 1 2 3 4 5 6 
#
# 1 0.007220 -0.001365 -0.002133 0.000000 0.004426 0.000000
# 2 -0.001365 0.013796 -0.000582 0.000000 0.002284 0.000000
# 3 -0.002133 -0.000582 0.022779 0.000000 0.003509 0.000000
# 4 0.000000 0.000000 0.000000 0.053631 0.000000 0.011199
# 5 0.004426 0.002284 0.003509 0.000000 0.040155 0.000000
# 6 0.000000 0.000000 0.000000 0.011199 0.000000 0.034802
#
#
# Mechanical properties :
#
#
# Convention : Reuss Voigt Hill
#
# Bulk Modulus (GPa) = 28.06063 41.12065 34.59064
# Shear Modulus (GPa) = 25.98449 31.73601 28.86025
#
# Velocity S-wave (km/s) = 3.36685 3.72085 3.54827
# Velocity P-wave (km/s) = 5.23025 6.03311 5.64597
#
# Compressibility (1/GPa) = 0.03563711
#
# Stress axis : x y z
#
# Youngs Moduli (GPa) = 138.49604 72.48244 43.89927
#
# Poissons Ratio (x) = 0.09892 0.09365
# Poissons Ratio (y) = 0.18901 0.02553
# Poissons Ratio (z) = 0.29546 0.04215
#
# Static dielectric constant tensor:
#      x y z
#    x 2.067990 0.000000 0.103960 
#    y 0.000000 1.902940 0.000000 
#    z 0.103960 0.000000 1.879590 
# 
# From -- ./inp_files/28678.got.cif
#   From: 2010.05.17/outbox.cif.g08.bks.cpg/sg12_15_cif.got.tgz:28678.got - 2010.06.03 13:09:07.
