data_PCOD9212417
_publ_section_title
;
Structure prediction by ZEFSAII (Michael W. Deem and Ramdas Pophale) SiO2 
 PCOD9212417
Probable space group: C 2/M
;
_chemical_formula_sum "Si O2"
_cell_formula_units_Z 32
_cell_length_a 18.685194
_cell_length_b 13.233595
_cell_length_c 5.240001
_cell_angle_alpha 90.000000
_cell_angle_beta 90.959186
_cell_angle_gamma 90.000000
_cell_volume 1295.525483
_symmetry_space_group_name_H-M "C 2/M"
_symmetry_group_IT_number 12
_symmetry_cell_setting 'monoclinic'
loop_
_space_group_symop_operation_xyz
x,y,z
-x,y,-z
-x,-y,-z
x,-y,z
1/2+x,1/2+y,z
1/2-x,1/2+y,-z
1/2-x,1/2-y,-z
1/2+x,1/2-y,z
loop_
_atom_site_type_symbol
_atom_site_label
_atom_site_fract_x
_atom_site_fract_y
_atom_site_fract_z
Si Si1 0.044993 0.331651 0.241963
Si Si2 0.927658 0.891909 0.657407
Si Si3 0.193849 0.800589 0.688740
Si Si4 0.179137 0.611193 0.003638
O O1 0.061726 0.212541 0.194743
O O2 0.122486 0.383527 0.232416
O O3 0.000000 0.342628 0.500000
O O4 0.000000 0.371414 0.000000
O O5 0.861750 0.869503 0.464354
O O6 0.000000 0.899342 0.500000
O O7 0.917392 0.000000 0.793399
O O8 0.250000 0.750000 0.500000
O O9 0.241172 0.862581 0.894062
O O10 0.157919 0.703378 0.818589
O O11 0.177307 0.500000 0.887650
#
# Coordination Sequence:
#
# PCOD9212417 Si02
#       4
#     8   8   8   8
#     4  11  24  45  70 104 151 189 239 302 355 425
#     4  10  21  41  70 100 135 183 235 293 358 420
#     4  11  23  46  67  99 143 184 234 307 354 430
#     4  11  25  43  70 101 138 191 241 294 364 431
#
# _framework density 24.700403000000001
#
# number of rings (size 3 to 8) (size 9 to 14) (size 15 to 20)
#    0.000    1.250    2.500    3.750    0.000    3.500 
#    0.000    3.750    0.000    0.750    0.000    0.000 
#    0.000    0.000    0.000    0.000    0.000    0.000 
#
# Total GULP energy -89516.553931 kJ/mol
# GULP energy per Si atom -5594.784621 kJ/mol
# Density = 2.464418 g / cm^3
# Si number density = 24.700403 Si / 1000 Ang^3
#
#
#
# Elastic Constant Matrix: (Units=GPa)
#
#
# Indices 1 2 3 4 5 6 
#
# 1 105.0653 25.0638 23.0441 0.0000 -0.6133 0.0000
# 2 25.0638 132.4246 13.4416 0.0000 -24.3530 0.0000
# 3 23.0441 13.4416 80.8172 0.0000 -15.1318 0.0000
# 4 0.0000 0.0000 0.0000 23.0460 0.0000 -0.7633
# 5 -0.6133 -24.3530 -15.1318 0.0000 42.8905 0.0000
# 6 0.0000 0.0000 0.0000 -0.7633 0.0000 6.4039
#
#
#
# Elastic Compliance Matrix: (Units=1/GPa)
#
#
# Indices 1 2 3 4 5 6 
#
# 1 0.010686 -0.002100 -0.003097 0.000000 -0.002132 0.000000
# 2 -0.002100 0.008867 0.000065 0.000000 0.005028 0.000000
# 3 -0.003097 0.000065 0.014181 0.000000 0.004996 0.000000
# 4 0.000000 0.000000 0.000000 0.043564 0.000000 0.005193
# 5 -0.002132 0.005028 0.004996 0.000000 0.027902 0.000000
# 6 0.000000 0.000000 0.000000 0.005193 0.000000 0.156774
#
#
# Mechanical properties :
#
#
# Convention : Reuss Voigt Hill
#
# Bulk Modulus (GPa) = 42.60658 49.04511 45.82585
# Shear Modulus (GPa) = 17.85333 31.58524 24.71929
#
# Velocity S-wave (km/s) = 2.69140 3.57982 3.16692
# Velocity P-wave (km/s) = 5.19086 6.08160 5.65380
#
# Compressibility (1/GPa) = 0.02347055
#
# Stress axis : x y z
#
# Youngs Moduli (GPa) = 93.58296 112.77862 70.51603
#
# Poissons Ratio (x) = 0.23686 0.21838
# Poissons Ratio (y) = 0.19655 -0.00462
# Poissons Ratio (z) = 0.28981 -0.00738
#
# Static dielectric constant tensor:
#      x y z
#    x 1.907610 0.000000 0.051830 
#    y 0.000000 1.957460 0.000000 
#    z 0.051830 0.000000 1.882450 
# 
# From -- ./inp_files/14330.got.cif
#   From: 2010.05.17/outbox.cif.g08.bks.cpg/sg12_8_cif.got.tgz:14330.got - 2010.06.03 13:09:07.
