data_PCOD9212846
_publ_section_title
;
Structure prediction by ZEFSAII (Michael W. Deem and Ramdas Pophale) SiO2 
 PCOD9212846
Probable space group: C 2/M
;
_chemical_formula_sum "Si O2"
_cell_formula_units_Z 48
_cell_length_a 22.094251
_cell_length_b 20.761330
_cell_length_c 5.782286
_cell_angle_alpha 90.000000
_cell_angle_beta 93.092772
_cell_angle_gamma 90.000000
_cell_volume 2648.506274
_symmetry_space_group_name_H-M "C 2/M"
_symmetry_group_IT_number 12
_symmetry_cell_setting 'monoclinic'
loop_
_space_group_symop_operation_xyz
x,y,z
-x,y,-z
-x,-y,-z
x,-y,z
1/2+x,1/2+y,z
1/2-x,1/2+y,-z
1/2-x,1/2-y,-z
1/2+x,1/2-y,z
loop_
_atom_site_type_symbol
_atom_site_label
_atom_site_fract_x
_atom_site_fract_y
_atom_site_fract_z
Si Si1 0.678728 0.000000 0.491233
Si Si2 0.366480 0.112415 0.769513
Si Si3 0.064758 0.697452 0.511806
Si Si4 0.748291 0.000000 0.999778
Si Si5 0.445692 0.071266 0.175068
Si Si6 0.302115 0.760542 0.318530
Si Si7 0.745252 0.355524 0.961801
O O1 0.638567 0.063495 0.444847
O O2 0.712950 0.000000 0.742810
O O3 0.717466 0.000000 0.254166
O O4 0.415286 0.167269 0.729749
O O5 0.300059 0.140271 0.789199
O O6 0.385755 0.075371 0.003408
O O7 0.052440 0.635176 0.671649
O O8 0.127568 0.731457 0.597584
O O9 0.000000 0.733267 0.500000
O O10 0.778412 0.928277 0.005529
O O11 0.450375 0.000000 0.284903
O O12 0.500000 0.073237 0.000000
O O13 0.250000 0.750000 0.500000
O O14 0.298713 0.699816 0.141806
O O15 0.279251 0.825648 0.189495
#
# Coordination Sequence:
#
# PCOD9212846 Si02
#       7
#     4   8   8   4   8   8   8
#     4  10  22  32  54  83 122 152 194 246 296 342
#     4  11  20  33  52  79 108 156 198 245 289 348
#     4  12  24  35  54  77 112 157 204 248 298 355
#     4  10  22  38  58  91 117 153 201 251 306 366
#     4  11  23  36  48  75 115 159 209 245 286 340
#     4  11  22  39  58  83 118 156 203 249 311 364
#     4  10  22  37  60  83 114 158 197 254 305 366
#
# _framework density 18.123424
#
# number of rings (size 3 to 8) (size 9 to 14) (size 15 to 20)
#    0.000    1.167    5.833    1.000    5.833    0.333 
#    0.000    0.000    0.000    0.000    0.000    0.583 
#    0.000    1.333    0.000    0.000    0.000    0.000 
#
# Total GULP energy -133638.348510 kJ/mol
# GULP energy per Si atom -5568.264521 kJ/mol
# Density = 1.808217 g / cm^3
# Si number density = 18.123424 Si / 1000 Ang^3
#
#
#
# Elastic Constant Matrix: (Units=GPa)
#
#
# Indices 1 2 3 4 5 6 
#
# 1 96.2031 31.4780 18.8312 0.0000 9.7172 0.0000
# 2 31.4780 89.7320 14.6508 0.0000 7.8026 0.0000
# 3 18.8312 14.6508 57.3314 0.0000 7.1236 0.0000
# 4 0.0000 0.0000 0.0000 21.8709 0.0000 -1.1050
# 5 9.7172 7.8026 7.1236 0.0000 26.9711 0.0000
# 6 0.0000 0.0000 0.0000 -1.1050 0.0000 18.8234
#
#
#
# Elastic Compliance Matrix: (Units=1/GPa)
#
#
# Indices 1 2 3 4 5 6 
#
# 1 0.012413 -0.003664 -0.002809 0.000000 -0.002670 0.000000
# 2 -0.003664 0.012899 -0.001854 0.000000 -0.001922 0.000000
# 3 -0.002809 -0.001854 0.019279 0.000000 -0.003544 0.000000
# 4 0.000000 0.000000 0.000000 0.045859 0.000000 0.002692
# 5 -0.002670 -0.001922 -0.003544 0.000000 0.039531 0.000000
# 6 0.000000 0.000000 0.000000 0.002692 0.000000 0.053284
#
#
# Mechanical properties :
#
#
# Convention : Reuss Voigt Hill
#
# Bulk Modulus (GPa) = 35.79400 41.46517 38.62959
# Shear Modulus (GPa) = 23.89697 25.42016 24.65857
#
# Velocity S-wave (km/s) = 3.63515 3.74921 3.69262
# Velocity P-wave (km/s) = 6.11654 6.45532 6.28821
#
# Compressibility (1/GPa) = 0.02793765
#
# Stress axis : x y z
#
# Youngs Moduli (GPa) = 80.56052 77.52313 51.86918
#
# Poissons Ratio (x) = 0.28402 0.14571
# Poissons Ratio (y) = 0.29514 0.09618
# Poissons Ratio (z) = 0.22631 0.14374
#
# Static dielectric constant tensor:
#      x y z
#    x 1.684920 0.000000 -0.011590 
#    y 0.000000 1.674520 0.000000 
#    z -0.011590 0.000000 1.786430 
# 
# From -- ./inp_files/20991.got.cif
#   From: 2010.05.17/outbox.cif.g08.bks.cpg/sg12_11_cif.got.tgz:20991.got - 2010.06.03 13:09:07.
