data_PCOD9212460
_publ_section_title
;
Structure prediction by ZEFSAII (Michael W. Deem and Ramdas Pophale) SiO2 
 PCOD9212460
Probable space group: C 2/M
;
_chemical_formula_sum "Si O2"
_cell_formula_units_Z 52
_cell_length_a 13.136376
_cell_length_b 19.126738
_cell_length_c 19.238271
_cell_angle_alpha 90.000000
_cell_angle_beta 149.690848
_cell_angle_gamma 90.000000
_cell_volume 2439.417639
_symmetry_space_group_name_H-M "C 2/M"
_symmetry_group_IT_number 12
_symmetry_cell_setting 'monoclinic'
loop_
_space_group_symop_operation_xyz
x,y,z
-x,y,-z
-x,-y,-z
x,-y,z
1/2+x,1/2+y,z
1/2-x,1/2+y,-z
1/2-x,1/2-y,-z
1/2+x,1/2-y,z
loop_
_atom_site_type_symbol
_atom_site_label
_atom_site_fract_x
_atom_site_fract_y
_atom_site_fract_z
Si Si1 0.238602 0.000000 0.798682
Si Si2 0.788666 0.154572 0.629063
Si Si3 0.705773 0.262663 0.862594
Si Si4 0.925019 0.653619 0.100582
Si Si5 0.111526 0.125705 0.631259
Si Si6 0.427780 0.500000 0.733527
Si Si7 0.796891 0.500000 0.996026
Si Si8 0.916923 0.279480 0.355152
O O1 0.134181 0.069104 0.705445
O O2 0.164051 0.000000 0.836297
O O3 0.470413 0.000000 0.913264
O O4 0.816622 0.071026 0.650829
O O5 0.707618 0.187642 0.653958
O O6 0.620038 0.174444 0.472702
O O7 0.003439 0.189864 0.742047
O O8 0.673881 0.201937 0.899730
O O9 0.715523 0.228559 0.792259
O O10 0.875014 0.312903 0.995467
O O11 0.841031 0.576393 0.052912
O O12 0.162232 0.649167 0.252681
O O13 0.009128 0.200004 0.586507
O O14 0.000000 0.092713 0.500000
O O15 0.542124 0.500000 0.872014
#
# Coordination Sequence:
#
# PCOD9212460 Si02
#       8
#     4   8   8   8   8   4   4   8
#     4  10  24  39  66  94 125 179 211 265 340 406
#     4  11  21  44  66  96 132 168 221 281 322 389
#     4  11  22  41  63  97 130 175 226 270 330 391
#     4  11  23  39  64  91 134 177 215 275 328 396
#     4  12  22  41  59  98 136 167 215 276 334 394
#     4  10  22  42  66  88 128 173 219 273 317 391
#     4  10  21  42  58  92 124 171 218 265 337 387
#     4  11  23  38  67  96 129 176 217 270 337 385
#
# _framework density 21.316562999999999
#
# number of rings (size 3 to 8) (size 9 to 14) (size 15 to 20)
#    0.462    0.615    4.615    3.000    0.000    5.538 
#    0.000    1.538    0.000    0.923    0.000    0.000 
#    0.000    0.000    0.000    0.000    0.000    0.000 
#
# Total GULP energy -144971.690722 kJ/mol
# GULP energy per Si atom -5575.834259 kJ/mol
# Density = 2.126805 g / cm^3
# Si number density = 21.316563 Si / 1000 Ang^3
#
#
#
# Elastic Constant Matrix: (Units=GPa)
#
#
# Indices 1 2 3 4 5 6 
#
# 1 45.6108 11.6989 6.3956 -0.0032 -11.2283 -0.0008
# 2 11.6989 167.9735 22.8862 0.0001 5.8980 -0.0005
# 3 6.3956 22.8862 104.0363 -0.0087 2.6316 -0.0026
# 4 -0.0032 0.0001 -0.0087 3.1017 -0.0038 1.4691
# 5 -11.2283 5.8980 2.6316 -0.0038 31.6193 0.0008
# 6 -0.0008 -0.0005 -0.0026 1.4691 0.0008 15.0870
#
#
#
# Elastic Compliance Matrix: (Units=1/GPa)
#
#
# Indices 1 2 3 4 5 6 
#
# 1 0.024884 -0.001875 -0.001352 0.000034 0.009299 -0.000003
# 2 -0.001875 0.006313 -0.001229 -0.000008 -0.001741 0.000001
# 3 -0.001352 -0.001229 0.009993 0.000026 -0.001083 -0.000001
# 4 0.000034 -0.000008 0.000026 0.337991 0.000053 -0.032912
# 5 0.009299 -0.001741 -0.001083 0.000053 0.035343 -0.000007
# 6 -0.000003 0.000001 -0.000001 -0.032912 -0.000007 0.069487
#
#
# Mechanical properties :
#
#
# Convention : Reuss Voigt Hill
#
# Bulk Modulus (GPa) = 30.98301 44.39800 37.69050
# Shear Modulus (GPa) = 9.92686 28.40426 19.16556
#
# Velocity S-wave (km/s) = 2.16032 3.65430 3.00174
# Velocity P-wave (km/s) = 4.55949 6.21919 5.45286
#
# Compressibility (1/GPa) = 0.03227576
#
# Stress axis : x y z
#
# Youngs Moduli (GPa) = 40.18567 158.41418 100.07022
#
# Poissons Ratio (x) = 0.29709 0.13534
# Poissons Ratio (y) = 0.07536 0.12302
# Poissons Ratio (z) = 0.05435 0.19474
#
# Static dielectric constant tensor:
#      x y z
#    x 1.873640 0.000000 0.007210 
#    y 0.000000 1.746250 0.000000 
#    z 0.007210 0.000000 1.818610 
# 
# From -- ./inp_files/311558.got.cif
#   From: 2010.05.17/outbox.cif.g08.bks.cpg/sg12_156_cif.got.tgz:311558.got - 2010.06.03 13:09:07.
