data_PCOD9212000
_publ_section_title
;
Structure prediction by ZEFSAII (Michael W. Deem and Ramdas Pophale) SiO2 
 PCOD9212000
Probable space group: C 2/M
;
_chemical_formula_sum "Si O2"
_cell_formula_units_Z 64
_cell_length_a 17.731898
_cell_length_b 29.543343
_cell_length_c 9.780245
_cell_angle_alpha 90.000000
_cell_angle_beta 40.906055
_cell_angle_gamma 90.000000
_cell_volume 3354.957225
_symmetry_space_group_name_H-M "C 2/M"
_symmetry_group_IT_number 12
_symmetry_cell_setting 'monoclinic'
loop_
_space_group_symop_operation_xyz
x,y,z
-x,y,-z
-x,-y,-z
x,-y,z
1/2+x,1/2+y,z
1/2-x,1/2+y,-z
1/2-x,1/2-y,-z
1/2+x,1/2-y,z
loop_
_atom_site_type_symbol
_atom_site_label
_atom_site_fract_x
_atom_site_fract_y
_atom_site_fract_z
Si Si1 0.209008 0.106705 0.888992
Si Si2 0.429390 0.141913 0.728214
Si Si3 0.089635 0.375185 0.755647
Si Si4 0.997999 0.947051 0.843884
Si Si5 0.252632 0.445912 0.453618
Si Si6 0.320682 0.226878 0.024165
Si Si7 0.532043 0.688728 0.111896
Si Si8 0.724143 0.703736 0.449174
O O1 0.326339 0.110851 0.812182
O O2 0.237616 0.083370 0.701809
O O3 0.141452 0.155031 0.982348
O O4 0.106488 0.075900 0.089660
O O5 0.500000 0.159015 0.500000
O O6 0.520432 0.121637 0.708704
O O7 0.372074 0.181807 0.891231
O O8 0.153568 0.423174 0.677987
O O9 0.185290 0.335058 0.626745
O O10 0.000000 0.366682 0.000000
O O11 0.128866 0.939271 0.624082
O O12 0.975434 0.000000 0.879275
O O13 0.000000 0.930773 0.000000
O O14 0.242018 0.500000 0.439595
O O15 0.248371 0.215936 0.258447
O O16 0.250000 0.250000 0.000000
O O17 0.421871 0.261013 0.926893
O O18 0.407455 0.685661 0.356482
O O19 0.500000 0.681710 0.000000
O O20 0.750000 0.750000 0.500000
#
# Coordination Sequence:
#
# PCOD9212000 Si02
#       8
#     8   8   8   8   8   8   8   8
#     4  11  20  38  61  96 130 160 216 268 332 384
#     4  12  26  43  64  91 136 183 218 273 330 393
#     4  12  25  45  65  94 136 182 224 270 332 408
#     4   8  15  31  60  93 123 151 195 267 328 380
#     4  10  21  40  70 102 129 166 219 280 343 400
#     4  12  27  44  60  96 133 174 224 271 335 386
#     4  12  24  38  66  94 124 170 226 276 317 384
#     4  12  26  43  69  94 132 178 226 277 323 393
#
# _framework density 19.076249000000001
#
# number of rings (size 3 to 8) (size 9 to 14) (size 15 to 20)
#    0.000    0.875    5.000    4.500    3.500    0.250 
#    0.000    1.875    0.000    0.000    0.000    1.750 
#    0.000    0.000    0.000    0.000    0.000    0.000 
#
# Total GULP energy -178388.665400 kJ/mol
# GULP energy per Si atom -5574.645794 kJ/mol
# Density = 1.903283 g / cm^3
# Si number density = 19.076249 Si / 1000 Ang^3
#
#
#
# Elastic Constant Matrix: (Units=GPa)
#
#
# Indices 1 2 3 4 5 6 
#
# 1 75.3309 20.0861 42.0711 0.0000 -6.4589 0.0000
# 2 20.0861 77.3766 33.4929 0.0000 -7.4111 0.0000
# 3 42.0711 33.4929 115.7837 0.0000 -5.5834 0.0000
# 4 0.0000 0.0000 0.0000 26.2319 0.0000 -5.2293
# 5 -6.4589 -7.4111 -5.5834 0.0000 27.5823 0.0000
# 6 0.0000 0.0000 0.0000 -5.2293 0.0000 27.9378
#
#
#
# Elastic Compliance Matrix: (Units=1/GPa)
#
#
# Indices 1 2 3 4 5 6 
#
# 1 0.017067 -0.001791 -0.005568 0.000000 0.002388 0.000000
# 2 -0.001791 0.015235 -0.003614 0.000000 0.002942 0.000000
# 3 -0.005568 -0.003614 0.011710 0.000000 0.000095 0.000000
# 4 0.000000 0.000000 0.000000 0.039599 0.000000 0.007412
# 5 0.002388 0.002942 0.000095 0.000000 0.037624 0.000000
# 6 0.000000 0.000000 0.000000 0.007412 0.000000 0.037181
#
#
# Mechanical properties :
#
#
# Convention : Reuss Voigt Hill
#
# Bulk Modulus (GPa) = 45.32156 51.08795 48.20476
# Shear Modulus (GPa) = 26.63557 27.87315 27.25436
#
# Velocity S-wave (km/s) = 3.74072 3.82664 3.78392
# Velocity P-wave (km/s) = 6.51667 6.80906 6.66447
#
# Compressibility (1/GPa) = 0.02206455
#
# Stress axis : x y z
#
# Youngs Moduli (GPa) = 58.59312 65.63788 85.39648
#
# Poissons Ratio (x) = 0.11759 0.47549
# Poissons Ratio (y) = 0.10497 0.30864
# Poissons Ratio (z) = 0.32625 0.23723
#
# Static dielectric constant tensor:
#      x y z
#    x 2.042930 0.000000 -0.096670 
#    y 0.000000 1.684050 0.000000 
#    z -0.096670 0.000000 1.734910 
# 
# From -- ./inp_files/80684.got.cif
#   From: 2010.05.17/outbox.cif.g08.bks.cpg/sg12_41_cif.got.tgz:80684.got - 2010.06.03 13:09:07.
