data_PCOD9212337
_publ_section_title
;
Structure prediction by ZEFSAII (Michael W. Deem and Ramdas Pophale) SiO2 
 PCOD9212337
Probable space group: C 2/M
;
_chemical_formula_sum "Si O2"
_cell_formula_units_Z 50
_cell_length_a 29.748691
_cell_length_b 7.964602
_cell_length_c 28.558983
_cell_angle_alpha 90.000000
_cell_angle_beta 159.622705
_cell_angle_gamma 90.000000
_cell_volume 2356.156795
_symmetry_space_group_name_H-M "C 2/M"
_symmetry_group_IT_number 12
_symmetry_cell_setting 'monoclinic'
loop_
_space_group_symop_operation_xyz
x,y,z
-x,y,-z
-x,-y,-z
x,-y,z
1/2+x,1/2+y,z
1/2-x,1/2+y,-z
1/2-x,1/2-y,-z
1/2+x,1/2-y,z
loop_
_atom_site_type_symbol
_atom_site_label
_atom_site_fract_x
_atom_site_fract_y
_atom_site_fract_z
Si Si1 0.550976 0.308476 0.707248
Si Si2 0.000000 0.500000 0.000000
Si Si3 0.795723 0.295630 0.883414
Si Si4 0.824566 0.192995 0.806801
Si Si5 0.033949 0.296281 0.182795
Si Si6 0.187408 0.693065 0.581314
Si Si7 0.101700 0.693716 0.857102
O O1 0.580169 0.500000 0.748782
O O2 0.671951 0.253166 0.793877
O O3 0.422316 0.298350 0.551097
O O4 0.541211 0.214956 0.746871
O O5 0.922610 0.348412 0.896009
O O6 0.802445 0.500000 0.880547
O O7 0.787958 0.209763 0.825500
O O8 0.921900 0.250976 0.036407
O O9 0.708253 0.222521 0.656952
O O10 0.870859 0.000000 0.843044
O O11 0.045991 0.500000 0.194504
O O12 0.983149 0.231762 0.183625
O O13 0.171988 0.224033 0.303584
O O14 0.149673 0.500000 0.537650
O O15 0.108685 0.500000 0.876076
O O16 0.250000 0.750000 0.000000
#
# Coordination Sequence:
#
# PCOD9212337 Si02
#       7
#     8   2   8   8   8   8   8
#     4  11  24  43  69  96 131 174 223 267 334 405
#     4  12  22  40  68  92 136 180 218 282 332 386
#     4  10  21  41  67  98 129 174 224 273 325 395
#     4  11  25  41  64  99 137 178 228 277 334 397
#     4  10  22  40  66  94 128 169 217 266 329 397
#     4  11  26  44  62  96 135 174 219 272 332 399
#     4  11  22  41  66  97 131 166 216 277 330 391
#
# _framework density 21.220997000000001
#
# number of rings (size 3 to 8) (size 9 to 14) (size 15 to 20)
#    0.000    1.280    2.400    2.640    4.480    5.760 
#    0.000    3.200    0.000    0.000    0.000    0.000 
#    0.000    0.000    0.000    0.000    0.000    0.000 
#
# Total GULP energy -139462.205747 kJ/mol
# GULP energy per Si atom -5578.488230 kJ/mol
# Density = 2.117270 g / cm^3
# Si number density = 21.220997 Si / 1000 Ang^3
#
#
#
# Elastic Constant Matrix: (Units=GPa)
#
#
# Indices 1 2 3 4 5 6 
#
# 1 77.3875 24.8221 19.1204 0.0004 -2.3896 0.0002
# 2 24.8221 62.0834 1.7932 0.0000 -6.1978 0.0000
# 3 19.1204 1.7932 91.4973 0.0004 -7.6791 0.0002
# 4 0.0004 0.0000 0.0004 22.9959 0.0001 -5.7312
# 5 -2.3896 -6.1978 -7.6791 0.0001 31.0960 0.0000
# 6 0.0002 0.0000 0.0002 -5.7312 0.0000 21.5775
#
#
#
# Elastic Compliance Matrix: (Units=1/GPa)
#
#
# Indices 1 2 3 4 5 6 
#
# 1 0.015705 -0.006270 -0.003230 0.000000 -0.000840 0.000000
# 2 -0.006270 0.018938 0.001241 0.000000 0.003599 0.000000
# 3 -0.003230 0.001241 0.011825 0.000000 0.002919 0.000000
# 4 0.000000 0.000000 0.000000 0.046569 0.000000 0.012369
# 5 -0.000840 0.003599 0.002919 0.000000 0.033532 0.000000
# 6 0.000000 0.000000 0.000000 0.012369 0.000000 0.049630
#
#
# Mechanical properties :
#
#
# Convention : Reuss Voigt Hill
#
# Bulk Modulus (GPa) = 33.38778 35.82663 34.60720
# Shear Modulus (GPa) = 24.66719 27.48272 26.07495
#
# Velocity S-wave (km/s) = 3.41309 3.60261 3.50913
# Velocity P-wave (km/s) = 5.59462 5.85016 5.72382
#
# Compressibility (1/GPa) = 0.02995107
#
# Stress axis : x y z
#
# Youngs Moduli (GPa) = 63.67395 52.80501 84.56763
#
# Poissons Ratio (x) = 0.33107 0.27312
# Poissons Ratio (y) = 0.39922 -0.10496
# Poissons Ratio (z) = 0.20564 -0.06554
#
# Static dielectric constant tensor:
#      x y z
#    x 1.878610 0.000000 0.050510 
#    y 0.000000 1.767360 0.000000 
#    z 0.050510 0.000000 1.751780 
# 
# From -- ./inp_files/384871.got.cif
#   From: 2010.05.17/outbox.cif.g08.bks.cpg/sg12_193_cif.got.tgz:384871.got - 2010.06.03 13:09:07.
