data_PCOD9212946
_publ_section_title
;
Structure prediction by ZEFSAII (Michael W. Deem and Ramdas Pophale) SiO2 
 PCOD9212946
Probable space group: C 2/M
;
_chemical_formula_sum "Si O2"
_cell_formula_units_Z 48
_cell_length_a 21.604653
_cell_length_b 16.990639
_cell_length_c 9.315979
_cell_angle_alpha 90.000000
_cell_angle_beta 50.880862
_cell_angle_gamma 90.000000
_cell_volume 2653.110089
_symmetry_space_group_name_H-M "C 2/M"
_symmetry_group_IT_number 12
_symmetry_cell_setting 'monoclinic'
loop_
_space_group_symop_operation_xyz
x,y,z
-x,y,-z
-x,-y,-z
x,-y,z
1/2+x,1/2+y,z
1/2-x,1/2+y,-z
1/2-x,1/2-y,-z
1/2+x,1/2-y,z
loop_
_atom_site_type_symbol
_atom_site_label
_atom_site_fract_x
_atom_site_fract_y
_atom_site_fract_z
Si Si1 0.007735 0.090996 0.162299
Si Si2 0.188936 0.591166 0.512882
Si Si3 0.810722 0.280149 0.710923
Si Si4 0.594236 0.814606 0.871090
Si Si5 0.134241 0.221593 0.077897
Si Si6 0.155418 0.167382 0.591116
O O1 0.073039 0.152081 0.126526
O O2 0.920179 0.116030 0.345470
O O3 0.026410 0.000000 0.168240
O O4 0.000000 0.097971 0.000000
O O5 0.185272 0.500000 0.485880
O O6 0.160137 0.645139 0.422798
O O7 0.137922 0.614270 0.727715
O O8 0.279271 0.617959 0.418006
O O9 0.866302 0.248406 0.756550
O O10 0.803341 0.210972 0.603234
O O11 0.725125 0.301238 0.904698
O O12 0.622157 0.736938 0.741546
O O13 0.500000 0.822658 0.000000
O O14 0.615561 0.795866 0.003385
#
# Coordination Sequence:
#
# PCOD9212946 Si02
#       6
#     8   8   8   8   8   8
#     4  11  21  34  59  94 121 146 183 234 292 341
#     4  11  22  38  59  85 115 149 194 246 284 326
#     4  10  22  35  60  81 115 155 196 226 282 346
#     4  11  19  37  62  82 110 150 202 232 272 339
#     4  11  19  38  57  84 115 156 188 229 275 345
#     4  11  18  37  59  88 113 151 187 232 281 351
#
# _framework density 18.091974
#
# number of rings (size 3 to 8) (size 9 to 14) (size 15 to 20)
#    0.000    1.167    6.667    1.500    0.000    3.000 
#    0.000    3.333    0.000    1.000    0.000    0.000 
#    0.000    0.000    0.000    0.000    0.000    0.000 
#
# Total GULP energy -133964.293810 kJ/mol
# GULP energy per Si atom -5581.845575 kJ/mol
# Density = 1.805080 g / cm^3
# Si number density = 18.091974 Si / 1000 Ang^3
#
#
#
# Elastic Constant Matrix: (Units=GPa)
#
#
# Indices 1 2 3 4 5 6 
#
# 1 88.8173 46.5870 29.0773 0.0000 4.7246 0.0000
# 2 46.5870 115.7665 34.8521 0.0000 13.6909 0.0000
# 3 29.0773 34.8521 51.7818 0.0000 -1.0223 0.0000
# 4 0.0000 0.0000 0.0000 15.0609 0.0000 0.9073
# 5 4.7246 13.6909 -1.0223 0.0000 35.4918 0.0000
# 6 0.0000 0.0000 0.0000 0.9073 0.0000 16.2758
#
#
#
# Elastic Compliance Matrix: (Units=1/GPa)
#
#
# Indices 1 2 3 4 5 6 
#
# 1 0.015493 -0.004455 -0.005711 0.000000 -0.000508 0.000000
# 2 -0.004455 0.012844 -0.006233 0.000000 -0.004541 0.000000
# 3 -0.005711 -0.006233 0.026792 0.000000 0.003936 0.000000
# 4 0.000000 0.000000 0.000000 0.066621 0.000000 -0.003714
# 5 -0.000508 -0.004541 0.003936 0.000000 0.030108 0.000000
# 6 0.000000 0.000000 0.000000 -0.003714 0.000000 0.061648
#
#
# Mechanical properties :
#
#
# Convention : Reuss Voigt Hill
#
# Bulk Modulus (GPa) = 44.78227 53.04428 48.91327
# Shear Modulus (GPa) = 19.70459 23.08897 21.39678
#
# Velocity S-wave (km/s) = 3.30378 3.57627 3.44272
# Velocity P-wave (km/s) = 6.27372 6.81438 6.54963
#
# Compressibility (1/GPa) = 0.02233026
#
# Stress axis : x y z
#
# Youngs Moduli (GPa) = 64.54658 77.85462 37.32493
#
# Poissons Ratio (x) = 0.34685 0.21317
# Poissons Ratio (y) = 0.28756 0.23265
# Poissons Ratio (z) = 0.36864 0.48527
#
# Static dielectric constant tensor:
#      x y z
#    x 1.633700 0.000000 -0.008810 
#    y 0.000000 1.600720 0.000000 
#    z -0.008810 0.000000 1.657330 
# 
# From -- ./inp_files/87708.got.cif
#   From: 2010.05.17/outbox.cif.g08.bks.cpg/sg12_44_cif.got.tgz:87708.got - 2010.06.03 13:09:07.
