data_PCOD9212801
_publ_section_title
;
Structure prediction by ZEFSAII (Michael W. Deem and Ramdas Pophale) SiO2 
 PCOD9212801
Probable space group: C 2/M
;
_chemical_formula_sum "Si O2"
_cell_formula_units_Z 60
_cell_length_a 12.544891
_cell_length_b 16.908131
_cell_length_c 21.532855
_cell_angle_alpha 90.000000
_cell_angle_beta 37.845339
_cell_angle_gamma 90.000000
_cell_volume 2802.214773
_symmetry_space_group_name_H-M "C 2/M"
_symmetry_group_IT_number 12
_symmetry_cell_setting 'monoclinic'
loop_
_space_group_symop_operation_xyz
x,y,z
-x,y,-z
-x,-y,-z
x,-y,z
1/2+x,1/2+y,z
1/2-x,1/2+y,-z
1/2-x,1/2-y,-z
1/2+x,1/2-y,z
loop_
_atom_site_type_symbol
_atom_site_label
_atom_site_fract_x
_atom_site_fract_y
_atom_site_fract_z
Si Si1 0.500000 0.217014 0.000000
Si Si2 0.210761 0.671762 0.147134
Si Si3 0.768412 0.409771 0.741767
Si Si4 0.670638 0.910134 0.517998
Si Si5 0.624794 0.091825 0.748082
Si Si6 0.806723 0.175078 0.563735
Si Si7 0.656418 0.343055 0.671663
Si Si8 0.202405 0.830928 0.217481
O O1 0.354712 0.279497 0.042066
O O2 0.387913 0.162889 0.097033
O O3 0.270438 0.604459 0.167693
O O4 0.162182 0.738423 0.222002
O O5 0.057298 0.638089 0.175838
O O6 0.724682 0.500000 0.746053
O O7 0.668371 0.353834 0.739767
O O8 0.973478 0.399164 0.631878
O O9 0.789118 0.846199 0.499709
O O10 0.701830 0.894279 0.430972
O O11 0.723422 0.000000 0.506917
O O12 0.713689 0.101469 0.640228
O O13 0.754832 0.136921 0.734768
O O14 0.602247 0.000000 0.774897
O O15 0.705649 0.253630 0.630738
O O16 0.000000 0.183146 0.500000
O O17 0.466554 0.369597 0.735293
#
# Coordination Sequence:
#
# PCOD9212801 Si02
#       8
#     4   8   8   8   8   8   8   8
#     4   8  22  44  72  92 120 164 220 270 330 392
#     4  10  21  44  70  93 124 166 220 266 323 390
#     4  11  22  39  63  93 134 172 212 269 329 383
#     4  11  23  39  58  89 133 174 216 266 323 378
#     4  12  24  42  67  99 135 170 212 274 333 382
#     4  12  23  37  59  89 129 175 223 264 310 387
#     4  12  23  40  62  95 128 175 226 265 315 387
#     4  10  23  43  69  93 127 170 216 271 324 397
#
# _framework density 21.411633999999999
#
# number of rings (size 3 to 8) (size 9 to 14) (size 15 to 20)
#    0.800    0.267    2.667    4.400    0.000    4.800 
#    2.400    1.667    0.000    0.000    0.000    0.000 
#    0.000    0.000    0.000    0.000    0.000    0.000 
#
# Total GULP energy -167184.206749 kJ/mol
# GULP energy per Si atom -5572.806892 kJ/mol
# Density = 2.136290 g / cm^3
# Si number density = 21.411634 Si / 1000 Ang^3
#
#
#
# Elastic Constant Matrix: (Units=GPa)
#
#
# Indices 1 2 3 4 5 6 
#
# 1 115.4357 15.9759 4.2428 -0.0002 -23.1347 0.0000
# 2 15.9759 73.1623 -7.2938 0.0004 -6.5122 0.0001
# 3 4.2428 -7.2938 58.2298 0.0018 -8.8718 0.0001
# 4 -0.0002 0.0004 0.0018 14.3389 0.0000 0.5151
# 5 -23.1347 -6.5122 -8.8718 0.0000 21.9531 -0.0001
# 6 0.0000 0.0001 0.0001 0.5151 -0.0001 18.8837
#
#
#
# Elastic Compliance Matrix: (Units=1/GPa)
#
#
# Indices 1 2 3 4 5 6 
#
# 1 0.011159 -0.001316 0.000804 0.000000 0.011694 0.000000
# 2 -0.001316 0.014559 0.002521 -0.000001 0.003951 0.000000
# 3 0.000804 0.002521 0.018833 -0.000002 0.009206 0.000000
# 4 0.000000 -0.000001 -0.000002 0.069809 -0.000001 -0.001904
# 5 0.011694 0.003951 0.009206 -0.000001 0.062768 0.000000
# 6 0.000000 0.000000 0.000000 -0.001904 0.000000 0.053008
#
#
# Mechanical properties :
#
#
# Convention : Reuss Voigt Hill
#
# Bulk Modulus (GPa) = 20.58878 30.29752 25.44315
# Shear Modulus (GPa) = 20.63506 26.62865 23.63186
#
# Velocity S-wave (km/s) = 3.10777 3.53037 3.32579
# Velocity P-wave (km/s) = 4.74491 5.54967 5.16299
#
# Compressibility (1/GPa) = 0.04857014
#
# Stress axis : x y z
#
# Youngs Moduli (GPa) = 89.61357 68.68788 53.09759
#
# Poissons Ratio (x) = 0.09037 -0.04268
# Poissons Ratio (y) = 0.11790 -0.13388
# Poissons Ratio (z) = -0.07203 -0.17319
#
# Static dielectric constant tensor:
#      x y z
#    x 1.821520 0.000000 0.011580 
#    y 0.000000 1.823420 0.000000 
#    z 0.011580 0.000000 1.813510 
# 
# From -- ./inp_files/336456.got.cif
#   From: 2010.05.17/outbox.cif.g08.bks.cpg/sg12_169_cif.got.tgz:336456.got - 2010.06.03 13:09:07.
