data_PCOD9212680
_publ_section_title
;
Structure prediction by ZEFSAII (Michael W. Deem and Ramdas Pophale) SiO2 
 PCOD9212680
Probable space group: C 2/M
;
_chemical_formula_sum "Si O2"
_cell_formula_units_Z 50
_cell_length_a 17.260290
_cell_length_b 20.642782
_cell_length_c 24.344040
_cell_angle_alpha 90.000000
_cell_angle_beta 162.249061
_cell_angle_gamma 90.000000
_cell_volume 2644.464683
_symmetry_space_group_name_H-M "C 2/M"
_symmetry_group_IT_number 12
_symmetry_cell_setting 'monoclinic'
loop_
_space_group_symop_operation_xyz
x,y,z
-x,y,-z
-x,-y,-z
x,-y,z
1/2+x,1/2+y,z
1/2-x,1/2+y,-z
1/2-x,1/2-y,-z
1/2+x,1/2-y,z
loop_
_atom_site_type_symbol
_atom_site_label
_atom_site_fract_x
_atom_site_fract_y
_atom_site_fract_z
Si Si1 0.366169 0.576522 0.026665
Si Si2 0.749844 0.827049 0.509433
Si Si3 0.618938 0.774379 0.219245
Si Si4 0.722492 0.116913 0.374795
Si Si5 0.400785 0.661246 0.150585
Si Si6 0.697726 0.322777 0.180673
Si Si7 0.500000 0.500000 0.500000
O O1 0.391400 0.500000 0.034818
O O2 0.411886 0.596948 0.120996
O O3 0.555775 0.619130 0.117292
O O4 0.077528 0.600093 0.821340
O O5 0.750000 0.750000 0.500000
O O6 0.818702 0.861117 0.499033
O O7 0.462886 0.844560 0.333702
O O8 0.943010 0.843423 0.688466
O O9 0.741656 0.824745 0.343995
O O10 0.515891 0.717636 0.189539
O O11 0.754498 0.735297 0.262037
O O12 0.386787 0.814408 0.035210
O O13 0.866691 0.056209 0.447991
O O14 0.500000 0.301167 0.000000
#
# Coordination Sequence:
#
# PCOD9212680 Si02
#       7
#     8   8   8   8   8   8   2
#     4  10  21  43  64  86 126 180 211 252 319 398
#     4  12  23  39  65 100 128 157 206 286 325 361
#     4   9  19  38  63  88 125 171 203 260 322 394
#     4  11  23  43  67  90 128 171 220 262 313 389
#     4   9  19  37  63  92 128 163 211 259 331 375
#     4  11  22  37  63  98 128 160 212 261 337 383
#     4  12  28  44  64  96 124 184 226 242 312 406
#
# _framework density 18.907419999999998
#
# number of rings (size 3 to 8) (size 9 to 14) (size 15 to 20)
#    0.000    1.600    4.000    1.920    2.240    2.880 
#    2.880    0.800    0.000    3.840    0.000    0.000 
#    0.000    0.000    0.000    0.000    0.000    0.000 
#
# Total GULP energy -139334.717024 kJ/mol
# GULP energy per Si atom -5573.388681 kJ/mol
# Density = 1.886439 g / cm^3
# Si number density = 18.907420 Si / 1000 Ang^3
#
#
#
# Elastic Constant Matrix: (Units=GPa)
#
#
# Indices 1 2 3 4 5 6 
#
# 1 95.4356 47.0787 56.8402 0.0203 -8.7605 -0.0345
# 2 47.0787 94.3110 2.1535 -0.1331 1.1817 -0.0138
# 3 56.8402 2.1535 84.8424 -0.3041 -22.2297 0.1437
# 4 0.0203 -0.1331 -0.3041 7.0189 0.0377 10.3053
# 5 -8.7605 1.1817 -22.2297 0.0377 42.6808 0.0057
# 6 -0.0345 -0.0138 0.1437 10.3053 0.0057 22.0602
#
#
#
# Elastic Compliance Matrix: (Units=1/GPa)
#
#
# Indices 1 2 3 4 5 6 
#
# 1 0.029032 -0.013985 -0.020210 -0.004619 -0.004176 0.002327
# 2 -0.013985 0.017356 0.009336 0.002776 0.001509 -0.001369
# 3 -0.020210 0.009336 0.027743 0.005382 0.010039 -0.002723
# 4 -0.004619 0.002776 0.005382 0.454660 0.001404 -0.212432
# 5 -0.004176 0.001509 0.010039 0.001404 0.027758 -0.000734
# 6 0.002327 -0.001369 -0.002723 -0.212432 -0.000734 0.144587
#
#
# Mechanical properties :
#
#
# Convention : Reuss Voigt Hill
#
# Bulk Modulus (GPa) = 40.95879 54.08153 47.52016
# Shear Modulus (GPa) = 6.58769 25.58642 16.08706
#
# Velocity S-wave (km/s) = 1.86862 3.68264 2.92007
# Velocity P-wave (km/s) = 5.13473 6.83724 6.04621
#
# Compressibility (1/GPa) = 0.02441478
#
# Stress axis : x y z
#
# Youngs Moduli (GPa) = 34.44439 57.61729 36.04474
#
# Poissons Ratio (x) = 0.80577 0.72846
# Poissons Ratio (y) = 0.48170 -0.33653
# Poissons Ratio (z) = 0.69612 -0.53794
#
# Static dielectric constant tensor:
#      x y z
#    x 1.658200 -0.000010 0.035060 
#    y -0.000010 1.629570 -0.000080 
#    z 0.035060 -0.000080 1.747640 
# 
# From -- ./inp_files/344706.got.cif
#   From: 2010.05.17/outbox.cif.g08.bks.cpg/sg12_173_cif.got.tgz:344706.got - 2010.06.03 13:09:07.
