data_PCOD9212341
_publ_section_title
;
Structure prediction by ZEFSAII (Michael W. Deem and Ramdas Pophale) SiO2 
 PCOD9212341
Probable space group: C 2/M
;
_chemical_formula_sum "Si O2"
_cell_formula_units_Z 48
_cell_length_a 12.279555
_cell_length_b 15.858802
_cell_length_c 12.153976
_cell_angle_alpha 90.000000
_cell_angle_beta 81.245012
_cell_angle_gamma 90.000000
_cell_volume 2339.275560
_symmetry_space_group_name_H-M "C 2/M"
_symmetry_group_IT_number 12
_symmetry_cell_setting 'monoclinic'
loop_
_space_group_symop_operation_xyz
x,y,z
-x,y,-z
-x,-y,-z
x,-y,z
1/2+x,1/2+y,z
1/2-x,1/2+y,-z
1/2-x,1/2-y,-z
1/2+x,1/2-y,z
loop_
_atom_site_type_symbol
_atom_site_label
_atom_site_fract_x
_atom_site_fract_y
_atom_site_fract_z
Si Si1 0.440966 0.500000 0.674355
Si Si2 0.988138 0.848681 0.821466
Si Si3 0.418527 0.900742 0.919457
Si Si4 0.320348 0.832610 0.517964
Si Si5 0.318979 0.500000 0.473295
Si Si6 0.491753 0.176265 0.688159
Si Si7 0.834321 0.897963 0.038275
O O1 0.437398 0.417686 0.748651
O O2 0.346547 0.500000 0.598344
O O3 0.561836 0.500000 0.601259
O O4 0.102699 0.880284 0.857128
O O5 0.005392 0.764218 0.750440
O O6 0.902019 0.847016 0.935606
O O7 0.466450 0.887642 0.790579
O O8 0.292446 0.870132 0.941817
O O9 0.409789 0.000000 0.943275
O O10 0.500000 0.863420 0.000000
O O11 0.250000 0.750000 0.500000
O O12 0.246610 0.915435 0.545268
O O13 0.403588 0.846190 0.402824
O O14 0.391720 0.817778 0.616840
O O15 0.843282 0.000000 0.016330
#
# Coordination Sequence:
#
# PCOD9212341 Si02
#       7
#     4   8   8   8   4   8   8
#     4  11  22  41  66 107 123 160 233 268 346 395
#     4  11  21  40  67  99 134 169 213 286 336 394
#     4  10  25  44  63  95 136 174 222 274 330 408
#     4  11  26  48  65 100 135 175 232 285 338 396
#     4  11  26  41  74  93 131 182 219 286 339 396
#     4  11  27  41  68  96 134 176 230 272 329 412
#     4  10  21  41  68 100 132 170 225 275 333 410
#
# _framework density 20.519172000000001
#
# number of rings (size 3 to 8) (size 9 to 14) (size 15 to 20)
#    0.000    1.333    1.667    2.500    9.333    6.667 
#    0.000    0.000    0.000    0.000    0.000    0.000 
#    0.000    0.000    0.000    0.000    0.000    0.000 
#
# Total GULP energy -134147.485243 kJ/mol
# GULP energy per Si atom -5589.478552 kJ/mol
# Density = 2.047247 g / cm^3
# Si number density = 20.519172 Si / 1000 Ang^3
#
#
#
# Elastic Constant Matrix: (Units=GPa)
#
#
# Indices 1 2 3 4 5 6 
#
# 1 119.7932 10.2185 39.9758 0.0000 3.3225 0.0000
# 2 10.2185 56.9658 -10.0800 0.0000 -1.2471 0.0000
# 3 39.9758 -10.0800 88.6779 0.0000 11.7030 0.0000
# 4 0.0000 0.0000 0.0000 36.1235 0.0000 -9.7891
# 5 3.3225 -1.2471 11.7030 0.0000 23.7908 0.0000
# 6 0.0000 0.0000 0.0000 -9.7891 0.0000 -4.8717
#
#
#
# Elastic Compliance Matrix: (Units=1/GPa)
#
#
# Indices 1 2 3 4 5 6 
#
# 1 0.010236 -0.002708 -0.005042 0.000000 0.000909 0.000000
# 2 -0.002708 0.018631 0.003379 0.000000 -0.000307 0.000000
# 3 -0.005042 0.003379 0.014777 0.000000 -0.006388 0.000000
# 4 0.000000 0.000000 0.000000 0.017923 0.000000 -0.036015
# 5 0.000909 -0.000307 -0.006388 0.000000 0.045032 0.000000
# 6 0.000000 0.000000 0.000000 -0.036015 0.000000 -0.132900
#
#
# Mechanical properties :
#
#
# Convention : Reuss Voigt Hill
#
# Bulk Modulus (GPa) = 28.65178 38.40728 33.52953
# Shear Modulus (GPa) = -844.05129 26.03003 -409.01063
#
# Velocity S-wave (km/s) = -20.30371 3.56556 -14.13378
# Velocity P-wave (km/s) = 23.14434 5.97573 15.81061
#
# Compressibility (1/GPa) = 0.03490185
#
# Stress axis : x y z
#
# Youngs Moduli (GPa) = 97.69263 53.67263 67.67310
#
# Poissons Ratio (x) = 0.14537 0.34123
# Poissons Ratio (y) = 0.26460 -0.22869
# Poissons Ratio (z) = 0.49259 -0.18138
#
# Static dielectric constant tensor:
#      x y z
#    x 1.723250 0.000000 -0.001070 
#    y 0.000000 1.574620 0.000000 
#    z -0.001070 0.000000 1.717990 
# 
# From -- ./inp_files/131714.got.cif
#   From: 2010.05.17/outbox.cif.g08.bks.cpg/sg12_66_cif.got.tgz:131714.got - 2010.06.03 13:09:07.
