data_PCOD9212322
_publ_section_title
;
Structure prediction by ZEFSAII (Michael W. Deem and Ramdas Pophale) SiO2 
 PCOD9212322
Probable space group: C 2/M
;
_chemical_formula_sum "Si O2"
_cell_formula_units_Z 40
_cell_length_a 9.235784
_cell_length_b 16.021139
_cell_length_c 12.390756
_cell_angle_alpha 90.000000
_cell_angle_beta 88.008953
_cell_angle_gamma 90.000000
_cell_volume 1832.325747
_symmetry_space_group_name_H-M "C 2/M"
_symmetry_group_IT_number 12
_symmetry_cell_setting 'monoclinic'
loop_
_space_group_symop_operation_xyz
x,y,z
-x,y,-z
-x,-y,-z
x,-y,z
1/2+x,1/2+y,z
1/2-x,1/2+y,-z
1/2-x,1/2-y,-z
1/2+x,1/2-y,z
loop_
_atom_site_type_symbol
_atom_site_label
_atom_site_fract_x
_atom_site_fract_y
_atom_site_fract_z
Si Si1 0.470961 0.264792 0.254549
Si Si2 0.225383 0.311517 0.104163
Si Si3 0.415991 0.500000 0.837559
Si Si4 0.227089 0.000000 0.926727
Si Si5 0.154311 0.324673 0.553922
Si Si6 0.598516 0.410931 0.362176
O O1 0.373535 0.309295 0.168112
O O2 0.604429 0.225306 0.187325
O O3 0.380809 0.195382 0.320513
O O4 0.508167 0.327056 0.353432
O O5 0.193973 0.409886 0.082891
O O6 0.250000 0.250000 0.000000
O O7 0.589826 0.500000 0.847707
O O8 0.362322 0.423126 0.765885
O O9 0.345822 0.500000 0.954418
O O10 0.250000 0.250000 0.500000
O O11 0.268500 0.399911 0.561049
O O12 0.000000 0.338901 0.500000
O O13 0.523146 0.500000 0.384416
#
# Coordination Sequence:
#
# PCOD9212322 Si02
#       6
#     8   8   4   4   8   8
#     4  12  23  44  67  98 135 177 216 283 337 391
#     4  12  25  42  66 103 137 180 226 272 336 405
#     4   9  20  38  66  96 133 176 225 274 325 395
#     4  11  22  38  68  98 136 183 237 264 324 416
#     4  12  24  44  71  97 128 175 225 279 341 404
#     4  10  21  41  67  94 130 169 217 273 339 387
#
# _framework density 21.830179000000001
#
# number of rings (size 3 to 8) (size 9 to 14) (size 15 to 20)
#    0.600    0.200    6.000    1.800    2.800    0.400 
#    1.800    4.000    4.400    0.000    0.000    0.000 
#    0.000    0.000    0.000    0.000    0.000    0.000 
#
# Total GULP energy -111390.612360 kJ/mol
# GULP energy per Si atom -5569.530618 kJ/mol
# Density = 2.178049 g / cm^3
# Si number density = 21.830179 Si / 1000 Ang^3
#
#
#
# Elastic Constant Matrix: (Units=GPa)
#
#
# Indices 1 2 3 4 5 6 
#
# 1 83.0059 29.9095 35.0748 0.0000 3.8220 0.0000
# 2 29.9095 128.8192 28.0461 0.0000 -11.3034 0.0000
# 3 35.0748 28.0461 91.7513 0.0000 1.9646 0.0000
# 4 0.0000 0.0000 0.0000 12.2818 0.0000 27.3706
# 5 3.8220 -11.3034 1.9646 0.0000 44.6619 0.0000
# 6 0.0000 0.0000 0.0000 27.3706 0.0000 13.7740
#
#
#
# Elastic Compliance Matrix: (Units=1/GPa)
#
#
# Indices 1 2 3 4 5 6 
#
# 1 0.015159 -0.002591 -0.004966 0.000000 -0.001734 0.000000
# 2 -0.002591 0.008985 -0.001811 0.000000 0.002575 0.000000
# 3 -0.004966 -0.001811 0.013364 0.000000 -0.000621 0.000000
# 4 0.000000 0.000000 0.000000 -0.023749 0.000000 0.047192
# 5 -0.001734 0.002575 -0.000621 0.000000 0.023218 0.000000
# 6 0.000000 0.000000 0.000000 0.047192 0.000000 -0.021176
#
#
# Mechanical properties :
#
#
# Convention : Reuss Voigt Hill
#
# Bulk Modulus (GPa) = 53.26959 54.40413 53.83686
# Shear Modulus (GPa) = 122.56745 28.17996 75.37370
#
# Velocity S-wave (km/s) = 7.50118 3.59677 5.88237
# Velocity P-wave (km/s) = 9.97389 6.49805 8.41734
#
# Compressibility (1/GPa) = 0.01877244
#
# Stress axis : x y z
#
# Youngs Moduli (GPa) = 65.96686 111.30139 74.82591
#
# Poissons Ratio (x) = 0.28835 0.37159
# Poissons Ratio (y) = 0.17090 0.13552
# Poissons Ratio (z) = 0.32759 0.20158
#
# Static dielectric constant tensor:
#      x y z
#    x 1.844890 0.000000 0.037650 
#    y 0.000000 1.975360 0.000000 
#    z 0.037650 0.000000 1.791510 
# 
# From -- ./inp_files/118974.got.cif
#   From: 2010.05.17/outbox.cif.g08.bks.cpg/sg12_60_cif.got.tgz:118974.got - 2010.06.03 13:09:07.
