data_PCOD9212926
_publ_section_title
;
Structure prediction by ZEFSAII (Michael W. Deem and Ramdas Pophale) SiO2 
 PCOD9212926
Probable space group: C 2/M
;
_chemical_formula_sum "Si O2"
_cell_formula_units_Z 64
_cell_length_a 9.578345
_cell_length_b 24.497643
_cell_length_c 31.086401
_cell_angle_alpha 90.000000
_cell_angle_beta 150.243769
_cell_angle_gamma 90.000000
_cell_volume 3620.254080
_symmetry_space_group_name_H-M "C 2/M"
_symmetry_group_IT_number 12
_symmetry_cell_setting 'monoclinic'
loop_
_space_group_symop_operation_xyz
x,y,z
-x,y,-z
-x,-y,-z
x,-y,z
1/2+x,1/2+y,z
1/2-x,1/2+y,-z
1/2-x,1/2-y,-z
1/2+x,1/2-y,z
loop_
_atom_site_type_symbol
_atom_site_label
_atom_site_fract_x
_atom_site_fract_y
_atom_site_fract_z
Si Si1 0.321636 0.935656 0.908831
Si Si2 0.582399 0.166465 0.188031
Si Si3 0.284059 0.178350 0.677333
Si Si4 0.796099 0.235326 0.062015
Si Si5 0.842317 0.692273 0.503833
Si Si6 0.163354 0.437895 0.912800
Si Si7 0.162014 0.846411 0.210480
Si Si8 0.668171 0.695127 0.306799
O O1 0.527621 0.924607 0.923248
O O2 0.050202 0.896314 0.837438
O O3 0.242457 0.000000 0.885662
O O4 0.500000 0.927392 0.000000
O O5 0.651706 0.179586 0.255221
O O6 0.379717 0.210403 0.110913
O O7 0.453068 0.106897 0.150363
O O8 0.875944 0.168569 0.241579
O O9 0.517798 0.141368 0.717015
O O10 0.334795 0.241944 0.677993
O O11 0.958925 0.163186 0.582659
O O12 0.029680 0.190648 0.136810
O O13 0.500000 0.213556 0.000000
O O14 0.750000 0.250000 0.000000
O O15 0.750000 0.750000 0.500000
O O16 0.000000 0.698529 0.500000
O O17 0.067344 0.668504 0.597817
O O18 0.081059 0.500000 0.880558
O O19 0.500000 0.435004 0.000000
O O20 0.184691 0.810577 0.260013
#
# Coordination Sequence:
#
# PCOD9212926 Si02
#       8
#     8   8   8   8   8   8   8   8
#     4  10  23  41  59  81 111 149 196 245 283 328
#     4  12  21  37  56  81 113 151 189 237 278 331
#     4  11  22  36  55  85 117 150 187 233 280 351
#     4  12  24  35  50  75 116 154 185 224 278 337
#     4  10  22  35  55  82 117 156 188 227 290 342
#     4  10  23  41  60  82 109 149 199 242 284 329
#     4  12  23  37  58  83 114 153 194 234 285 337
#     4  11  20  38  56  81 122 151 185 235 278 348
#
# _framework density 17.678317
#
# number of rings (size 3 to 8) (size 9 to 14) (size 15 to 20)
#    0.000    1.000    5.000    2.250    8.750    0.000 
#    0.000    0.000    0.000    0.000    0.000    5.250 
#    0.000    0.000    0.000    0.000    0.000    0.000 
#
# Total GULP energy -178565.635718 kJ/mol
# GULP energy per Si atom -5580.176116 kJ/mol
# Density = 1.763808 g / cm^3
# Si number density = 17.678317 Si / 1000 Ang^3
#
#
#
# Elastic Constant Matrix: (Units=GPa)
#
#
# Indices 1 2 3 4 5 6 
#
# 1 74.5512 8.3112 25.6282 -0.0004 12.1629 -0.0001
# 2 8.3112 54.2248 30.2668 0.0019 4.6381 -0.0015
# 3 25.6282 30.2668 102.4091 -0.0021 8.4133 -0.0020
# 4 -0.0004 0.0019 -0.0021 14.1513 -0.0031 2.6605
# 5 12.1629 4.6381 8.4133 -0.0031 32.7704 -0.0021
# 6 -0.0001 -0.0015 -0.0020 2.6605 -0.0021 17.3850
#
#
#
# Elastic Compliance Matrix: (Units=1/GPa)
#
#
# Indices 1 2 3 4 5 6 
#
# 1 0.015388 -0.000021 -0.003448 -0.000001 -0.004823 -0.000001
# 2 -0.000021 0.022156 -0.006421 -0.000005 -0.001479 0.000002
# 3 -0.003448 -0.006421 0.012612 0.000002 -0.001049 0.000000
# 4 -0.000001 -0.000005 0.000002 0.072758 0.000007 -0.011135
# 5 -0.004823 -0.001479 -0.001049 0.000007 0.032784 0.000003
# 6 -0.000001 0.000002 0.000000 -0.011135 0.000003 0.059225
#
#
# Mechanical properties :
#
#
# Convention : Reuss Voigt Hill
#
# Bulk Modulus (GPa) = 32.92303 39.95527 36.43915
# Shear Modulus (GPa) = 20.42238 23.99326 22.20782
#
# Velocity S-wave (km/s) = 3.40254 3.68804 3.54816
# Velocity P-wave (km/s) = 5.83954 6.38638 6.11907
#
# Compressibility (1/GPa) = 0.03037388
#
# Stress axis : x y z
#
# Youngs Moduli (GPa) = 64.98444 45.13517 79.29143
#
# Poissons Ratio (x) = 0.00096 0.27343
# Poissons Ratio (y) = 0.00138 0.50915
# Poissons Ratio (z) = 0.22410 0.28982
#
# Static dielectric constant tensor:
#      x y z
#    x 1.644980 0.000000 0.029350 
#    y 0.000000 1.598290 -0.000010 
#    z 0.029350 -0.000010 1.569510 
# 
# From -- ./inp_files/199757.got.cif
#   From: 2010.05.17/outbox.cif.g08.bks.cpg/sg12_100_cif.got.tgz:199757.got - 2010.06.03 13:09:07.
