data_PCOD9212064
_publ_section_title
;
Structure prediction by ZEFSAII (Michael W. Deem and Ramdas Pophale) SiO2 
 PCOD9212064
Probable space group: C 2/M
;
_chemical_formula_sum "Si O2"
_cell_formula_units_Z 50
_cell_length_a 17.711055
_cell_length_b 7.458341
_cell_length_c 16.083516
_cell_angle_alpha 90.000000
_cell_angle_beta 113.923296
_cell_angle_gamma 90.000000
_cell_volume 1942.031268
_symmetry_space_group_name_H-M "C 2/M"
_symmetry_group_IT_number 12
_symmetry_cell_setting 'monoclinic'
loop_
_space_group_symop_operation_xyz
x,y,z
-x,y,-z
-x,-y,-z
x,-y,z
1/2+x,1/2+y,z
1/2-x,1/2+y,-z
1/2-x,1/2-y,-z
1/2+x,1/2-y,z
loop_
_atom_site_type_symbol
_atom_site_label
_atom_site_fract_x
_atom_site_fract_y
_atom_site_fract_z
Si Si1 0.334992 0.218679 0.719710
Si Si2 0.812601 0.210968 0.451555
Si Si3 0.622429 0.211420 0.763696
Si Si4 0.000000 0.500000 0.000000
Si Si5 0.568281 0.286204 0.925034
Si Si6 0.200346 0.795988 0.117552
Si Si7 0.957858 0.289505 0.627711
O O1 0.242156 0.278366 0.649591
O O2 0.347007 0.294252 0.816344
O O3 0.400864 0.279880 0.679065
O O4 0.336052 0.000000 0.721768
O O5 0.750000 0.250000 0.500000
O O6 0.902091 0.275906 0.520312
O O7 0.820252 0.000000 0.445317
O O8 0.582324 0.239600 0.836213
O O9 0.712851 0.293478 0.819315
O O10 0.551370 0.283815 0.670065
O O11 0.634662 0.000000 0.750686
O O12 0.998949 0.657226 0.928652
O O13 0.556402 0.500000 0.931230
O O14 0.646657 0.221877 0.017484
O O15 0.217497 0.000000 0.098965
O O16 0.967002 0.500000 0.648547
#
# Coordination Sequence:
#
# PCOD9212064 Si02
#       7
#     8   8   8   2   8   8   8
#     4   9  19  33  55  83 113 152 197 244 306 365
#     4   9  17  32  52  80 113 147 189 243 304 363
#     4  10  21  41  62  86 123 165 200 248 306 358
#     4  12  26  44  68  94 128 160 192 276 304 346
#     4  11  25  42  65  95 125 163 207 244 307 371
#     4  10  23  39  59  88 120 159 207 249 295 367
#     4   9  19  34  58  84 112 152 198 243 306 367
#
# _framework density 25.746238000000002
#
# number of rings (size 3 to 8) (size 9 to 14) (size 15 to 20)
#    0.000    2.240    0.800    2.160    3.360    4.480 
#    0.000    0.800    0.000    4.800    0.000    0.000 
#    0.000    0.000    0.000    0.000    0.000    0.000 
#
# Total GULP energy -139398.256077 kJ/mol
# GULP energy per Si atom -5575.930243 kJ/mol
# Density = 2.568764 g / cm^3
# Si number density = 25.746238 Si / 1000 Ang^3
#
#
#
# Elastic Constant Matrix: (Units=GPa)
#
#
# Indices 1 2 3 4 5 6 
#
# 1 47.8584 15.7785 34.7434 0.0000 34.5073 0.0000
# 2 15.7785 107.4368 -9.3185 0.0000 8.0019 0.0000
# 3 34.7434 -9.3185 138.3829 0.0000 54.8980 0.0000
# 4 0.0000 0.0000 0.0000 -0.4535 0.0000 -24.2942
# 5 34.5073 8.0019 54.8980 0.0000 68.5464 0.0000
# 6 0.0000 0.0000 0.0000 -24.2942 0.0000 0.8909
#
#
#
# Elastic Compliance Matrix: (Units=1/GPa)
#
#
# Indices 1 2 3 4 5 6 
#
# 1 0.035284 -0.004393 -0.003388 0.000000 -0.014536 0.000000
# 2 -0.004393 0.010173 0.002025 0.000000 -0.000598 0.000000
# 3 -0.003388 0.002025 0.011184 0.000000 -0.007488 0.000000
# 4 0.000000 0.000000 0.000000 -0.001508 0.000000 -0.041134
# 5 -0.014536 -0.000598 -0.007488 0.000000 0.027973 0.000000
# 6 0.000000 0.000000 0.000000 -0.041134 0.000000 0.000768
#
#
# Mechanical properties :
#
#
# Convention : Reuss Voigt Hill
#
# Bulk Modulus (GPa) = 22.15830 41.78720 31.97275
# Shear Modulus (GPa) = 45.27847 30.62841 37.95344
#
# Velocity S-wave (km/s) = 4.19817 3.45284 3.84361
# Velocity P-wave (km/s) = 5.66786 5.67113 5.66950
#
# Compressibility (1/GPa) = 0.04512982
#
# Stress axis : x y z
#
# Youngs Moduli (GPa) = 28.34162 98.29767 89.41507
#
# Poissons Ratio (x) = 0.43183 0.30291
# Poissons Ratio (y) = 0.12451 -0.18109
# Poissons Ratio (z) = 0.09601 -0.19908
#
# Static dielectric constant tensor:
#      x y z
#    x 2.131730 0.000000 0.094000 
#    y 0.000000 1.970080 0.000000 
#    z 0.094000 0.000000 2.066250 
# 
# From -- ./inp_files/275780.got.cif
#   From: 2010.05.17/outbox.cif.g08.bks.cpg/sg12_138_cif.got.tgz:275780.got - 2010.06.03 13:09:07.
