data_PCOD9212729
_publ_section_title
;
Structure prediction by ZEFSAII (Michael W. Deem and Ramdas Pophale) SiO2 
 PCOD9212729
Probable space group: C 2/M
;
_chemical_formula_sum "Si O2"
_cell_formula_units_Z 34
_cell_length_a 19.380332
_cell_length_b 9.421548
_cell_length_c 16.736529
_cell_angle_alpha 90.000000
_cell_angle_beta 30.455962
_cell_angle_gamma 90.000000
_cell_volume 1548.996956
_symmetry_space_group_name_H-M "C 2/M"
_symmetry_group_IT_number 12
_symmetry_cell_setting 'monoclinic'
loop_
_space_group_symop_operation_xyz
x,y,z
-x,y,-z
-x,-y,-z
x,-y,z
1/2+x,1/2+y,z
1/2-x,1/2+y,-z
1/2-x,1/2-y,-z
1/2+x,1/2-y,z
loop_
_atom_site_type_symbol
_atom_site_label
_atom_site_fract_x
_atom_site_fract_y
_atom_site_fract_z
Si Si1 0.000000 0.000000 0.000000
Si Si2 0.024705 0.663963 0.771020
Si Si3 0.553731 0.672579 0.588637
Si Si4 0.245553 0.660979 0.881957
Si Si5 0.311740 0.235112 0.237125
O O1 0.893101 0.877664 0.138184
O O2 0.016244 0.500000 0.750898
O O3 0.087441 0.768002 0.642788
O O4 0.109762 0.662569 0.767820
O O5 0.874784 0.724387 0.944245
O O6 0.563458 0.500000 0.573273
O O7 0.397415 0.720948 0.731278
O O8 0.656788 0.740733 0.422830
O O9 0.259842 0.500000 0.896690
O O10 0.193609 0.659129 0.842970
#
# Coordination Sequence:
#
# PCOD9212729 Si02
#       5
#     2   8   8   8   8
#     4  12  28  44  68 100 132 176 220 298 334 388
#     4  11  23  41  67 100 137 181 220 270 330 397
#     4  11  25  42  69 101 138 176 219 277 332 398
#     4  10  21  43  69  98 132 175 223 273 332 396
#     4  12  24  44  67  95 128 176 229 274 335 391
#
# _framework density 21.949687999999998
#
# number of rings (size 3 to 8) (size 9 to 14) (size 15 to 20)
#    0.000    0.941    2.353    4.235    3.294    3.765 
#    2.118    1.176    0.000    0.000    0.000    0.000 
#    0.000    0.000    0.000    0.000    0.000    0.000 
#
# Total GULP energy -94644.309345 kJ/mol
# GULP energy per Si atom -5567.312314 kJ/mol
# Density = 2.189973 g / cm^3
# Si number density = 21.949688 Si / 1000 Ang^3
#
#
#
# Elastic Constant Matrix: (Units=GPa)
#
#
# Indices 1 2 3 4 5 6 
#
# 1 50.0344 2.1036 -12.3146 0.0000 1.8412 0.0000
# 2 2.1036 82.7673 23.6304 0.0000 3.2554 0.0001
# 3 -12.3146 23.6304 112.3278 0.0000 12.5308 0.0000
# 4 0.0000 0.0000 0.0000 -7.5840 0.0000 11.7576
# 5 1.8412 3.2554 12.5308 0.0000 36.2951 0.0000
# 6 0.0000 0.0001 0.0000 11.7576 0.0000 127.6537
#
#
#
# Elastic Compliance Matrix: (Units=1/GPa)
#
#
# Indices 1 2 3 4 5 6 
#
# 1 0.020785 -0.001239 0.002750 0.000000 -0.001893 0.000000
# 2 -0.001239 0.012930 -0.002843 0.000000 -0.000115 0.000000
# 3 0.002750 -0.002843 0.010181 0.000000 -0.003400 0.000000
# 4 0.000000 0.000000 0.000000 -0.115381 0.000000 0.010627
# 5 -0.001893 -0.000115 -0.003400 0.000000 0.028832 0.000000
# 6 0.000000 0.000000 0.000000 0.010627 0.000000 0.006855
#
#
# Mechanical properties :
#
#
# Convention : Reuss Voigt Hill
#
# Bulk Modulus (GPa) = 24.25247 30.21868 27.23557
# Shear Modulus (GPa) = -257.85223 46.72031 -105.56596
#
# Velocity S-wave (km/s) = -10.85031 4.61859 -6.94254
# Velocity P-wave (km/s) = 12.07887 6.49915 7.19931
#
# Compressibility (1/GPa) = 0.04123292
#
# Stress axis : x y z
#
# Youngs Moduli (GPa) = 48.11174 77.34083 98.21847
#
# Poissons Ratio (x) = 0.09583 -0.27015
# Poissons Ratio (y) = 0.05961 0.27924
# Poissons Ratio (z) = -0.13233 0.21988
#
# Static dielectric constant tensor:
#      x y z
#    x 1.850630 0.000000 -0.058770 
#    y 0.000000 1.755170 0.000000 
#    z -0.058770 0.000000 1.836000 
# 
# From -- ./inp_files/281966.got.cif
#   From: 2010.05.17/outbox.cif.g08.bks.cpg/sg12_141_cif.got.tgz:281966.got - 2010.06.03 13:09:07.
