data_PCOD9212891
_publ_section_title
;
Structure prediction by ZEFSAII (Michael W. Deem and Ramdas Pophale) SiO2 
 PCOD9212891
Probable space group: C 2/M
;
_chemical_formula_sum "Si O2"
_cell_formula_units_Z 56
_cell_length_a 14.680456
_cell_length_b 26.008524
_cell_length_c 10.876998
_cell_angle_alpha 90.000000
_cell_angle_beta 134.671675
_cell_angle_gamma 90.000000
_cell_volume 2953.410106
_symmetry_space_group_name_H-M "C 2/M"
_symmetry_group_IT_number 12
_symmetry_cell_setting 'monoclinic'
loop_
_space_group_symop_operation_xyz
x,y,z
-x,y,-z
-x,-y,-z
x,-y,z
1/2+x,1/2+y,z
1/2-x,1/2+y,-z
1/2-x,1/2-y,-z
1/2+x,1/2-y,z
loop_
_atom_site_type_symbol
_atom_site_label
_atom_site_fract_x
_atom_site_fract_y
_atom_site_fract_z
Si Si1 0.302391 0.385481 0.880630
Si Si2 0.378006 0.500000 0.984322
Si Si3 0.843692 0.299358 0.109807
Si Si4 0.861868 0.644270 0.867540
Si Si5 0.466222 0.500000 0.616371
Si Si6 0.073756 0.154162 0.231977
Si Si7 0.881036 0.106156 0.478219
Si Si8 0.115076 0.265236 0.309096
O O1 0.203376 0.343234 0.839447
O O2 0.324729 0.373739 0.758495
O O3 0.296642 0.447238 0.890883
O O4 0.436255 0.370516 0.075011
O O5 0.430199 0.500000 0.175324
O O6 0.500000 0.500000 0.000000
O O7 0.990262 0.280550 0.272208
O O8 0.750000 0.250000 0.000000
O O9 0.841152 0.328640 0.977350
O O10 0.745641 0.608302 0.721881
O O11 0.866080 0.688693 0.768389
O O12 0.000000 0.617890 0.000000
O O13 0.500000 0.500000 0.500000
O O14 0.390325 0.552589 0.558506
O O15 0.108480 0.148860 0.407129
O O16 0.071960 0.213881 0.197640
O O17 0.000000 0.111932 0.500000
O O18 0.250000 0.250000 0.500000
#
# Coordination Sequence:
#
# PCOD9212891 Si02
#       8
#     8   4   8   8   4   8   8   8
#     4  11  22  36  61  92 128 165 209 264 318 383
#     4  12  20  38  62  94 131 173 214 268 335 383
#     4  11  22  37  59  89 122 159 203 251 316 377
#     4  10  23  38  57  81 125 162 195 244 319 374
#     4  10  22  34  57  92 121 149 203 277 307 352
#     4  11  20  36  59  88 126 158 207 256 318 375
#     4  11  21  37  60  88 117 155 204 257 308 366
#     4  11  22  38  59  87 123 163 201 255 313 382
#
# _framework density 18.961131999999999
#
# number of rings (size 3 to 8) (size 9 to 14) (size 15 to 20)
#    0.000    1.143    5.714    1.714    6.000    0.000 
#    0.000    2.500    0.000    2.571    0.000    1.000 
#    0.000    0.000    0.000    0.000    0.000    0.000 
#
# Total GULP energy -156046.463398 kJ/mol
# GULP energy per Si atom -5573.087979 kJ/mol
# Density = 1.891798 g / cm^3
# Si number density = 18.961132 Si / 1000 Ang^3
#
#
#
# Elastic Constant Matrix: (Units=GPa)
#
#
# Indices 1 2 3 4 5 6 
#
# 1 93.4021 30.8461 45.0593 0.0000 7.3488 0.0000
# 2 30.8461 106.9303 14.9715 0.0000 15.8778 0.0000
# 3 45.0593 14.9715 81.7417 0.0000 10.9765 0.0000
# 4 0.0000 0.0000 0.0000 17.6586 0.0000 -5.9556
# 5 7.3488 15.8778 10.9765 0.0000 24.3524 0.0000
# 6 0.0000 0.0000 0.0000 -5.9556 0.0000 18.2073
#
#
#
# Elastic Compliance Matrix: (Units=1/GPa)
#
#
# Indices 1 2 3 4 5 6 
#
# 1 0.015742 -0.003584 -0.008193 0.000000 0.001279 0.000000
# 2 -0.003584 0.011256 0.000803 0.000000 -0.006619 0.000000
# 3 -0.008193 0.000803 0.017394 0.000000 -0.005891 0.000000
# 4 0.000000 0.000000 0.000000 0.063652 0.000000 0.020821
# 5 0.001279 -0.006619 -0.005891 0.000000 0.047649 0.000000
# 6 0.000000 0.000000 0.000000 0.020821 0.000000 0.061733
#
#
# Mechanical properties :
#
#
# Convention : Reuss Voigt Hill
#
# Bulk Modulus (GPa) = 44.55520 51.53643 48.04582
# Shear Modulus (GPa) = 20.25482 24.79015 22.52249
#
# Velocity S-wave (km/s) = 3.27192 3.61975 3.45022
# Velocity P-wave (km/s) = 6.15005 6.68649 6.42387
#
# Compressibility (1/GPa) = 0.02244407
#
# Stress axis : x y z
#
# Youngs Moduli (GPa) = 63.52545 88.83980 57.49140
#
# Poissons Ratio (x) = 0.31839 0.47102
# Poissons Ratio (y) = 0.22766 -0.04615
# Poissons Ratio (z) = 0.52045 -0.07132
#
# Static dielectric constant tensor:
#      x y z
#    x 1.694210 0.000000 0.012350 
#    y 0.000000 1.752450 0.000000 
#    z 0.012350 0.000000 1.672270 
# 
# From -- ./inp_files/149534.got.cif
#   From: 2010.05.17/outbox.cif.g08.bks.cpg/sg12_75_cif.got.tgz:149534.got - 2010.06.03 13:09:07.
