data_PCOD9212687
_publ_section_title
;
Structure prediction by ZEFSAII (Michael W. Deem and Ramdas Pophale) SiO2 
 PCOD9212687
Probable space group: C 2/M
;
_chemical_formula_sum "Si O2"
_cell_formula_units_Z 60
_cell_length_a 9.360772
_cell_length_b 25.952293
_cell_length_c 13.575309
_cell_angle_alpha 90.000000
_cell_angle_beta 89.421163
_cell_angle_gamma 90.000000
_cell_volume 3297.729002
_symmetry_space_group_name_H-M "C 2/M"
_symmetry_group_IT_number 12
_symmetry_cell_setting 'monoclinic'
loop_
_space_group_symop_operation_xyz
x,y,z
-x,y,-z
-x,-y,-z
x,-y,z
1/2+x,1/2+y,z
1/2-x,1/2+y,-z
1/2-x,1/2-y,-z
1/2+x,1/2-y,z
loop_
_atom_site_type_symbol
_atom_site_label
_atom_site_fract_x
_atom_site_fract_y
_atom_site_fract_z
Si Si1 0.892272 0.217225 0.671316
Si Si2 0.098561 0.661795 0.362706
Si Si3 0.000000 0.667134 0.000000
Si Si4 0.235857 0.281832 0.875499
Si Si5 0.291009 0.664885 0.057335
Si Si6 0.704620 0.135996 0.578572
Si Si7 0.618365 0.639166 0.744706
Si Si8 0.944453 0.939762 0.612489
O O1 0.905811 0.275985 0.638806
O O2 0.785761 0.211391 0.764886
O O3 0.819918 0.181838 0.589526
O O4 0.039897 0.190998 0.705376
O O5 0.154328 0.639593 0.466418
O O6 0.215031 0.643207 0.283836
O O7 0.935785 0.643891 0.354401
O O8 0.922358 0.700796 0.086892
O O9 0.136726 0.637923 0.042352
O O10 0.335418 0.316700 0.947368
O O11 0.246685 0.221438 0.897942
O O12 0.386443 0.637023 0.136820
O O13 0.787252 0.084947 0.610207
O O14 0.540404 0.593166 0.687538
O O15 0.000000 0.932960 0.500000
O O16 0.945894 0.000000 0.636141
#
# Coordination Sequence:
#
# PCOD9212687 Si02
#       8
#     8   8   4   8   8   8   8   8
#     4  11  22  31  51  76 118 166 189 221 264 328
#     4  11  21  35  50  80 117 148 195 225 269 332
#     4   8  18  32  44  68 111 154 191 232 264 306
#     4   9  19  29  46  70 107 158 195 214 262 308
#     4   9  19  29  48  71 111 149 192 230 257 323
#     4  10  23  37  53  79 109 150 193 232 277 345
#     4  11  22  33  56  84 112 153 196 229 278 340
#     4  10  21  43  65  80 106 140 185 247 303 344
#
# _framework density 18.194338999999999
#
# number of rings (size 3 to 8) (size 9 to 14) (size 15 to 20)
#    0.800    1.200    2.667    1.200    3.733    1.600 
#    0.000    2.000    0.000    0.000    0.000    7.933 
#    0.000    0.000    0.000    0.533    0.000    0.000 
#
# Total GULP energy -167090.355094 kJ/mol
# GULP energy per Si atom -5569.678503 kJ/mol
# Density = 1.815293 g / cm^3
# Si number density = 18.194339 Si / 1000 Ang^3
#
#
#
# Elastic Constant Matrix: (Units=GPa)
#
#
# Indices 1 2 3 4 5 6 
#
# 1 92.0191 30.4288 17.0521 0.0000 1.6375 0.0000
# 2 30.4288 80.2438 21.6903 0.0000 12.3494 0.0000
# 3 17.0521 21.6903 41.0857 0.0000 12.4662 0.0000
# 4 0.0000 0.0000 0.0000 15.5944 0.0000 1.3732
# 5 1.6375 12.3494 12.4662 0.0000 34.5528 0.0000
# 6 0.0000 0.0000 0.0000 1.3732 0.0000 6.6224
#
#
#
# Elastic Compliance Matrix: (Units=1/GPa)
#
#
# Indices 1 2 3 4 5 6 
#
# 1 0.012932 -0.004219 -0.003831 0.000000 0.002277 0.000000
# 2 -0.004219 0.016145 -0.005707 0.000000 -0.003511 0.000000
# 3 -0.003831 -0.005707 0.031743 0.000000 -0.009231 0.000000
# 4 0.000000 0.000000 0.000000 0.065318 0.000000 -0.013544
# 5 0.002277 -0.003511 -0.009231 0.000000 0.033419 0.000000
# 6 0.000000 0.000000 0.000000 -0.013544 0.000000 0.153811
#
#
# Mechanical properties :
#
#
# Convention : Reuss Voigt Hill
#
# Bulk Modulus (GPa) = 30.02413 39.07680 34.55047
# Shear Modulus (GPa) = 14.20523 20.96574 17.58549
#
# Velocity S-wave (km/s) = 2.79722 3.39827 3.11229
# Velocity P-wave (km/s) = 5.19330 6.07632 5.65208
#
# Compressibility (1/GPa) = 0.03330654
#
# Stress axis : x y z
#
# Youngs Moduli (GPa) = 77.32922 61.93951 31.50286
#
# Poissons Ratio (x) = 0.26130 0.12068
# Poissons Ratio (y) = 0.32623 0.17979
# Poissons Ratio (z) = 0.29624 0.35349
#
# Static dielectric constant tensor:
#      x y z
#    x 1.697580 0.000000 0.013430 
#    y 0.000000 1.583020 0.000000 
#    z 0.013430 0.000000 1.680630 
# 
# From -- ./inp_files/199377.got.cif
#   From: 2010.05.17/outbox.cif.g08.bks.cpg/sg12_100_cif.got.tgz:199377.got - 2010.06.03 13:09:07.
