data_PCOD9212898
_publ_section_title
;
Structure prediction by ZEFSAII (Michael W. Deem and Ramdas Pophale) SiO2 
 PCOD9212898
Probable space group: C 2/M
;
_chemical_formula_sum "Si O2"
_cell_formula_units_Z 32
_cell_length_a 14.436413
_cell_length_b 22.889977
_cell_length_c 9.832903
_cell_angle_alpha 90.000000
_cell_angle_beta 153.274277
_cell_angle_gamma 90.000000
_cell_volume 1461.263860
_symmetry_space_group_name_H-M "C 2/M"
_symmetry_group_IT_number 12
_symmetry_cell_setting 'monoclinic'
loop_
_space_group_symop_operation_xyz
x,y,z
-x,y,-z
-x,-y,-z
x,-y,z
1/2+x,1/2+y,z
1/2-x,1/2+y,-z
1/2-x,1/2-y,-z
1/2+x,1/2-y,z
loop_
_atom_site_type_symbol
_atom_site_label
_atom_site_fract_x
_atom_site_fract_y
_atom_site_fract_z
Si Si1 0.736564 0.802829 0.774056
Si Si2 0.483307 0.935734 0.814076
Si Si3 0.661732 0.349156 0.380165
Si Si4 0.740255 0.670948 0.789271
O O1 0.500000 0.815536 0.500000
O O2 0.767177 0.808825 0.651708
O O3 0.788151 0.737321 0.892511
O O4 0.915687 0.844354 0.066742
O O5 0.255746 0.913253 0.477268
O O6 0.532640 0.000000 0.823116
O O7 0.500000 0.940352 0.000000
O O8 0.631613 0.881154 0.974969
O O9 0.761420 0.330853 0.653397
O O10 0.500000 0.660783 0.500000
#
# Coordination Sequence:
#
# PCOD9212898 Si02
#       4
#     8   8   8   8
#     4  10  23  36  57  89 120 153 188 232 287 351
#     4   9  20  38  59  83 113 151 196 242 283 331
#     4  10  22  37  60  84 119 155 190 232 292 339
#     4  10  22  34  59  92 118 149 188 239 293 344
#
# _framework density 21.898851000000001
#
# number of rings (size 3 to 8) (size 9 to 14) (size 15 to 20)
#    0.000    2.250    0.000    0.750   17.500    2.500 
#    0.000    2.500    0.000    1.500    0.000    0.000 
#    0.000    0.000    0.000    0.000    0.000    0.000 
#
# Total GULP energy -89319.355604 kJ/mol
# GULP energy per Si atom -5582.459725 kJ/mol
# Density = 2.184901 g / cm^3
# Si number density = 21.898851 Si / 1000 Ang^3
#
#
#
# Elastic Constant Matrix: (Units=GPa)
#
#
# Indices 1 2 3 4 5 6 
#
# 1 76.3735 23.3732 27.1303 0.0000 8.5977 0.0000
# 2 23.3732 142.4720 75.8509 0.0000 11.8703 0.0000
# 3 27.1303 75.8509 137.1395 0.0000 26.6219 0.0000
# 4 0.0000 0.0000 0.0000 18.8273 0.0000 2.4090
# 5 8.5977 11.8703 26.6219 0.0000 35.9137 0.0000
# 6 0.0000 0.0000 0.0000 2.4090 0.0000 -2.3495
#
#
#
# Elastic Compliance Matrix: (Units=1/GPa)
#
#
# Indices 1 2 3 4 5 6 
#
# 1 0.014307 -0.001238 -0.001822 0.000000 -0.001665 0.000000
# 2 -0.001238 0.010082 -0.005539 0.000000 0.001070 0.000000
# 3 -0.001822 -0.005539 0.012003 0.000000 -0.006631 0.000000
# 4 0.000000 0.000000 0.000000 0.046954 0.000000 0.048143
# 5 -0.001665 0.001070 -0.006631 0.000000 0.032805 0.000000
# 6 0.000000 0.000000 0.000000 0.048143 0.000000 -0.376260
#
#
# Mechanical properties :
#
#
# Convention : Reuss Voigt Hill
#
# Bulk Modulus (GPa) = 52.10203 67.63266 59.86735
# Shear Modulus (GPa) = -21.14055 25.78700 2.32322
#
# Velocity S-wave (km/s) = -3.11042 3.43527 1.03111
# Velocity P-wave (km/s) = 3.30820 6.83271 5.36797
#
# Compressibility (1/GPa) = 0.01919311
#
# Stress axis : x y z
#
# Youngs Moduli (GPa) = 69.89446 99.18869 83.31223
#
# Poissons Ratio (x) = 0.12282 0.15182
# Poissons Ratio (y) = 0.08655 0.46146
# Poissons Ratio (z) = 0.12737 0.54940
#
# Static dielectric constant tensor:
#      x y z
#    x 1.861560 0.000000 -0.001110 
#    y 0.000000 1.805420 0.000000 
#    z -0.001110 0.000000 1.837060 
# 
# From -- ./inp_files/121573.got.cif
#   From: 2010.05.17/outbox.cif.g08.bks.cpg/sg12_61_cif.got.tgz:121573.got - 2010.06.03 13:09:07.
