data_PCOD9212106
_publ_section_title
;
Structure prediction by ZEFSAII (Michael W. Deem and Ramdas Pophale) SiO2 
 PCOD9212106
Probable space group: C 2/M
;
_chemical_formula_sum "Si O2"
_cell_formula_units_Z 42
_cell_length_a 14.887875
_cell_length_b 22.202108
_cell_length_c 5.210681
_cell_angle_alpha 90.000000
_cell_angle_beta 90.895889
_cell_angle_gamma 90.000000
_cell_volume 1722.139461
_symmetry_space_group_name_H-M "C 2/M"
_symmetry_group_IT_number 12
_symmetry_cell_setting 'monoclinic'
loop_
_space_group_symop_operation_xyz
x,y,z
-x,y,-z
-x,-y,-z
x,-y,z
1/2+x,1/2+y,z
1/2-x,1/2+y,-z
1/2-x,1/2-y,-z
1/2+x,1/2-y,z
loop_
_atom_site_type_symbol
_atom_site_label
_atom_site_fract_x
_atom_site_fract_y
_atom_site_fract_z
Si Si1 0.335055 0.165679 0.466939
Si Si2 0.678155 0.721222 0.790237
Si Si3 0.061489 0.566265 0.249824
Si Si4 0.500000 0.500000 0.500000
Si Si5 0.767567 0.064803 0.724095
Si Si6 0.384364 0.408865 0.214547
O O1 0.378109 0.223241 0.331671
O O2 0.244496 0.192632 0.582531
O O3 0.380891 0.125544 0.686523
O O4 0.305041 0.116899 0.255948
O O5 0.615343 0.663265 0.843937
O O6 0.750000 0.750000 0.000000
O O7 0.107257 0.500000 0.223901
O O8 0.000000 0.562792 0.500000
O O9 0.000000 0.574375 0.000000
O O10 0.472386 0.446271 0.289848
O O11 0.824178 0.075189 0.466126
O O12 0.722955 0.000000 0.704439
O O13 0.832667 0.066145 0.966790
#
# Coordination Sequence:
#
# PCOD9212106 Si02
#       6
#     8   8   8   2   8   8
#     4  10  22  38  67  91 126 167 208 276 318 368
#     4  10  21  41  63  94 125 164 223 272 309 375
#     4  10  23  42  63  95 132 166 209 259 332 404
#     4  12  24  46  60  90 140 170 202 262 320 398
#     4  11  20  38  62  95 117 156 217 257 311 371
#     4  11  24  38  62  87 125 170 206 258 317 371
#
# _framework density 24.388269000000001
#
# number of rings (size 3 to 8) (size 9 to 14) (size 15 to 20)
#    0.000    1.524    3.810    0.571    2.667    1.524 
#    1.714    3.810    0.000    0.000    0.000    0.000 
#    0.000    0.000    0.000    0.000    0.000    0.000 
#
# Total GULP energy -116939.846638 kJ/mol
# GULP energy per Si atom -5568.564126 kJ/mol
# Density = 2.433276 g / cm^3
# Si number density = 24.388269 Si / 1000 Ang^3
#
#
#
# Elastic Constant Matrix: (Units=GPa)
#
#
# Indices 1 2 3 4 5 6 
#
# 1 29.1964 26.2232 29.1807 0.0000 6.4428 0.0000
# 2 26.2232 265.0564 61.7431 0.0000 36.4807 0.0000
# 3 29.1807 61.7431 182.3892 0.0000 37.8656 0.0000
# 4 0.0000 0.0000 0.0000 -301.2778 0.0000 202.7938
# 5 6.4428 36.4807 37.8656 0.0000 48.4427 0.0000
# 6 0.0000 0.0000 0.0000 202.7938 0.0000 -69.1978
#
#
#
# Elastic Compliance Matrix: (Units=1/GPa)
#
#
# Indices 1 2 3 4 5 6 
#
# 1 0.042742 -0.002991 -0.006104 0.000000 0.001339 0.000000
# 2 -0.002991 0.004550 -0.000517 0.000000 -0.002625 0.000000
# 3 -0.006104 -0.000517 0.007622 0.000000 -0.004757 0.000000
# 4 0.000000 0.000000 0.000000 0.003413 0.000000 0.010001
# 5 0.001339 -0.002625 -0.004757 0.000000 0.026160 0.000000
# 6 0.000000 0.000000 0.000000 0.010001 0.000000 0.014858
#
#
# Mechanical properties :
#
#
# Convention : Reuss Voigt Hill
#
# Bulk Modulus (GPa) = 28.01838 78.99290 53.50564
# Shear Modulus (GPa) = 38.32442 -40.44024 -1.05791
#
# Velocity S-wave (km/s) = 3.96843 -4.07650 -0.65933
# Velocity P-wave (km/s) = 5.70187 3.20981 4.62678
#
# Compressibility (1/GPa) = 0.03569086
#
# Stress axis : x y z
#
# Youngs Moduli (GPa) = 23.39599 219.76127 131.20191
#
# Poissons Ratio (x) = 0.65733 0.80083
# Poissons Ratio (y) = 0.06998 0.06782
# Poissons Ratio (z) = 0.14281 0.11360
#
# Static dielectric constant tensor:
#      x y z
#    x 2.069000 0.000000 -0.052870 
#    y 0.000000 2.086940 0.000000 
#    z -0.052870 0.000000 1.978920 
# 
# From -- ./inp_files/16187.got.cif
#   From: 2010.05.17/outbox.cif.g08.bks.cpg/sg12_9_cif.got.tgz:16187.got - 2010.06.03 13:09:07.
