data_PCOD9212816
_publ_section_title
;
Structure prediction by ZEFSAII (Michael W. Deem and Ramdas Pophale) SiO2 
 PCOD9212816
Probable space group: C 2/M
;
_chemical_formula_sum "Si O2"
_cell_formula_units_Z 40
_cell_length_a 16.021488
_cell_length_b 15.184710
_cell_length_c 20.939885
_cell_angle_alpha 90.000000
_cell_angle_beta 157.091571
_cell_angle_gamma 90.000000
_cell_volume 1983.000504
_symmetry_space_group_name_H-M "C 2/M"
_symmetry_group_IT_number 12
_symmetry_cell_setting 'monoclinic'
loop_
_space_group_symop_operation_xyz
x,y,z
-x,y,-z
-x,-y,-z
x,-y,z
1/2+x,1/2+y,z
1/2-x,1/2+y,-z
1/2-x,1/2-y,-z
1/2+x,1/2-y,z
loop_
_atom_site_type_symbol
_atom_site_label
_atom_site_fract_x
_atom_site_fract_y
_atom_site_fract_z
Si Si1 0.297658 0.728979 0.116770
Si Si2 0.797690 0.896205 0.608708
Si Si3 0.138443 0.659958 0.226924
Si Si4 0.000000 0.359153 0.000000
Si Si5 0.064030 0.401002 0.310111
Si Si6 0.000000 0.702452 0.500000
O O1 0.488060 0.661574 0.234271
O O2 0.197709 0.698311 0.114048
O O3 0.116574 0.673194 0.814696
O O4 0.087547 0.712917 0.925327
O O5 0.717293 0.887387 0.478867
O O6 0.619606 0.856290 0.531039
O O7 0.833313 0.000000 0.646543
O O8 0.089227 0.601127 0.129325
O O9 0.321533 0.731827 0.345464
O O10 0.177967 0.611852 0.321665
O O11 0.977975 0.500000 0.252821
#
# Coordination Sequence:
#
# PCOD9212816 Si02
#       6
#     8   8   8   4   8   4
#     4  10  21  45  64  94 132 173 219 262 323 386
#     4  11  25  42  68  98 131 172 215 268 329 384
#     4  10  23  39  66  97 125 174 216 264 324 382
#     4   8  22  38  66  96 118 166 220 256 322 376
#     4  11  23  40  64  97 130 171 215 265 322 384
#     4  12  23  42  69  94 134 166 217 272 327 386
#
# _framework density 20.171453
#
# number of rings (size 3 to 8) (size 9 to 14) (size 15 to 20)
#    1.200    0.400    2.000    2.700    2.800    0.800 
#    0.000    4.000    0.000    0.000    0.000    0.000 
#    0.000    0.000    0.000    0.000    0.000    0.000 
#
# Total GULP energy -111356.936027 kJ/mol
# GULP energy per Si atom -5567.846801 kJ/mol
# Density = 2.012554 g / cm^3
# Si number density = 20.171453 Si / 1000 Ang^3
#
#
#
# Elastic Constant Matrix: (Units=GPa)
#
#
# Indices 1 2 3 4 5 6 
#
# 1 127.8482 46.2552 56.0562 0.1024 -7.0257 0.0769
# 2 46.2552 143.0134 72.6444 -0.0047 11.3594 0.0072
# 3 56.0562 72.6444 116.4574 0.0257 -0.1490 0.0305
# 4 0.1024 -0.0047 0.0257 126.5566 0.0369 60.5784
# 5 -7.0257 11.3594 -0.1490 0.0369 50.2159 0.0256
# 6 0.0769 0.0072 0.0305 60.5784 0.0256 54.7753
#
#
#
# Elastic Compliance Matrix: (Units=1/GPa)
#
#
# Indices 1 2 3 4 5 6 
#
# 1 0.010187 -0.001379 -0.004041 -0.000004 0.001725 -0.000008
# 2 -0.001379 0.010703 -0.006016 0.000002 -0.002632 0.000003
# 3 -0.004041 -0.006016 0.014286 0.000002 0.000838 -0.000004
# 4 -0.000004 0.000002 0.000002 0.016790 -0.000004 -0.018568
# 5 0.001725 -0.002632 0.000838 -0.000004 0.020753 -0.000008
# 6 -0.000008 0.000003 -0.000004 -0.018568 -0.000008 0.038792
#
#
# Mechanical properties :
#
#
# Convention : Reuss Voigt Hill
#
# Bulk Modulus (GPa) = 81.27607 81.91451 81.59529
# Shear Modulus (GPa) = 36.10469 60.46711 48.28590
#
# Velocity S-wave (km/s) = 4.23530 5.48103 4.89793
# Velocity P-wave (km/s) = 8.01855 8.98626 8.51616
#
# Compressibility (1/GPa) = 0.01230375
#
# Stress axis : x y z
#
# Youngs Moduli (GPa) = 98.15966 93.42792 69.99953
#
# Poissons Ratio (x) = 0.12887 0.28287
# Poissons Ratio (y) = 0.13539 0.42112
# Poissons Ratio (z) = 0.39667 0.56207
#
# Static dielectric constant tensor:
#      x y z
#    x 1.829430 0.000000 -0.086100 
#    y 0.000000 1.698680 -0.000020 
#    z -0.086100 -0.000020 1.737790 
# 
# From -- ./inp_files/270824.got.cif
#   From: 2010.05.17/outbox.cif.g08.bks.cpg/sg12_136_cif.got.tgz:270824.got - 2010.06.03 13:09:07.
