data_PCOD9212979
_publ_section_title
;
Structure prediction by ZEFSAII (Michael W. Deem and Ramdas Pophale) SiO2 
 PCOD9212979
Probable space group: C 2/M
;
_chemical_formula_sum "Si O2"
_cell_formula_units_Z 56
_cell_length_a 21.495683
_cell_length_b 19.951912
_cell_length_c 22.196421
_cell_angle_alpha 90.000000
_cell_angle_beta 18.488327
_cell_angle_gamma 90.000000
_cell_volume 3018.774276
_symmetry_space_group_name_H-M "C 2/M"
_symmetry_group_IT_number 12
_symmetry_cell_setting 'monoclinic'
loop_
_space_group_symop_operation_xyz
x,y,z
-x,y,-z
-x,-y,-z
x,-y,z
1/2+x,1/2+y,z
1/2-x,1/2+y,-z
1/2-x,1/2-y,-z
1/2+x,1/2-y,z
loop_
_atom_site_type_symbol
_atom_site_label
_atom_site_fract_x
_atom_site_fract_y
_atom_site_fract_z
Si Si1 0.081905 0.811800 0.863592
Si Si2 0.810485 0.575052 0.606852
Si Si3 0.336599 0.176205 0.907472
Si Si4 0.645947 0.844143 0.245530
Si Si5 0.422315 0.276875 0.507051
Si Si6 0.534587 0.420915 0.742381
Si Si7 0.241667 0.818208 0.465099
O O1 0.235176 0.873286 0.726394
O O2 0.207677 0.757357 0.712763
O O3 0.000000 0.781114 0.000000
O O4 0.880140 0.844387 0.025612
O O5 0.807202 0.500000 0.632352
O O6 0.655707 0.582923 0.693930
O O7 0.020819 0.594024 0.385559
O O8 0.412953 0.170688 0.768848
O O9 0.536346 0.168868 0.761083
O O10 0.250000 0.250000 0.000000
O O11 0.170563 0.119771 0.067677
O O12 0.573739 0.782756 0.353014
O O13 0.500000 0.306135 0.500000
O O14 0.397388 0.314004 0.466174
O O15 0.508516 0.500000 0.753096
O O16 0.664632 0.379595 0.575635
O O17 0.250000 0.750000 0.500000
#
# Coordination Sequence:
#
# PCOD9212979 Si02
#       7
#     8   8   8   8   8   8   8
#     4  11  21  35  54  78 110 152 190 240 292 344
#     4  10  22  36  53  77 110 153 199 238 281 346
#     4  12  21  34  61  90 117 154 195 249 302 352
#     4  11  20  35  54  78 114 149 190 238 297 338
#     4  11  22  37  58  86 116 147 191 244 300 356
#     4  11  23  39  58  90 125 155 196 247 302 359
#     4  12  21  38  62  92 121 155 199 249 300 353
#
# _framework density 18.550576
#
# number of rings (size 3 to 8) (size 9 to 14) (size 15 to 20)
#    0.000    0.857    7.143    1.714    0.000    2.000 
#    0.000    0.714    0.000    0.429    0.000    1.000 
#    0.000    0.000    0.000    0.000    0.000    0.000 
#
# Total GULP energy -155985.201958 kJ/mol
# GULP energy per Si atom -5570.900070 kJ/mol
# Density = 1.850835 g / cm^3
# Si number density = 18.550576 Si / 1000 Ang^3
#
#
#
# Elastic Constant Matrix: (Units=GPa)
#
#
# Indices 1 2 3 4 5 6 
#
# 1 76.0659 23.6702 19.4379 -0.0061 -11.8046 0.0065
# 2 23.6702 86.3543 40.4744 0.0432 -2.3392 -0.0188
# 3 19.4379 40.4744 116.1157 -0.0316 -12.4141 -0.0036
# 4 -0.0061 0.0432 -0.0316 23.2721 -0.0183 -1.2404
# 5 -11.8046 -2.3392 -12.4141 -0.0183 33.4977 0.0020
# 6 0.0065 -0.0188 -0.0036 -1.2404 0.0020 19.4372
#
#
#
# Elastic Compliance Matrix: (Units=1/GPa)
#
#
# Indices 1 2 3 4 5 6 
#
# 1 0.015238 -0.003696 -0.000745 0.000013 0.004835 -0.000008
# 2 -0.003696 0.014762 -0.004744 -0.000036 -0.002030 0.000013
# 3 -0.000745 -0.004744 0.010753 0.000026 0.003391 -0.000001
# 4 0.000013 -0.000036 0.000026 0.043117 0.000035 0.002751
# 5 0.004835 -0.002030 0.003391 0.000035 0.032672 -0.000004
# 6 -0.000008 0.000013 -0.000001 0.002751 -0.000004 0.051623
#
#
# Mechanical properties :
#
#
# Convention : Reuss Voigt Hill
#
# Bulk Modulus (GPa) = 44.68007 49.52232 47.10119
# Shear Modulus (GPa) = 25.77375 28.23829 27.00602
#
# Velocity S-wave (km/s) = 3.73148 3.90581 3.81964
# Velocity P-wave (km/s) = 6.53476 6.86253 6.70065
#
# Compressibility (1/GPa) = 0.02238135
#
# Stress axis : x y z
#
# Youngs Moduli (GPa) = 65.62712 67.74215 92.99757
#
# Poissons Ratio (x) = 0.25040 0.06932
# Poissons Ratio (y) = 0.24258 0.44116
# Poissons Ratio (z) = 0.04892 0.32135
#
# Static dielectric constant tensor:
#      x y z
#    x 1.781960 -0.000040 -0.068680 
#    y -0.000040 1.611820 -0.000020 
#    z -0.068680 -0.000020 1.681200 
# 
# From -- ./inp_files/322629.got.cif
#   From: 2010.05.17/outbox.cif.g08.bks.cpg/sg12_162_cif.got.tgz:322629.got - 2010.06.03 13:09:07.
