data_PCOD9212850
_publ_section_title
;
Structure prediction by ZEFSAII (Michael W. Deem and Ramdas Pophale) SiO2 
 PCOD9212850
Probable space group: C 2/M
;
_chemical_formula_sum "Si O2"
_cell_formula_units_Z 56
_cell_length_a 21.581044
_cell_length_b 30.724971
_cell_length_c 9.635872
_cell_angle_alpha 90.000000
_cell_angle_beta 151.661974
_cell_angle_gamma 90.000000
_cell_volume 3032.836431
_symmetry_space_group_name_H-M "C 2/M"
_symmetry_group_IT_number 12
_symmetry_cell_setting 'monoclinic'
loop_
_space_group_symop_operation_xyz
x,y,z
-x,y,-z
-x,-y,-z
x,-y,z
1/2+x,1/2+y,z
1/2-x,1/2+y,-z
1/2-x,1/2-y,-z
1/2+x,1/2-y,z
loop_
_atom_site_type_symbol
_atom_site_label
_atom_site_fract_x
_atom_site_fract_y
_atom_site_fract_z
Si Si1 0.732418 0.645093 0.180696
Si Si2 0.726173 0.653301 0.668822
Si Si3 0.842855 0.905442 0.707679
Si Si4 0.862429 0.000000 0.647177
Si Si5 0.502087 0.289419 0.671794
Si Si6 0.005316 0.686220 0.677618
Si Si7 0.153297 0.093595 0.764969
Si Si8 0.636595 0.500000 0.685267
O O1 0.694970 0.605986 0.209951
O O2 0.873112 0.666279 0.479228
O O3 0.621933 0.682496 0.967422
O O4 0.725916 0.624560 0.014770
O O5 0.718661 0.634611 0.499989
O O6 0.629296 0.692774 0.515802
O O7 0.667859 0.613437 0.642566
O O8 0.868962 0.664485 0.005196
O O9 0.800323 0.953635 0.571801
O O10 0.000000 0.903179 0.000000
O O11 0.882041 0.000000 0.518738
O O12 0.000000 0.000000 0.000000
O O13 0.500000 0.296909 0.500000
O O14 0.514470 0.238098 0.718468
O O15 0.000000 0.679831 0.500000
O O16 0.000000 0.093713 0.500000
O O17 0.204211 0.044548 0.863099
O O18 0.500000 0.500000 0.500000
#
# Coordination Sequence:
#
# PCOD9212850 Si02
#       8
#     8   8   8   4   8   8   8   4
#     4  12  22  39  61  91 123 160 204 247 300 364
#     4  12  20  39  62  87 122 162 198 248 301 356
#     4  11  23  39  64  88 126 160 198 246 306 362
#     4  10  22  36  56  93 124 154 196 251 305 364
#     4  11  20  38  63  89 119 158 209 257 299 348
#     4  11  24  38  61  93 121 159 205 256 300 353
#     4  11  19  35  60  88 120 153 202 251 294 346
#     4  10  22  32  58  97 123 149 199 258 302 345
#
# _framework density 18.464563999999999
#
# number of rings (size 3 to 8) (size 9 to 14) (size 15 to 20)
#    0.000    0.857    7.143    0.857    6.000    2.857 
#    0.000    4.286    0.000    5.143    0.000    0.000 
#    0.000    0.000    0.000    0.000    0.000    0.000 
#
# Total GULP energy -156259.982444 kJ/mol
# GULP energy per Si atom -5580.713659 kJ/mol
# Density = 1.842254 g / cm^3
# Si number density = 18.464564 Si / 1000 Ang^3
#
#
#
# Elastic Constant Matrix: (Units=GPa)
#
#
# Indices 1 2 3 4 5 6 
#
# 1 40.5925 5.6983 7.0879 0.0000 7.4309 0.0000
# 2 5.6983 95.3884 26.9102 0.0000 11.1031 0.0000
# 3 7.0879 26.9102 89.2872 0.0000 20.8727 0.0000
# 4 0.0000 0.0000 0.0000 -1.1585 0.0000 -7.2465
# 5 7.4309 11.1031 20.8727 0.0000 24.8757 0.0000
# 6 0.0000 0.0000 0.0000 -7.2465 0.0000 15.2556
#
#
#
# Elastic Compliance Matrix: (Units=1/GPa)
#
#
# Indices 1 2 3 4 5 6 
#
# 1 0.026104 -0.000659 -0.000149 0.000000 -0.007379 0.000000
# 2 -0.000659 0.011628 -0.002843 0.000000 -0.002608 0.000000
# 3 -0.000149 -0.002843 0.014631 0.000000 -0.010964 0.000000
# 4 0.000000 0.000000 0.000000 -0.217365 0.000000 -0.103249
# 5 -0.007379 -0.002608 -0.010964 0.000000 0.052768 0.000000
# 6 0.000000 0.000000 0.000000 -0.103249 0.000000 0.016506
#
#
# Mechanical properties :
#
#
# Convention : Reuss Voigt Hill
#
# Bulk Modulus (GPa) = 22.19053 33.85120 28.02086
# Shear Modulus (GPa) = -68.11473 20.16601 -23.97436
#
# Velocity S-wave (km/s) = -6.08026 3.30835 -3.60724
# Velocity P-wave (km/s) = 6.10317 5.74164 1.46326
#
# Compressibility (1/GPa) = 0.04506427
#
# Stress axis : x y z
#
# Youngs Moduli (GPa) = 38.30777 85.99679 68.34638
#
# Poissons Ratio (x) = 0.05663 0.01017
# Poissons Ratio (y) = 0.02523 0.19428
# Poissons Ratio (z) = 0.00570 0.24446
#
# Static dielectric constant tensor:
#      x y z
#    x 1.640470 0.000000 -0.021180 
#    y 0.000000 1.649490 0.000000 
#    z -0.021180 0.000000 1.623660 
# 
# From -- ./inp_files/91574.got.cif
#   From: 2010.05.17/outbox.cif.g08.bks.cpg/sg12_46_cif.got.tgz:91574.got - 2010.06.03 13:09:07.
