data_PCOD9212662
_publ_section_title
;
Structure prediction by ZEFSAII (Michael W. Deem and Ramdas Pophale) SiO2 
 PCOD9212662
Probable space group: C 2/M
;
_chemical_formula_sum "Si O2"
_cell_formula_units_Z 48
_cell_length_a 17.715331
_cell_length_b 31.316962
_cell_length_c 9.238335
_cell_angle_alpha 90.000000
_cell_angle_beta 27.854613
_cell_angle_gamma 90.000000
_cell_volume 2394.710082
_symmetry_space_group_name_H-M "C 2/M"
_symmetry_group_IT_number 12
_symmetry_cell_setting 'monoclinic'
loop_
_space_group_symop_operation_xyz
x,y,z
-x,y,-z
-x,-y,-z
x,-y,z
1/2+x,1/2+y,z
1/2-x,1/2+y,-z
1/2-x,1/2-y,-z
1/2+x,1/2-y,z
loop_
_atom_site_type_symbol
_atom_site_label
_atom_site_fract_x
_atom_site_fract_y
_atom_site_fract_z
Si Si1 0.899598 0.625266 0.816809
Si Si2 0.013422 0.000000 0.647940
Si Si3 0.685655 0.500000 0.757161
Si Si4 0.821039 0.090023 0.600019
Si Si5 0.176369 0.202904 0.122015
Si Si6 0.821044 0.408453 0.460337
Si Si7 0.065125 0.846245 0.038468
O O1 0.000000 0.617894 0.500000
O O2 0.029530 0.615096 0.719656
O O3 0.751452 0.594826 0.116364
O O4 0.810531 0.670916 0.962696
O O5 0.102199 0.956497 0.543349
O O6 0.000000 0.000000 0.500000
O O7 0.846860 0.000000 0.016610
O O8 0.788656 0.458169 0.546091
O O9 0.500000 0.500000 0.000000
O O10 0.692198 0.094719 0.689221
O O11 0.942462 0.128242 0.351924
O O12 0.153741 0.186139 0.995513
O O13 0.000000 0.201617 0.500000
O O14 0.250000 0.250000 0.000000
O O15 0.672740 0.383701 0.787194
O O16 0.000000 0.824842 0.000000
#
# Coordination Sequence:
#
# PCOD9212662 Si02
#       7
#     8   4   4   8   8   8   8
#     4  12  26  42  67  99 140 177 226 284 342 409
#     4  12  26  35  64 101 137 181 247 287 336 392
#     4  12  20  43  68 101 134 191 240 287 336 404
#     4  11  23  43  64  99 134 190 229 282 338 399
#     4  12  26  48  75 103 135 174 220 282 354 423
#     4  11  22  41  70  98 141 178 236 284 339 406
#     4  10  21  42  73 101 132 180 232 275 339 416
#
# _framework density 20.044180999999998
#
# number of rings (size 3 to 8) (size 9 to 14) (size 15 to 20)
#    0.000    0.667    6.667    1.500    4.667    0.667 
#    0.000    5.000    0.000    0.000    0.000    0.000 
#    0.000    0.000    0.000    0.000    0.000    0.000 
#
# Total GULP energy -133771.815475 kJ/mol
# GULP energy per Si atom -5573.825645 kJ/mol
# Density = 1.999856 g / cm^3
# Si number density = 20.044181 Si / 1000 Ang^3
#
#
#
# Elastic Constant Matrix: (Units=GPa)
#
#
# Indices 1 2 3 4 5 6 
#
# 1 114.9777 70.2368 31.1767 0.0000 -2.6987 0.0000
# 2 70.2368 134.5247 37.1356 0.0000 1.4034 0.0000
# 3 31.1767 37.1356 124.5925 0.0000 27.4181 0.0000
# 4 0.0000 0.0000 0.0000 58.6226 0.0000 -32.8447
# 5 -2.6987 1.4034 27.4181 0.0000 35.7643 0.0000
# 6 0.0000 0.0000 0.0000 -32.8447 0.0000 51.2114
#
#
#
# Elastic Compliance Matrix: (Units=1/GPa)
#
#
# Indices 1 2 3 4 5 6 
#
# 1 0.013197 -0.006362 -0.002021 0.000000 0.002795 0.000000
# 2 -0.006362 0.011269 -0.001881 0.000000 0.000520 0.000000
# 3 -0.002021 -0.001881 0.010959 0.000000 -0.008480 0.000000
# 4 0.000000 0.000000 0.000000 0.026626 0.000000 0.017077
# 5 0.002795 0.000520 -0.008480 0.000000 0.034652 0.000000
# 6 0.000000 0.000000 0.000000 0.017077 0.000000 0.030479
#
#
# Mechanical properties :
#
#
# Convention : Reuss Voigt Hill
#
# Bulk Modulus (GPa) = 67.12996 72.35479 69.74237
# Shear Modulus (GPa) = 32.74904 44.82272 38.78588
#
# Velocity S-wave (km/s) = 4.04647 4.73397 4.40366
# Velocity P-wave (km/s) = 7.44282 8.12753 7.79270
#
# Compressibility (1/GPa) = 0.01489648
#
# Stress axis : x y z
#
# Youngs Moduli (GPa) = 75.77422 88.73952 91.25030
#
# Poissons Ratio (x) = 0.56452 0.18444
# Poissons Ratio (y) = 0.48204 0.17168
# Poissons Ratio (z) = 0.15316 0.16695
#
# Static dielectric constant tensor:
#      x y z
#    x 1.771610 0.000000 -0.012330 
#    y 0.000000 1.665010 0.000000 
#    z -0.012330 0.000000 1.666290 
# 
# From -- ./inp_files/80673.got.cif
#   From: 2010.05.17/outbox.cif.g08.bks.cpg/sg12_41_cif.got.tgz:80673.got - 2010.06.03 13:09:07.
