data_PCOD9212923
_publ_section_title
;
Structure prediction by ZEFSAII (Michael W. Deem and Ramdas Pophale) SiO2 
 PCOD9212923
Probable space group: C 2/M
;
_chemical_formula_sum "Si O2"
_cell_formula_units_Z 64
_cell_length_a 12.622692
_cell_length_b 20.203266
_cell_length_c 19.902212
_cell_angle_alpha 90.000000
_cell_angle_beta 139.253441
_cell_angle_gamma 90.000000
_cell_volume 3312.821320
_symmetry_space_group_name_H-M "C 2/M"
_symmetry_group_IT_number 12
_symmetry_cell_setting 'monoclinic'
loop_
_space_group_symop_operation_xyz
x,y,z
-x,y,-z
-x,-y,-z
x,-y,z
1/2+x,1/2+y,z
1/2-x,1/2+y,-z
1/2-x,1/2-y,-z
1/2+x,1/2-y,z
loop_
_atom_site_type_symbol
_atom_site_label
_atom_site_fract_x
_atom_site_fract_y
_atom_site_fract_z
Si Si1 0.825992 0.315974 0.450347
Si Si2 0.502143 0.925744 0.224229
Si Si3 0.647243 0.577512 0.116156
Si Si4 0.949872 0.610600 0.905697
Si Si5 0.115353 0.691568 0.373680
Si Si6 0.244594 0.290093 0.064102
Si Si7 0.274694 0.731187 0.218392
Si Si8 0.393829 0.665268 0.773411
O O1 0.842821 0.340951 0.534496
O O2 0.760052 0.240842 0.423970
O O3 0.700563 0.351153 0.340129
O O4 0.000000 0.317901 0.500000
O O5 0.313894 0.918486 0.154859
O O6 0.526812 0.922444 0.155650
O O7 0.584441 0.864304 0.303009
O O8 0.554257 0.000000 0.271450
O O9 0.617292 0.500000 0.116057
O O10 0.649452 0.615787 0.187424
O O11 0.500000 0.602635 0.000000
O O12 0.780914 0.653766 0.817299
O O13 0.000000 0.572983 0.000000
O O14 0.090312 0.664775 0.980081
O O15 0.958909 0.740685 0.311585
O O16 0.224857 0.244451 0.120015
O O17 0.416214 0.328098 0.150464
O O18 0.250000 0.250000 0.000000
O O19 0.173109 0.764566 0.229208
#
# Coordination Sequence:
#
# PCOD9212923 Si02
#       8
#     8   8   8   8   8   8   8   8
#     4  11  22  37  59  87 113 146 183 253 302 348
#     4  11  22  40  61  82 119 159 198 240 274 346
#     4  10  22  36  54  81 112 155 198 230 277 340
#     4  10  22  35  54  89 120 153 195 229 291 345
#     4  11  22  38  58  89 114 148 196 234 303 348
#     4  11  21  31  49  83 120 152 185 231 289 348
#     4  11  20  33  54  85 118 146 185 240 288 347
#     4  12  21  33  56  80 118 149 190 237 292 347
#
# _framework density 19.318881999999999
#
# number of rings (size 3 to 8) (size 9 to 14) (size 15 to 20)
#    0.000    1.125    5.000    2.250    1.750    0.250 
#    0.000    0.625    0.000    3.375    0.000    0.000 
#    0.000    0.000    0.000    0.000    0.000    0.000 
#
# Total GULP energy -178293.038936 kJ/mol
# GULP energy per Si atom -5571.657467 kJ/mol
# Density = 1.927491 g / cm^3
# Si number density = 19.318882 Si / 1000 Ang^3
#
#
#
# Elastic Constant Matrix: (Units=GPa)
#
#
# Indices 1 2 3 4 5 6 
#
# 1 88.3969 20.5288 32.3490 0.0000 -22.1811 0.0000
# 2 20.5288 56.2156 25.1246 0.0000 -9.1194 0.0000
# 3 32.3490 25.1246 104.0768 0.0001 -21.2086 0.0000
# 4 0.0000 0.0000 0.0001 12.9440 0.0000 0.0635
# 5 -22.1811 -9.1194 -21.2086 0.0000 45.6257 0.0000
# 6 0.0000 0.0000 0.0000 0.0635 0.0000 3.1911
#
#
#
# Elastic Compliance Matrix: (Units=1/GPa)
#
#
# Indices 1 2 3 4 5 6 
#
# 1 0.014299 -0.003221 -0.002631 0.000000 0.005085 0.000000
# 2 -0.003221 0.020821 -0.003862 0.000000 0.000800 0.000000
# 3 -0.002631 -0.003862 0.012085 0.000000 0.003567 0.000000
# 4 0.000000 0.000000 0.000000 0.077263 0.000000 -0.001537
# 5 0.005085 0.000800 0.003567 0.000000 0.026208 0.000000
# 6 0.000000 0.000000 0.000000 -0.001537 0.000000 0.313402
#
#
# Mechanical properties :
#
#
# Convention : Reuss Voigt Hill
#
# Bulk Modulus (GPa) = 36.00018 44.96601 40.48309
# Shear Modulus (GPa) = 10.14682 23.73130 16.93906
#
# Velocity S-wave (km/s) = 2.29427 3.50866 2.96432
# Velocity P-wave (km/s) = 5.06887 6.30400 5.71987
#
# Compressibility (1/GPa) = 0.02777764
#
# Stress axis : x y z
#
# Youngs Moduli (GPa) = 69.93325 48.02883 82.74670
#
# Poissons Ratio (x) = 0.15471 0.21768
# Poissons Ratio (y) = 0.22527 0.31956
# Poissons Ratio (z) = 0.18397 0.18548
#
# Static dielectric constant tensor:
#      x y z
#    x 2.286840 0.000000 -0.056040 
#    y 0.000000 1.281500 0.000000 
#    z -0.056040 0.000000 1.722040 
# 
# From -- ./inp_files/306804.got.cif
#   From: 2010.05.17/outbox.cif.g08.bks.cpg/sg12_154_cif.got.tgz:306804.got - 2010.06.03 13:09:07.
