data_PCOD9212583
_publ_section_title
;
Structure prediction by ZEFSAII (Michael W. Deem and Ramdas Pophale) SiO2 
 PCOD9212583
Probable space group: C 2/M
;
_chemical_formula_sum "Si O2"
_cell_formula_units_Z 48
_cell_length_a 18.516737
_cell_length_b 18.139893
_cell_length_c 14.904651
_cell_angle_alpha 90.000000
_cell_angle_beta 150.311969
_cell_angle_gamma 90.000000
_cell_volume 2479.529775
_symmetry_space_group_name_H-M "C 2/M"
_symmetry_group_IT_number 12
_symmetry_cell_setting 'monoclinic'
loop_
_space_group_symop_operation_xyz
x,y,z
-x,y,-z
-x,-y,-z
x,-y,z
1/2+x,1/2+y,z
1/2-x,1/2+y,-z
1/2-x,1/2-y,-z
1/2+x,1/2-y,z
loop_
_atom_site_type_symbol
_atom_site_label
_atom_site_fract_x
_atom_site_fract_y
_atom_site_fract_z
Si Si1 0.632527 0.083054 0.198115
Si Si2 0.847771 0.675495 0.607569
Si Si3 0.368881 0.416446 0.299914
Si Si4 0.803621 0.667626 0.044535
Si Si5 0.340655 0.588583 0.946149
Si Si6 0.672770 0.588482 0.276939
O O1 0.685551 0.131825 0.336905
O O2 0.751005 0.074999 0.249995
O O3 0.589252 0.000000 0.183155
O O4 0.500000 0.118298 0.000000
O O5 0.750000 0.750000 0.500000
O O6 0.792955 0.627336 0.465397
O O7 0.024516 0.675383 0.792965
O O8 0.500000 0.381712 0.500000
O O9 0.412658 0.500000 0.316117
O O10 0.292952 0.372180 0.137353
O O11 0.764504 0.624735 0.094394
O O12 0.750000 0.750000 0.000000
O O13 0.331277 0.500000 0.944011
O O14 0.310334 0.608212 0.809577
O O15 0.511989 0.609493 0.141147
O O16 0.681464 0.500000 0.292059
#
# Coordination Sequence:
#
# PCOD9212583 Si02
#       6
#     8   8   8   8   8   8
#     4  10  21  42  68  93 122 161 209 263 318 374
#     4  12  26  41  61  93 129 171 213 257 318 379
#     4  10  23  42  68  97 124 161 210 263 318 376
#     4  12  26  42  60  92 131 170 209 259 320 378
#     4   9  20  41  67  92 123 162 209 262 313 369
#     4   9  20  41  67  93 120 162 212 258 313 375
#
# _framework density 19.358509999999999
#
# number of rings (size 3 to 8) (size 9 to 14) (size 15 to 20)
#    0.000    1.667    1.667    3.000    4.667    4.000 
#    3.000    1.667    0.000    0.000    0.000    0.000 
#    0.000    0.000    0.000    0.000    0.000    0.000 
#
# Total GULP energy -133783.656698 kJ/mol
# GULP energy per Si atom -5574.319029 kJ/mol
# Density = 1.931445 g / cm^3
# Si number density = 19.358510 Si / 1000 Ang^3
#
#
#
# Elastic Constant Matrix: (Units=GPa)
#
#
# Indices 1 2 3 4 5 6 
#
# 1 89.6425 38.3949 27.0926 0.0000 -5.8855 0.0000
# 2 38.3949 69.7518 42.4406 0.0000 -21.9601 0.0000
# 3 27.0926 42.4406 125.4387 0.0000 -18.0496 0.0000
# 4 0.0000 0.0000 0.0000 -19.6090 0.0000 82.2686
# 5 -5.8855 -21.9601 -18.0496 0.0000 25.6527 0.0000
# 6 0.0000 0.0000 0.0000 82.2686 0.0000 -100.2138
#
#
#
# Elastic Compliance Matrix: (Units=1/GPa)
#
#
# Indices 1 2 3 4 5 6 
#
# 1 0.015112 -0.009464 -0.000811 0.000000 -0.005205 0.000000
# 2 -0.009464 0.028403 -0.004873 0.000000 0.018714 0.000000
# 3 -0.000811 -0.004873 0.010202 0.000000 0.002821 0.000000
# 4 0.000000 0.000000 0.000000 0.020865 0.000000 0.017128
# 5 -0.005205 0.018714 0.002821 0.000000 0.055793 0.000000
# 6 0.000000 0.000000 0.000000 0.017128 0.000000 0.004083
#
#
# Mechanical properties :
#
#
# Convention : Reuss Voigt Hill
#
# Bulk Modulus (GPa) = 42.69596 55.63213 49.16405
# Shear Modulus (GPa) = 28.97557 -7.04036 10.96760
#
# Velocity S-wave (km/s) = 3.87303 -1.90912 2.38282
# Velocity P-wave (km/s) = 6.48874 4.89291 5.74649
#
# Compressibility (1/GPa) = 0.02342142
#
# Stress axis : x y z
#
# Youngs Moduli (GPa) = 66.17159 35.20808 98.02288
#
# Poissons Ratio (x) = 0.33320 0.07949
# Poissons Ratio (y) = 0.62623 0.47765
# Poissons Ratio (z) = 0.05366 0.17156
#
# Static dielectric constant tensor:
#      x y z
#    x 1.653510 0.000000 -0.016100 
#    y 0.000000 1.687800 0.000000 
#    z -0.016100 0.000000 1.683750 
# 
# From -- ./inp_files/226915.got.cif
#   From: 2010.05.17/outbox.cif.g08.bks.cpg/sg12_114_cif.got.tgz:226915.got - 2010.06.03 13:09:07.
