data_PCOD9212677
_publ_section_title
;
Structure prediction by ZEFSAII (Michael W. Deem and Ramdas Pophale) SiO2 
 PCOD9212677
Probable space group: C 2/M
;
_chemical_formula_sum "Si O2"
_cell_formula_units_Z 42
_cell_length_a 7.536098
_cell_length_b 22.139028
_cell_length_c 11.793257
_cell_angle_alpha 90.000000
_cell_angle_beta 79.701084
_cell_angle_gamma 90.000000
_cell_volume 1935.907932
_symmetry_space_group_name_H-M "C 2/M"
_symmetry_group_IT_number 12
_symmetry_cell_setting 'monoclinic'
loop_
_space_group_symop_operation_xyz
x,y,z
-x,y,-z
-x,-y,-z
x,-y,z
1/2+x,1/2+y,z
1/2-x,1/2+y,-z
1/2-x,1/2-y,-z
1/2+x,1/2-y,z
loop_
_atom_site_type_symbol
_atom_site_label
_atom_site_fract_x
_atom_site_fract_y
_atom_site_fract_z
Si Si1 0.359576 0.587986 0.848877
Si Si2 0.694908 0.931760 0.627677
Si Si3 0.000000 0.608280 0.000000
Si Si4 0.067205 0.665070 0.233715
Si Si5 0.500000 0.500000 0.000000
Si Si6 0.534246 0.697955 0.736903
Si Si7 0.500000 0.639464 0.500000
O O1 0.322996 0.566902 0.725272
O O2 0.398553 0.659377 0.832438
O O3 0.176878 0.572884 0.938830
O O4 0.510458 0.552630 0.899378
O O5 0.537526 0.885540 0.681266
O O6 0.822133 0.902363 0.518167
O O7 0.635839 0.000000 0.609854
O O8 0.058337 0.645360 0.103788
O O9 0.268861 0.673992 0.253967
O O10 0.974496 0.730528 0.251222
O O11 0.490123 0.680106 0.612913
#
# Coordination Sequence:
#
# PCOD9212677 Si02
#       7
#     8   8   4   8   2   8   4
#     4  10  22  38  61  92 132 162 223 253 322 381
#     4  10  21  43  63  96 126 169 213 266 317 391
#     4  10  22  42  62  94 125 185 194 270 320 374
#     4  11  24  41  67  93 135 165 221 266 317 386
#     4  12  20  36  60  94 126 174 198 276 308 382
#     4  11  24  44  63  99 125 171 220 270 315 391
#     4  10  23  42  72  88 129 172 208 274 334 363
#
# _framework density 21.695249
#
# number of rings (size 3 to 8) (size 9 to 14) (size 15 to 20)
#    0.000    1.524    0.952    4.857    0.000    8.000 
#   10.286    0.952    0.000    0.000    0.000    0.000 
#    0.000    0.000    0.000    0.000    0.000    0.000 
#
# Total GULP energy -117051.848798 kJ/mol
# GULP energy per Si atom -5573.897562 kJ/mol
# Density = 2.164587 g / cm^3
# Si number density = 21.695249 Si / 1000 Ang^3
#
#
#
# Elastic Constant Matrix: (Units=GPa)
#
#
# Indices 1 2 3 4 5 6 
#
# 1 46.2177 -4.8290 -3.7771 0.0000 5.0221 0.0000
# 2 -4.8290 129.7052 18.6986 0.0000 -5.2458 0.0000
# 3 -3.7771 18.6986 62.8008 0.0000 -13.4607 0.0000
# 4 0.0000 0.0000 0.0000 -9.0516 0.0000 -35.2775
# 5 5.0221 -5.2458 -13.4607 0.0000 28.5264 0.0000
# 6 0.0000 0.0000 0.0000 -35.2775 0.0000 -41.8311
#
#
#
# Elastic Compliance Matrix: (Units=1/GPa)
#
#
# Indices 1 2 3 4 5 6 
#
# 1 0.022124 0.000624 0.000372 0.000000 -0.003605 0.000000
# 2 0.000624 0.008077 -0.002306 0.000000 0.000287 0.000000
# 3 0.000372 -0.002306 0.018387 0.000000 0.008187 0.000000
# 4 0.000000 0.000000 0.000000 0.048311 0.000000 -0.040743
# 5 -0.003605 0.000287 0.008187 0.000000 0.039606 0.000000
# 6 0.000000 0.000000 0.000000 -0.040743 0.000000 0.010454
#
#
# Mechanical properties :
#
#
# Convention : Reuss Voigt Hill
#
# Bulk Modulus (GPa) = 21.75358 28.76764 25.26061
# Shear Modulus (GPa) = 30.32127 10.77084 20.54606
#
# Velocity S-wave (km/s) = 3.74250 2.23056 3.08072
# Velocity P-wave (km/s) = 5.35946 4.46346 4.93185
#
# Compressibility (1/GPa) = 0.04596944
#
# Stress axis : x y z
#
# Youngs Moduli (GPa) = 45.19970 123.80745 54.38625
#
# Poissons Ratio (x) = -0.07729 -0.02024
# Poissons Ratio (y) = -0.02822 0.12540
# Poissons Ratio (z) = -0.01682 0.28547
#
# Static dielectric constant tensor:
#      x y z
#    x 1.879750 0.000000 -0.006000 
#    y 0.000000 1.818570 0.000000 
#    z -0.006000 0.000000 1.758850 
# 
# From -- ./inp_files/120669.got.cif
#   From: 2010.05.17/outbox.cif.g08.bks.cpg/sg12_61_cif.got.tgz:120669.got - 2010.06.03 13:09:07.
