data_PCOD9212052
_publ_section_title
;
Structure prediction by ZEFSAII (Michael W. Deem and Ramdas Pophale) SiO2 
 PCOD9212052
Probable space group: C 2/M
;
_chemical_formula_sum "Si O2"
_cell_formula_units_Z 42
_cell_length_a 9.625618
_cell_length_b 13.126468
_cell_length_c 12.279687
_cell_angle_alpha 90.000000
_cell_angle_beta 94.295613
_cell_angle_gamma 90.000000
_cell_volume 1547.184471
_symmetry_space_group_name_H-M "C 2/M"
_symmetry_group_IT_number 12
_symmetry_cell_setting 'monoclinic'
loop_
_space_group_symop_operation_xyz
x,y,z
-x,y,-z
-x,-y,-z
x,-y,z
1/2+x,1/2+y,z
1/2-x,1/2+y,-z
1/2-x,1/2-y,-z
1/2+x,1/2-y,z
loop_
_atom_site_type_symbol
_atom_site_label
_atom_site_fract_x
_atom_site_fract_y
_atom_site_fract_z
Si Si1 0.083615 0.159216 0.788681
Si Si2 0.000000 0.500000 0.000000
Si Si3 0.855601 0.839680 0.603706
Si Si4 0.848143 0.387267 0.225555
Si Si5 0.286595 0.886756 0.614874
Si Si6 0.727990 0.368106 0.003016
O O1 0.070212 0.283126 0.796359
O O2 0.226018 0.133722 0.731223
O O3 0.107092 0.112435 0.908799
O O4 0.969716 0.123269 0.695619
O O5 0.124010 0.415041 0.020586
O O6 0.712192 0.870235 0.657882
O O7 0.837428 0.882099 0.482103
O O8 0.870542 0.716732 0.593904
O O9 0.916656 0.500000 0.213870
O O10 0.720845 0.390756 0.131109
O O11 0.349471 0.000000 0.611177
O O12 0.750000 0.250000 0.000000
#
# Coordination Sequence:
#
# PCOD9212052 Si02
#       6
#     8   2   8   8   8   8
#     4  10  23  40  62  96 129 163 231 279 328 405
#     4  12  24  48  76  92 144 200 210 292 366 400
#     4  10  22  41  63  89 134 175 206 295 338 379
#     4  10  21  41  61  91 131 168 215 272 341 414
#     4  10  22  40  62  93 127 172 231 263 340 418
#     4  10  24  43  67 102 134 173 235 283 335 427
#
# _framework density 27.146083999999998
#
# number of rings (size 3 to 8) (size 9 to 14) (size 15 to 20)
#    0.000    1.905    0.952    1.143    1.333   12.952 
#    0.000    0.952    0.000    6.857    0.000    0.000 
#    0.000    0.000    0.000    0.000    0.000    0.000 
#
# Total GULP energy -117043.014074 kJ/mol
# GULP energy per Si atom -5573.476861 kJ/mol
# Density = 2.708430 g / cm^3
# Si number density = 27.146084 Si / 1000 Ang^3
#
#
#
# Elastic Constant Matrix: (Units=GPa)
#
#
# Indices 1 2 3 4 5 6 
#
# 1 66.6936 8.2461 39.0896 0.0000 31.2725 0.0000
# 2 8.2461 238.5641 7.9140 0.0000 4.0504 0.0000
# 3 39.0896 7.9140 202.4947 0.0000 25.4013 0.0000
# 4 0.0000 0.0000 0.0000 36.3386 0.0000 15.7477
# 5 31.2725 4.0504 25.4013 0.0000 53.7113 0.0000
# 6 0.0000 0.0000 0.0000 15.7477 0.0000 29.0616
#
#
#
# Elastic Compliance Matrix: (Units=1/GPa)
#
#
# Indices 1 2 3 4 5 6 
#
# 1 0.022087 -0.000475 -0.002803 0.000000 -0.011498 0.000000
# 2 -0.000475 0.004211 -0.000072 0.000000 -0.000007 0.000000
# 3 -0.002803 -0.000072 0.005610 0.000000 -0.001016 0.000000
# 4 0.000000 0.000000 0.000000 0.035964 0.000000 -0.019488
# 5 -0.011498 -0.000007 -0.001016 0.000000 0.025794 0.000000
# 6 0.000000 0.000000 0.000000 -0.019488 0.000000 0.044970
#
#
# Mechanical properties :
#
#
# Convention : Reuss Voigt Hill
#
# Bulk Modulus (GPa) = 39.67076 68.69466 54.18271
# Shear Modulus (GPa) = 32.52304 53.98917 43.25610
#
# Velocity S-wave (km/s) = 3.46508 4.46448 3.99614
# Velocity P-wave (km/s) = 5.53665 7.20666 6.42614
#
# Compressibility (1/GPa) = 0.02520749
#
# Stress axis : x y z
#
# Youngs Moduli (GPa) = 45.27544 237.49157 178.26399
#
# Poissons Ratio (x) = 0.11287 0.49962
# Poissons Ratio (y) = 0.02152 0.01283
# Poissons Ratio (z) = 0.12689 0.01709
#
# Static dielectric constant tensor:
#      x y z
#    x 2.166760 0.000000 0.018370 
#    y 0.000000 2.071540 0.000000 
#    z 0.018370 0.000000 2.202960 
# 
# From -- ./inp_files/129748.got.cif
#   From: 2010.05.17/outbox.cif.g08.bks.cpg/sg12_65_cif.got.tgz:129748.got - 2010.06.03 13:09:07.
