data_PCOD9212297
_publ_section_title
;
Structure prediction by ZEFSAII (Michael W. Deem and Ramdas Pophale) SiO2 
 PCOD9212297
Probable space group: C 2/M
;
_chemical_formula_sum "Si O2"
_cell_formula_units_Z 34
_cell_length_a 20.738839
_cell_length_b 7.478695
_cell_length_c 9.612978
_cell_angle_alpha 90.000000
_cell_angle_beta 81.580399
_cell_angle_gamma 90.000000
_cell_volume 1474.898413
_symmetry_space_group_name_H-M "C 2/M"
_symmetry_group_IT_number 12
_symmetry_cell_setting 'monoclinic'
loop_
_space_group_symop_operation_xyz
x,y,z
-x,y,-z
-x,-y,-z
x,-y,z
1/2+x,1/2+y,z
1/2-x,1/2+y,-z
1/2-x,1/2-y,-z
1/2+x,1/2-y,z
loop_
_atom_site_type_symbol
_atom_site_label
_atom_site_fract_x
_atom_site_fract_y
_atom_site_fract_z
Si Si1 0.381748 0.218020 0.303750
Si Si2 0.765739 0.710765 0.154947
Si Si3 0.139860 0.711536 0.379724
Si Si4 0.000000 0.000000 0.000000
Si Si5 0.031358 0.716033 0.194122
O O1 0.331818 0.285359 0.202639
O O2 0.359709 0.282358 0.463512
O O3 0.456890 0.265884 0.255730
O O4 0.380936 0.000000 0.302537
O O5 0.773007 0.500000 0.158939
O O6 0.705474 0.758839 0.273193
O O7 0.750000 0.750000 0.000000
O O8 0.130996 0.500000 0.397439
O O9 0.078962 0.768716 0.304687
O O10 0.955099 0.840428 0.941291
O O11 0.036639 0.500000 0.167396
#
# Coordination Sequence:
#
# PCOD9212297 Si02
#       5
#     8   8   8   2   8
#     4   9  20  42  66  90 123 170 215 259 320 383
#     4  11  24  39  61  90 128 167 211 261 317 383
#     4  10  21  41  67  92 123 165 211 265 323 379
#     4  12  26  40  62 102 140 164 212 262 332 382
#     4  10  23  42  68  95 129 171 214 265 320 383
#
# _framework density 23.052434999999999
#
# number of rings (size 3 to 8) (size 9 to 14) (size 15 to 20)
#    0.000    1.882    0.000    2.471    4.941    2.824 
#    4.235    1.176    0.000    0.000    0.000    0.000 
#    0.000    0.000    0.000    0.000    0.000    0.000 
#
# Total GULP energy -94756.731202 kJ/mol
# GULP energy per Si atom -5573.925365 kJ/mol
# Density = 2.299997 g / cm^3
# Si number density = 23.052435 Si / 1000 Ang^3
#
#
#
# Elastic Constant Matrix: (Units=GPa)
#
#
# Indices 1 2 3 4 5 6 
#
# 1 173.3576 0.4444 64.4696 0.0000 21.2300 0.0000
# 2 0.4444 98.5101 10.7532 0.0000 7.4364 0.0000
# 3 64.4696 10.7532 114.4120 0.0000 16.3717 0.0000
# 4 0.0000 0.0000 0.0000 6.5772 0.0000 -3.6200
# 5 21.2300 7.4364 16.3717 0.0000 48.0118 0.0000
# 6 0.0000 0.0000 0.0000 -3.6200 0.0000 7.0000
#
#
#
# Elastic Compliance Matrix: (Units=1/GPa)
#
#
# Indices 1 2 3 4 5 6 
#
# 1 0.007499 0.000555 -0.003986 0.000000 -0.002043 0.000000
# 2 0.000555 0.010378 -0.001076 0.000000 -0.001486 0.000000
# 3 -0.003986 -0.001076 0.011366 0.000000 -0.001947 0.000000
# 4 0.000000 0.000000 0.000000 0.212533 0.000000 0.109910
# 5 -0.002043 -0.001486 -0.001947 0.000000 0.022626 0.000000
# 6 0.000000 0.000000 0.000000 0.109910 0.000000 0.199697
#
#
# Mechanical properties :
#
#
# Convention : Reuss Voigt Hill
#
# Bulk Modulus (GPa) = 49.42730 59.73493 54.58111
# Shear Modulus (GPa) = 10.41980 33.02529 21.72254
#
# Velocity S-wave (km/s) = 2.12835 3.78910 3.07304
# Velocity P-wave (km/s) = 5.24668 6.71654 6.02659
#
# Compressibility (1/GPa) = 0.02023173
#
# Stress axis : x y z
#
# Youngs Moduli (GPa) = 133.34358 96.35438 87.98265
#
# Poissons Ratio (x) = -0.05352 0.35067
# Poissons Ratio (y) = -0.07407 0.09465
# Poissons Ratio (z) = 0.53146 0.10365
#
# Static dielectric constant tensor:
#      x y z
#    x 1.872280 0.000000 0.004660 
#    y 0.000000 1.890310 0.000000 
#    z 0.004660 0.000000 1.912350 
# 
# From -- ./inp_files/82053.got.cif
#   From: 2010.05.17/outbox.cif.g08.bks.cpg/sg12_42_cif.got.tgz:82053.got - 2010.06.03 13:09:07.
