data_PCOD9212922
_publ_section_title
;
Structure prediction by ZEFSAII (Michael W. Deem and Ramdas Pophale) SiO2 
 PCOD9212922
Probable space group: C 2/M
;
_chemical_formula_sum "Si O2"
_cell_formula_units_Z 60
_cell_length_a 25.551732
_cell_length_b 7.983468
_cell_length_c 13.701602
_cell_angle_alpha 90.000000
_cell_angle_beta 100.810790
_cell_angle_gamma 90.000000
_cell_volume 2745.403470
_symmetry_space_group_name_H-M "C 2/M"
_symmetry_group_IT_number 12
_symmetry_cell_setting 'monoclinic'
loop_
_space_group_symop_operation_xyz
x,y,z
-x,y,-z
-x,-y,-z
x,-y,z
1/2+x,1/2+y,z
1/2-x,1/2+y,-z
1/2-x,1/2-y,-z
1/2+x,1/2-y,z
loop_
_atom_site_type_symbol
_atom_site_label
_atom_site_fract_x
_atom_site_fract_y
_atom_site_fract_z
Si Si1 0.179235 0.192569 0.897232
Si Si2 0.915661 0.302852 0.504391
Si Si3 0.859481 0.679064 0.773611
Si Si4 0.534476 0.306855 0.290616
Si Si5 0.799812 0.701067 0.453566
Si Si6 0.252559 0.192767 0.239518
Si Si7 0.157736 0.500000 0.035816
Si Si8 0.079523 0.200070 0.717506
O O1 0.233298 0.202816 0.851445
O O2 0.176590 0.347921 0.969104
O O3 0.130503 0.224719 0.803860
O O4 0.174583 0.000000 0.933586
O O5 0.921823 0.500000 0.527132
O O6 0.956401 0.210847 0.589557
O O7 0.856496 0.240605 0.512643
O O8 0.917907 0.278551 0.389165
O O9 0.841840 0.500000 0.722168
O O10 0.915393 0.724816 0.745584
O O11 0.808449 0.797371 0.747030
O O12 0.863592 0.641812 0.890148
O O13 0.535537 0.500000 0.262426
O O14 0.475221 0.238645 0.250717
O O15 0.802710 0.500000 0.448626
O O16 0.750000 0.750000 0.500000
O O17 0.788361 0.762105 0.340238
O O18 0.266503 0.000000 0.225524
O O19 0.074417 0.000000 0.700985
#
# Coordination Sequence:
#
# PCOD9212922 Si02
#       8
#     8   8   8   8   8   8   4   8
#     4  11  23  44  71 100 134 172 219 280 341 399
#     4  11  22  37  60  95 134 172 221 267 318 390
#     4  10  24  44  61  95 127 170 219 270 338 401
#     4  11  23  42  65  92 134 177 221 274 326 397
#     4  10  22  35  54  87 128 175 215 258 311 384
#     4  11  21  40  66  93 133 174 217 268 328 391
#     4  10  26  48  69 100 134 162 229 285 343 416
#     4  10  23  41  65  97 131 174 223 272 329 390
#
# _framework density 21.854710000000001
#
# number of rings (size 3 to 8) (size 9 to 14) (size 15 to 20)
#    0.400    1.067    2.000    2.800    0.933    8.533 
#    0.000    1.333    0.000    2.400    0.000    0.000 
#    0.000    0.000    0.000    0.000    0.000    0.000 
#
# Total GULP energy -167011.495908 kJ/mol
# GULP energy per Si atom -5567.049864 kJ/mol
# Density = 2.180497 g / cm^3
# Si number density = 21.854710 Si / 1000 Ang^3
#
#
#
# Elastic Constant Matrix: (Units=GPa)
#
#
# Indices 1 2 3 4 5 6 
#
# 1 110.8836 7.6019 22.0942 0.0000 5.4288 0.0000
# 2 7.6019 66.7183 21.3237 0.0000 -2.3644 0.0000
# 3 22.0942 21.3237 66.9102 0.0000 -9.6530 0.0000
# 4 0.0000 0.0000 0.0000 29.5241 0.0000 -7.8130
# 5 5.4288 -2.3644 -9.6530 0.0000 22.9464 0.0000
# 6 0.0000 0.0000 0.0000 -7.8130 0.0000 20.0632
#
#
#
# Elastic Compliance Matrix: (Units=1/GPa)
#
#
# Indices 1 2 3 4 5 6 
#
# 1 0.009986 -0.000046 -0.003858 0.000000 -0.003990 0.000000
# 2 -0.000046 0.016695 -0.005382 0.000000 -0.000533 0.000000
# 3 -0.003858 -0.005382 0.019149 0.000000 0.008414 0.000000
# 4 0.000000 0.000000 0.000000 0.037762 0.000000 0.014705
# 5 -0.003990 -0.000533 0.008414 0.000000 0.048008 0.000000
# 6 0.000000 0.000000 0.000000 0.014705 0.000000 0.055569
#
#
# Mechanical properties :
#
#
# Convention : Reuss Voigt Hill
#
# Bulk Modulus (GPa) = 36.68918 38.50574 37.59746
# Shear Modulus (GPa) = 23.27450 27.40622 25.34036
#
# Velocity S-wave (km/s) = 3.26692 3.54505 3.40883
# Velocity P-wave (km/s) = 5.57266 5.86632 5.72138
#
# Compressibility (1/GPa) = 0.02725599
#
# Stress axis : x y z
#
# Youngs Moduli (GPa) = 100.14222 59.89831 52.22327
#
# Poissons Ratio (x) = 0.00276 0.20150
# Poissons Ratio (y) = 0.00461 0.28108
# Poissons Ratio (z) = 0.38639 0.32239
#
# Static dielectric constant tensor:
#      x y z
#    x 1.829140 0.000000 0.011100 
#    y 0.000000 1.808000 0.000000 
#    z 0.011100 0.000000 1.807780 
# 
# From -- ./inp_files/237691.got.cif
#   From: 2010.05.17/outbox.cif.g08.bks.cpg/sg12_119_cif.got.tgz:237691.got - 2010.06.03 13:09:07.
