data_PCOD9212407
_publ_section_title
;
Structure prediction by ZEFSAII (Michael W. Deem and Ramdas Pophale) SiO2 
 PCOD9212407
Probable space group: C 2/M
;
_chemical_formula_sum "Si O2"
_cell_formula_units_Z 40
_cell_length_a 23.672045
_cell_length_b 11.382836
_cell_length_c 21.446704
_cell_angle_alpha 90.000000
_cell_angle_beta 18.834215
_cell_angle_gamma 90.000000
_cell_volume 1865.614760
_symmetry_space_group_name_H-M "C 2/M"
_symmetry_group_IT_number 12
_symmetry_cell_setting 'monoclinic'
loop_
_space_group_symop_operation_xyz
x,y,z
-x,y,-z
-x,-y,-z
x,-y,z
1/2+x,1/2+y,z
1/2-x,1/2+y,-z
1/2-x,1/2-y,-z
1/2+x,1/2-y,z
loop_
_atom_site_type_symbol
_atom_site_label
_atom_site_fract_x
_atom_site_fract_y
_atom_site_fract_z
Si Si1 0.039752 0.376520 0.575459
Si Si2 0.210978 0.125573 0.008066
Si Si3 0.522730 0.137517 0.048779
Si Si4 0.437083 0.373024 0.635763
Si Si5 0.345480 0.700889 0.338586
O O1 0.053164 0.500000 0.523944
O O2 0.200465 0.374677 0.455118
O O3 0.034209 0.245381 0.554311
O O4 0.856625 0.380728 0.802845
O O5 0.017957 0.134854 0.181808
O O6 0.227313 0.000000 0.026864
O O7 0.250000 0.250000 0.000000
O O8 0.414084 0.205526 0.215174
O O9 0.472139 0.000000 0.101571
O O10 0.500000 0.179331 0.000000
O O11 0.727659 0.145260 0.853458
O O12 0.500000 0.386382 0.500000
O O13 0.475848 0.500000 0.627181
O O14 0.250000 0.750000 0.500000
#
# Coordination Sequence:
#
# PCOD9212407 Si02
#       5
#     8   8   8   8   8
#     4  11  24  42  64  94 134 175 221 275 337 404
#     4  11  24  44  65  93 134 177 223 279 335 404
#     4  10  22  41  67 102 139 177 228 287 343 404
#     4  10  21  41  69  98 131 176 230 282 338 405
#     4  12  24  42  67 100 136 183 225 278 342 409
#
# _framework density 21.440653999999999
#
# number of rings (size 3 to 8) (size 9 to 14) (size 15 to 20)
#    0.000    1.200    4.000    1.800    0.000    6.000 
#    0.000    0.000    0.000    3.000    0.000    0.000 
#    0.000    0.000    0.000    0.000    0.000    0.000 
#
# Total GULP energy -111466.454337 kJ/mol
# GULP energy per Si atom -5573.322717 kJ/mol
# Density = 2.139185 g / cm^3
# Si number density = 21.440654 Si / 1000 Ang^3
#
#
#
# Elastic Constant Matrix: (Units=GPa)
#
#
# Indices 1 2 3 4 5 6 
#
# 1 68.2428 69.5398 30.0743 0.0009 -1.5989 -0.0004
# 2 69.5398 215.1779 28.1866 0.0021 1.1184 -0.0005
# 3 30.0743 28.1866 128.7280 0.0040 -3.0600 -0.0016
# 4 0.0009 0.0021 0.0040 -52.9288 -0.0021 5.1199
# 5 -1.5989 1.1184 -3.0600 -0.0021 48.7517 0.0007
# 6 -0.0004 -0.0005 -0.0016 5.1199 0.0007 17.1315
#
#
#
# Elastic Compliance Matrix: (Units=1/GPa)
#
#
# Indices 1 2 3 4 5 6 
#
# 1 0.023690 -0.007141 -0.003954 0.000000 0.000693 0.000000
# 2 -0.007141 0.006939 0.000140 0.000000 -0.000385 0.000000
# 3 -0.003954 0.000140 0.008671 0.000001 0.000411 0.000000
# 4 0.000000 0.000000 0.000001 -0.018362 -0.000001 0.005488
# 5 0.000693 -0.000385 0.000411 -0.000001 0.020569 -0.000001
# 6 0.000000 0.000000 0.000000 0.005488 -0.000001 0.056732
#
#
# Mechanical properties :
#
#
# Convention : Reuss Voigt Hill
#
# Bulk Modulus (GPa) = 57.51064 74.19446 65.85255
# Shear Modulus (GPa) = 39.69930 21.54741 30.62335
#
# Velocity S-wave (km/s) = 4.30768 3.17358 3.78337
# Velocity P-wave (km/s) = 7.18491 6.93603 7.06156
#
# Compressibility (1/GPa) = 0.01738809
#
# Stress axis : x y z
#
# Youngs Moduli (GPa) = 42.21244 144.11439 115.32301
#
# Poissons Ratio (x) = 1.02919 0.45603
# Poissons Ratio (y) = 0.30146 -0.01614
# Poissons Ratio (z) = 0.16692 -0.02017
#
# Static dielectric constant tensor:
#      x y z
#    x 1.804540 0.000000 -0.000720 
#    y 0.000000 1.981270 0.000000 
#    z -0.000720 0.000000 1.735980 
# 
# From -- ./inp_files/325059.got.cif
#   From: 2010.05.17/outbox.cif.g08.bks.cpg/sg12_163_cif.got.tgz:325059.got - 2010.06.03 13:09:07.
