data_PCOD9212972
_publ_section_title
;
Structure prediction by ZEFSAII (Michael W. Deem and Ramdas Pophale) SiO2 
 PCOD9212972
Probable space group: C 2/M
;
_chemical_formula_sum "Si O2"
_cell_formula_units_Z 60
_cell_length_a 15.756644
_cell_length_b 25.108109
_cell_length_c 11.116067
_cell_angle_alpha 90.000000
_cell_angle_beta 128.231777
_cell_angle_gamma 90.000000
_cell_volume 3454.480140
_symmetry_space_group_name_H-M "C 2/M"
_symmetry_group_IT_number 12
_symmetry_cell_setting 'monoclinic'
loop_
_space_group_symop_operation_xyz
x,y,z
-x,y,-z
-x,-y,-z
x,-y,z
1/2+x,1/2+y,z
1/2-x,1/2+y,-z
1/2-x,1/2-y,-z
1/2+x,1/2-y,z
loop_
_atom_site_type_symbol
_atom_site_label
_atom_site_fract_x
_atom_site_fract_y
_atom_site_fract_z
Si Si1 0.574376 0.345492 0.779845
Si Si2 0.455110 0.246228 0.093867
Si Si3 0.064851 0.937941 0.430011
Si Si4 0.500000 0.733113 0.500000
Si Si5 0.316293 0.147575 0.932876
Si Si6 0.519543 0.057712 0.873741
Si Si7 0.147332 0.286275 0.442782
Si Si8 0.697072 0.889046 0.354173
O O1 0.569179 0.306232 0.888226
O O2 0.494021 0.395380 0.707705
O O3 0.543954 0.306299 0.641693
O O4 0.695351 0.364588 0.865084
O O5 0.548359 0.224320 0.264065
O O6 0.500000 0.244229 0.000000
O O7 0.353526 0.206303 0.004952
O O8 0.188205 0.918389 0.552216
O O9 0.000000 0.933841 0.500000
O O10 0.061077 0.000000 0.389963
O O11 0.595261 0.768817 0.524712
O O12 0.321459 0.139985 0.792115
O O13 0.397681 0.105990 0.066330
O O14 0.403140 0.071241 0.717710
O O15 0.560228 0.000000 0.868989
O O16 0.500000 0.054863 0.000000
O O17 0.250000 0.250000 0.500000
O O18 0.188494 0.345714 0.452551
#
# Coordination Sequence:
#
# PCOD9212972 Si02
#       8
#     8   8   8   4   8   8   8   8
#     4  11  21  36  54  79 117 143 185 236 283 336
#     4  11  21  35  53  83 111 150 187 224 282 348
#     4  11  22  36  56  82 111 150 195 241 291 341
#     4  10  22  36  51  86 113 152 192 230 280 348
#     4  11  18  33  50  78 113 145 178 221 279 344
#     4   9  18  29  46  73 103 137 173 213 268 329
#     4  11  21  35  57  78 117 156 187 234 284 337
#     4  11  18  34  54  76 113 144 183 230 279 337
#
# _framework density 17.368749999999999
#
# number of rings (size 3 to 8) (size 9 to 14) (size 15 to 20)
#    0.000    1.333    4.667    3.600    0.000    1.067 
#    0.000    0.000    0.000    0.400    0.000    3.733 
#    0.000    0.000    0.000    0.000    0.000    0.000 
#
# Total GULP energy -167306.759225 kJ/mol
# GULP energy per Si atom -5576.891974 kJ/mol
# Density = 1.732922 g / cm^3
# Si number density = 17.368750 Si / 1000 Ang^3
#
#
#
# Elastic Constant Matrix: (Units=GPa)
#
#
# Indices 1 2 3 4 5 6 
#
# 1 60.4516 32.2865 16.5634 0.0000 23.7218 0.0000
# 2 32.2865 130.1991 31.5916 0.0000 14.2367 0.0000
# 3 16.5634 31.5916 49.8989 0.0000 20.8339 0.0000
# 4 0.0000 0.0000 0.0000 10.5151 0.0000 -0.2942
# 5 23.7218 14.2367 20.8339 0.0000 26.2324 0.0000
# 6 0.0000 0.0000 0.0000 -0.2942 0.0000 19.9381
#
#
#
# Elastic Compliance Matrix: (Units=1/GPa)
#
#
# Indices 1 2 3 4 5 6 
#
# 1 0.028639 -0.005408 0.005244 0.000000 -0.027128 0.000000
# 2 -0.005408 0.010101 -0.006512 0.000000 0.004581 0.000000
# 3 0.005244 -0.006512 0.034302 0.000000 -0.028450 0.000000
# 4 0.000000 0.000000 0.000000 0.095141 0.000000 0.001404
# 5 -0.027128 0.004581 -0.028450 0.000000 0.082761 0.000000
# 6 0.000000 0.000000 0.000000 0.001404 0.000000 0.050176
#
#
# Mechanical properties :
#
#
# Convention : Reuss Voigt Hill
#
# Bulk Modulus (GPa) = 16.75367 44.60360 30.67864
# Shear Modulus (GPa) = 14.95357 22.01099 18.48228
#
# Velocity S-wave (km/s) = 2.93737 3.56374 3.26561
# Velocity P-wave (km/s) = 4.60120 6.53221 5.64982
#
# Compressibility (1/GPa) = 0.05968842
#
# Stress axis : x y z
#
# Youngs Moduli (GPa) = 34.91764 99.00114 29.15317
#
# Poissons Ratio (x) = 0.53539 -0.15288
# Poissons Ratio (y) = 0.18883 0.18986
# Poissons Ratio (z) = -0.18310 0.64474
#
# Static dielectric constant tensor:
#      x y z
#    x 1.589920 0.000000 0.003770 
#    y 0.000000 1.625880 0.000000 
#    z 0.003770 0.000000 1.607640 
# 
# From -- ./inp_files/149308.got.cif
#   From: 2010.05.17/outbox.cif.g08.bks.cpg/sg12_75_cif.got.tgz:149308.got - 2010.06.03 13:09:07.
