data_PCOD9212622
_publ_section_title
;
Structure prediction by ZEFSAII (Michael W. Deem and Ramdas Pophale) SiO2 
 PCOD9212622
Probable space group: C 2/M
;
_chemical_formula_sum "Si O2"
_cell_formula_units_Z 48
_cell_length_a 26.075650
_cell_length_b 14.030316
_cell_length_c 12.317499
_cell_angle_alpha 90.000000
_cell_angle_beta 149.240275
_cell_angle_gamma 90.000000
_cell_volume 2304.724030
_symmetry_space_group_name_H-M "C 2/M"
_symmetry_group_IT_number 12
_symmetry_cell_setting 'monoclinic'
loop_
_space_group_symop_operation_xyz
x,y,z
-x,y,-z
-x,-y,-z
x,-y,z
1/2+x,1/2+y,z
1/2-x,1/2+y,-z
1/2-x,1/2-y,-z
1/2+x,1/2-y,z
loop_
_atom_site_type_symbol
_atom_site_label
_atom_site_fract_x
_atom_site_fract_y
_atom_site_fract_z
Si Si1 0.579262 0.193247 0.811610
Si Si2 0.641645 0.801387 0.524792
Si Si3 0.611843 0.111867 0.241547
Si Si4 0.695198 0.890709 0.834756
Si Si5 0.418841 0.393029 0.257406
Si Si6 0.752607 0.610121 0.725494
O O1 0.468253 0.162610 0.639518
O O2 0.615903 0.171882 0.756254
O O3 0.573439 0.307063 0.812385
O O4 0.660485 0.140099 0.032230
O O5 0.651527 0.833142 0.418853
O O6 0.709564 0.852406 0.739129
O O7 0.665583 0.688923 0.576482
O O8 0.691109 0.118928 0.288032
O O9 0.601028 0.000000 0.250538
O O10 0.500000 0.144506 0.000000
O O11 0.661993 0.000000 0.773634
O O12 0.803909 0.886369 0.089959
O O13 0.500000 0.380108 0.500000
O O14 0.430922 0.500000 0.235050
O O15 0.721870 0.500000 0.686154
#
# Coordination Sequence:
#
# PCOD9212622 Si02
#       6
#     8   8   8   8   8   8
#     4  12  24  41  63  94 133 173 213 265 322 391
#     4  12  24  41  69  95 128 172 219 272 322 382
#     4  10  21  42  69  97 128 168 220 270 327 386
#     4  11  24  40  62  97 134 170 217 267 322 385
#     4  10  22  40  62  90 130 178 220 263 317 384
#     4  11  25  44  68  98 131 171 218 270 328 389
#
# _framework density 20.826789000000002
#
# number of rings (size 3 to 8) (size 9 to 14) (size 15 to 20)
#    0.000    1.000    3.333    3.500    2.333    3.333 
#    0.000    0.000    0.000    0.500    0.000    0.000 
#    0.000    0.000    0.000    0.000    0.000    0.000 
#
# Total GULP energy -134077.947297 kJ/mol
# GULP energy per Si atom -5586.581137 kJ/mol
# Density = 2.077939 g / cm^3
# Si number density = 20.826789 Si / 1000 Ang^3
#
#
#
# Elastic Constant Matrix: (Units=GPa)
#
#
# Indices 1 2 3 4 5 6 
#
# 1 43.8251 18.8049 35.1230 0.0000 -12.6031 0.0000
# 2 18.8049 118.9137 37.0445 0.0000 -12.5103 0.0000
# 3 35.1230 37.0445 101.7788 0.0000 -6.6139 0.0000
# 4 0.0000 0.0000 0.0000 29.3775 0.0000 -5.2624
# 5 -12.6031 -12.5103 -6.6139 0.0000 32.9537 0.0000
# 6 0.0000 0.0000 0.0000 -5.2624 0.0000 23.9807
#
#
#
# Elastic Compliance Matrix: (Units=1/GPa)
#
#
# Indices 1 2 3 4 5 6 
#
# 1 0.035271 -0.000971 -0.011111 0.000000 0.010891 0.000000
# 2 -0.000971 0.009803 -0.003055 0.000000 0.002737 0.000000
# 3 -0.011111 -0.003055 0.014610 0.000000 -0.002477 0.000000
# 4 0.000000 0.000000 0.000000 0.035432 0.000000 0.007775
# 5 0.010891 0.002737 -0.002477 0.000000 0.035053 0.000000
# 6 0.000000 0.000000 0.000000 0.007775 0.000000 0.043406
#
#
# Mechanical properties :
#
#
# Convention : Reuss Voigt Hill
#
# Bulk Modulus (GPa) = 34.00066 49.60693 41.80380
# Shear Modulus (GPa) = 23.40253 28.83207 26.11730
#
# Velocity S-wave (km/s) = 3.35576 3.72475 3.54506
# Velocity P-wave (km/s) = 5.60140 6.50914 6.07226
#
# Compressibility (1/GPa) = 0.02941120
#
# Stress axis : x y z
#
# Youngs Moduli (GPa) = 28.35197 102.01341 68.44436
#
# Poissons Ratio (x) = 0.09902 0.76046
# Poissons Ratio (y) = 0.02752 0.20910
# Poissons Ratio (z) = 0.31501 0.31165
#
# Static dielectric constant tensor:
#      x y z
#    x 1.749110 0.000000 0.000990 
#    y 0.000000 1.754440 0.000000 
#    z 0.000990 0.000000 1.782270 
# 
# From -- ./inp_files/183893.got.cif
#   From: 2010.05.17/outbox.cif.g08.bks.cpg/sg12_92_cif.got.tgz:183893.got - 2010.06.03 13:09:07.
