data_PCOD9212324
_publ_section_title
;
Structure prediction by ZEFSAII (Michael W. Deem and Ramdas Pophale) SiO2 
 PCOD9212324
Probable space group: C 2/M
;
_chemical_formula_sum "Si O2"
_cell_formula_units_Z 30
_cell_length_a 7.199615
_cell_length_b 13.825698
_cell_length_c 11.819481
_cell_angle_alpha 90.000000
_cell_angle_beta 85.359422
_cell_angle_gamma 90.000000
_cell_volume 1172.650833
_symmetry_space_group_name_H-M "C 2/M"
_symmetry_group_IT_number 12
_symmetry_cell_setting 'monoclinic'
loop_
_space_group_symop_operation_xyz
x,y,z
-x,y,-z
-x,-y,-z
x,-y,z
1/2+x,1/2+y,z
1/2-x,1/2+y,-z
1/2-x,1/2-y,-z
1/2+x,1/2-y,z
loop_
_atom_site_type_symbol
_atom_site_label
_atom_site_fract_x
_atom_site_fract_y
_atom_site_fract_z
Si Si1 0.000000 0.500000 0.500000
Si Si2 0.000000 0.825758 0.500000
Si Si3 0.454669 0.605435 0.134950
Si Si4 0.361332 0.848560 0.359387
Si Si5 0.959877 0.676893 0.868376
O O1 0.019015 0.415859 0.403656
O O2 0.833618 0.880131 0.573187
O O3 0.904955 0.757820 0.408031
O O4 0.498145 0.500000 0.185499
O O5 0.234148 0.627035 0.151864
O O6 0.546851 0.708605 0.159717
O O7 0.500000 0.597123 0.000000
O O8 0.383754 0.860427 0.225187
O O9 0.000000 0.665305 0.000000
#
# Coordination Sequence:
#
# PCOD9212324 Si02
#       5
#     2   4   8   8   8
#     4  10  24  42  62  94 124 174 234 276 326 402
#     4   9  20  40  66  91 124 176 219 270 336 389
#     4  10  22  40  62  95 139 183 220 261 329 413
#     4  10  21  41  67  94 131 171 223 279 335 402
#     4  11  22  40  68  98 139 176 216 281 345 407
#
# _framework density 25.583061000000001
#
# number of rings (size 3 to 8) (size 9 to 14) (size 15 to 20)
#    0.000    1.867    0.000    4.800    1.867    1.067 
#    0.000    1.333    8.800    0.800    0.000    0.000 
#    0.000    0.000    0.000    0.000    0.000    0.000 
#
# Total GULP energy -83510.929975 kJ/mol
# GULP energy per Si atom -5567.395332 kJ/mol
# Density = 2.552483 g / cm^3
# Si number density = 25.583061 Si / 1000 Ang^3
#
#
#
# Elastic Constant Matrix: (Units=GPa)
#
#
# Indices 1 2 3 4 5 6 
#
# 1 76.6302 -6.9120 45.4686 0.0000 -25.5584 0.0000
# 2 -6.9120 106.0675 11.8616 0.0000 -10.6934 0.0000
# 3 45.4686 11.8616 208.0728 0.0000 -31.2075 0.0000
# 4 0.0000 0.0000 0.0000 300.1777 0.0000 500.1845
# 5 -25.5584 -10.6934 -31.2075 0.0000 37.2072 0.0000
# 6 0.0000 0.0000 0.0000 500.1845 0.0000 746.9200
#
#
#
# Elastic Compliance Matrix: (Units=1/GPa)
#
#
# Indices 1 2 3 4 5 6 
#
# 1 0.018582 0.002642 -0.002497 0.000000 0.011429 0.000000
# 2 0.002642 0.010089 -0.000510 0.000000 0.004287 0.000000
# 3 -0.002497 -0.000510 0.005836 0.000000 0.003033 0.000000
# 4 0.000000 0.000000 0.000000 -0.028755 0.000000 0.019256
# 5 0.011429 0.004287 0.003033 0.000000 0.038504 0.000000
# 6 0.000000 0.000000 0.000000 0.019256 0.000000 -0.011556
#
#
# Mechanical properties :
#
#
# Convention : Reuss Voigt Hill
#
# Bulk Modulus (GPa) = 29.60481 54.62300 42.11391
# Shear Modulus (GPa) = 111.88916 239.55114 175.72015
#
# Velocity S-wave (km/s) = 6.62047 9.68710 8.29670
# Velocity P-wave (km/s) = 8.36887 12.10444 10.40566
#
# Compressibility (1/GPa) = 0.03377829
#
# Stress axis : x y z
#
# Youngs Moduli (GPa) = 53.81683 99.11414 171.36237
#
# Poissons Ratio (x) = -0.26190 0.42788
# Poissons Ratio (y) = -0.14220 0.08732
# Poissons Ratio (z) = 0.13438 0.05050
#
# Static dielectric constant tensor:
#      x y z
#    x -15.497100 0.000000 13.921180 
#    y 0.000000 2.150050 0.000000 
#    z 13.921180 0.000000 -8.908750 
# 
# From -- ./inp_files/117710.got.cif
#   From: 2010.05.17/outbox.cif.g08.bks.cpg/sg12_59_cif.got.tgz:117710.got - 2010.06.03 13:09:07.
