data_PCOD9212345
_publ_section_title
;
Structure prediction by ZEFSAII (Michael W. Deem and Ramdas Pophale) SiO2 
 PCOD9212345
Probable space group: C 2/M
;
_chemical_formula_sum "Si O2"
_cell_formula_units_Z 36
_cell_length_a 11.018553
_cell_length_b 13.051366
_cell_length_c 12.622718
_cell_angle_alpha 90.000000
_cell_angle_beta 108.715115
_cell_angle_gamma 90.000000
_cell_volume 1719.257861
_symmetry_space_group_name_H-M "C 2/M"
_symmetry_group_IT_number 12
_symmetry_cell_setting 'monoclinic'
loop_
_space_group_symop_operation_xyz
x,y,z
-x,y,-z
-x,-y,-z
x,-y,z
1/2+x,1/2+y,z
1/2-x,1/2+y,-z
1/2-x,1/2-y,-z
1/2+x,1/2-y,z
loop_
_atom_site_type_symbol
_atom_site_label
_atom_site_fract_x
_atom_site_fract_y
_atom_site_fract_z
Si Si1 0.261903 0.833505 0.230895
Si Si2 0.983018 0.217167 0.725909
Si Si3 0.851959 0.500000 0.428578
Si Si4 0.653212 0.500000 0.043285
Si Si5 0.500000 0.678409 0.500000
Si Si6 0.801748 0.000000 0.399334
Si Si7 0.117698 0.000000 0.796564
O O1 0.386379 0.778382 0.218378
O O2 0.307420 0.903551 0.343607
O O3 0.204205 0.903559 0.122626
O O4 0.145518 0.763924 0.243429
O O5 0.958369 0.236093 0.593990
O O6 0.023748 0.098303 0.756862
O O7 0.789542 0.500000 0.526765
O O8 0.000000 0.500000 0.500000
O O9 0.500000 0.500000 0.000000
O O10 0.685185 0.500000 0.928537
O O11 0.385967 0.602209 0.437352
O O12 0.776375 0.000000 0.267037
#
# Coordination Sequence:
#
# PCOD9212345 Si02
#       7
#     8   8   4   4   4   4   4
#     4  11  25  40  66 102 130 170 223 265 332 390
#     4  11  22  40  64  99 131 172 216 264 327 400
#     4  11  23  42  66  93 139 176 215 266 322 395
#     4  11  21  46  72  89 124 177 229 274 322 380
#     4   9  18  32  62  85 130 168 202 255 318 395
#     4   9  17  35  64  93 118 168 222 246 319 388
#     4  10  21  41  68  89 122 179 215 266 324 382
#
# _framework density 20.939267999999998
#
# number of rings (size 3 to 8) (size 9 to 14) (size 15 to 20)
#    0.000    1.556    4.444    1.333    1.556    5.333 
#    0.000    1.111    0.000    9.333    0.000    0.000 
#    0.000    0.000    0.000    0.000    0.000    0.000 
#
# Total GULP energy -100479.638600 kJ/mol
# GULP energy per Si atom -5582.202144 kJ/mol
# Density = 2.089161 g / cm^3
# Si number density = 20.939268 Si / 1000 Ang^3
#
#
#
# Elastic Constant Matrix: (Units=GPa)
#
#
# Indices 1 2 3 4 5 6 
#
# 1 142.6878 40.5539 57.9175 0.0000 1.4490 0.0000
# 2 40.5539 43.4251 17.2503 0.0000 6.8144 0.0000
# 3 57.9175 17.2503 165.2316 0.0000 -9.6834 0.0000
# 4 0.0000 0.0000 0.0000 1.7986 0.0000 -1.9759
# 5 1.4490 6.8144 -9.6834 0.0000 29.7556 0.0000
# 6 0.0000 0.0000 0.0000 -1.9759 0.0000 16.1026
#
#
#
# Elastic Compliance Matrix: (Units=1/GPa)
#
#
# Indices 1 2 3 4 5 6 
#
# 1 0.010674 -0.008968 -0.002768 0.000000 0.000633 0.000000
# 2 -0.008968 0.032835 -0.000713 0.000000 -0.007315 0.000000
# 3 -0.002768 -0.000713 0.007253 0.000000 0.002658 0.000000
# 4 0.000000 0.000000 0.000000 0.642636 0.000000 0.078856
# 5 0.000633 -0.007315 0.002658 0.000000 0.036117 0.000000
# 6 0.000000 0.000000 0.000000 0.078856 0.000000 0.071778
#
#
# Mechanical properties :
#
#
# Convention : Reuss Voigt Hill
#
# Bulk Modulus (GPa) = 38.66600 64.75420 51.71010
# Shear Modulus (GPa) = 5.98937 25.23954 15.61445
#
# Velocity S-wave (km/s) = 1.69309 3.47561 2.73372
# Velocity P-wave (km/s) = 4.72525 6.86283 5.89179
#
# Compressibility (1/GPa) = 0.02586252
#
# Stress axis : x y z
#
# Youngs Moduli (GPa) = 93.68157 30.45563 137.88020
#
# Poissons Ratio (x) = 0.27314 0.38168
# Poissons Ratio (y) = 0.84017 0.09831
# Poissons Ratio (z) = 0.25933 0.02172
#
# Static dielectric constant tensor:
#      x y z
#    x 1.822830 0.000000 -0.051500 
#    y 0.000000 1.805280 0.000000 
#    z -0.051500 0.000000 1.767020 
# 
# From -- ./inp_files/129417.got.cif
#   From: 2010.05.17/outbox.cif.g08.bks.cpg/sg12_65_cif.got.tgz:129417.got - 2010.06.03 13:09:07.
