data_PCOD9212876
_publ_section_title
;
Structure prediction by ZEFSAII (Michael W. Deem and Ramdas Pophale) SiO2 
 PCOD9212876
Probable space group: C 2/M
;
_chemical_formula_sum "Si O2"
_cell_formula_units_Z 64
_cell_length_a 18.914538
_cell_length_b 28.970090
_cell_length_c 16.761871
_cell_angle_alpha 90.000000
_cell_angle_beta 156.522561
_cell_angle_gamma 90.000000
_cell_volume 3659.099773
_symmetry_space_group_name_H-M "C 2/M"
_symmetry_group_IT_number 12
_symmetry_cell_setting 'monoclinic'
loop_
_space_group_symop_operation_xyz
x,y,z
-x,y,-z
-x,-y,-z
x,-y,z
1/2+x,1/2+y,z
1/2-x,1/2+y,-z
1/2-x,1/2-y,-z
1/2+x,1/2-y,z
loop_
_atom_site_type_symbol
_atom_site_label
_atom_site_fract_x
_atom_site_fract_y
_atom_site_fract_z
Si Si1 0.720824 0.353708 0.373719
Si Si2 0.813926 0.151812 0.975713
Si Si3 0.794368 0.449198 0.384890
Si Si4 0.667678 0.795822 0.371620
Si Si5 0.222584 0.551948 0.817336
Si Si6 0.929617 0.204435 0.503072
Si Si7 0.773475 0.707226 0.966661
Si Si8 0.285475 0.293570 0.785684
O O1 0.730028 0.408154 0.373205
O O2 0.842959 0.332750 0.568309
O O3 0.761195 0.331862 0.329410
O O4 0.523619 0.338618 0.193170
O O5 0.787137 0.098053 0.927376
O O6 0.743230 0.164417 0.989797
O O7 0.744371 0.184072 0.830083
O O8 0.740536 0.500000 0.356652
O O9 0.729580 0.443264 0.226763
O O10 0.008353 0.447538 0.601937
O O11 0.750000 0.750000 0.500000
O O12 0.793350 0.811897 0.429861
O O13 0.469774 0.788444 0.134021
O O14 0.279679 0.500000 0.902059
O O15 0.827428 0.248923 0.358662
O O16 0.000000 0.175515 0.500000
O O17 0.111787 0.211556 0.739272
O O18 0.750000 0.750000 0.000000
O O19 0.500000 0.285568 0.000000
#
# Coordination Sequence:
#
# PCOD9212876 Si02
#       8
#     8   8   8   8   8   8   8   8
#     4  11  19  35  52  77 110 146 192 234 270 325
#     4  11  21  35  55  80 109 148 193 233 274 330
#     4   9  18  31  48  73 109 150 188 227 273 324
#     4  12  23  39  57  77 110 144 184 239 284 325
#     4   9  18  32  49  74 110 149 190 231 272 325
#     4  12  26  39  57  80 105 144 191 233 282 336
#     4  12  23  39  57  78 110 146 187 240 284 323
#     4  10  22  34  51  78 109 149 192 231 271 330
#
# _framework density 17.490642000000001
#
# number of rings (size 3 to 8) (size 9 to 14) (size 15 to 20)
#    0.000    1.250    5.000    2.250    3.500    1.500 
#    0.000    1.250    0.000    0.000    0.000    0.000 
#    0.000    2.000    0.000    5.250    0.000    0.625 
#
# Total GULP energy -178538.819536 kJ/mol
# GULP energy per Si atom -5579.338111 kJ/mol
# Density = 1.745083 g / cm^3
# Si number density = 17.490642 Si / 1000 Ang^3
#
#
#
# Elastic Constant Matrix: (Units=GPa)
#
#
# Indices 1 2 3 4 5 6 
#
# 1 73.0954 12.0982 28.0484 0.0000 -3.0703 0.0000
# 2 12.0982 86.7979 13.6170 0.0000 -12.9345 0.0000
# 3 28.0484 13.6170 96.2726 -0.0001 4.6368 0.0000
# 4 0.0000 0.0000 -0.0001 21.5976 0.0000 -1.1674
# 5 -3.0703 -12.9345 4.6368 0.0000 26.4041 0.0000
# 6 0.0000 0.0000 0.0000 -1.1674 0.0000 24.3558
#
#
#
# Elastic Compliance Matrix: (Units=1/GPa)
#
#
# Indices 1 2 3 4 5 6 
#
# 1 0.015689 -0.001177 -0.004503 0.000000 0.002039 0.000000
# 2 -0.001177 0.012939 -0.001801 0.000000 0.006518 0.000000
# 3 -0.004503 -0.001801 0.012124 0.000000 -0.003535 0.000000
# 4 0.000000 0.000000 0.000000 0.046422 0.000000 0.002225
# 5 0.002039 0.006518 -0.003535 0.000000 0.041924 0.000000
# 6 0.000000 0.000000 0.000000 0.002225 0.000000 0.041165
#
#
# Mechanical properties :
#
#
# Convention : Reuss Voigt Hill
#
# Bulk Modulus (GPa) = 38.77341 40.41034 39.59188
# Shear Modulus (GPa) = 25.79720 27.96500 26.88110
#
# Velocity S-wave (km/s) = 3.84463 4.00291 3.92456
# Velocity P-wave (km/s) = 6.47491 6.67222 6.57430
#
# Compressibility (1/GPa) = 0.02579087
#
# Stress axis : x y z
#
# Youngs Moduli (GPa) = 63.73935 77.28645 82.48096
#
# Poissons Ratio (x) = 0.09093 0.37138
# Poissons Ratio (y) = 0.07500 0.14857
# Poissons Ratio (z) = 0.28699 0.13921
#
# Static dielectric constant tensor:
#      x y z
#    x 1.740210 0.000000 0.079180 
#    y 0.000000 1.612350 0.000000 
#    z 0.079180 0.000000 1.631580 
# 
# From -- ./inp_files/286721.got.cif
#   From: 2010.05.17/outbox.cif.g08.bks.cpg/sg12_144_cif.got.tgz:286721.got - 2010.06.03 13:09:07.
