data_PCOD9212684
_publ_section_title
;
Structure prediction by ZEFSAII (Michael W. Deem and Ramdas Pophale) SiO2 
 PCOD9212684
Probable space group: C 2/M
;
_chemical_formula_sum "Si O2"
_cell_formula_units_Z 44
_cell_length_a 10.671637
_cell_length_b 30.638928
_cell_length_c 16.773403
_cell_angle_alpha 90.000000
_cell_angle_beta 161.270058
_cell_angle_gamma 90.000000
_cell_volume 1761.070914
_symmetry_space_group_name_H-M "C 2/M"
_symmetry_group_IT_number 12
_symmetry_cell_setting 'monoclinic'
loop_
_space_group_symop_operation_xyz
x,y,z
-x,y,-z
-x,-y,-z
x,-y,z
1/2+x,1/2+y,z
1/2-x,1/2+y,-z
1/2-x,1/2-y,-z
1/2+x,1/2-y,z
loop_
_atom_site_type_symbol
_atom_site_label
_atom_site_fract_x
_atom_site_fract_y
_atom_site_fract_z
Si Si1 0.441498 0.939003 0.745167
Si Si2 0.150432 0.061370 0.849830
Si Si3 0.376637 0.657151 0.669281
Si Si4 0.565689 0.153912 0.763742
Si Si5 0.065675 0.500000 0.408122
Si Si6 0.625862 0.751049 0.332078
O O1 0.435220 0.886528 0.737863
O O2 0.000000 0.952757 0.500000
O O3 0.544405 0.961831 0.724655
O O4 0.732566 0.952116 0.990901
O O5 0.114362 0.113585 0.827111
O O6 0.767830 0.037939 0.587197
O O7 0.500000 0.049316 0.000000
O O8 0.578795 0.704200 0.804773
O O9 0.000000 0.655613 0.500000
O O10 0.216019 0.655331 0.482446
O O11 0.584334 0.203011 0.809163
O O12 0.000000 0.142315 0.000000
O O13 0.750000 0.750000 0.500000
O O14 0.000000 0.751370 0.500000
#
# Coordination Sequence:
#
# PCOD9212684 Si02
#       6
#     8   8   8   8   4   8
#     4  12  24  41  68  97 131 175 223 283 340 413
#     4  12  24  40  68  97 128 175 219 278 340 399
#     4  10  21  43  64  94 137 177 218 274 335 408
#     4  11  22  41  65  99 138 179 224 281 340 410
#     4  12  24  44  66  96 134 164 234 280 350 396
#     4   9  20  39  68  98 138 186 230 279 341 414
#
# _framework density 24.984797
#
# number of rings (size 3 to 8) (size 9 to 14) (size 15 to 20)
#    0.000    1.091    3.636    2.727    0.000    2.182 
#    0.000   15.455    0.000    0.000    0.000    0.000 
#    0.000    0.000    0.000    0.000    0.000    0.000 
#
# Total GULP energy -122702.403251 kJ/mol
# GULP energy per Si atom -5577.381966 kJ/mol
# Density = 2.492793 g / cm^3
# Si number density = 24.984797 Si / 1000 Ang^3
#
#
#
# Elastic Constant Matrix: (Units=GPa)
#
#
# Indices 1 2 3 4 5 6 
#
# 1 105.7563 23.0517 48.9788 0.0037 -27.9076 -0.0002
# 2 23.0517 243.3418 31.0024 -0.0073 -16.0412 -0.0048
# 3 48.9788 31.0024 98.1358 -0.0327 -44.7677 -0.0293
# 4 0.0037 -0.0073 -0.0327 116.9157 -0.0009 30.2768
# 5 -27.9076 -16.0412 -44.7677 -0.0009 67.4756 -0.0004
# 6 -0.0002 -0.0048 -0.0293 30.2768 -0.0004 121.2178
#
#
#
# Elastic Compliance Matrix: (Units=1/GPa)
#
#
# Indices 1 2 3 4 5 6 
#
# 1 0.012434 -0.000392 -0.005419 -0.000002 0.001455 -0.000001
# 2 -0.000392 0.004296 -0.001104 0.000000 0.000127 0.000000
# 3 -0.005419 -0.001104 0.017353 0.000004 0.009010 0.000003
# 4 -0.000002 0.000000 0.000004 0.009145 0.000002 -0.002284
# 5 0.001455 0.000127 0.009010 0.000002 0.021430 0.000002
# 6 -0.000001 0.000000 0.000003 -0.002284 0.000002 0.008820
#
#
# Mechanical properties :
#
#
# Convention : Reuss Voigt Hill
#
# Bulk Modulus (GPa) = 49.36999 72.58884 60.97941
# Shear Modulus (GPa) = 53.15936 84.06856 68.61396
#
# Velocity S-wave (km/s) = 4.61767 5.80697 5.24613
# Velocity P-wave (km/s) = 6.94503 8.60683 7.82020
#
# Compressibility (1/GPa) = 0.02025522
#
# Stress axis : x y z
#
# Youngs Moduli (GPa) = 80.42174 232.80058 57.62692
#
# Poissons Ratio (x) = 0.09118 0.31226
# Poissons Ratio (y) = 0.03150 0.06360
# Poissons Ratio (z) = 0.43577 0.25692
#
# Static dielectric constant tensor:
#      x y z
#    x 2.014380 0.000000 0.050580 
#    y 0.000000 1.990950 0.000000 
#    z 0.050580 0.000000 1.901230 
# 
# From -- ./inp_files/266339.got.cif
#   From: 2010.05.17/outbox.cif.g08.bks.cpg/sg12_134_cif.got.tgz:266339.got - 2010.06.03 13:09:07.
