data_PCOD9212531
_publ_section_title
;
Structure prediction by ZEFSAII (Michael W. Deem and Ramdas Pophale) SiO2 
 PCOD9212531
Probable space group: C 2/M
;
_chemical_formula_sum "Si O2"
_cell_formula_units_Z 40
_cell_length_a 8.521274
_cell_length_b 26.989258
_cell_length_c 18.606681
_cell_angle_alpha 90.000000
_cell_angle_beta 28.557576
_cell_angle_gamma 90.000000
_cell_volume 2045.644251
_symmetry_space_group_name_H-M "C 2/M"
_symmetry_group_IT_number 12
_symmetry_cell_setting 'monoclinic'
loop_
_space_group_symop_operation_xyz
x,y,z
-x,y,-z
-x,-y,-z
x,-y,z
1/2+x,1/2+y,z
1/2-x,1/2+y,-z
1/2-x,1/2-y,-z
1/2+x,1/2-y,z
loop_
_atom_site_type_symbol
_atom_site_label
_atom_site_fract_x
_atom_site_fract_y
_atom_site_fract_z
Si Si1 0.801968 0.000000 0.821228
Si Si2 0.605956 0.798117 0.166320
Si Si3 0.893600 0.396331 0.333460
Si Si4 0.280155 0.693826 0.827187
Si Si5 0.214002 0.500000 0.680677
Si Si6 0.274036 0.597824 0.330029
O O1 0.777135 0.000000 0.742264
O O2 0.997365 0.049882 0.761047
O O3 0.500000 0.000000 0.000000
O O4 0.506200 0.846864 0.248905
O O5 0.532367 0.745343 0.232845
O O6 0.415071 0.800658 0.168298
O O7 0.000000 0.798742 0.000000
O O8 0.500000 0.393342 0.500000
O O9 0.963117 0.447874 0.263942
O O10 0.083779 0.397928 0.331768
O O11 0.517899 0.646894 0.735629
O O12 0.000000 0.687181 0.000000
O O13 0.500000 0.500000 0.500000
O O14 0.000000 0.590594 0.500000
#
# Coordination Sequence:
#
# PCOD9212531 Si02
#       6
#     4   8   8   8   4   8
#     4  12  26  44  67  99 133 171 217 270 324 388
#     4  11  22  39  62  90 125 166 208 261 321 383
#     4  11  23  41  63  91 124 165 213 264 318 383
#     4  11  22  40  62  91 125 165 211 262 320 385
#     4  10  21  42  66  91 126 169 210 260 319 382
#     4  12  24  42  66  94 127 169 213 266 324 385
#
# _framework density 19.553740999999999
#
# number of rings (size 3 to 8) (size 9 to 14) (size 15 to 20)
#    0.000    0.800    0.000   11.100    0.000    2.400 
#    0.000    5.500    0.000    0.000    0.000    0.000 
#    0.000    0.000    0.000    0.000    0.000    0.000 
#
# Total GULP energy -111689.891473 kJ/mol
# GULP energy per Si atom -5584.494574 kJ/mol
# Density = 1.950924 g / cm^3
# Si number density = 19.553741 Si / 1000 Ang^3
#
#
#
# Elastic Constant Matrix: (Units=GPa)
#
#
# Indices 1 2 3 4 5 6 
#
# 1 235.1169 85.5063 57.6454 0.0000 -3.8033 -0.0001
# 2 85.5063 222.1699 88.5000 0.0001 -11.3846 -0.0001
# 3 57.6454 88.5000 95.9796 0.0012 1.9395 -0.0006
# 4 0.0000 0.0001 0.0012 39.5674 0.0000 -3.7233
# 5 -3.8033 -11.3846 1.9395 0.0000 31.8493 0.0001
# 6 -0.0001 -0.0001 -0.0006 -3.7233 0.0001 44.2985
#
#
#
# Elastic Compliance Matrix: (Units=1/GPa)
#
#
# Indices 1 2 3 4 5 6 
#
# 1 0.005183 -0.001162 -0.002048 0.000000 0.000328 0.000000
# 2 -0.001162 0.007662 -0.006427 0.000000 0.002991 0.000000
# 3 -0.002048 -0.006427 0.017648 -0.000001 -0.003617 0.000000
# 4 0.000000 0.000000 -0.000001 0.025475 0.000000 0.002141
# 5 0.000328 0.002991 -0.003617 0.000000 0.032727 0.000000
# 6 0.000000 0.000000 0.000000 0.002141 0.000000 0.022754
#
#
# Mechanical properties :
#
#
# Convention : Reuss Voigt Hill
#
# Bulk Modulus (GPa) = 89.13810 112.95221 101.04516
# Shear Modulus (GPa) = 37.18478 44.58403 40.88440
#
# Velocity S-wave (km/s) = 4.36555 4.78019 4.57757
# Velocity P-wave (km/s) = 8.43183 9.39986 8.92898
#
# Compressibility (1/GPa) = 0.01121855
#
# Stress axis : x y z
#
# Youngs Moduli (GPa) = 192.92589 130.51602 56.66246
#
# Poissons Ratio (x) = 0.15169 0.11605
# Poissons Ratio (y) = 0.22423 0.36418
# Poissons Ratio (z) = 0.39513 0.83885
#
# Static dielectric constant tensor:
#      x y z
#    x 1.647430 0.000000 0.033220 
#    y 0.000000 1.676650 0.000000 
#    z 0.033220 0.000000 1.699170 
# 
# From -- ./inp_files/302234.got.cif
#   From: 2010.05.17/outbox.cif.g08.bks.cpg/sg12_152_cif.got.tgz:302234.got - 2010.06.03 13:09:07.
