data_PCOD9212585
_publ_section_title
;
Structure prediction by ZEFSAII (Michael W. Deem and Ramdas Pophale) SiO2 
 PCOD9212585
Probable space group: C 2/M
;
_chemical_formula_sum "Si O2"
_cell_formula_units_Z 42
_cell_length_a 9.840078
_cell_length_b 15.477281
_cell_length_c 20.262633
_cell_angle_alpha 90.000000
_cell_angle_beta 46.205222
_cell_angle_gamma 90.000000
_cell_volume 2227.511672
_symmetry_space_group_name_H-M "C 2/M"
_symmetry_group_IT_number 12
_symmetry_cell_setting 'monoclinic'
loop_
_space_group_symop_operation_xyz
x,y,z
-x,y,-z
-x,-y,-z
x,-y,z
1/2+x,1/2+y,z
1/2-x,1/2+y,-z
1/2-x,1/2-y,-z
1/2+x,1/2-y,z
loop_
_atom_site_type_symbol
_atom_site_label
_atom_site_fract_x
_atom_site_fract_y
_atom_site_fract_z
Si Si1 0.316098 0.174361 0.096911
Si Si2 0.970804 0.237269 0.435248
Si Si3 0.713628 0.096952 0.322902
Si Si4 0.967651 0.846263 0.116466
Si Si5 0.579595 0.596916 0.292610
Si Si6 0.500000 0.500000 0.000000
O O1 0.382426 0.266077 0.104484
O O2 0.236014 0.120203 0.185374
O O3 0.148072 0.181972 0.099877
O O4 0.500000 0.135278 0.000000
O O5 0.750000 0.250000 0.500000
O O6 0.000000 0.207650 0.500000
O O7 0.067815 0.329640 0.391089
O O8 0.062917 0.169069 0.354134
O O9 0.810270 0.120188 0.220815
O O10 0.882206 0.098516 0.319455
O O11 0.634145 0.000000 0.347726
O O12 0.019312 0.923887 0.050573
O O13 0.610416 0.500000 0.308007
#
# Coordination Sequence:
#
# PCOD9212585 Si02
#       6
#     8   8   8   8   8   2
#     4  11  23  41  69  96 131 179 220 261 327 390
#     4  12  24  41  69  98 128 168 216 277 334 387
#     4  10  21  42  68  94 127 175 220 260 325 398
#     4  11  23  41  67  95 133 174 217 272 319 389
#     4  10  23  43  66  95 135 171 217 274 325 390
#     4  12  24  40  66 104 128 168 230 272 320 382
#
# _framework density 18.855119999999999
#
# number of rings (size 3 to 8) (size 9 to 14) (size 15 to 20)
#    0.000    1.143    5.714    0.571    1.333    1.905 
#    0.000    0.000    0.000    0.000    0.000    0.000 
#    0.000    0.000    0.000    0.000    0.000    0.000 
#
# Total GULP energy -117046.083821 kJ/mol
# GULP energy per Si atom -5573.623039 kJ/mol
# Density = 1.881220 g / cm^3
# Si number density = 18.855120 Si / 1000 Ang^3
#
#
#
# Elastic Constant Matrix: (Units=GPa)
#
#
# Indices 1 2 3 4 5 6 
#
# 1 64.8151 43.6770 45.1731 -0.0007 8.6741 -0.0001
# 2 43.6770 140.1558 64.3214 -0.0001 -6.3014 0.0002
# 3 45.1731 64.3214 120.9840 -0.0009 7.9199 -0.0003
# 4 -0.0007 -0.0001 -0.0009 16.7395 0.0005 1.9943
# 5 8.6741 -6.3014 7.9199 0.0005 34.5371 0.0001
# 6 -0.0001 0.0002 -0.0003 1.9943 0.0001 15.9101
#
#
#
# Elastic Compliance Matrix: (Units=1/GPa)
#
#
# Indices 1 2 3 4 5 6 
#
# 1 0.023520 -0.004907 -0.005815 0.000001 -0.005469 0.000000
# 2 -0.004907 0.010760 -0.004160 0.000000 0.004149 0.000000
# 3 -0.005815 -0.004160 0.012795 0.000000 -0.002233 0.000000
# 4 0.000001 0.000000 0.000000 0.060644 -0.000001 -0.007602
# 5 -0.005469 0.004149 -0.002233 -0.000001 0.031597 0.000000
# 6 0.000000 0.000000 0.000000 -0.007602 0.000000 0.063806
#
#
# Mechanical properties :
#
#
# Convention : Reuss Voigt Hill
#
# Bulk Modulus (GPa) = 57.76867 70.25534 64.01200
# Shear Modulus (GPa) = 20.95075 24.95625 22.95350
#
# Velocity S-wave (km/s) = 3.33700 3.64205 3.49286
# Velocity P-wave (km/s) = 6.74923 7.41806 7.09153
#
# Compressibility (1/GPa) = 0.01731042
#
# Stress axis : x y z
#
# Youngs Moduli (GPa) = 42.51756 92.93965 78.15770
#
# Poissons Ratio (x) = 0.45602 0.45450
# Poissons Ratio (y) = 0.20862 0.32514
# Poissons Ratio (z) = 0.24725 0.38663
#
# Static dielectric constant tensor:
#      x y z
#    x 1.629220 0.000000 0.002290 
#    y 0.000000 1.636590 0.000000 
#    z 0.002290 0.000000 1.666170 
# 
# From -- ./inp_files/251250.got.cif
#   From: 2010.05.17/outbox.cif.g08.bks.cpg/sg12_126_cif.got.tgz:251250.got - 2010.06.03 13:09:07.
