data_PCOD9212227
_publ_section_title
;
Structure prediction by ZEFSAII (Michael W. Deem and Ramdas Pophale) SiO2 
 PCOD9212227
Probable space group: C 2/M
;
_chemical_formula_sum "Si O2"
_cell_formula_units_Z 60
_cell_length_a 20.187859
_cell_length_b 18.952210
_cell_length_c 9.560154
_cell_angle_alpha 90.000000
_cell_angle_beta 131.947764
_cell_angle_gamma 90.000000
_cell_volume 2720.474442
_symmetry_space_group_name_H-M "C 2/M"
_symmetry_group_IT_number 12
_symmetry_cell_setting 'monoclinic'
loop_
_space_group_symop_operation_xyz
x,y,z
-x,y,-z
-x,-y,-z
x,-y,z
1/2+x,1/2+y,z
1/2-x,1/2+y,-z
1/2-x,1/2-y,-z
1/2+x,1/2-y,z
loop_
_atom_site_type_symbol
_atom_site_label
_atom_site_fract_x
_atom_site_fract_y
_atom_site_fract_z
Si Si1 0.500000 0.821193 0.500000
Si Si2 0.427433 0.321982 0.081582
Si Si3 0.102726 0.759876 0.400617
Si Si4 0.778269 0.119904 0.370441
Si Si5 0.898881 0.678418 0.882070
Si Si6 0.199180 0.917851 0.277982
Si Si7 0.662253 0.918709 0.753587
Si Si8 0.655221 0.421704 0.819960
O O1 0.454307 0.776547 0.558285
O O2 0.579449 0.869720 0.671347
O O3 0.533836 0.317058 0.237402
O O4 0.396743 0.356172 0.185107
O O5 0.399848 0.242576 0.995839
O O6 0.379289 0.372829 0.902736
O O7 0.188058 0.799112 0.580947
O O8 0.127568 0.710181 0.306807
O O9 0.674206 0.120602 0.185231
O O10 0.791794 0.091356 0.544639
O O11 0.836495 0.083320 0.334202
O O12 0.000000 0.653603 0.000000
O O13 0.290736 0.896887 0.326993
O O14 0.185150 0.000000 0.224722
O O15 0.633171 0.000000 0.701855
O O16 0.744827 0.915395 0.976844
O O17 0.620478 0.500000 0.810066
#
# Coordination Sequence:
#
# PCOD9212227 Si02
#       8
#     4   8   8   8   8   8   8   8
#     4  12  23  36  62  92 129 160 204 254 318 356
#     4  10  21  42  62  85 126 160 206 255 297 365
#     4  11  24  38  57  99 126 157 205 259 303 372
#     4  12  23  39  64  92 128 162 199 257 315 359
#     4  10  23  39  62  89 123 158 203 250 304 371
#     4  10  21  41  66  88 119 165 214 253 297 360
#     4   9  21  40  62  87 118 164 214 254 294 368
#     4  10  23  41  62  89 124 161 206 255 306 363
#
# _framework density 22.054977000000001
#
# number of rings (size 3 to 8) (size 9 to 14) (size 15 to 20)
#    0.000    1.600    1.333    3.800    7.467    0.533 
#    0.000    4.000    0.000    0.800    0.000    0.000 
#    0.000    0.000    0.000    0.000    0.000    0.000 
#
# Total GULP energy -167617.858975 kJ/mol
# GULP energy per Si atom -5587.261966 kJ/mol
# Density = 2.200478 g / cm^3
# Si number density = 22.054977 Si / 1000 Ang^3
#
#
#
# Elastic Constant Matrix: (Units=GPa)
#
#
# Indices 1 2 3 4 5 6 
#
# 1 95.1291 27.2860 11.4854 0.0000 -16.3965 0.0000
# 2 27.2860 27.6072 1.1995 0.0000 5.2258 0.0000
# 3 11.4854 1.1995 39.7171 0.0000 -8.5820 0.0000
# 4 0.0000 0.0000 0.0000 14.4769 0.0000 -3.1486
# 5 -16.3965 5.2258 -8.5820 0.0000 47.3760 0.0000
# 6 0.0000 0.0000 0.0000 -3.1486 0.0000 21.2043
#
#
#
# Elastic Compliance Matrix: (Units=1/GPa)
#
#
# Indices 1 2 3 4 5 6 
#
# 1 0.017506 -0.018615 -0.002859 0.000000 0.007594 0.000000
# 2 -0.018615 0.056956 0.000951 0.000000 -0.012553 0.000000
# 3 -0.002859 0.000951 0.026788 0.000000 0.003758 0.000000
# 4 0.000000 0.000000 0.000000 0.071381 0.000000 0.010599
# 5 0.007594 -0.012553 0.003758 0.000000 0.025801 0.000000
# 6 0.000000 0.000000 0.000000 0.010599 0.000000 0.048734
#
#
# Mechanical properties :
#
#
# Convention : Reuss Voigt Hill
#
# Bulk Modulus (GPa) = 16.61068 26.93280 21.77174
# Shear Modulus (GPa) = 16.21898 24.77693 20.49796
#
# Velocity S-wave (km/s) = 2.71475 3.35538 3.05192
# Velocity P-wave (km/s) = 4.16825 5.22011 4.72355
#
# Compressibility (1/GPa) = 0.06020225
#
# Stress axis : x y z
#
# Youngs Moduli (GPa) = 57.12482 17.55749 37.32981
#
# Poissons Ratio (x) = 0.32683 0.10673
# Poissons Ratio (y) = 1.06338 -0.03549
# Poissons Ratio (z) = 0.16333 -0.01669
#
# Static dielectric constant tensor:
#      x y z
#    x 1.811490 0.000000 -0.026640 
#    y 0.000000 1.816990 0.000000 
#    z -0.026640 0.000000 1.830980 
# 
# From -- ./inp_files/89868.got.cif
#   From: 2010.05.17/outbox.cif.g08.bks.cpg/sg12_45_cif.got.tgz:89868.got - 2010.06.03 13:09:07.
