data_PCOD9212829
_publ_section_title
;
Structure prediction by ZEFSAII (Michael W. Deem and Ramdas Pophale) SiO2 
 PCOD9212829
Probable space group: C 2/M
;
_chemical_formula_sum "Si O2"
_cell_formula_units_Z 32
_cell_length_a 7.304591
_cell_length_b 12.638770
_cell_length_c 18.575058
_cell_angle_alpha 90.000000
_cell_angle_beta 138.913347
_cell_angle_gamma 90.000000
_cell_volume 1127.011222
_symmetry_space_group_name_H-M "C 2/M"
_symmetry_group_IT_number 12
_symmetry_cell_setting 'monoclinic'
loop_
_space_group_symop_operation_xyz
x,y,z
-x,y,-z
-x,-y,-z
x,-y,z
1/2+x,1/2+y,z
1/2-x,1/2+y,-z
1/2-x,1/2-y,-z
1/2+x,1/2-y,z
loop_
_atom_site_type_symbol
_atom_site_label
_atom_site_fract_x
_atom_site_fract_y
_atom_site_fract_z
Si Si1 0.807071 0.620617 0.170466
Si Si2 0.148412 0.810220 0.323377
Si Si3 0.758612 0.877137 0.487231
Si Si4 0.440967 0.838535 0.899856
O O1 0.783174 0.500000 0.189716
O O2 0.076677 0.690203 0.275934
O O3 0.571891 0.709639 0.116082
O O4 0.853366 0.615505 0.098328
O O5 0.873322 0.870792 0.215102
O O6 0.182210 0.819313 0.419351
O O7 0.929085 0.640672 0.374509
O O8 0.000000 0.857338 0.500000
O O9 0.786411 0.000000 0.512769
O O10 0.500000 0.862718 0.000000
#
# Coordination Sequence:
#
# PCOD9212829 Si02
#       4
#     8   8   8   8
#     4  10  24  47  76 114 163 215 263 328 406 479
#     4   9  22  43  78 117 165 204 268 340 394 482
#     4  10  21  45  82 119 161 217 273 336 409 479
#     4  10  23  47  81 116 160 207 267 337 398 483
#
# _framework density 28.393685999999999
#
# number of rings (size 3 to 8) (size 9 to 14) (size 15 to 20)
#    1.500    0.750    0.000    2.250    0.000    5.000 
#    0.000   13.750    0.000    1.500    0.000    0.000 
#    0.000    0.000    0.000    0.000    0.000    0.000 
#
# Total GULP energy -89587.430893 kJ/mol
# GULP energy per Si atom -5599.214431 kJ/mol
# Density = 2.832906 g / cm^3
# Si number density = 28.393686 Si / 1000 Ang^3
#
#
#
# Elastic Constant Matrix: (Units=GPa)
#
#
# Indices 1 2 3 4 5 6 
#
# 1 137.3433 18.7011 22.9558 0.0001 -16.1301 0.0000
# 2 18.7011 192.0692 -5.3191 0.0001 -3.8547 0.0000
# 3 22.9558 -5.3191 145.5215 0.0000 2.6937 -0.0002
# 4 0.0001 0.0001 0.0000 181.8053 0.0000 17.8667
# 5 -16.1301 -3.8547 2.6937 0.0000 49.0727 -0.0001
# 6 0.0000 0.0000 -0.0002 17.8667 -0.0001 42.2713
#
#
#
# Elastic Compliance Matrix: (Units=1/GPa)
#
#
# Indices 1 2 3 4 5 6 
#
# 1 0.007912 -0.000755 -0.001324 0.000000 0.002614 0.000000
# 2 -0.000755 0.005292 0.000310 0.000000 0.000151 0.000000
# 3 -0.001324 0.000310 0.007107 0.000000 -0.000801 0.000000
# 4 0.000000 0.000000 0.000000 0.005739 0.000000 -0.002426
# 5 0.002614 0.000151 -0.000801 0.000000 0.021293 0.000000
# 6 0.000000 0.000000 0.000000 -0.002426 0.000000 0.024682
#
#
# Mechanical properties :
#
#
# Convention : Reuss Voigt Hill
#
# Bulk Modulus (GPa) = 59.62155 60.84551 60.23353
# Shear Modulus (GPa) = 61.61203 83.86959 72.74081
#
# Velocity S-wave (km/s) = 4.66329 5.44079 5.06698
# Velocity P-wave (km/s) = 7.07381 7.80675 7.44930
#
# Compressibility (1/GPa) = 0.01677246
#
# Stress axis : x y z
#
# Youngs Moduli (GPa) = 126.38890 188.98138 140.70918
#
# Poissons Ratio (x) = 0.14260 0.18631
# Poissons Ratio (y) = 0.09537 -0.04357
# Poissons Ratio (z) = 0.16735 -0.05852
#
# Static dielectric constant tensor:
#      x y z
#    x 2.197720 0.000000 0.021280 
#    y 0.000000 2.267660 0.000000 
#    z 0.021280 0.000000 2.349830 
# 
# From -- ./inp_files/193757.got.cif
#   From: 2010.05.17/outbox.cif.g08.bks.cpg/sg12_97_cif.got.tgz:193757.got - 2010.06.03 13:09:07.
