data_PCOD9212110
_publ_section_title
;
Structure prediction by ZEFSAII (Michael W. Deem and Ramdas Pophale) SiO2 
 PCOD9212110
Probable space group: C 2/M
;
_chemical_formula_sum "Si O2"
_cell_formula_units_Z 40
_cell_length_a 11.741868
_cell_length_b 25.784373
_cell_length_c 7.506821
_cell_angle_alpha 90.000000
_cell_angle_beta 124.245671
_cell_angle_gamma 90.000000
_cell_volume 1878.720543
_symmetry_space_group_name_H-M "C 2/M"
_symmetry_group_IT_number 12
_symmetry_cell_setting 'monoclinic'
loop_
_space_group_symop_operation_xyz
x,y,z
-x,y,-z
-x,-y,-z
x,-y,z
1/2+x,1/2+y,z
1/2-x,1/2+y,-z
1/2-x,1/2-y,-z
1/2+x,1/2-y,z
loop_
_atom_site_type_symbol
_atom_site_label
_atom_site_fract_x
_atom_site_fract_y
_atom_site_fract_z
Si Si1 0.165476 0.695736 0.426392
Si Si2 0.925728 0.000000 0.629633
Si Si3 0.834078 0.383085 0.866234
Si Si4 0.000000 0.749744 0.000000
Si Si5 0.727891 0.665279 0.126926
Si Si6 0.168438 0.500000 0.179842
Si Si7 0.000000 0.919380 0.000000
O O1 0.250000 0.750000 0.500000
O O2 0.221150 0.647141 0.357716
O O3 0.160049 0.676089 0.622145
O O4 0.036093 0.714691 0.200244
O O5 0.759293 0.000000 0.444615
O O6 0.000000 0.000000 0.500000
O O7 0.972885 0.047448 0.797358
O O8 0.788815 0.442994 0.853966
O O9 0.785744 0.348336 0.986922
O O10 0.000000 0.386098 0.000000
O O11 0.874715 0.785899 0.952282
O O12 0.632682 0.616798 0.095359
O O13 0.000000 0.500000 0.000000
#
# Coordination Sequence:
#
# PCOD9212110 Si02
#       7
#     8   4   8   4   8   4   4
#     4  10  21  41  63  95 129 171 224 273 350 414
#     4  11  21  38  68 100 136 173 225 299 346 399
#     4  11  23  43  63  95 134 180 231 277 338 416
#     4   9  20  41  62  96 126 169 222 273 354 422
#     4  10  22  40  64  91 134 169 217 288 338 408
#     4  10  23  42  69  95 138 189 233 275 340 415
#     4  10  22  39  64 100 128 169 234 278 346 410
#
# _framework density 21.291086
#
# number of rings (size 3 to 8) (size 9 to 14) (size 15 to 20)
#    0.000    1.800    1.000    2.400    0.000    4.800 
#    3.600   10.000    0.000   13.200    0.000    0.000 
#    0.000    0.000    0.000    0.000    0.000    0.000 
#
# Total GULP energy -111400.790760 kJ/mol
# GULP energy per Si atom -5570.039538 kJ/mol
# Density = 2.124263 g / cm^3
# Si number density = 21.291086 Si / 1000 Ang^3
#
#
#
# Elastic Constant Matrix: (Units=GPa)
#
#
# Indices 1 2 3 4 5 6 
#
# 1 64.0607 17.6634 28.6014 0.0000 6.3658 0.0000
# 2 17.6634 124.2716 35.9426 0.0000 13.2718 0.0000
# 3 28.6014 35.9426 149.6511 0.0000 9.6980 0.0000
# 4 0.0000 0.0000 0.0000 31.9246 0.0000 2.3192
# 5 6.3658 13.2718 9.6980 0.0000 31.8915 0.0000
# 6 0.0000 0.0000 0.0000 2.3192 0.0000 -38.2631
#
#
#
# Elastic Compliance Matrix: (Units=1/GPa)
#
#
# Indices 1 2 3 4 5 6 
#
# 1 0.017487 -0.001441 -0.002865 0.000000 -0.002020 0.000000
# 2 -0.001441 0.009063 -0.001709 0.000000 -0.002964 0.000000
# 3 -0.002865 -0.001709 0.007709 0.000000 -0.001061 0.000000
# 4 0.000000 0.000000 0.000000 0.031187 0.000000 0.001890
# 5 -0.002020 -0.002964 -0.001061 0.000000 0.033316 0.000000
# 6 0.000000 0.000000 0.000000 0.001890 0.000000 -0.026020
#
#
# Mechanical properties :
#
#
# Convention : Reuss Voigt Hill
#
# Bulk Modulus (GPa) = 44.98804 55.82203 50.40503
# Shear Modulus (GPa) = 54.24091 22.16234 38.20163
#
# Velocity S-wave (km/s) = 5.05284 3.22983 4.24046
# Velocity P-wave (km/s) = 7.43084 6.33912 6.90659
#
# Compressibility (1/GPa) = 0.02222813
#
# Stress axis : x y z
#
# Youngs Moduli (GPa) = 57.18373 110.34353 129.71759
#
# Poissons Ratio (x) = 0.15903 0.37167
# Poissons Ratio (y) = 0.08241 0.22170
# Poissons Ratio (z) = 0.16384 0.18859
#
# Static dielectric constant tensor:
#      x y z
#    x 1.673680 0.000000 0.031040 
#    y 0.000000 1.817250 0.000000 
#    z 0.031040 0.000000 1.756920 
# 
# From -- ./inp_files/8576.got.cif
#   From: 2010.05.17/outbox.cif.g08.bks.cpg/sg12_5_cif.got.tgz:8576.got - 2010.06.03 13:09:07.
