data_PCOD9212573
_publ_section_title
;
Structure prediction by ZEFSAII (Michael W. Deem and Ramdas Pophale) SiO2 
 PCOD9212573
Probable space group: C 2/M
;
_chemical_formula_sum "Si O2"
_cell_formula_units_Z 44
_cell_length_a 19.151216
_cell_length_b 7.711751
_cell_length_c 11.764114
_cell_angle_alpha 90.000000
_cell_angle_beta 85.124199
_cell_angle_gamma 90.000000
_cell_volume 1731.147761
_symmetry_space_group_name_H-M "C 2/M"
_symmetry_group_IT_number 12
_symmetry_cell_setting 'monoclinic'
loop_
_space_group_symop_operation_xyz
x,y,z
-x,y,-z
-x,-y,-z
x,-y,z
1/2+x,1/2+y,z
1/2-x,1/2+y,-z
1/2-x,1/2-y,-z
1/2+x,1/2-y,z
loop_
_atom_site_type_symbol
_atom_site_label
_atom_site_fract_x
_atom_site_fract_y
_atom_site_fract_z
Si Si1 0.106847 0.291801 0.736017
Si Si2 0.535483 0.199816 0.370405
Si Si3 0.651164 0.500000 0.394061
Si Si4 0.080013 0.290683 0.993699
Si Si5 0.293840 0.699796 0.882410
Si Si6 0.252127 0.184730 0.643430
O O1 0.116171 0.500000 0.725598
O O2 0.113377 0.244020 0.867585
O O3 0.167730 0.202075 0.656332
O O4 0.028623 0.253463 0.704754
O O5 0.500000 0.196217 0.500000
O O6 0.594653 0.345248 0.366362
O O7 0.557994 0.000000 0.340601
O O8 0.709341 0.347776 0.413707
O O9 0.080704 0.500000 0.002129
O O10 0.126036 0.221239 0.090221
O O11 0.000000 0.232778 0.000000
O O12 0.281006 0.500000 0.852365
O O13 0.272076 0.803878 0.775417
O O14 0.250000 0.750000 0.000000
O O15 0.277935 0.000000 0.599395
#
# Coordination Sequence:
#
# PCOD9212573 Si02
#       6
#     8   8   4   8   8   8
#     4  10  21  42  68 100 140 184 230 283 350 417
#     4  10  24  48  80 106 139 180 226 282 358 424
#     4  12  25  46  72 109 136 180 231 296 337 421
#     4  10  22  37  59  93 132 175 224 280 331 397
#     4  12  23  39  59  89 131 180 230 277 332 401
#     4  12  25  42  67  99 141 187 234 285 347 409
#
# _framework density 25.416663
#
# number of rings (size 3 to 8) (size 9 to 14) (size 15 to 20)
#    0.000    1.091    3.636    2.455    3.818    0.364 
#    0.000    0.909    0.000    0.000    0.000    0.000 
#    0.000    0.000    0.000    0.000    0.000    0.000 
#
# Total GULP energy -122884.018782 kJ/mol
# GULP energy per Si atom -5585.637217 kJ/mol
# Density = 2.535881 g / cm^3
# Si number density = 25.416663 Si / 1000 Ang^3
#
#
#
# Elastic Constant Matrix: (Units=GPa)
#
#
# Indices 1 2 3 4 5 6 
#
# 1 150.2124 70.2341 2.3966 0.0000 -3.7248 0.0000
# 2 70.2341 203.1066 17.0047 0.0000 -0.7566 0.0000
# 3 2.3966 17.0047 85.9726 0.0000 10.5830 0.0000
# 4 0.0000 0.0000 0.0000 23.7293 0.0000 3.5627
# 5 -3.7248 -0.7566 10.5830 0.0000 29.6806 0.0000
# 6 0.0000 0.0000 0.0000 3.5627 0.0000 50.0838
#
#
#
# Elastic Compliance Matrix: (Units=1/GPa)
#
#
# Indices 1 2 3 4 5 6 
#
# 1 0.007971 -0.002772 0.000221 0.000000 0.000851 0.000000
# 2 -0.002772 0.005977 -0.001131 0.000000 0.000208 0.000000
# 3 0.000221 -0.001131 0.012393 0.000000 -0.004420 0.000000
# 4 0.000000 0.000000 0.000000 0.042597 0.000000 -0.003030
# 5 0.000851 0.000208 -0.004420 0.000000 0.035380 0.000000
# 6 0.000000 0.000000 0.000000 -0.003030 0.000000 0.020182
#
#
# Mechanical properties :
#
#
# Convention : Reuss Voigt Hill
#
# Bulk Modulus (GPa) = 52.68867 68.72916 60.70892
# Shear Modulus (GPa) = 36.18244 44.00916 40.09580
#
# Velocity S-wave (km/s) = 3.77712 4.16565 3.97613
# Velocity P-wave (km/s) = 6.30850 7.08778 6.70946
#
# Compressibility (1/GPa) = 0.01897941
#
# Stress axis : x y z
#
# Youngs Moduli (GPa) = 125.45909 167.29736 80.68979
#
# Poissons Ratio (x) = 0.46369 -0.01786
# Poissons Ratio (y) = 0.34773 0.09123
# Poissons Ratio (z) = -0.02776 0.18914
#
# Static dielectric constant tensor:
#      x y z
#    x 1.991920 0.000000 -0.007770 
#    y 0.000000 1.927980 0.000000 
#    z -0.007770 0.000000 1.985170 
# 
# From -- ./inp_files/220877.got.cif
#   From: 2010.05.17/outbox.cif.g08.bks.cpg/sg12_111_cif.got.tgz:220877.got - 2010.06.03 13:09:07.
