data_PCOD9212440
_publ_section_title
;
Structure prediction by ZEFSAII (Michael W. Deem and Ramdas Pophale) SiO2 
 PCOD9212440
Probable space group: C 2/M
;
_chemical_formula_sum "Si O2"
_cell_formula_units_Z 36
_cell_length_a 17.136398
_cell_length_b 9.811938
_cell_length_c 10.757997
_cell_angle_alpha 90.000000
_cell_angle_beta 120.218134
_cell_angle_gamma 90.000000
_cell_volume 1563.066937
_symmetry_space_group_name_H-M "C 2/M"
_symmetry_group_IT_number 12
_symmetry_cell_setting 'monoclinic'
loop_
_space_group_symop_operation_xyz
x,y,z
-x,y,-z
-x,-y,-z
x,-y,z
1/2+x,1/2+y,z
1/2-x,1/2+y,-z
1/2-x,1/2-y,-z
1/2+x,1/2-y,z
loop_
_atom_site_type_symbol
_atom_site_label
_atom_site_fract_x
_atom_site_fract_y
_atom_site_fract_z
Si Si1 0.694514 0.000000 0.741631
Si Si2 0.995758 0.206595 0.847854
Si Si3 0.286732 0.276860 0.392107
Si Si4 0.652928 0.500000 0.933589
Si Si5 0.603683 0.500000 0.400103
Si Si6 0.301273 0.000000 0.836972
Si Si7 0.046148 0.500000 0.838975
O O1 0.691264 0.135789 0.656669
O O2 0.614177 0.000000 0.777378
O O3 0.787649 0.000000 0.894388
O O4 0.991606 0.360678 0.797992
O O5 0.919162 0.116771 0.723770
O O6 0.088394 0.131990 0.876799
O O7 0.000000 0.199401 0.000000
O O8 0.250000 0.250000 0.500000
O O9 0.370121 0.380167 0.477343
O O10 0.213656 0.364865 0.256041
O O11 0.722107 0.500000 0.876068
O O12 0.393453 0.000000 0.987096
#
# Coordination Sequence:
#
# PCOD9212440 Si02
#       7
#     4   8   8   4   4   4   4
#     4  11  23  42  69  99 133 165 225 276 325 374
#     4  11  24  41  68  95 135 171 217 263 324 396
#     4  11  24  40  67  97 133 172 215 269 326 393
#     4  10  21  41  71  97 129 171 217 274 327 376
#     4  10  25  44  59  94 124 177 217 250 330 382
#     4  10  22  42  66 100 132 167 220 273 325 377
#     4  11  24  43  66 102 130 171 218 279 323 371
#
# _framework density 23.031642999999999
#
# number of rings (size 3 to 8) (size 9 to 14) (size 15 to 20)
#    0.000    1.333    0.000    5.667    9.333    4.444 
#    0.000   21.111    0.000    0.000    0.000    0.000 
#    0.000    0.000    0.000    0.000    0.000    0.000 
#
# Total GULP energy -100312.926995 kJ/mol
# GULP energy per Si atom -5572.940389 kJ/mol
# Density = 2.297922 g / cm^3
# Si number density = 23.031643 Si / 1000 Ang^3
#
#
#
# Elastic Constant Matrix: (Units=GPa)
#
#
# Indices 1 2 3 4 5 6 
#
# 1 60.9778 38.5413 19.9733 0.0000 -7.4647 0.0000
# 2 38.5413 269.9887 85.0931 0.0000 -10.0291 0.0000
# 3 19.9733 85.0931 115.0142 0.0000 -23.5897 0.0000
# 4 0.0000 0.0000 0.0000 65.2771 0.0000 -7.4699
# 5 -7.4647 -10.0291 -23.5897 0.0000 17.7621 0.0000
# 6 0.0000 0.0000 0.0000 -7.4699 0.0000 23.9808
#
#
#
# Elastic Compliance Matrix: (Units=1/GPa)
#
#
# Indices 1 2 3 4 5 6 
#
# 1 0.018736 -0.002375 -0.000216 0.000000 0.006247 0.000000
# 2 -0.002375 0.005233 -0.004202 0.000000 -0.003625 0.000000
# 3 -0.000216 -0.004202 0.015580 0.000000 0.018228 0.000000
# 4 0.000000 0.000000 0.000000 0.015886 0.000000 0.004948
# 5 0.006247 -0.003625 0.018228 0.000000 0.081087 0.000000
# 6 0.000000 0.000000 0.000000 0.004948 0.000000 0.043241
#
#
# Mechanical properties :
#
#
# Convention : Reuss Voigt Hill
#
# Bulk Modulus (GPa) = 38.51653 81.46623 59.99138
# Shear Modulus (GPa) = 24.75235 41.56221 33.15728
#
# Velocity S-wave (km/s) = 3.28183 4.25263 3.79838
# Velocity P-wave (km/s) = 5.57855 7.71760 6.73356
#
# Compressibility (1/GPa) = 0.02596288
#
# Stress axis : x y z
#
# Youngs Moduli (GPa) = 53.37440 191.10669 64.18584
#
# Poissons Ratio (x) = 0.45379 0.01384
# Poissons Ratio (y) = 0.12674 0.26974
# Poissons Ratio (z) = 0.01151 0.80311
#
# Static dielectric constant tensor:
#      x y z
#    x 1.895560 0.000000 0.039450 
#    y 0.000000 1.808100 0.000000 
#    z 0.039450 0.000000 1.822340 
# 
# From -- ./inp_files/162876.got.cif
#   From: 2010.05.17/outbox.cif.g08.bks.cpg/sg12_82_cif.got.tgz:162876.got - 2010.06.03 13:09:07.
