data_PCOD9212800
_publ_section_title
;
Structure prediction by ZEFSAII (Michael W. Deem and Ramdas Pophale) SiO2 
 PCOD9212800
Probable space group: C 2/M
;
_chemical_formula_sum "Si O2"
_cell_formula_units_Z 52
_cell_length_a 10.198955
_cell_length_b 22.540553
_cell_length_c 11.572935
_cell_angle_alpha 90.000000
_cell_angle_beta 52.906875
_cell_angle_gamma 90.000000
_cell_volume 2122.167002
_symmetry_space_group_name_H-M "C 2/M"
_symmetry_group_IT_number 12
_symmetry_cell_setting 'monoclinic'
loop_
_space_group_symop_operation_xyz
x,y,z
-x,y,-z
-x,-y,-z
x,-y,z
1/2+x,1/2+y,z
1/2-x,1/2+y,-z
1/2-x,1/2-y,-z
1/2+x,1/2-y,z
loop_
_atom_site_type_symbol
_atom_site_label
_atom_site_fract_x
_atom_site_fract_y
_atom_site_fract_z
Si Si1 0.428135 0.277455 0.655926
Si Si2 0.265042 0.178576 0.579973
Si Si3 0.718999 0.929384 0.276188
Si Si4 0.000000 0.857064 0.000000
Si Si5 0.748804 0.327729 0.043859
Si Si6 0.187980 0.434392 0.853114
Si Si7 0.953839 0.638281 0.267063
O O1 0.500000 0.308092 0.500000
O O2 0.649005 0.218150 0.365859
O O3 0.582743 0.297793 0.655109
O O4 0.279702 0.294037 0.821613
O O5 0.284339 0.110040 0.606099
O O6 0.364225 0.180731 0.406109
O O7 0.876920 0.900728 0.131425
O O8 0.567650 0.908362 0.275849
O O9 0.721816 0.000000 0.289182
O O10 0.110204 0.816337 0.023626
O O11 0.721939 0.396113 0.098402
O O12 0.923239 0.326816 0.885287
O O13 0.253683 0.500000 0.803876
O O14 0.174621 0.398279 0.741612
O O15 0.000000 0.437680 0.000000
#
# Coordination Sequence:
#
# PCOD9212800 Si02
#       7
#     8   8   8   4   8   8   8
#     4  12  26  49  76 103 148 200 247 312 371 449
#     4  12  27  50  74 109 150 199 254 304 382 444
#     4  11  23  42  75 109 147 192 243 305 371 448
#     4  10  21  44  70 108 146 192 245 304 368 438
#     4  10  22  43  72 104 147 192 250 308 368 444
#     4   9  18  35  64 103 144 187 239 299 366 435
#     4  10  22  42  70 105 150 188 247 305 369 450
#
# _framework density 24.503257000000001
#
# number of rings (size 3 to 8) (size 9 to 14) (size 15 to 20)
#    0.000    1.385    1.538    3.462    0.000    7.385 
#    0.000    8.462    5.077    1.846    0.000    0.000 
#    0.000    0.000    0.000    0.000    0.000    0.000 
#
# Total GULP energy -145140.944804 kJ/mol
# GULP energy per Si atom -5582.344031 kJ/mol
# Density = 2.444749 g / cm^3
# Si number density = 24.503257 Si / 1000 Ang^3
#
#
#
# Elastic Constant Matrix: (Units=GPa)
#
#
# Indices 1 2 3 4 5 6 
#
# 1 49.8252 -8.1630 15.6986 0.0000 1.9373 0.0000
# 2 -8.1630 109.9149 61.7375 0.0000 13.4235 0.0000
# 3 15.6986 61.7375 171.5224 0.0000 1.6052 0.0000
# 4 0.0000 0.0000 0.0000 25.4113 0.0000 5.0961
# 5 1.9373 13.4235 1.6052 0.0000 27.2896 0.0000
# 6 0.0000 0.0000 0.0000 5.0961 0.0000 5.0275
#
#
#
# Elastic Compliance Matrix: (Units=1/GPa)
#
#
# Indices 1 2 3 4 5 6 
#
# 1 0.021911 0.003933 -0.003390 0.000000 -0.003291 0.000000
# 2 0.003933 0.012955 -0.004963 0.000000 -0.006360 0.000000
# 3 -0.003390 -0.004963 0.007906 0.000000 0.002217 0.000000
# 4 0.000000 0.000000 0.000000 0.049393 0.000000 -0.050067
# 5 -0.003291 -0.006360 0.002217 0.000000 0.039875 0.000000
# 6 0.000000 0.000000 0.000000 -0.050067 0.000000 0.249655
#
#
# Mechanical properties :
#
#
# Convention : Reuss Voigt Hill
#
# Bulk Modulus (GPa) = 29.47156 52.20097 40.83626
# Shear Modulus (GPa) = 12.44259 29.01163 20.72711
#
# Velocity S-wave (km/s) = 2.25587 3.44465 2.91158
# Velocity P-wave (km/s) = 4.34039 6.09678 5.29196
#
# Compressibility (1/GPa) = 0.03393102
#
# Stress axis : x y z
#
# Youngs Moduli (GPa) = 45.63962 77.19283 126.48302
#
# Poissons Ratio (x) = -0.30364 0.42883
# Poissons Ratio (y) = -0.17952 0.62778
# Poissons Ratio (z) = 0.15474 0.38313
#
# Static dielectric constant tensor:
#      x y z
#    x 2.021900 0.000000 -0.047360 
#    y 0.000000 1.993720 0.000000 
#    z -0.047360 0.000000 2.031280 
# 
# From -- ./inp_files/135860.got.cif
#   From: 2010.05.17/outbox.cif.g08.bks.cpg/sg12_68_cif.got.tgz:135860.got - 2010.06.03 13:09:07.
