data_PCOD9212518
_publ_section_title
;
Structure prediction by ZEFSAII (Michael W. Deem and Ramdas Pophale) SiO2 
 PCOD9212518
Probable space group: C 2/M
;
_chemical_formula_sum "Si O2"
_cell_formula_units_Z 52
_cell_length_a 28.608379
_cell_length_b 9.381136
_cell_length_c 9.954193
_cell_angle_alpha 90.000000
_cell_angle_beta 99.709962
_cell_angle_gamma 90.000000
_cell_volume 2633.225855
_symmetry_space_group_name_H-M "C 2/M"
_symmetry_group_IT_number 12
_symmetry_cell_setting 'monoclinic'
loop_
_space_group_symop_operation_xyz
x,y,z
-x,y,-z
-x,-y,-z
x,-y,z
1/2+x,1/2+y,z
1/2-x,1/2+y,-z
1/2-x,1/2-y,-z
1/2+x,1/2-y,z
loop_
_atom_site_type_symbol
_atom_site_label
_atom_site_fract_x
_atom_site_fract_y
_atom_site_fract_z
Si Si1 0.268151 0.334623 0.377753
Si Si2 0.508901 0.669741 0.156435
Si Si3 0.231821 0.500000 0.953118
Si Si4 0.301484 0.755977 0.894565
Si Si5 0.961380 0.330815 0.369007
Si Si6 0.858883 0.330129 0.447879
Si Si7 0.119311 0.831045 0.267673
O O1 0.277253 0.500000 0.414758
O O2 0.250000 0.250000 0.500000
O O3 0.230088 0.325992 0.240632
O O4 0.315640 0.252123 0.357291
O O5 0.501181 0.500000 0.161331
O O6 0.474235 0.748026 0.241391
O O7 0.563641 0.697155 0.220855
O O8 0.500000 0.715434 0.000000
O O9 0.270995 0.622884 0.930060
O O10 0.195536 0.373900 0.989115
O O11 0.350277 0.708524 0.848759
O O12 0.966898 0.500000 0.350575
O O13 0.908700 0.305459 0.398455
O O14 0.000000 0.287239 0.500000
O O15 0.849437 0.500000 0.448907
O O16 0.862989 0.262766 0.598361
O O17 0.125864 0.000000 0.299003
#
# Coordination Sequence:
#
# PCOD9212518 Si02
#       7
#     8   8   4   8   8   8   8
#     4  12  25  40  63  94 132 162 207 267 322 374
#     4  10  23  43  64  96 131 170 213 265 323 387
#     4  10  24  44  64  82 126 172 218 256 310 378
#     4  11  23  44  63  92 124 171 217 262 314 378
#     4  10  21  42  65  92 128 164 211 269 320 376
#     4  11  24  39  63  97 127 168 214 266 326 383
#     4  11  22  39  66  92 126 167 218 266 322 385
#
# _framework density 19.747641999999999
#
# number of rings (size 3 to 8) (size 9 to 14) (size 15 to 20)
#    0.000    1.231    4.615    0.923    3.231    1.846 
#    5.538    0.000    0.000    0.000    0.000    0.000 
#    0.000    0.000    0.000    0.000    0.000    0.000 
#
# Total GULP energy -144794.073734 kJ/mol
# GULP energy per Si atom -5569.002836 kJ/mol
# Density = 1.970270 g / cm^3
# Si number density = 19.747642 Si / 1000 Ang^3
#
#
#
# Elastic Constant Matrix: (Units=GPa)
#
#
# Indices 1 2 3 4 5 6 
#
# 1 80.9226 47.4930 10.2710 0.0000 -19.2681 0.0000
# 2 47.4930 111.3927 22.3243 0.0000 -20.1754 0.0000
# 3 10.2710 22.3243 41.2533 0.0000 -15.8257 0.0000
# 4 0.0000 0.0000 0.0000 30.3864 0.0000 -5.5004
# 5 -19.2681 -20.1754 -15.8257 0.0000 35.9785 0.0000
# 6 0.0000 0.0000 0.0000 -5.5004 0.0000 27.0192
#
#
#
# Elastic Compliance Matrix: (Units=1/GPa)
#
#
# Indices 1 2 3 4 5 6 
#
# 1 0.017590 -0.006676 0.001698 0.000000 0.006423 0.000000
# 2 -0.006676 0.013082 -0.004781 0.000000 0.001657 0.000000
# 3 0.001698 -0.004781 0.030948 0.000000 0.011841 0.000000
# 4 0.000000 0.000000 0.000000 0.034169 0.000000 0.006956
# 5 0.006423 0.001657 0.011841 0.000000 0.037372 0.000000
# 6 0.000000 0.000000 0.000000 0.006956 0.000000 0.038427
#
#
# Mechanical properties :
#
#
# Convention : Reuss Voigt Hill
#
# Bulk Modulus (GPa) = 23.75352 43.74947 33.75149
# Shear Modulus (GPa) = 24.37356 28.90883 26.64120
#
# Velocity S-wave (km/s) = 3.51700 3.83026 3.67697
# Velocity P-wave (km/s) = 5.34295 6.46247 5.92919
#
# Compressibility (1/GPa) = 0.04209903
#
# Stress axis : x y z
#
# Youngs Moduli (GPa) = 56.85150 76.43982 32.31259
#
# Poissons Ratio (x) = 0.51034 -0.05485
# Poissons Ratio (y) = 0.37956 0.15450
# Poissons Ratio (z) = -0.09651 0.36549
#
# Static dielectric constant tensor:
#      x y z
#    x 1.691890 0.000000 0.014870 
#    y 0.000000 1.664260 0.000000 
#    z 0.014870 0.000000 1.721000 
# 
# From -- ./inp_files/180006.got.cif
#   From: 2010.05.17/outbox.cif.g08.bks.cpg/sg12_91_cif.got.tgz:180006.got - 2010.06.03 13:09:07.
