data_PCOD9212738
_publ_section_title
;
Structure prediction by ZEFSAII (Michael W. Deem and Ramdas Pophale) SiO2 
 PCOD9212738
Probable space group: C 2/M
;
_chemical_formula_sum "Si O2"
_cell_formula_units_Z 48
_cell_length_a 9.004650
_cell_length_b 27.016175
_cell_length_c 7.938228
_cell_angle_alpha 90.000000
_cell_angle_beta 101.028491
_cell_angle_gamma 90.000000
_cell_volume 1895.478266
_symmetry_space_group_name_H-M "C 2/M"
_symmetry_group_IT_number 12
_symmetry_cell_setting 'monoclinic'
loop_
_space_group_symop_operation_xyz
x,y,z
-x,y,-z
-x,-y,-z
x,-y,z
1/2+x,1/2+y,z
1/2-x,1/2+y,-z
1/2-x,1/2-y,-z
1/2+x,1/2-y,z
loop_
_atom_site_type_symbol
_atom_site_label
_atom_site_fract_x
_atom_site_fract_y
_atom_site_fract_z
Si Si1 0.317540 0.708098 0.142066
Si Si2 0.910210 0.366412 0.302109
Si Si3 0.627436 0.613070 0.429159
Si Si4 0.638827 0.943775 0.271527
Si Si5 0.445561 0.229668 0.682667
Si Si6 0.112467 0.092032 0.873043
O O1 0.490989 0.723102 0.209169
O O2 0.224531 0.717528 0.298080
O O3 0.324656 0.649169 0.108771
O O4 0.250000 0.750000 0.000000
O O5 0.735282 0.363659 0.311381
O O6 0.000000 0.364758 0.500000
O O7 0.981191 0.414448 0.231761
O O8 0.964038 0.317449 0.221317
O O9 0.500000 0.645708 0.500000
O O10 0.750455 0.585298 0.572265
O O11 0.504714 0.580168 0.305722
O O12 0.738041 0.939907 0.123958
O O13 0.616285 0.000000 0.318584
O O14 0.500000 0.232619 0.500000
O O15 0.000000 0.083386 0.000000
#
# Coordination Sequence:
#
# PCOD9212738 Si02
#       6
#     8   8   8   8   8   8
#     4  12  26  45  63 100 135 186 226 274 349 416
#     4   9  19  38  62  98 129 168 211 272 328 390
#     4   9  21  37  65  96 127 170 214 266 331 396
#     4  10  21  43  70  97 131 173 222 277 337 400
#     4  11  24  41  67  98 132 173 229 285 336 402
#     4  11  24  42  62  95 134 176 221 274 332 402
#
# _framework density 25.323426000000001
#
# number of rings (size 3 to 8) (size 9 to 14) (size 15 to 20)
#    0.000    1.667    1.667    2.000    7.000    8.333 
#    0.000    0.833    0.000    1.000    0.000    0.000 
#    0.000    0.000    0.000    0.000    0.000    0.000 
#
# Total GULP energy -133776.383706 kJ/mol
# GULP energy per Si atom -5574.015988 kJ/mol
# Density = 2.526579 g / cm^3
# Si number density = 25.323426 Si / 1000 Ang^3
#
#
#
# Elastic Constant Matrix: (Units=GPa)
#
#
# Indices 1 2 3 4 5 6 
#
# 1 166.6763 40.8598 21.1176 0.0000 -25.9898 0.0000
# 2 40.8598 115.2886 5.1918 0.0000 -2.2288 0.0000
# 3 21.1176 5.1918 74.1711 0.0000 -8.5845 0.0000
# 4 0.0000 0.0000 0.0000 9.9002 0.0000 -6.6311
# 5 -25.9898 -2.2288 -8.5845 0.0000 44.1019 0.0000
# 6 0.0000 0.0000 0.0000 -6.6311 0.0000 19.0784
#
#
#
# Elastic Compliance Matrix: (Units=1/GPa)
#
#
# Indices 1 2 3 4 5 6 
#
# 1 0.007413 -0.002484 -0.001479 0.000000 0.003955 0.000000
# 2 -0.002484 0.009538 -0.000076 0.000000 -0.000997 0.000000
# 3 -0.001479 -0.000076 0.014126 0.000000 0.001874 0.000000
# 4 0.000000 0.000000 0.000000 0.131659 0.000000 0.045761
# 5 0.003955 -0.000997 0.001874 0.000000 0.025320 0.000000
# 6 0.000000 0.000000 0.000000 0.045761 0.000000 0.068321
#
#
# Mechanical properties :
#
#
# Convention : Reuss Voigt Hill
#
# Bulk Modulus (GPa) = 43.47963 54.49717 48.98840
# Shear Modulus (GPa) = 18.37419 33.88053 26.12736
#
# Velocity S-wave (km/s) = 2.69658 3.66172 3.21557
# Velocity P-wave (km/s) = 5.18675 6.28050 5.75965
#
# Compressibility (1/GPa) = 0.02299927
#
# Stress axis : x y z
#
# Youngs Moduli (GPa) = 134.90386 104.83913 70.79337
#
# Poissons Ratio (x) = 0.26043 0.10469
# Poissons Ratio (y) = 0.33511 0.00536
# Poissons Ratio (z) = 0.19951 0.00794
#
# Static dielectric constant tensor:
#      x y z
#    x 2.020180 0.000000 -0.036550 
#    y 0.000000 1.987040 0.000000 
#    z -0.036550 0.000000 2.341250 
# 
# From -- ./inp_files/42232.got.cif
#   From: 2010.05.17/outbox.cif.g08.bks.cpg/sg12_22_cif.got.tgz:42232.got - 2010.06.03 13:09:07.
