data_PCOD9212481
_publ_section_title
;
Structure prediction by ZEFSAII (Michael W. Deem and Ramdas Pophale) SiO2 
 PCOD9212481
Probable space group: C 2/M
;
_chemical_formula_sum "Si O2"
_cell_formula_units_Z 52
_cell_length_a 14.616521
_cell_length_b 31.597386
_cell_length_c 10.604801
_cell_angle_alpha 90.000000
_cell_angle_beta 28.780529
_cell_angle_gamma 90.000000
_cell_volume 2358.056248
_symmetry_space_group_name_H-M "C 2/M"
_symmetry_group_IT_number 12
_symmetry_cell_setting 'monoclinic'
loop_
_space_group_symop_operation_xyz
x,y,z
-x,y,-z
-x,-y,-z
x,-y,z
1/2+x,1/2+y,z
1/2-x,1/2+y,-z
1/2-x,1/2-y,-z
1/2+x,1/2-y,z
loop_
_atom_site_type_symbol
_atom_site_label
_atom_site_fract_x
_atom_site_fract_y
_atom_site_fract_z
Si Si1 0.221331 0.724911 0.402833
Si Si2 0.286941 0.689601 0.704707
Si Si3 0.547343 0.341240 0.749180
Si Si4 0.869807 0.333755 0.849331
Si Si5 0.596367 0.437939 0.751669
Si Si6 0.520364 0.931587 0.326305
Si Si7 0.844786 0.000000 0.903288
O O1 0.250000 0.750000 0.500000
O O2 0.267696 0.761309 0.247428
O O3 0.356614 0.685313 0.256849
O O4 0.014802 0.703548 0.636877
O O5 0.500000 0.689707 0.500000
O O6 0.312595 0.665793 0.540776
O O7 0.156307 0.668825 0.967832
O O8 0.541681 0.389543 0.794685
O O9 0.336379 0.326660 0.964841
O O10 0.937190 0.381239 0.735015
O O11 0.504087 0.464038 0.751239
O O12 0.821167 0.441074 0.499222
O O13 0.500000 0.451935 0.000000
O O14 0.500000 0.941681 0.500000
O O15 0.684582 0.962175 0.077274
#
# Coordination Sequence:
#
# PCOD9212481 Si02
#       7
#     8   8   8   8   8   8   4
#     4  10  22  40  60  92 125 164 226 261 315 373
#     4   9  22  41  65  91 124 174 219 266 321 375
#     4  10  21  42  62  93 129 170 216 264 320 378
#     4  11  22  44  66  91 132 173 215 269 321 376
#     4  12  23  40  63  97 131 169 208 261 325 387
#     4  12  24  40  66 101 129 169 215 260 327 389
#     4  12  24  40  68  99 138 163 208 266 328 386
#
# _framework density 22.052060000000001
#
# number of rings (size 3 to 8) (size 9 to 14) (size 15 to 20)
#    0.000    1.231    4.615    0.923    0.000    8.615 
#    8.308    1.538    0.000    1.846    0.000    2.154 
#    0.000    0.000    0.000    0.000    0.000    0.000 
#
# Total GULP energy -144908.220584 kJ/mol
# GULP energy per Si atom -5573.393099 kJ/mol
# Density = 2.200187 g / cm^3
# Si number density = 22.052060 Si / 1000 Ang^3
#
#
#
# Elastic Constant Matrix: (Units=GPa)
#
#
# Indices 1 2 3 4 5 6 
#
# 1 53.0476 1.0617 46.7324 0.0000 -17.7985 0.0000
# 2 1.0617 117.3032 15.3617 0.0000 -6.9750 0.0000
# 3 46.7324 15.3617 86.1488 0.0000 -36.2609 0.0000
# 4 0.0000 0.0000 0.0000 4.0094 0.0000 -42.1803
# 5 -17.7985 -6.9750 -36.2609 0.0000 46.7442 0.0000
# 6 0.0000 0.0000 0.0000 -42.1803 0.0000 23.1689
#
#
#
# Elastic Compliance Matrix: (Units=1/GPa)
#
#
# Indices 1 2 3 4 5 6 
#
# 1 0.036862 0.002330 -0.021318 0.000000 -0.002154 0.000000
# 2 0.002330 0.008877 -0.002845 0.000000 0.000005 0.000000
# 3 -0.021318 -0.002845 0.029821 0.000000 0.014591 0.000000
# 4 0.000000 0.000000 0.000000 -0.013740 0.000000 -0.025014
# 5 -0.002154 0.000005 0.014591 0.000000 0.031893 0.000000
# 6 0.000000 0.000000 0.000000 -0.025014 0.000000 -0.002378
#
#
# Mechanical properties :
#
#
# Convention : Reuss Voigt Hill
#
# Bulk Modulus (GPa) = 31.35387 42.53457 36.94422
# Shear Modulus (GPa) = 34.33294 27.67409 31.00352
#
# Velocity S-wave (km/s) = 3.95004 3.54636 3.75363
# Velocity P-wave (km/s) = 5.92054 6.00825 5.96455
#
# Compressibility (1/GPa) = 0.03189399
#
# Stress axis : x y z
#
# Youngs Moduli (GPa) = 27.12809 112.65493 33.53325
#
# Poissons Ratio (x) = -0.26250 0.71487
# Poissons Ratio (y) = -0.06321 0.09539
# Poissons Ratio (z) = 0.57833 0.32047
#
# Static dielectric constant tensor:
#      x y z
#    x 1.836710 0.000000 0.025380 
#    y 0.000000 1.821300 0.000000 
#    z 0.025380 0.000000 1.848070 
# 
# From -- ./inp_files/150418.got.cif
#   From: 2010.05.17/outbox.cif.g08.bks.cpg/sg12_76_cif.got.tgz:150418.got - 2010.06.03 13:09:07.
