data_PCOD9212938
_publ_section_title
;
Structure prediction by ZEFSAII (Michael W. Deem and Ramdas Pophale) SiO2 
 PCOD9212938
Probable space group: C 2/M
;
_chemical_formula_sum "Si O2"
_cell_formula_units_Z 34
_cell_length_a 14.304108
_cell_length_b 25.554702
_cell_length_c 13.777264
_cell_angle_alpha 90.000000
_cell_angle_beta 158.946134
_cell_angle_gamma 90.000000
_cell_volume 1809.197180
_symmetry_space_group_name_H-M "C 2/M"
_symmetry_group_IT_number 12
_symmetry_cell_setting 'monoclinic'
loop_
_space_group_symop_operation_xyz
x,y,z
-x,y,-z
-x,-y,-z
x,-y,z
1/2+x,1/2+y,z
1/2-x,1/2+y,-z
1/2-x,1/2-y,-z
1/2+x,1/2-y,z
loop_
_atom_site_type_symbol
_atom_site_label
_atom_site_fract_x
_atom_site_fract_y
_atom_site_fract_z
Si Si1 0.717716 0.942309 0.893830
Si Si2 0.769219 0.208696 0.703268
Si Si3 0.769077 0.668044 0.703331
Si Si4 0.206706 0.121073 0.433360
Si Si5 0.000000 0.000000 0.000000
O O1 0.924906 0.905284 0.147426
O O2 0.706048 0.000000 0.930628
O O3 0.432035 0.917973 0.614368
O O4 0.836138 0.955179 0.902694
O O5 0.500000 0.201852 0.500000
O O6 0.799602 0.270159 0.708420
O O7 0.780033 0.172795 0.619539
O O8 0.000000 0.193923 0.000000
O O9 0.500000 0.662192 0.500000
O O10 0.763917 0.635700 0.599602
O O11 0.000000 0.653312 0.000000
#
# Coordination Sequence:
#
# PCOD9212938 Si02
#       5
#     8   8   8   8   2
#     4  10  24  38  60  86 123 149 191 237 295 355
#     4  10  22  35  57  91 124 153 190 241 291 355
#     4  10  22  41  60  85 121 157 199 247 292 331
#     4  12  22  38  64  88 116 161 202 233 290 361
#     4   8  24  42  56  90 124 154 180 242 304 358
#
# _framework density 18.792866
#
# number of rings (size 3 to 8) (size 9 to 14) (size 15 to 20)
#    0.706    0.941    0.000    4.235    4.941    0.941 
#    0.000    9.412    0.000   14.118    0.000    0.000 
#    0.000    0.000    0.000    0.000    0.000    0.000 
#
# Total GULP energy -94671.607553 kJ/mol
# GULP energy per Si atom -5568.918091 kJ/mol
# Density = 1.875009 g / cm^3
# Si number density = 18.792866 Si / 1000 Ang^3
#
#
#
# Elastic Constant Matrix: (Units=GPa)
#
#
# Indices 1 2 3 4 5 6 
#
# 1 54.9550 13.8199 -6.4291 0.0021 -7.6479 -0.0076
# 2 13.8199 23.5995 -12.1192 -0.0010 2.2573 -0.0056
# 3 -6.4291 -12.1192 78.5523 -0.0088 5.8433 -0.0411
# 4 0.0021 -0.0010 -0.0088 17.0572 0.0068 50.5388
# 5 -7.6479 2.2573 5.8433 0.0068 11.6100 -0.0102
# 6 -0.0076 -0.0056 -0.0411 50.5388 -0.0102 51.0747
#
#
#
# Elastic Compliance Matrix: (Units=1/GPa)
#
#
# Indices 1 2 3 4 5 6 
#
# 1 0.025485 -0.018168 -0.002315 0.000014 0.021485 -0.000009
# 2 -0.018168 0.060944 0.010064 -0.000002 -0.028882 0.000008
# 3 -0.002315 0.010064 0.014911 0.000009 -0.010987 0.000001
# 4 0.000014 -0.000002 0.000009 -0.030348 0.000049 0.030029
# 5 0.021485 -0.028882 -0.010987 0.000049 0.111431 -0.000035
# 6 -0.000009 0.000008 0.000001 0.030029 -0.000035 -0.010135
#
#
# Mechanical properties :
#
#
# Convention : Reuss Voigt Hill
#
# Bulk Modulus (GPa) = 12.42227 16.40554 14.41391
# Shear Modulus (GPa) = 22.73143 26.73738 24.73440
#
# Velocity S-wave (km/s) = 3.48167 3.77602 3.63183
# Velocity P-wave (km/s) = 4.77359 5.26875 5.02727
#
# Compressibility (1/GPa) = 0.08050058
#
# Stress axis : x y z
#
# Youngs Moduli (GPa) = 39.23918 16.40854 67.06531
#
# Poissons Ratio (x) = 0.29811 0.15529
# Poissons Ratio (y) = 0.71290 -0.67495
# Poissons Ratio (z) = 0.09086 -0.16514
#
# Static dielectric constant tensor:
#      x y z
#    x 1.607660 0.000000 -0.016730 
#    y 0.000000 1.661620 0.000000 
#    z -0.016730 0.000000 1.602350 
# 
# From -- ./inp_files/8236.got.cif
#   From: 2010.05.17/outbox.cif.g08.bks.cpg/sg12_5_cif.got.tgz:8236.got - 2010.06.03 13:09:07.
