data_PCOD9212461
_publ_section_title
;
Structure prediction by ZEFSAII (Michael W. Deem and Ramdas Pophale) SiO2 
 PCOD9212461
Probable space group: C 2/M
;
_chemical_formula_sum "Si O2"
_cell_formula_units_Z 56
_cell_length_a 9.328608
_cell_length_b 28.300250
_cell_length_c 19.770828
_cell_angle_alpha 90.000000
_cell_angle_beta 36.461058
_cell_angle_gamma 90.000000
_cell_volume 3101.847062
_symmetry_space_group_name_H-M "C 2/M"
_symmetry_group_IT_number 12
_symmetry_cell_setting 'monoclinic'
loop_
_space_group_symop_operation_xyz
x,y,z
-x,y,-z
-x,-y,-z
x,-y,z
1/2+x,1/2+y,z
1/2-x,1/2+y,-z
1/2-x,1/2-y,-z
1/2+x,1/2-y,z
loop_
_atom_site_type_symbol
_atom_site_label
_atom_site_fract_x
_atom_site_fract_y
_atom_site_fract_z
Si Si1 0.016625 0.853441 0.682510
Si Si2 0.451128 0.682685 0.941237
Si Si3 0.615445 0.945921 0.626679
Si Si4 0.908882 0.054778 0.648314
Si Si5 0.704782 0.699925 0.480905
Si Si6 0.683228 0.142229 0.298087
Si Si7 0.064526 0.709157 0.896891
O O1 0.922317 0.906412 0.702289
O O2 0.807886 0.817659 0.786408
O O3 0.108123 0.834705 0.575794
O O4 0.225951 0.851862 0.659440
O O5 0.586984 0.649912 0.837033
O O6 0.549452 0.735402 0.884675
O O7 0.500000 0.671670 0.000000
O O8 0.163765 0.683628 0.048353
O O9 0.709519 0.933548 0.666477
O O10 0.421244 0.909471 0.674337
O O11 0.842475 0.943625 0.489248
O O12 0.532340 0.000000 0.659501
O O13 0.875851 0.000000 0.682582
O O14 0.500000 0.703103 0.500000
O O15 0.750000 0.750000 0.500000
O O16 0.964212 0.678022 0.361495
O O17 0.000000 0.707983 0.000000
#
# Coordination Sequence:
#
# PCOD9212461 Si02
#       7
#     8   8   8   8   8   8   8
#     4  12  23  37  62  88 124 156 192 247 298 363
#     4  10  23  38  63  85 113 159 209 247 282 346
#     4   9  19  37  60  85 118 153 199 247 292 356
#     4   9  19  37  60  86 115 156 199 242 298 357
#     4  12  26  40  57  85 123 161 194 239 300 356
#     4  12  23  38  59  92 123 152 197 244 302 357
#     4  10  21  42  59  83 117 157 203 247 290 338
#
# _framework density 18.053758999999999
#
# number of rings (size 3 to 8) (size 9 to 14) (size 15 to 20)
#    0.000    1.429    2.857    3.857    4.000    0.571 
#    0.000    1.429    0.000    1.714    0.000    0.000 
#    0.000    0.000    0.000    0.000    0.000    0.000 
#
# Total GULP energy -156242.357137 kJ/mol
# GULP energy per Si atom -5580.084183 kJ/mol
# Density = 1.801267 g / cm^3
# Si number density = 18.053759 Si / 1000 Ang^3
#
#
#
# Elastic Constant Matrix: (Units=GPa)
#
#
# Indices 1 2 3 4 5 6 
#
# 1 130.3111 32.8235 9.8545 -0.0001 -10.7661 0.0000
# 2 32.8235 71.2741 8.0565 0.0000 -13.2864 0.0000
# 3 9.8545 8.0565 42.9005 -0.0001 -16.0142 0.0000
# 4 -0.0001 0.0000 -0.0001 19.4528 0.0000 -4.7778
# 5 -10.7661 -13.2864 -16.0142 0.0000 48.2507 0.0000
# 6 0.0000 0.0000 0.0000 -4.7778 0.0000 31.7053
#
#
#
# Elastic Compliance Matrix: (Units=1/GPa)
#
#
# Indices 1 2 3 4 5 6 
#
# 1 0.008761 -0.003810 -0.001095 0.000000 0.000542 0.000000
# 2 -0.003810 0.016524 -0.000967 0.000000 0.003379 0.000000
# 3 -0.001095 -0.000967 0.026883 0.000000 0.008412 0.000000
# 4 0.000000 0.000000 0.000000 0.053382 0.000000 0.008044
# 5 0.000542 0.003379 0.008412 0.000000 0.024568 0.000000
# 6 0.000000 0.000000 0.000000 0.008044 0.000000 0.032753
#
#
# Mechanical properties :
#
#
# Convention : Reuss Voigt Hill
#
# Bulk Modulus (GPa) = 24.73655 38.43942 31.58798
# Shear Modulus (GPa) = 26.58319 32.79850 29.69085
#
# Velocity S-wave (km/s) = 3.84141 4.26692 4.05974
# Velocity P-wave (km/s) = 5.77984 6.75376 6.28569
#
# Compressibility (1/GPa) = 0.04042602
#
# Stress axis : x y z
#
# Youngs Moduli (GPa) = 114.13965 60.51766 37.19865
#
# Poissons Ratio (x) = 0.23057 0.04071
# Poissons Ratio (y) = 0.43486 0.03596
# Poissons Ratio (z) = 0.12493 0.05849
#
# Static dielectric constant tensor:
#      x y z
#    x 1.600080 0.000000 -0.004520 
#    y 0.000000 1.647230 0.000000 
#    z -0.004520 0.000000 1.591770 
# 
# From -- ./inp_files/124273.got.cif
#   From: 2010.05.17/outbox.cif.g08.bks.cpg/sg12_63_cif.got.tgz:124273.got - 2010.06.03 13:09:07.
