data_PCOD9212395
_publ_section_title
;
Structure prediction by ZEFSAII (Michael W. Deem and Ramdas Pophale) SiO2 
 PCOD9212395
Probable space group: C 2/M
;
_chemical_formula_sum "Si O2"
_cell_formula_units_Z 52
_cell_length_a 19.524005
_cell_length_b 9.689285
_cell_length_c 15.997402
_cell_angle_alpha 90.000000
_cell_angle_beta 59.667276
_cell_angle_gamma 90.000000
_cell_volume 2612.010180
_symmetry_space_group_name_H-M "C 2/M"
_symmetry_group_IT_number 12
_symmetry_cell_setting 'monoclinic'
loop_
_space_group_symop_operation_xyz
x,y,z
-x,y,-z
-x,-y,-z
x,-y,z
1/2+x,1/2+y,z
1/2-x,1/2+y,-z
1/2-x,1/2-y,-z
1/2+x,1/2-y,z
loop_
_atom_site_type_symbol
_atom_site_label
_atom_site_fract_x
_atom_site_fract_y
_atom_site_fract_z
Si Si1 0.251107 0.500000 0.527393
Si Si2 0.062875 0.157745 0.834578
Si Si3 0.839838 0.336472 0.102754
Si Si4 0.125783 0.156961 0.071871
Si Si5 0.163699 0.840243 0.244007
Si Si6 0.632438 0.738396 0.613613
Si Si7 0.521188 0.840906 0.389485
O O1 0.317450 0.621028 0.464091
O O2 0.183726 0.378076 0.584665
O O3 0.091703 0.262364 0.887387
O O4 0.110143 0.188212 0.720398
O O5 0.969359 0.171153 0.875190
O O6 0.078103 0.000000 0.852515
O O7 0.851038 0.500000 0.088969
O O8 0.756305 0.311749 0.201451
O O9 0.836714 0.266564 0.013898
O O10 0.149993 0.173248 0.153032
O O11 0.146954 0.000000 0.033262
O O12 0.103225 0.739272 0.325882
O O13 0.147766 0.000000 0.277164
O O14 0.549694 0.769042 0.617416
O O15 0.500000 0.840045 0.500000
O O16 0.528791 0.000000 0.357025
#
# Coordination Sequence:
#
# PCOD9212395 Si02
#       7
#     4   8   8   8   8   8   8
#     4  10  24  38  68  92 128 162 216 260 316 372
#     4  11  23  41  68  92 131 172 213 260 325 385
#     4  11  25  41  61 101 134 164 216 272 318 373
#     4  10  21  41  69  91 125 172 219 262 322 387
#     4  10  23  44  67  93 129 174 217 261 319 382
#     4  11  22  45  64  96 126 171 210 265 317 382
#     4  11  25  44  66  95 130 167 214 261 316 384
#
# _framework density 19.908038999999999
#
# number of rings (size 3 to 8) (size 9 to 14) (size 15 to 20)
#    0.000    1.385    3.077    1.385    2.154    7.077 
#    2.769    0.000    0.000    0.000    0.000    0.000 
#    0.000    0.000    0.000    0.000    0.000    0.000 
#
# Total GULP energy -144838.898554 kJ/mol
# GULP energy per Si atom -5570.726867 kJ/mol
# Density = 1.986273 g / cm^3
# Si number density = 19.908039 Si / 1000 Ang^3
#
#
#
# Elastic Constant Matrix: (Units=GPa)
#
#
# Indices 1 2 3 4 5 6 
#
# 1 36.7479 24.1885 3.5417 0.0000 -6.9788 0.0000
# 2 24.1885 126.8661 39.4184 0.0000 -26.0691 0.0000
# 3 3.5417 39.4184 42.2996 0.0000 -18.0086 0.0000
# 4 0.0000 0.0000 0.0000 40.3877 0.0000 -7.7469
# 5 -6.9788 -26.0691 -18.0086 0.0000 24.5531 0.0000
# 6 0.0000 0.0000 0.0000 -7.7469 0.0000 22.4730
#
#
#
# Elastic Compliance Matrix: (Units=1/GPa)
#
#
# Indices 1 2 3 4 5 6 
#
# 1 0.032342 -0.006801 0.006498 0.000000 0.006738 0.000000
# 2 -0.006801 0.013191 -0.009573 0.000000 0.005052 0.000000
# 3 0.006498 -0.009573 0.041406 0.000000 0.022053 0.000000
# 4 0.000000 0.000000 0.000000 0.026513 0.000000 0.009140
# 5 0.006738 0.005052 0.022053 0.000000 0.064182 0.000000
# 6 0.000000 0.000000 0.000000 0.009140 0.000000 0.047649
#
#
# Mechanical properties :
#
#
# Convention : Reuss Voigt Hill
#
# Bulk Modulus (GPa) = 14.88326 37.80120 26.34223
# Shear Modulus (GPa) = 18.69645 26.73376 22.71510
#
# Velocity S-wave (km/s) = 3.06786 3.66848 3.38154
# Velocity P-wave (km/s) = 4.47675 6.08053 5.33920
#
# Compressibility (1/GPa) = 0.06718959
#
# Stress axis : x y z
#
# Youngs Moduli (GPa) = 30.91917 75.80701 24.15090
#
# Poissons Ratio (x) = 0.51556 -0.15694
# Poissons Ratio (y) = 0.21028 0.23119
# Poissons Ratio (z) = -0.20093 0.72568
#
# Static dielectric constant tensor:
#      x y z
#    x 1.699570 0.000000 0.012840 
#    y 0.000000 1.667400 0.000000 
#    z 0.012840 0.000000 1.685830 
# 
# From -- ./inp_files/282023.got.cif
#   From: 2010.05.17/outbox.cif.g08.bks.cpg/sg12_142_cif.got.tgz:282023.got - 2010.06.03 13:09:07.
