data_PCOD9212365
_publ_section_title
;
Structure prediction by ZEFSAII (Michael W. Deem and Ramdas Pophale) SiO2 
 PCOD9212365
Probable space group: C 2/M
;
_chemical_formula_sum "Si O2"
_cell_formula_units_Z 40
_cell_length_a 11.672055
_cell_length_b 18.914842
_cell_length_c 18.591897
_cell_angle_alpha 90.000000
_cell_angle_beta 151.094137
_cell_angle_gamma 90.000000
_cell_volume 1984.061852
_symmetry_space_group_name_H-M "C 2/M"
_symmetry_group_IT_number 12
_symmetry_cell_setting 'monoclinic'
loop_
_space_group_symop_operation_xyz
x,y,z
-x,y,-z
-x,-y,-z
x,-y,z
1/2+x,1/2+y,z
1/2-x,1/2+y,-z
1/2-x,1/2-y,-z
1/2+x,1/2-y,z
loop_
_atom_site_type_symbol
_atom_site_label
_atom_site_fract_x
_atom_site_fract_y
_atom_site_fract_z
Si Si1 0.051954 0.321783 0.166927
Si Si2 0.841515 0.417751 0.642300
Si Si3 0.558330 0.328220 0.832201
Si Si4 0.436148 0.685447 0.607442
Si Si5 0.653416 0.416708 0.153974
O O1 0.100686 0.385843 0.248039
O O2 0.291814 0.295969 0.260595
O O3 0.969954 0.255675 0.170475
O O4 0.838864 0.341618 0.996218
O O5 0.782666 0.500000 0.614593
O O6 0.642193 0.371825 0.494136
O O7 0.074853 0.409451 0.720481
O O8 0.446561 0.344751 0.693754
O O9 0.424244 0.370393 0.821266
O O10 0.250000 0.750000 0.500000
O O11 0.605505 0.500000 0.141605
O O12 0.500000 0.395337 0.000000
#
# Coordination Sequence:
#
# PCOD9212365 Si02
#       5
#     8   8   8   8   8
#     4  11  24  41  65  93 130 174 220 269 320 396
#     4  11  24  43  68  96 130 177 220 265 330 396
#     4  11  24  40  68  96 128 171 221 271 325 390
#     4  12  25  42  62  97 136 171 213 275 335 387
#     4  10  21  41  68  95 128 169 217 268 321 386
#
# _framework density 20.160661000000001
#
# number of rings (size 3 to 8) (size 9 to 14) (size 15 to 20)
#    0.000    1.000    4.000    2.400    0.000    4.800 
#    0.000    2.000    0.000    3.600    0.000    0.000 
#    0.000    0.000    0.000    0.000    0.000    0.000 
#
# Total GULP energy -111824.903255 kJ/mol
# GULP energy per Si atom -5591.245163 kJ/mol
# Density = 2.011477 g / cm^3
# Si number density = 20.160661 Si / 1000 Ang^3
#
#
#
# Elastic Constant Matrix: (Units=GPa)
#
#
# Indices 1 2 3 4 5 6 
#
# 1 81.1616 27.2898 42.7750 -0.0002 3.5147 -0.0008
# 2 27.2898 79.0550 26.0216 0.0022 -5.1309 0.0000
# 3 42.7750 26.0216 95.8215 0.0036 -8.6562 -0.0015
# 4 -0.0002 0.0022 0.0036 21.7955 -0.0003 -6.7892
# 5 3.5147 -5.1309 -8.6562 -0.0003 41.7157 -0.0024
# 6 -0.0008 0.0000 -0.0015 -6.7892 -0.0024 32.3209
#
#
#
# Elastic Compliance Matrix: (Units=1/GPa)
#
#
# Indices 1 2 3 4 5 6 
#
# 1 0.017515 -0.003946 -0.007057 0.000002 -0.003425 0.000000
# 2 -0.003946 0.014817 -0.002107 -0.000001 0.001718 0.000000
# 3 -0.007057 -0.002107 0.014460 -0.000002 0.003336 0.000000
# 4 0.000002 -0.000001 -0.000002 0.049093 0.000000 0.010312
# 5 -0.003425 0.001718 0.003336 0.000000 0.025164 0.000002
# 6 0.000000 0.000000 0.000000 0.010312 0.000002 0.033106
#
#
# Mechanical properties :
#
#
# Convention : Reuss Voigt Hill
#
# Bulk Modulus (GPa) = 48.60889 49.80122 49.20505
# Shear Modulus (GPa) = 26.70488 29.82986 28.26737
#
# Velocity S-wave (km/s) = 3.64346 3.85074 3.74853
# Velocity P-wave (km/s) = 6.47015 6.67283 6.57227
#
# Compressibility (1/GPa) = 0.02057237
#
# Stress axis : x y z
#
# Youngs Moduli (GPa) = 57.09273 67.49212 69.15723
#
# Poissons Ratio (x) = 0.26631 0.48803
# Poissons Ratio (y) = 0.22528 0.14572
# Poissons Ratio (z) = 0.40289 0.14221
#
# Static dielectric constant tensor:
#      x y z
#    x 1.718440 0.000000 0.038740 
#    y 0.000000 1.680090 0.000000 
#    z 0.038740 0.000000 1.730960 
# 
# From -- ./inp_files/132762.got.cif
#   From: 2010.05.17/outbox.cif.g08.bks.cpg/sg12_67_cif.got.tgz:132762.got - 2010.06.03 13:09:07.
