data_PCOD9212522
_publ_section_title
;
Structure prediction by ZEFSAII (Michael W. Deem and Ramdas Pophale) SiO2 
 PCOD9212522
Probable space group: C 2/M
;
_chemical_formula_sum "Si O2"
_cell_formula_units_Z 48
_cell_length_a 8.703398
_cell_length_b 31.858810
_cell_length_c 8.634082
_cell_angle_alpha 90.000000
_cell_angle_beta 91.299441
_cell_angle_gamma 90.000000
_cell_volume 2393.441743
_symmetry_space_group_name_H-M "C 2/M"
_symmetry_group_IT_number 12
_symmetry_cell_setting 'monoclinic'
loop_
_space_group_symop_operation_xyz
x,y,z
-x,y,-z
-x,-y,-z
x,-y,z
1/2+x,1/2+y,z
1/2-x,1/2+y,-z
1/2-x,1/2-y,-z
1/2+x,1/2-y,z
loop_
_atom_site_type_symbol
_atom_site_label
_atom_site_fract_x
_atom_site_fract_y
_atom_site_fract_z
Si Si1 0.211236 0.048321 0.771364
Si Si2 0.282129 0.769687 0.333326
Si Si3 0.500000 0.599986 0.000000
Si Si4 0.500000 0.579216 0.500000
Si Si5 0.418012 0.793345 0.830732
Si Si6 0.532775 0.112763 0.181378
Si Si7 0.194240 0.863414 0.278445
O O1 0.099725 0.052320 0.621468
O O2 0.364040 0.075819 0.748967
O O3 0.245284 0.000000 0.806617
O O4 0.118152 0.070764 0.908137
O O5 0.250000 0.750000 0.500000
O O6 0.457984 0.780047 0.296538
O O7 0.223075 0.737175 0.202123
O O8 0.196933 0.814274 0.316492
O O9 0.597778 0.627829 0.120832
O O10 0.385887 0.609230 0.592111
O O11 0.379128 0.842459 0.809152
O O12 0.500000 0.789761 0.000000
O O13 0.368780 0.120977 0.256892
O O14 0.500000 0.103707 0.000000
#
# Coordination Sequence:
#
# PCOD9212522 Si02
#       7
#     8   8   4   4   8   8   8
#     4  11  23  42  70  97 129 166 213 268 323 393
#     4  11  24  38  61  94 127 169 220 260 317 374
#     4  10  21  42  68  96 130 168 214 266 325 382
#     4  10  25  42  62  94 138 168 210 254 333 392
#     4  10  23  40  62  88 128 168 213 271 309 377
#     4  10  21  42  65  94 128 164 215 266 331 370
#     4  10  23  41  64  95 130 175 212 265 320 388
#
# _framework density 20.054801000000001
#
# number of rings (size 3 to 8) (size 9 to 14) (size 15 to 20)
#    0.000    1.667    1.667    1.500    5.833    2.333 
#    0.000    2.500    0.000    0.000    0.000    0.000 
#    0.000    0.000    0.000    0.000    0.000    0.000 
#
# Total GULP energy -134178.829531 kJ/mol
# GULP energy per Si atom -5590.784564 kJ/mol
# Density = 2.000916 g / cm^3
# Si number density = 20.054801 Si / 1000 Ang^3
#
#
#
# Elastic Constant Matrix: (Units=GPa)
#
#
# Indices 1 2 3 4 5 6 
#
# 1 64.1168 59.0470 18.6122 0.0000 -0.9237 0.0000
# 2 59.0470 148.5804 43.6358 0.0000 15.3209 0.0000
# 3 18.6122 43.6358 88.0871 0.0000 -5.7999 0.0000
# 4 0.0000 0.0000 0.0000 -0.8780 0.0000 6.9512
# 5 -0.9237 15.3209 -5.7999 0.0000 23.4433 0.0000
# 6 0.0000 0.0000 0.0000 6.9512 0.0000 21.0912
#
#
#
# Elastic Compliance Matrix: (Units=1/GPa)
#
#
# Indices 1 2 3 4 5 6 
#
# 1 0.026080 -0.011485 0.000753 0.000000 0.008719 0.000000
# 2 -0.011485 0.013938 -0.005192 0.000000 -0.010846 0.000000
# 3 0.000753 -0.005192 0.014222 0.000000 0.006941 0.000000
# 4 0.000000 0.000000 0.000000 -0.315556 0.000000 0.104000
# 5 0.008719 -0.010846 0.006941 0.000000 0.051805 0.000000
# 6 0.000000 0.000000 0.000000 0.104000 0.000000 0.013137
#
#
# Mechanical properties :
#
#
# Convention : Reuss Voigt Hill
#
# Bulk Modulus (GPa) = 44.65761 60.37494 52.51627
# Shear Modulus (GPa) = -31.83441 20.69725 -5.56858
#
# Velocity S-wave (km/s) = -3.98851 3.21601 -1.66815
# Velocity P-wave (km/s) = 1.05130 6.63028 4.74689
#
# Compressibility (1/GPa) = 0.02239260
#
# Stress axis : x y z
#
# Youngs Moduli (GPa) = 38.34333 71.74885 70.31248
#
# Poissons Ratio (x) = 0.82401 -0.05292
# Poissons Ratio (y) = 0.44036 0.36504
# Poissons Ratio (z) = -0.02886 0.37250
#
# Static dielectric constant tensor:
#      x y z
#    x 1.718650 0.000000 -0.002440 
#    y 0.000000 1.669290 0.000000 
#    z -0.002440 0.000000 1.728190 
# 
# From -- ./inp_files/42308.got.cif
#   From: 2010.05.17/outbox.cif.g08.bks.cpg/sg12_22_cif.got.tgz:42308.got - 2010.06.03 13:09:07.
