data_PCOD9212311
_publ_section_title
;
Structure prediction by ZEFSAII (Michael W. Deem and Ramdas Pophale) SiO2 
 PCOD9212311
Probable space group: C 2/M
;
_chemical_formula_sum "Si O2"
_cell_formula_units_Z 56
_cell_length_a 16.894992
_cell_length_b 21.839320
_cell_length_c 10.486742
_cell_angle_alpha 90.000000
_cell_angle_beta 132.463507
_cell_angle_gamma 90.000000
_cell_volume 2854.446295
_symmetry_space_group_name_H-M "C 2/M"
_symmetry_group_IT_number 12
_symmetry_cell_setting 'monoclinic'
loop_
_space_group_symop_operation_xyz
x,y,z
-x,y,-z
-x,-y,-z
x,-y,z
1/2+x,1/2+y,z
1/2-x,1/2+y,-z
1/2-x,1/2-y,-z
1/2+x,1/2-y,z
loop_
_atom_site_type_symbol
_atom_site_label
_atom_site_fract_x
_atom_site_fract_y
_atom_site_fract_z
Si Si1 0.367389 0.744277 0.562660
Si Si2 0.545913 0.430495 0.419745
Si Si3 0.418123 0.069631 0.793845
Si Si4 0.769344 0.137544 0.296536
Si Si5 0.255803 0.177149 0.020013
Si Si6 0.474456 0.656730 0.119509
Si Si7 0.505563 0.137116 0.648230
O O1 0.250000 0.750000 0.500000
O O2 0.339589 0.694751 0.422594
O O3 0.456032 0.714903 0.754598
O O4 0.421685 0.805817 0.568563
O O5 0.500000 0.401333 0.500000
O O6 0.509583 0.500000 0.372530
O O7 0.669963 0.422770 0.586803
O O8 0.514848 0.396421 0.257904
O O9 0.342323 0.126847 0.752889
O O10 0.474296 0.089587 0.724050
O O11 0.374060 0.000000 0.731556
O O12 0.500000 0.066268 0.000000
O O13 0.757309 0.144883 0.132590
O O14 0.152807 0.161677 0.994936
O O15 0.250000 0.250000 0.000000
O O16 0.372698 0.159708 0.197984
O O17 0.500000 0.646334 0.000000
O O18 0.500000 0.111263 0.500000
#
# Coordination Sequence:
#
# PCOD9212311 Si02
#       7
#     8   8   8   8   8   8   8
#     4  11  24  39  65  96 134 175 220 269 331 404
#     4  10  21  41  67  93 127 169 220 276 323 382
#     4  11  24  44  68  95 128 175 233 281 321 390
#     4  11  22  40  67  96 129 172 226 268 329 396
#     4  12  24  41  64  94 137 175 216 268 333 404
#     4  11  26  41  63  99 136 173 220 269 337 405
#     4  12  26  42  66 100 138 175 221 277 347 401
#
# _framework density 19.618514999999999
#
# number of rings (size 3 to 8) (size 9 to 14) (size 15 to 20)
#    0.000    0.857    5.714    1.286    4.000    1.143 
#    0.000    0.714    0.000    0.000    0.000    0.000 
#    0.000    0.000    0.000    0.000    0.000    0.000 
#
# Total GULP energy -156136.029554 kJ/mol
# GULP energy per Si atom -5576.286770 kJ/mol
# Density = 1.957386 g / cm^3
# Si number density = 19.618515 Si / 1000 Ang^3
#
#
#
# Elastic Constant Matrix: (Units=GPa)
#
#
# Indices 1 2 3 4 5 6 
#
# 1 142.9899 28.5885 60.8213 0.0000 -13.8720 0.0000
# 2 28.5885 70.9805 28.1826 0.0000 -12.5920 0.0000
# 3 60.8213 28.1826 105.0104 0.0000 -21.6496 0.0000
# 4 0.0000 0.0000 0.0000 -34.5951 0.0000 13.4197
# 5 -13.8720 -12.5920 -21.6496 0.0000 47.1000 0.0000
# 6 0.0000 0.0000 0.0000 13.4197 0.0000 20.8202
#
#
#
# Elastic Compliance Matrix: (Units=1/GPa)
#
#
# Indices 1 2 3 4 5 6 
#
# 1 0.009489 -0.001835 -0.005002 0.000000 0.000005 0.000000
# 2 -0.001835 0.016396 -0.002812 0.000000 0.002551 0.000000
# 3 -0.005002 -0.002812 0.014047 0.000000 0.004232 0.000000
# 4 0.000000 0.000000 0.000000 -0.023124 0.000000 0.014905
# 5 0.000005 0.002551 0.004232 0.000000 0.023860 0.000000
# 6 0.000000 0.000000 0.000000 0.014905 0.000000 0.038423
#
#
# Mechanical properties :
#
#
# Convention : Reuss Voigt Hill
#
# Bulk Modulus (GPa) = 48.46314 61.57397 55.01856
# Shear Modulus (GPa) = 47.49821 20.09091 33.79456
#
# Velocity S-wave (km/s) = 4.92580 3.20360 4.15491
# Velocity P-wave (km/s) = 7.55696 6.71847 7.15002
#
# Compressibility (1/GPa) = 0.02063424
#
# Stress axis : x y z
#
# Youngs Moduli (GPa) = 105.39042 60.98954 71.18794
#
# Poissons Ratio (x) = 0.11189 0.35611
# Poissons Ratio (y) = 0.19335 0.20018
# Poissons Ratio (z) = 0.52720 0.17150
#
# Static dielectric constant tensor:
#      x y z
#    x 1.749710 0.000000 0.033180 
#    y 0.000000 1.698490 0.000000 
#    z 0.033180 0.000000 1.676450 
# 
# From -- ./inp_files/79146.got.cif
#   From: 2010.05.17/outbox.cif.g08.bks.cpg/sg12_40_cif.got.tgz:79146.got - 2010.06.03 13:09:07.
