data_PCOD9212298
_publ_section_title
;
Structure prediction by ZEFSAII (Michael W. Deem and Ramdas Pophale) SiO2 
 PCOD9212298
Probable space group: C 2/M
;
_chemical_formula_sum "Si O2"
_cell_formula_units_Z 52
_cell_length_a 21.858012
_cell_length_b 12.300235
_cell_length_c 12.229779
_cell_angle_alpha 90.000000
_cell_angle_beta 128.182790
_cell_angle_gamma 90.000000
_cell_volume 2584.572785
_symmetry_space_group_name_H-M "C 2/M"
_symmetry_group_IT_number 12
_symmetry_cell_setting 'monoclinic'
loop_
_space_group_symop_operation_xyz
x,y,z
-x,y,-z
-x,-y,-z
x,-y,z
1/2+x,1/2+y,z
1/2-x,1/2+y,-z
1/2-x,1/2-y,-z
1/2+x,1/2-y,z
loop_
_atom_site_type_symbol
_atom_site_label
_atom_site_fract_x
_atom_site_fract_y
_atom_site_fract_z
Si Si1 0.689285 0.683010 0.784952
Si Si2 0.647404 0.287511 0.073660
Si Si3 0.315896 0.621393 0.472971
Si Si4 0.480901 0.879760 0.139930
Si Si5 0.147099 0.712019 0.310716
Si Si6 0.933012 0.376610 0.338049
Si Si7 0.655552 0.500000 0.933832
O O1 0.778901 0.720178 0.891926
O O2 0.676713 0.637467 0.648611
O O3 0.635583 0.789631 0.735404
O O4 0.668401 0.595314 0.853140
O O5 0.657460 0.288219 0.215795
O O6 0.571164 0.216226 0.965337
O O7 0.644728 0.403652 0.014573
O O8 0.340803 0.500000 0.530152
O O9 0.225208 0.640672 0.403196
O O10 0.360487 0.713186 0.590573
O O11 0.570707 0.859791 0.212958
O O12 0.469604 0.876230 0.258043
O O13 0.455294 0.000000 0.074186
O O14 0.904053 0.500000 0.328074
O O15 0.000000 0.351366 0.500000
#
# Coordination Sequence:
#
# PCOD9212298 Si02
#       7
#     8   8   8   8   8   8   4
#     4  11  23  42  67  93 128 164 212 258 311 375
#     4  11  26  40  65  94 128 169 207 258 315 376
#     4  10  21  41  67  92 123 166 210 263 312 373
#     4  11  23  41  66  92 127 166 212 266 310 369
#     4  10  23  42  62  95 125 162 218 256 316 372
#     4  10  22  40  65  95 126 162 210 262 313 367
#     4  12  24  42  62  96 128 170 204 262 304 391
#
# _framework density 20.119378000000001
#
# number of rings (size 3 to 8) (size 9 to 14) (size 15 to 20)
#    0.000    1.385    2.308    2.308    3.231    1.846 
#    1.385    3.462    0.000    0.000    0.000    0.000 
#    0.000    0.000    0.000    0.000    0.000    0.000 
#
# Total GULP energy -144802.991396 kJ/mol
# GULP energy per Si atom -5569.345823 kJ/mol
# Density = 2.007359 g / cm^3
# Si number density = 20.119378 Si / 1000 Ang^3
#
#
#
# Elastic Constant Matrix: (Units=GPa)
#
#
# Indices 1 2 3 4 5 6 
#
# 1 31.4799 7.3284 -9.2032 0.0000 5.5006 0.0000
# 2 7.3284 105.8821 15.6943 0.0000 6.0009 0.0000
# 3 -9.2032 15.6943 45.5486 0.0000 -4.5607 0.0000
# 4 0.0000 0.0000 0.0000 13.5843 0.0000 -6.2756
# 5 5.5006 6.0009 -4.5607 0.0000 30.8862 0.0000
# 6 0.0000 0.0000 0.0000 -6.2756 0.0000 13.5496
#
#
#
# Elastic Compliance Matrix: (Units=1/GPa)
#
#
# Indices 1 2 3 4 5 6 
#
# 1 0.035660 -0.003386 0.007919 0.000000 -0.004524 0.000000
# 2 -0.003386 0.010464 -0.004499 0.000000 -0.002095 0.000000
# 3 0.007919 -0.004499 0.025427 0.000000 0.003219 0.000000
# 4 0.000000 0.000000 0.000000 0.093653 0.000000 0.043376
# 5 -0.004524 -0.002095 0.003219 0.000000 0.034065 0.000000
# 6 0.000000 0.000000 0.000000 0.043376 0.000000 0.093892
#
#
# Mechanical properties :
#
#
# Convention : Reuss Voigt Hill
#
# Bulk Modulus (GPa) = 13.96277 23.39442 18.67860
# Shear Modulus (GPa) = 15.77453 22.87676 19.32564
#
# Velocity S-wave (km/s) = 2.80312 3.37568 3.10263
# Velocity P-wave (km/s) = 4.17513 5.18137 4.70523
#
# Compressibility (1/GPa) = 0.07161902
#
# Stress axis : x y z
#
# Youngs Moduli (GPa) = 28.04273 95.56183 39.32798
#
# Poissons Ratio (x) = 0.32352 -0.31143
# Poissons Ratio (y) = 0.09494 0.17695
# Poissons Ratio (z) = -0.22206 0.42997
#
# Static dielectric constant tensor:
#      x y z
#    x 1.710030 0.000000 -0.009250 
#    y 0.000000 1.674590 0.000000 
#    z -0.009250 0.000000 1.726120 
# 
# From -- ./inp_files/165757.got.cif
#   From: 2010.05.17/outbox.cif.g08.bks.cpg/sg12_83_cif.got.tgz:165757.got - 2010.06.03 13:09:07.
