data_PCOD9212122
_publ_section_title
;
Structure prediction by ZEFSAII (Michael W. Deem and Ramdas Pophale) SiO2 
 PCOD9212122
Probable space group: C 2/M
;
_chemical_formula_sum "Si O2"
_cell_formula_units_Z 64
_cell_length_a 30.711760
_cell_length_b 8.711076
_cell_length_c 16.593071
_cell_angle_alpha 90.000000
_cell_angle_beta 133.158450
_cell_angle_gamma 90.000000
_cell_volume 3238.229721
_symmetry_space_group_name_H-M "C 2/M"
_symmetry_group_IT_number 12
_symmetry_cell_setting 'monoclinic'
loop_
_space_group_symop_operation_xyz
x,y,z
-x,y,-z
-x,-y,-z
x,-y,z
1/2+x,1/2+y,z
1/2-x,1/2+y,-z
1/2-x,1/2-y,-z
1/2+x,1/2-y,z
loop_
_atom_site_type_symbol
_atom_site_label
_atom_site_fract_x
_atom_site_fract_y
_atom_site_fract_z
Si Si1 0.999416 0.816516 0.256240
Si Si2 0.377113 0.183855 0.648947
Si Si3 0.666227 0.817879 0.698222
Si Si4 0.394630 0.815291 0.019056
Si Si5 0.705587 0.316074 0.586330
Si Si6 0.268626 0.183509 0.937762
Si Si7 0.450124 0.683702 0.368986
Si Si8 0.342874 0.813316 0.782456
O O1 0.974300 0.768409 0.312093
O O2 0.063133 0.743874 0.317273
O O3 0.005365 0.000000 0.264747
O O4 0.952050 0.764419 0.129120
O O5 0.320644 0.248199 0.528759
O O6 0.373951 0.232559 0.738436
O O7 0.375621 0.000000 0.644361
O O8 0.664825 0.740781 0.608642
O O9 0.725616 0.757116 0.816985
O O10 0.610186 0.766953 0.680968
O O11 0.667734 0.000000 0.691994
O O12 0.337147 0.783698 0.002429
O O13 0.376207 0.763465 0.905808
O O14 0.403941 0.000000 0.029588
O O15 0.704470 0.500000 0.581389
O O16 0.773537 0.265327 0.690148
O O17 0.260724 0.000000 0.926323
O O18 0.250000 0.250000 0.000000
O O19 0.500000 0.712939 0.500000
O O20 0.438876 0.500000 0.352636
O O21 0.342075 0.000000 0.784687
#
# Coordination Sequence:
#
# PCOD9212122 Si02
#       8
#     8   8   8   8   8   8   8   8
#     4  11  24  41  61  90 125 163 208 258 311 368
#     4  11  23  40  64  93 122 158 207 260 312 371
#     4  12  24  37  59  92 125 159 202 249 304 366
#     4  10  21  41  64  86 119 166 209 251 304 365
#     4  11  21  40  65  91 127 164 203 254 311 372
#     4  11  22  38  61  88 122 160 202 250 304 364
#     4  10  22  41  63  85 117 165 212 255 309 369
#     4   9  20  40  65  91 121 162 208 252 309 372
#
# _framework density 19.763885999999999
#
# number of rings (size 3 to 8) (size 9 to 14) (size 15 to 20)
#    0.000    1.375    1.250    4.500    0.000    5.750 
#    0.000    5.625    0.000    0.000    0.000    0.000 
#    0.000    0.000    0.000    0.000    0.000    0.000 
#
# Total GULP energy -178963.329206 kJ/mol
# GULP energy per Si atom -5592.604038 kJ/mol
# Density = 1.971890 g / cm^3
# Si number density = 19.763886 Si / 1000 Ang^3
#
#
#
# Elastic Constant Matrix: (Units=GPa)
#
#
# Indices 1 2 3 4 5 6 
#
# 1 75.9457 19.8866 18.8342 0.0000 -11.7871 0.0000
# 2 19.8866 45.1702 19.0543 0.0000 3.8889 0.0000
# 3 18.8342 19.0543 106.0100 0.0000 -12.0710 0.0000
# 4 0.0000 0.0000 0.0000 31.9305 0.0000 1.1560
# 5 -11.7871 3.8889 -12.0710 0.0000 37.3895 0.0000
# 6 0.0000 0.0000 0.0000 1.1560 0.0000 23.3331
#
#
#
# Elastic Compliance Matrix: (Units=1/GPa)
#
#
# Indices 1 2 3 4 5 6 
#
# 1 0.016141 -0.007183 -0.000947 0.000000 0.005530 0.000000
# 2 -0.007183 0.027751 -0.004462 0.000000 -0.006591 0.000000
# 3 -0.000947 -0.004462 0.010820 0.000000 0.003659 0.000000
# 4 0.000000 0.000000 0.000000 0.031374 0.000000 -0.001554
# 5 0.005530 -0.006591 0.003659 0.000000 0.030356 0.000000
# 6 0.000000 0.000000 0.000000 -0.001554 0.000000 0.042935
#
#
# Mechanical properties :
#
#
# Convention : Reuss Voigt Hill
#
# Bulk Modulus (GPa) = 33.86682 38.07512 35.97097
# Shear Modulus (GPa) = 25.71970 29.82067 27.77018
#
# Velocity S-wave (km/s) = 3.61133 3.88860 3.75253
# Velocity P-wave (km/s) = 5.87894 6.28239 6.08401
#
# Compressibility (1/GPa) = 0.02952742
#
# Stress axis : x y z
#
# Youngs Moduli (GPa) = 61.95278 36.03513 92.42157
#
# Poissons Ratio (x) = 0.25884 0.08752
# Poissons Ratio (y) = 0.44501 0.41241
# Poissons Ratio (z) = 0.05867 0.16080
#
# Static dielectric constant tensor:
#      x y z
#    x 1.684070 0.000000 -0.015380 
#    y 0.000000 1.665380 0.000000 
#    z -0.015380 0.000000 1.686810 
# 
# From -- ./inp_files/249998.got.cif
#   From: 2010.05.17/outbox.cif.g08.bks.cpg/sg12_125_cif.got.tgz:249998.got - 2010.06.03 13:09:07.
