data_PCOD9212478
_publ_section_title
;
Structure prediction by ZEFSAII (Michael W. Deem and Ramdas Pophale) SiO2 
 PCOD9212478
Probable space group: C 2/M
;
_chemical_formula_sum "Si O2"
_cell_formula_units_Z 60
_cell_length_a 11.635270
_cell_length_b 20.266336
_cell_length_c 22.067135
_cell_angle_alpha 90.000000
_cell_angle_beta 146.359789
_cell_angle_gamma 90.000000
_cell_volume 2882.627876
_symmetry_space_group_name_H-M "C 2/M"
_symmetry_group_IT_number 12
_symmetry_cell_setting 'monoclinic'
loop_
_space_group_symop_operation_xyz
x,y,z
-x,y,-z
-x,-y,-z
x,-y,z
1/2+x,1/2+y,z
1/2-x,1/2+y,-z
1/2-x,1/2-y,-z
1/2+x,1/2-y,z
loop_
_atom_site_type_symbol
_atom_site_label
_atom_site_fract_x
_atom_site_fract_y
_atom_site_fract_z
Si Si1 0.857281 0.663549 0.567408
Si Si2 0.448986 0.820428 0.145155
Si Si3 0.500000 0.625028 0.500000
Si Si4 0.101804 0.740014 0.760761
Si Si5 0.993068 0.184267 0.096775
Si Si6 0.208585 0.926496 0.710941
Si Si7 0.271505 0.076794 0.286174
Si Si8 0.372129 0.370128 0.649726
O O1 0.662091 0.663824 0.527426
O O2 0.783145 0.665105 0.465651
O O3 0.018577 0.720735 0.657514
O O4 0.996788 0.597484 0.632253
O O5 0.493812 0.813419 0.235838
O O6 0.449666 0.744116 0.124144
O O7 0.624617 0.869804 0.198821
O O8 0.217328 0.841587 0.025611
O O9 0.371837 0.584396 0.393116
O O10 0.343448 0.723935 0.873378
O O11 0.025496 0.812811 0.740554
O O12 0.115120 0.123701 0.180323
O O13 0.012269 0.917556 0.669497
O O14 0.295676 0.000000 0.755404
O O15 0.237463 0.095173 0.342029
O O16 0.233366 0.000000 0.259843
#
# Coordination Sequence:
#
# PCOD9212478 Si02
#       8
#     8   8   4   8   8   8   8   8
#     4  10  23  38  64  94 125 165 207 256 306 372
#     4  11  21  41  65  90 122 162 208 262 316 362
#     4  10  21  42  62  90 126 166 205 252 305 370
#     4  11  20  40  62  93 125 158 210 260 315 368
#     4  10  23  40  65  90 120 162 212 262 310 368
#     4  11  23  39  62  93 128 164 208 252 307 373
#     4  11  24  43  63  91 128 168 210 254 309 372
#     4  11  22  39  62  93 129 168 204 253 307 370
#
# _framework density 20.814340000000001
#
# number of rings (size 3 to 8) (size 9 to 14) (size 15 to 20)
#    0.000    1.333    4.000    1.800    0.000    4.267 
#    2.400    0.667    0.000    4.000    0.000    0.000 
#    0.000    0.000    0.000    0.000    0.000    0.000 
#
# Total GULP energy -167262.770760 kJ/mol
# GULP energy per Si atom -5575.425692 kJ/mol
# Density = 2.076697 g / cm^3
# Si number density = 20.814340 Si / 1000 Ang^3
#
#
#
# Elastic Constant Matrix: (Units=GPa)
#
#
# Indices 1 2 3 4 5 6 
#
# 1 60.7497 13.1907 17.1388 -0.0002 4.5587 0.0000
# 2 13.1907 86.2821 41.7057 0.0001 -0.6884 -0.0001
# 3 17.1388 41.7057 93.4783 -0.0015 3.0154 -0.0002
# 4 -0.0002 0.0001 -0.0015 16.7574 -0.0001 2.7514
# 5 4.5587 -0.6884 3.0154 -0.0001 24.6211 0.0000
# 6 0.0000 -0.0001 -0.0002 2.7514 0.0000 19.6191
#
#
#
# Elastic Compliance Matrix: (Units=1/GPa)
#
#
# Indices 1 2 3 4 5 6 
#
# 1 0.017717 -0.001542 -0.002463 0.000000 -0.003022 0.000000
# 2 -0.001542 0.014948 -0.006434 -0.000001 0.001491 0.000000
# 3 -0.002463 -0.006434 0.014067 0.000001 -0.001447 0.000000
# 4 0.000000 -0.000001 0.000001 0.061082 0.000000 -0.008566
# 5 -0.003022 0.001491 -0.001447 0.000000 0.041394 0.000000
# 6 0.000000 0.000000 0.000000 -0.008566 0.000000 0.052172
#
#
# Mechanical properties :
#
#
# Convention : Reuss Voigt Hill
#
# Bulk Modulus (GPa) = 38.68042 42.73116 40.70579
# Shear Modulus (GPa) = 21.65667 23.43119 22.54393
#
# Velocity S-wave (km/s) = 3.22913 3.35882 3.29461
# Velocity P-wave (km/s) = 5.70324 5.96795 5.83710
#
# Compressibility (1/GPa) = 0.02585287
#
# Stress axis : x y z
#
# Youngs Moduli (GPa) = 56.44152 66.89999 71.09056
#
# Poissons Ratio (x) = 0.10318 0.17508
# Poissons Ratio (y) = 0.08705 0.45742
# Poissons Ratio (z) = 0.13901 0.43045
#
# Static dielectric constant tensor:
#      x y z
#    x 1.851200 0.000000 -0.009960 
#    y 0.000000 1.736990 0.000000 
#    z -0.009960 0.000000 1.764340 
# 
# From -- ./inp_files/336875.got.cif
#   From: 2010.05.17/outbox.cif.g08.bks.cpg/sg12_169_cif.got.tgz:336875.got - 2010.06.03 13:09:07.
