data_PCOD9212127
_publ_section_title
;
Structure prediction by ZEFSAII (Michael W. Deem and Ramdas Pophale) SiO2 
 PCOD9212127
Probable space group: C 2/M
;
_chemical_formula_sum "Si O2"
_cell_formula_units_Z 64
_cell_length_a 16.234907
_cell_length_b 21.019230
_cell_length_c 22.582599
_cell_angle_alpha 90.000000
_cell_angle_beta 157.307994
_cell_angle_gamma 90.000000
_cell_volume 2972.878959
_symmetry_space_group_name_H-M "C 2/M"
_symmetry_group_IT_number 12
_symmetry_cell_setting 'monoclinic'
loop_
_space_group_symop_operation_xyz
x,y,z
-x,y,-z
-x,-y,-z
x,-y,z
1/2+x,1/2+y,z
1/2-x,1/2+y,-z
1/2-x,1/2-y,-z
1/2+x,1/2-y,z
loop_
_atom_site_type_symbol
_atom_site_label
_atom_site_fract_x
_atom_site_fract_y
_atom_site_fract_z
Si Si1 0.912455 0.075007 0.009648
Si Si2 0.584156 0.594964 0.618393
Si Si3 0.586476 0.927367 0.959148
Si Si4 0.026806 0.932421 0.710664
Si Si5 0.774733 0.794816 0.427110
Si Si6 0.623591 0.926905 0.642692
Si Si7 0.328597 0.162801 0.508906
Si Si8 0.328993 0.179289 0.075047
O O1 0.122200 0.078758 0.190594
O O2 0.828673 0.000000 0.958783
O O3 0.000000 0.080953 0.000000
O O4 0.772857 0.136935 0.937746
O O5 0.500000 0.569187 0.500000
O O6 0.488209 0.566508 0.614925
O O7 0.489267 0.665948 0.558061
O O8 0.835749 0.586522 0.792099
O O9 0.692703 0.872502 0.990966
O O10 0.611974 0.000000 0.953344
O O11 0.722112 0.925206 0.109635
O O12 0.885490 0.877297 0.643432
O O13 0.960255 0.000000 0.692878
O O14 0.686885 0.812489 0.434339
O O15 0.829839 0.721301 0.465309
O O16 0.580703 0.811960 0.255651
O O17 0.500000 0.911934 0.500000
O O18 0.528350 0.881958 0.629915
O O19 0.575952 0.000000 0.626233
O O20 0.250000 0.250000 0.000000
#
# Coordination Sequence:
#
# PCOD9212127 Si02
#       8
#     8   8   8   8   8   8   8   8
#     4  10  23  45  69  95 130 172 219 273 328 389
#     4  11  22  42  62  92 130 162 214 264 309 379
#     4  11  24  42  64  94 132 171 215 268 326 390
#     4  10  22  39  65  95 125 166 209 258 324 387
#     4  10  23  41  61  91 124 167 220 252 319 387
#     4  10  22  37  62  96 122 154 205 259 321 382
#     4  10  21  41  64  87 127 167 203 267 315 381
#     4  12  25  42  66  97 132 172 220 271 327 399
#
# _framework density 21.527954000000001
#
# number of rings (size 3 to 8) (size 9 to 14) (size 15 to 20)
#    0.000    1.500    1.250    3.000    3.500    3.500 
#    0.000    3.750    0.000    0.000    0.000    0.000 
#    0.000    0.000    0.000    0.000    0.000    0.000 
#
# Total GULP energy -178370.513967 kJ/mol
# GULP energy per Si atom -5574.078561 kJ/mol
# Density = 2.147896 g / cm^3
# Si number density = 21.527954 Si / 1000 Ang^3
#
#
#
# Elastic Constant Matrix: (Units=GPa)
#
#
# Indices 1 2 3 4 5 6 
#
# 1 47.2491 46.2075 -3.3315 0.0181 -6.0623 -0.0073
# 2 46.2075 172.3572 40.2146 0.0226 7.8119 -0.0102
# 3 -3.3315 40.2146 92.7238 0.0404 -9.2941 0.0139
# 4 0.0181 0.0226 0.0404 19.3909 0.0113 -9.1666
# 5 -6.0623 7.8119 -9.2941 0.0113 30.3282 0.0041
# 6 -0.0073 -0.0102 0.0139 -9.1666 0.0041 5.2461
#
#
#
# Elastic Compliance Matrix: (Units=1/GPa)
#
#
# Indices 1 2 3 4 5 6 
#
# 1 0.034562 -0.011562 0.007477 -0.000248 0.012178 -0.000438
# 2 -0.011562 0.010528 -0.005659 0.000149 -0.006757 0.000285
# 3 0.007477 -0.005659 0.014241 -0.000317 0.007317 -0.000598
# 4 -0.000248 0.000149 -0.000317 0.296418 -0.000365 0.517941
# 5 0.012178 -0.006757 0.007317 -0.000365 0.039390 -0.000684
# 6 -0.000438 0.000285 -0.000598 0.517941 -0.000684 1.095637
#
#
# Mechanical properties :
#
#
# Convention : Reuss Voigt Hill
#
# Bulk Modulus (GPa) = 25.09840 53.16792 39.13316
# Shear Modulus (GPa) = 3.28182 26.27565 14.77874
#
# Velocity S-wave (km/s) = 1.23602 3.49741 2.62294
# Velocity P-wave (km/s) = 3.70416 6.40780 5.23358
#
# Compressibility (1/GPa) = 0.03984318
#
# Stress axis : x y z
#
# Youngs Moduli (GPa) = 28.93385 94.98226 70.21816
#
# Poissons Ratio (x) = 1.09821 -0.52504
# Poissons Ratio (y) = 0.33454 0.39737
# Poissons Ratio (z) = -0.21635 0.53751
#
# Static dielectric constant tensor:
#      x y z
#    x 1.822820 -0.000030 -0.020330 
#    y -0.000030 1.818740 -0.000010 
#    z -0.020330 -0.000010 1.774060 
# 
# From -- ./inp_files/344920.got.cif
#   From: 2010.05.17/outbox.cif.g08.bks.cpg/sg12_173_cif.got.tgz:344920.got - 2010.06.03 13:09:07.
