data_PCOD9212196
_publ_section_title
;
Structure prediction by ZEFSAII (Michael W. Deem and Ramdas Pophale) SiO2 
 PCOD9212196
Probable space group: C 2/M
;
_chemical_formula_sum "Si O2"
_cell_formula_units_Z 50
_cell_length_a 19.071969
_cell_length_b 17.330423
_cell_length_c 8.960674
_cell_angle_alpha 90.000000
_cell_angle_beta 115.238761
_cell_angle_gamma 90.000000
_cell_volume 2678.999142
_symmetry_space_group_name_H-M "C 2/M"
_symmetry_group_IT_number 12
_symmetry_cell_setting 'monoclinic'
loop_
_space_group_symop_operation_xyz
x,y,z
-x,y,-z
-x,-y,-z
x,-y,z
1/2+x,1/2+y,z
1/2-x,1/2+y,-z
1/2-x,1/2-y,-z
1/2+x,1/2-y,z
loop_
_atom_site_type_symbol
_atom_site_label
_atom_site_fract_x
_atom_site_fract_y
_atom_site_fract_z
Si Si1 0.181526 0.703877 0.029315
Si Si2 0.000000 0.500000 0.500000
Si Si3 0.274748 0.408549 0.327435
Si Si4 0.734262 0.411975 0.332917
Si Si5 0.583536 0.679256 0.147601
Si Si6 0.075304 0.804973 0.489793
Si Si7 0.115386 0.355468 0.678252
O O1 0.220379 0.636836 0.163681
O O2 0.131057 0.758838 0.091639
O O3 0.250000 0.750000 0.000000
O O4 0.122700 0.665583 0.858251
O O5 0.935118 0.430913 0.403253
O O6 0.282482 0.500000 0.301423
O O7 0.247248 0.401692 0.474724
O O8 0.354636 0.361192 0.402967
O O9 0.745926 0.500000 0.304060
O O10 0.645872 0.389565 0.219309
O O11 0.796238 0.364813 0.296727
O O12 0.569751 0.703500 0.306659
O O13 0.500000 0.661950 0.000000
O O14 0.086187 0.720263 0.567151
O O15 0.000000 0.839092 0.500000
#
# Coordination Sequence:
#
# PCOD9212196 Si02
#       7
#     8   2   8   8   8   8   8
#     4  12  23  41  66  96 129 171 221 271 330 394
#     4  12  28  40  64 102 132 180 222 280 322 402
#     4  10  23  41  63  93 128 167 223 270 330 390
#     4  10  21  41  65  91 128 176 216 271 327 394
#     4  11  24  40  64  97 130 167 224 270 326 393
#     4  11  22  40  67  92 128 174 216 272 328 393
#     4  12  23  41  67  94 130 173 226 261 333 397
#
# _framework density 18.663685000000001
#
# number of rings (size 3 to 8) (size 9 to 14) (size 15 to 20)
#    0.000    0.960    4.800    1.920    1.120    3.200 
#    0.000    0.000    0.000    2.400    0.000    0.000 
#    0.000    0.000    0.000    0.000    0.000    0.000 
#
# Total GULP energy -139237.267734 kJ/mol
# GULP energy per Si atom -5569.490709 kJ/mol
# Density = 1.862121 g / cm^3
# Si number density = 18.663685 Si / 1000 Ang^3
#
#
#
# Elastic Constant Matrix: (Units=GPa)
#
#
# Indices 1 2 3 4 5 6 
#
# 1 77.1141 4.4873 28.9721 0.0000 -1.8541 0.0000
# 2 4.4873 62.7412 23.1282 0.0000 -2.1671 0.0000
# 3 28.9721 23.1282 101.3364 0.0000 14.4703 0.0000
# 4 0.0000 0.0000 0.0000 22.2020 0.0000 2.3803
# 5 -1.8541 -2.1671 14.4703 0.0000 18.5040 0.0000
# 6 0.0000 0.0000 0.0000 2.3803 0.0000 27.3796
#
#
#
# Elastic Compliance Matrix: (Units=1/GPa)
#
#
# Indices 1 2 3 4 5 6 
#
# 1 0.015073 0.001116 -0.005402 0.000000 0.005865 0.000000
# 2 0.001116 0.018054 -0.005356 0.000000 0.006414 0.000000
# 3 -0.005402 -0.005356 0.014411 0.000000 -0.012438 0.000000
# 4 0.000000 0.000000 0.000000 0.045465 0.000000 -0.003953
# 5 0.005865 0.006414 -0.012438 0.000000 0.065108 0.000000
# 6 0.000000 0.000000 0.000000 -0.003953 0.000000 0.036867
#
#
# Mechanical properties :
#
#
# Convention : Reuss Voigt Hill
#
# Bulk Modulus (GPa) = 35.39108 39.37412 37.38260
# Shear Modulus (GPa) = 22.35341 25.92408 24.13874
#
# Velocity S-wave (km/s) = 3.46453 3.73099 3.60022
# Velocity P-wave (km/s) = 5.91673 6.30102 6.11189
#
# Compressibility (1/GPa) = 0.02825571
#
# Stress axis : x y z
#
# Youngs Moduli (GPa) = 66.34251 55.38807 69.39242
#
# Poissons Ratio (x) = -0.06180 0.37483
# Poissons Ratio (y) = -0.07402 0.37163
# Poissons Ratio (z) = 0.35836 0.29663
#
# Static dielectric constant tensor:
#      x y z
#    x 1.675780 0.000000 0.000830 
#    y 0.000000 1.618810 0.000000 
#    z 0.000830 0.000000 1.654650 
# 
# From -- ./inp_files/75776.got.cif
#   From: 2010.05.17/outbox.cif.g08.bks.cpg/sg12_38_cif.got.tgz:75776.got - 2010.06.03 13:09:07.
