data_PCOD9212449
_publ_section_title
;
Structure prediction by ZEFSAII (Michael W. Deem and Ramdas Pophale) SiO2 
 PCOD9212449
Probable space group: C 2/M
;
_chemical_formula_sum "Si O2"
_cell_formula_units_Z 42
_cell_length_a 14.492233
_cell_length_b 18.436075
_cell_length_c 8.848740
_cell_angle_alpha 90.000000
_cell_angle_beta 60.158938
_cell_angle_gamma 90.000000
_cell_volume 2050.733214
_symmetry_space_group_name_H-M "C 2/M"
_symmetry_group_IT_number 12
_symmetry_cell_setting 'monoclinic'
loop_
_space_group_symop_operation_xyz
x,y,z
-x,y,-z
-x,-y,-z
x,-y,z
1/2+x,1/2+y,z
1/2-x,1/2+y,-z
1/2-x,1/2-y,-z
1/2+x,1/2-y,z
loop_
_atom_site_type_symbol
_atom_site_label
_atom_site_fract_x
_atom_site_fract_y
_atom_site_fract_z
Si Si1 0.880088 0.076651 0.150808
Si Si2 0.341882 0.869885 0.230645
Si Si3 0.207257 0.227309 0.873178
Si Si4 0.399040 0.376081 0.478372
Si Si5 0.500000 0.000000 0.000000
Si Si6 0.900471 0.291265 0.484387
O O1 0.840349 0.147438 0.095793
O O2 0.881962 0.086340 0.330719
O O3 0.823408 0.000000 0.160971
O O4 0.000000 0.070804 0.000000
O O5 0.362878 0.795617 0.121047
O O6 0.213282 0.882718 0.340149
O O7 0.410965 0.936089 0.114843
O O8 0.373151 0.846733 0.375214
O O9 0.300991 0.219928 0.674654
O O10 0.250000 0.250000 0.000000
O O11 0.500000 0.399069 0.500000
O O12 0.421997 0.291519 0.414787
O O13 0.000000 0.317221 0.500000
#
# Coordination Sequence:
#
# PCOD9212449 Si02
#       6
#     8   8   8   8   2   8
#     4  11  25  42  64 103 141 177 233 301 370 422
#     4  11  24  48  66 102 148 181 249 291 357 442
#     4  11  24  42  73 101 137 192 238 297 355 431
#     4  10  21  42  74 104 136 187 239 300 366 431
#     4  12  32  44  72 108 144 206 230 302 366 426
#     4  10  21  41  72 105 130 187 244 289 362 435
#
# _framework density 20.48048
#
# number of rings (size 3 to 8) (size 9 to 14) (size 15 to 20)
#    0.000    1.333    3.810    1.143   13.333    0.381 
#    1.714    0.476    0.000    0.000    0.000    0.000 
#    0.000    0.000    0.000    0.000    0.000    0.000 
#
# Total GULP energy -116914.945872 kJ/mol
# GULP energy per Si atom -5567.378375 kJ/mol
# Density = 2.043387 g / cm^3
# Si number density = 20.480480 Si / 1000 Ang^3
#
#
#
# Elastic Constant Matrix: (Units=GPa)
#
#
# Indices 1 2 3 4 5 6 
#
# 1 114.8988 77.2483 29.6731 0.0000 0.3489 0.0000
# 2 77.2483 192.7987 56.7123 0.0000 4.7208 0.0000
# 3 29.6731 56.7123 48.7751 0.0000 2.0934 0.0000
# 4 0.0000 0.0000 0.0000 29.0600 0.0000 -29.0913
# 5 0.3489 4.7208 2.0934 0.0000 29.9606 0.0000
# 6 0.0000 0.0000 0.0000 -29.0913 0.0000 50.6116
#
#
#
# Elastic Compliance Matrix: (Units=1/GPa)
#
#
# Indices 1 2 3 4 5 6 
#
# 1 0.012144 -0.004104 -0.002645 0.000000 0.000690 0.000000
# 2 -0.004104 0.009281 -0.008258 0.000000 -0.000838 0.000000
# 3 -0.002645 -0.008258 0.031752 0.000000 -0.000887 0.000000
# 4 0.000000 0.000000 0.000000 0.081048 0.000000 0.046586
# 5 0.000690 -0.000838 -0.000887 0.000000 0.033563 0.000000
# 6 0.000000 0.000000 0.000000 0.046586 0.000000 0.046535
#
#
# Mechanical properties :
#
#
# Convention : Reuss Voigt Hill
#
# Bulk Modulus (GPa) = 43.17657 75.97110 59.57383
# Shear Modulus (GPa) = 19.83665 34.78237 27.30951
#
# Velocity S-wave (km/s) = 3.11555 4.12554 3.65559
# Velocity P-wave (km/s) = 5.83693 7.73746 6.85340
#
# Compressibility (1/GPa) = 0.02316071
#
# Stress axis : x y z
#
# Youngs Moduli (GPa) = 82.34630 107.74681 31.49436
#
# Poissons Ratio (x) = 0.44224 0.08331
# Poissons Ratio (y) = 0.33799 0.26009
# Poissons Ratio (z) = 0.21781 0.88981
#
# Static dielectric constant tensor:
#      x y z
#    x 1.752930 0.000000 0.009720 
#    y 0.000000 1.875450 0.000000 
#    z 0.009720 0.000000 1.746770 
# 
# From -- ./inp_files/61332.got.cif
#   From: 2010.05.17/outbox.cif.g08.bks.cpg/sg12_31_cif.got.tgz:61332.got - 2010.06.03 13:09:07.
