data_PCOD9212637
_publ_section_title
;
Structure prediction by ZEFSAII (Michael W. Deem and Ramdas Pophale) SiO2 
 PCOD9212637
Probable space group: C 2/M
;
_chemical_formula_sum "Si O2"
_cell_formula_units_Z 56
_cell_length_a 29.452323
_cell_length_b 17.289237
_cell_length_c 5.568216
_cell_angle_alpha 90.000000
_cell_angle_beta 112.059034
_cell_angle_gamma 90.000000
_cell_volume 2627.823904
_symmetry_space_group_name_H-M "C 2/M"
_symmetry_group_IT_number 12
_symmetry_cell_setting 'monoclinic'
loop_
_space_group_symop_operation_xyz
x,y,z
-x,y,-z
-x,-y,-z
x,-y,z
1/2+x,1/2+y,z
1/2-x,1/2+y,-z
1/2-x,1/2-y,-z
1/2+x,1/2-y,z
loop_
_atom_site_type_symbol
_atom_site_label
_atom_site_fract_x
_atom_site_fract_y
_atom_site_fract_z
Si Si1 0.134511 0.416104 0.076302
Si Si2 0.520011 0.590163 0.290057
Si Si3 0.369960 0.361128 0.465525
Si Si4 0.293801 0.089182 0.390179
Si Si5 0.383893 0.813905 0.350297
Si Si6 0.317658 0.406987 0.859065
Si Si7 0.044039 0.586318 0.257311
O O1 0.129428 0.500000 0.931442
O O2 0.188247 0.413813 0.298183
O O3 0.092593 0.421864 0.192526
O O4 0.123932 0.332815 0.942452
O O5 0.500000 0.625171 0.500000
O O6 0.503856 0.500000 0.257803
O O7 0.578404 0.595066 0.411115
O O8 0.500000 0.624751 0.000000
O O9 0.381778 0.271211 0.445151
O O10 0.342071 0.373786 0.663383
O O11 0.342425 0.387122 0.165074
O O12 0.336138 0.139408 0.352348
O O13 0.239150 0.118777 0.247865
O O14 0.295146 0.000000 0.308052
O O15 0.436102 0.854335 0.508497
O O16 0.318732 0.500000 0.834744
O O17 0.031521 0.500000 0.323776
O O18 0.000000 0.612478 0.000000
#
# Coordination Sequence:
#
# PCOD9212637 Si02
#       7
#     8   8   8   8   8   8   8
#     4   9  18  36  61  86 120 168 218 260 305 377
#     4  10  21  42  70  93 118 160 211 259 311 381
#     4  12  27  42  67 100 135 166 205 268 337 385
#     4   9  21  40  65  90 122 172 221 258 306 375
#     4  11  23  37  59  90 134 166 208 260 325 389
#     4  11  25  46  69  95 126 168 219 271 319 381
#     4   9  19  37  60  88 123 169 222 269 314 371
#
# _framework density 21.310407999999999
#
# number of rings (size 3 to 8) (size 9 to 14) (size 15 to 20)
#    0.000    1.857    0.000    4.286    6.000    3.429 
#    2.571    2.143    0.000    0.000    0.000    0.000 
#    0.000    0.000    0.000    0.000    0.000    0.000 
#
# Total GULP energy -155988.337594 kJ/mol
# GULP energy per Si atom -5571.012057 kJ/mol
# Density = 2.126190 g / cm^3
# Si number density = 21.310408 Si / 1000 Ang^3
#
#
#
# Elastic Constant Matrix: (Units=GPa)
#
#
# Indices 1 2 3 4 5 6 
#
# 1 69.0785 -21.0664 49.8750 0.0000 11.0924 0.0000
# 2 -21.0664 31.6935 2.2274 0.0000 -3.6830 0.0000
# 3 49.8750 2.2274 140.3647 0.0000 18.3570 0.0000
# 4 0.0000 0.0000 0.0000 -0.8483 0.0000 -25.1902
# 5 11.0924 -3.6830 18.3570 0.0000 40.4690 0.0000
# 6 0.0000 0.0000 0.0000 -25.1902 0.0000 10.8028
#
#
#
# Elastic Compliance Matrix: (Units=1/GPa)
#
#
# Indices 1 2 3 4 5 6 
#
# 1 0.027642 0.018917 -0.009946 0.000000 -0.001343 0.000000
# 2 0.018917 0.044952 -0.007752 0.000000 0.002422 0.000000
# 3 -0.009946 -0.007752 0.011180 0.000000 -0.003051 0.000000
# 4 0.000000 0.000000 0.000000 -0.016782 0.000000 -0.039133
# 5 -0.001343 0.002422 -0.003051 0.000000 0.026683 0.000000
# 6 0.000000 0.000000 0.000000 -0.039133 0.000000 0.001318
#
#
# Mechanical properties :
#
#
# Convention : Reuss Voigt Hill
#
# Bulk Modulus (GPa) = 11.59935 33.68985 22.64460
# Shear Modulus (GPa) = 41.22225 24.09141 32.65683
#
# Velocity S-wave (km/s) = 4.40292 3.36594 3.91888
# Velocity P-wave (km/s) = 5.59486 5.56323 5.57907
#
# Compressibility (1/GPa) = 0.08621176
#
# Stress axis : x y z
#
# Youngs Moduli (GPa) = 36.17657 22.24587 89.44145
#
# Poissons Ratio (x) = -0.42081 0.88962
# Poissons Ratio (y) = -0.68433 0.69332
# Poissons Ratio (z) = 0.35983 0.17244
#
# Static dielectric constant tensor:
#      x y z
#    x 1.760300 0.000000 -0.066650 
#    y 0.000000 1.818550 0.000000 
#    z -0.066650 0.000000 1.886970 
# 
# From -- ./inp_files/31988.got.cif
#   From: 2010.05.17/outbox.cif.g08.bks.cpg/sg12_16_cif.got.tgz:31988.got - 2010.06.03 13:09:07.
