data_PCOD9212822
_publ_section_title
;
Structure prediction by ZEFSAII (Michael W. Deem and Ramdas Pophale) SiO2 
 PCOD9212822
Probable space group: C 2/M
;
_chemical_formula_sum "Si O2"
_cell_formula_units_Z 52
_cell_length_a 7.597699
_cell_length_b 27.122187
_cell_length_c 13.833622
_cell_angle_alpha 90.000000
_cell_angle_beta 46.385771
_cell_angle_gamma 90.000000
_cell_volume 2063.866524
_symmetry_space_group_name_H-M "C 2/M"
_symmetry_group_IT_number 12
_symmetry_cell_setting 'monoclinic'
loop_
_space_group_symop_operation_xyz
x,y,z
-x,y,-z
-x,-y,-z
x,-y,z
1/2+x,1/2+y,z
1/2-x,1/2+y,-z
1/2-x,1/2-y,-z
1/2+x,1/2-y,z
loop_
_atom_site_type_symbol
_atom_site_label
_atom_site_fract_x
_atom_site_fract_y
_atom_site_fract_z
Si Si1 0.943511 0.158418 0.632040
Si Si2 0.453839 0.083220 0.285702
Si Si3 0.865479 0.831988 0.963439
Si Si4 0.523368 0.500000 0.226610
Si Si5 0.726106 0.000000 0.061436
Si Si6 0.711597 0.000000 0.505621
Si Si7 0.859307 0.109519 0.269557
Si Si8 0.924004 0.727327 0.140600
O O1 0.741700 0.115558 0.697186
O O2 0.827152 0.206356 0.727787
O O3 0.000000 0.171228 0.500000
O O4 0.152242 0.135203 0.621526
O O5 0.593099 0.047924 0.156535
O O6 0.636019 0.117130 0.281232
O O7 0.329327 0.047373 0.411845
O O8 0.882952 0.869764 0.870092
O O9 0.017433 0.784365 0.867448
O O10 0.633183 0.807986 0.102562
O O11 0.000000 0.858173 0.000000
O O12 0.486229 0.500000 0.357025
O O13 0.386406 0.550988 0.257950
O O14 0.742224 0.500000 0.067025
O O15 0.000000 0.000000 0.000000
O O16 0.500000 0.000000 0.500000
O O17 0.000000 0.718699 0.000000
#
# Coordination Sequence:
#
# PCOD9212822 Si02
#       8
#     8   8   8   4   4   4   8   8
#     4  12  28  44  69 106 144 180 234 290 346 417
#     4  11  25  43  71  93 137 190 235 272 354 411
#     4  10  22  40  76 100 128 180 236 276 351 420
#     4  12  24  36  70  99 142 172 234 280 347 395
#     4  11  21  42  64 104 132 176 233 304 336 393
#     4  11  19  44  65  91 134 195 230 282 323 425
#     4  12  24  44  71 101 142 185 230 292 343 417
#     4  10  21  45  70  98 136 177 226 291 345 411
#
# _framework density 25.195426999999999
#
# number of rings (size 3 to 8) (size 9 to 14) (size 15 to 20)
#    0.000    0.923    4.615    1.846    4.308    1.231 
#    0.000    4.231    3.385    0.000    0.000    0.000 
#    0.000    0.000    0.000    0.000    0.000    0.000 
#
# Total GULP energy -145175.092765 kJ/mol
# GULP energy per Si atom -5583.657414 kJ/mol
# Density = 2.513808 g / cm^3
# Si number density = 25.195427 Si / 1000 Ang^3
#
#
#
# Elastic Constant Matrix: (Units=GPa)
#
#
# Indices 1 2 3 4 5 6 
#
# 1 90.6746 3.4902 23.8950 0.0000 16.2537 0.0000
# 2 3.4902 84.1434 44.6310 0.0000 4.7743 0.0000
# 3 23.8950 44.6310 166.4185 0.0000 28.6898 0.0000
# 4 0.0000 0.0000 0.0000 38.9984 0.0000 -0.5704
# 5 16.2537 4.7743 28.6898 0.0000 31.5608 0.0000
# 6 0.0000 0.0000 0.0000 -0.5704 0.0000 19.9978
#
#
#
# Elastic Compliance Matrix: (Units=1/GPa)
#
#
# Indices 1 2 3 4 5 6 
#
# 1 0.012243 0.000270 -0.000873 0.000000 -0.005552 0.000000
# 2 0.000270 0.013923 -0.004015 0.000000 0.001404 0.000000
# 3 -0.000873 -0.004015 0.008335 0.000000 -0.006520 0.000000
# 4 0.000000 0.000000 0.000000 0.025653 0.000000 0.000732
# 5 -0.005552 0.001404 -0.006520 0.000000 0.040259 0.000000
# 6 0.000000 0.000000 0.000000 0.000732 0.000000 0.050026
#
#
# Mechanical properties :
#
#
# Convention : Reuss Voigt Hill
#
# Bulk Modulus (GPa) = 39.57871 53.91877 46.74874
# Shear Modulus (GPa) = 29.74471 36.05940 32.90206
#
# Velocity S-wave (km/s) = 3.43965 3.78721 3.61761
# Velocity P-wave (km/s) = 5.61407 6.36951 6.00368
#
# Compressibility (1/GPa) = 0.02526611
#
# Stress axis : x y z
#
# Youngs Moduli (GPa) = 81.67633 71.82280 119.97526
#
# Poissons Ratio (x) = -0.01942 0.10477
# Poissons Ratio (y) = -0.02208 0.48169
# Poissons Ratio (z) = 0.07132 0.28836
#
# Static dielectric constant tensor:
#      x y z
#    x 2.291170 0.000000 -0.082230 
#    y 0.000000 1.958410 0.000000 
#    z -0.082230 0.000000 2.072850 
# 
# From -- ./inp_files/201224.got.cif
#   From: 2010.05.17/outbox.cif.g08.bks.cpg/sg12_101_cif.got.tgz:201224.got - 2010.06.03 13:09:07.
