data_PCOD9212446
_publ_section_title
;
Structure prediction by ZEFSAII (Michael W. Deem and Ramdas Pophale) SiO2 
 PCOD9212446
Probable space group: C 2/M
;
_chemical_formula_sum "Si O2"
_cell_formula_units_Z 40
_cell_length_a 13.969581
_cell_length_b 22.570740
_cell_length_c 10.914667
_cell_angle_alpha 90.000000
_cell_angle_beta 32.435855
_cell_angle_gamma 90.000000
_cell_volume 1845.831489
_symmetry_space_group_name_H-M "C 2/M"
_symmetry_group_IT_number 12
_symmetry_cell_setting 'monoclinic'
loop_
_space_group_symop_operation_xyz
x,y,z
-x,y,-z
-x,-y,-z
x,-y,z
1/2+x,1/2+y,z
1/2-x,1/2+y,-z
1/2-x,1/2-y,-z
1/2+x,1/2-y,z
loop_
_atom_site_type_symbol
_atom_site_label
_atom_site_fract_x
_atom_site_fract_y
_atom_site_fract_z
Si Si1 0.215676 0.160774 0.265253
Si Si2 0.381093 0.066524 0.897097
Si Si3 0.709454 0.205656 0.297467
Si Si4 0.729366 0.862005 0.515921
Si Si5 0.414277 0.406102 0.969576
O O1 0.256067 0.229733 0.194992
O O2 0.291011 0.152649 0.320303
O O3 0.000000 0.154987 0.500000
O O4 0.297671 0.112945 0.084490
O O5 0.568373 0.094584 0.652761
O O6 0.405231 0.000000 0.921343
O O7 0.243557 0.063424 0.933016
O O8 0.500000 0.196282 0.500000
O O9 0.733248 0.193067 0.417137
O O10 0.828464 0.156381 0.103769
O O11 0.918313 0.894523 0.298314
O O12 0.500000 0.432957 0.000000
#
# Coordination Sequence:
#
# PCOD9212446 Si02
#       5
#     8   8   8   8   8
#     4  11  24  42  68 104 134 181 219 275 338 399
#     4  12  27  46  68  97 136 183 229 273 325 398
#     4  10  21  41  72 102 138 167 218 279 342 405
#     4  11  23  43  68 100 135 177 223 273 339 396
#     4  10  23  44  69 102 133 174 221 281 341 393
#
# _framework density 21.670449999999999
#
# number of rings (size 3 to 8) (size 9 to 14) (size 15 to 20)
#    0.000    1.200    4.000    1.200    0.000   10.400 
#    0.000    7.000    0.000    0.000    0.000    0.000 
#    0.000    0.000    0.000    0.000    0.000    0.000 
#
# Total GULP energy -111757.826231 kJ/mol
# GULP energy per Si atom -5587.891312 kJ/mol
# Density = 2.162113 g / cm^3
# Si number density = 21.670450 Si / 1000 Ang^3
#
#
#
# Elastic Constant Matrix: (Units=GPa)
#
#
# Indices 1 2 3 4 5 6 
#
# 1 89.6530 28.7976 14.8488 0.0002 -8.7584 -0.0004
# 2 28.7976 162.1153 54.7673 -0.0006 5.0311 0.0000
# 3 14.8488 54.7673 92.6349 -0.0006 -14.5827 -0.0003
# 4 0.0002 -0.0006 -0.0006 -34.9440 0.0007 0.4148
# 5 -8.7584 5.0311 -14.5827 0.0007 38.7917 0.0004
# 6 -0.0004 0.0000 -0.0003 0.4148 0.0004 -40.5660
#
#
#
# Elastic Compliance Matrix: (Units=1/GPa)
#
#
# Indices 1 2 3 4 5 6 
#
# 1 0.012179 -0.002191 -0.000191 0.000000 0.002962 0.000000
# 2 -0.002191 0.008418 -0.005182 0.000000 -0.003535 0.000000
# 3 -0.000191 -0.005182 0.014868 0.000000 0.006218 0.000000
# 4 0.000000 0.000000 0.000000 -0.028621 0.000001 -0.000293
# 5 0.002962 -0.003535 0.006218 0.000001 0.029244 0.000000
# 6 0.000000 0.000000 0.000000 -0.000293 0.000000 -0.024654
#
#
# Mechanical properties :
#
#
# Convention : Reuss Voigt Hill
#
# Bulk Modulus (GPa) = 49.16920 60.13673 54.65297
# Shear Modulus (GPa) = 149.96917 9.05564 79.51241
#
# Velocity S-wave (km/s) = 8.32795 2.04643 6.06393
# Velocity P-wave (km/s) = 10.73367 5.77881 8.61993
#
# Compressibility (1/GPa) = 0.02033794
#
# Stress axis : x y z
#
# Youngs Moduli (GPa) = 82.10967 118.79326 67.25747
#
# Poissons Ratio (x) = 0.26027 0.01281
# Poissons Ratio (y) = 0.17990 0.34853
# Poissons Ratio (z) = 0.01564 0.61559
#
# Static dielectric constant tensor:
#      x y z
#    x 1.811730 0.000000 -0.002250 
#    y 0.000000 1.775380 0.000000 
#    z -0.002250 0.000000 1.758200 
# 
# From -- ./inp_files/63791.got.cif
#   From: 2010.05.17/outbox.cif.g08.bks.cpg/sg12_32_cif.got.tgz:63791.got - 2010.06.03 13:09:07.
