data_PCOD9212990
_publ_section_title
;
Structure prediction by ZEFSAII (Michael W. Deem and Ramdas Pophale) SiO2 
 PCOD9212990
Probable space group: C 2/M
;
_chemical_formula_sum "Si O2"
_cell_formula_units_Z 56
_cell_length_a 13.846888
_cell_length_b 26.303362
_cell_length_c 9.846148
_cell_angle_alpha 90.000000
_cell_angle_beta 119.320733
_cell_angle_gamma 90.000000
_cell_volume 3126.745672
_symmetry_space_group_name_H-M "C 2/M"
_symmetry_group_IT_number 12
_symmetry_cell_setting 'monoclinic'
loop_
_space_group_symop_operation_xyz
x,y,z
-x,y,-z
-x,-y,-z
x,-y,z
1/2+x,1/2+y,z
1/2-x,1/2+y,-z
1/2-x,1/2-y,-z
1/2+x,1/2-y,z
loop_
_atom_site_type_symbol
_atom_site_label
_atom_site_fract_x
_atom_site_fract_y
_atom_site_fract_z
Si Si1 0.697563 0.170061 0.424543
Si Si2 0.927345 0.222494 0.081240
Si Si3 0.924194 0.227099 0.579315
Si Si4 0.801418 0.323948 0.072418
Si Si5 0.110453 0.500000 0.672085
Si Si6 0.370916 0.888643 0.368076
Si Si7 0.367973 0.890751 0.879711
Si Si8 0.117980 0.500000 0.007124
O O1 0.816406 0.193863 0.469226
O O2 0.617740 0.219063 0.387719
O O3 0.698249 0.142611 0.570075
O O4 0.654551 0.128272 0.288000
O O5 0.869601 0.272026 0.106606
O O6 0.005176 0.200868 0.252923
O O7 0.824001 0.187352 0.970668
O O8 0.000000 0.235507 0.000000
O O9 0.000000 0.235810 0.500000
O O10 0.859938 0.361138 0.217336
O O11 0.805379 0.350092 0.929423
O O12 0.166552 0.446869 0.672569
O O13 0.098584 0.500000 0.829695
O O14 0.000000 0.500000 0.500000
O O15 0.500000 0.887705 0.500000
O O16 0.500000 0.887229 0.000000
O O17 0.330553 0.947140 0.902042
O O18 0.000000 0.500000 0.000000
#
# Coordination Sequence:
#
# PCOD9212990 Si02
#       8
#     8   8   8   8   4   8   8   4
#     4  11  23  35  57  85 109 154 190 222 280 339
#     4  11  22  35  54  80 111 144 185 236 270 326
#     4  11  22  39  55  80 118 148 189 233 276 327
#     4  11  21  35  55  80 108 149 188 219 280 336
#     4  10  22  36  56  84 118 150 182 228 288 340
#     4  11  21  35  56  82 116 146 181 226 278 340
#     4  11  21  35  56  81 116 146 186 224 277 338
#     4  10  22  36  54  84 118 151 182 230 284 341
#
# _framework density 17.909994999999999
#
# number of rings (size 3 to 8) (size 9 to 14) (size 15 to 20)
#    0.000    1.143    1.429    6.857    6.000    4.571 
#    0.000    0.000    0.000    0.000    0.000   20.000 
#    0.000    0.000    0.000    0.000    0.000    0.000 
#
# Total GULP energy -156292.306538 kJ/mol
# GULP energy per Si atom -5581.868091 kJ/mol
# Density = 1.786923 g / cm^3
# Si number density = 17.909995 Si / 1000 Ang^3
#
#
#
# Elastic Constant Matrix: (Units=GPa)
#
#
# Indices 1 2 3 4 5 6 
#
# 1 82.0940 6.0774 15.3655 0.0000 5.8422 0.0000
# 2 6.0774 61.0241 -2.4868 0.0000 14.2284 0.0000
# 3 15.3655 -2.4868 65.7878 0.0000 0.7265 0.0000
# 4 0.0000 0.0000 0.0000 24.6934 0.0000 -6.7320
# 5 5.8422 14.2284 0.7265 0.0000 25.2125 0.0000
# 6 0.0000 0.0000 0.0000 -6.7320 0.0000 23.4887
#
#
#
# Elastic Compliance Matrix: (Units=1/GPa)
#
#
# Indices 1 2 3 4 5 6 
#
# 1 0.012986 -0.000847 -0.003038 0.000000 -0.002443 0.000000
# 2 -0.000847 0.018971 0.001031 0.000000 -0.010539 0.000000
# 3 -0.003038 0.001031 0.015953 0.000000 -0.000338 0.000000
# 4 0.000000 0.000000 0.000000 0.043929 0.000000 0.012590
# 5 -0.002443 -0.010539 -0.000338 0.000000 0.046187 0.000000
# 6 0.000000 0.000000 0.000000 0.012590 0.000000 0.046182
#
#
# Mechanical properties :
#
#
# Convention : Reuss Voigt Hill
#
# Bulk Modulus (GPa) = 23.69586 27.42426 25.56006
# Shear Modulus (GPa) = 24.51184 27.34225 25.92704
#
# Velocity S-wave (km/s) = 3.70349 3.91147 3.80890
# Velocity P-wave (km/s) = 5.61667 5.97871 5.80052
#
# Compressibility (1/GPa) = 0.04220147
#
# Stress axis : x y z
#
# Youngs Moduli (GPa) = 77.00348 52.71274 62.68533
#
# Poissons Ratio (x) = 0.04467 0.19045
# Poissons Ratio (y) = 0.06526 -0.06465
# Poissons Ratio (z) = 0.23395 -0.05437
#
# Static dielectric constant tensor:
#      x y z
#    x 1.570620 0.000000 -0.003520 
#    y 0.000000 1.627790 0.000000 
#    z -0.003520 0.000000 1.618960 
# 
# From -- ./inp_files/66884.got.cif
#   From: 2010.05.17/outbox.cif.g08.bks.cpg/sg12_34_cif.got.tgz:66884.got - 2010.06.03 13:09:07.
