data_PCOD9212778
_publ_section_title
;
Structure prediction by ZEFSAII (Michael W. Deem and Ramdas Pophale) SiO2 
 PCOD9212778
Probable space group: C 2/M
;
_chemical_formula_sum "Si O2"
_cell_formula_units_Z 34
_cell_length_a 12.850127
_cell_length_b 16.885536
_cell_length_c 16.560424
_cell_angle_alpha 90.000000
_cell_angle_beta 155.892645
_cell_angle_gamma 90.000000
_cell_volume 1467.675722
_symmetry_space_group_name_H-M "C 2/M"
_symmetry_group_IT_number 12
_symmetry_cell_setting 'monoclinic'
loop_
_space_group_symop_operation_xyz
x,y,z
-x,y,-z
-x,-y,-z
x,-y,z
1/2+x,1/2+y,z
1/2-x,1/2+y,-z
1/2-x,1/2-y,-z
1/2+x,1/2-y,z
loop_
_atom_site_type_symbol
_atom_site_label
_atom_site_fract_x
_atom_site_fract_y
_atom_site_fract_z
Si Si1 0.025624 0.590625 0.367075
Si Si2 0.552426 0.822780 0.859240
Si Si3 0.000000 0.500000 0.000000
Si Si4 0.762672 0.262891 0.237769
Si Si5 0.895673 0.881454 0.235531
O O1 0.930593 0.500000 0.301212
O O2 0.329038 0.589216 0.594464
O O3 0.990436 0.633001 0.254810
O O4 0.885831 0.650812 0.328996
O O5 0.309009 0.782534 0.730485
O O6 0.750000 0.750000 0.000000
O O7 0.704823 0.883098 0.024442
O O8 0.775360 0.432586 0.825354
O O9 0.927549 0.204359 0.298517
O O10 0.500000 0.270249 0.000000
#
# Coordination Sequence:
#
# PCOD9212778 Si02
#       5
#     8   8   2   8   8
#     4  12  26  42  71 106 137 183 236 288 350 422
#     4  11  23  44  69  97 130 187 236 274 347 421
#     4  12  20  44  70  92 142 176 212 310 344 382
#     4  10  21  44  66  96 139 180 224 287 348 411
#     4  11  23  44  66  98 142 175 227 296 350 404
#
# _framework density 23.165882
#
# number of rings (size 3 to 8) (size 9 to 14) (size 15 to 20)
#    0.000    0.941    9.412    0.706    1.647    1.412 
#    0.000    2.353    0.000    1.412    0.000    0.000 
#    0.000    0.000    0.000    0.000    0.000    0.000 
#
# Total GULP energy -94658.779418 kJ/mol
# GULP energy per Si atom -5568.163495 kJ/mol
# Density = 2.311316 g / cm^3
# Si number density = 23.165882 Si / 1000 Ang^3
#
#
#
# Elastic Constant Matrix: (Units=GPa)
#
#
# Indices 1 2 3 4 5 6 
#
# 1 58.5309 14.4598 9.9025 0.0332 -23.7485 0.0439
# 2 14.4598 154.2225 19.9616 0.8129 -3.0211 1.3413
# 3 9.9025 19.9616 66.5837 -1.7483 -7.6806 -2.9992
# 4 0.0332 0.8129 -1.7483 1760.4161 -0.1215 2930.8527
# 5 -23.7485 -3.0211 -7.6806 -0.1215 19.9192 -0.1972
# 6 0.0439 1.3413 -2.9992 2930.8527 -0.1972 4961.5336
#
#
#
# Elastic Compliance Matrix: (Units=1/GPa)
#
#
# Indices 1 2 3 4 5 6 
#
# 1 0.033962 -0.002438 0.000322 0.000000 0.040245 0.000002
# 2 -0.002438 0.006922 -0.002017 -0.000003 -0.002634 -0.000001
# 3 0.000322 -0.002017 0.016310 -0.000011 0.006368 0.000017
# 4 0.000000 -0.000003 -0.000011 0.034344 0.000004 -0.020288
# 5 0.040245 -0.002634 0.006368 0.000004 0.100240 0.000006
# 6 0.000002 -0.000001 0.000017 -0.020288 0.000006 0.012186
#
#
# Mechanical properties :
#
#
# Convention : Reuss Voigt Hill
#
# Bulk Modulus (GPa) = 20.43720 40.88720 30.66220
# Shear Modulus (GPa) = 21.87819 1364.04132 692.95976
#
# Velocity S-wave (km/s) = 3.07647 24.29183 17.31412
# Velocity P-wave (km/s) = 4.63258 28.36333 20.32166
#
# Compressibility (1/GPa) = 0.04893038
#
# Stress axis : x y z
#
# Youngs Moduli (GPa) = 29.44488 144.46396 61.31074
#
# Poissons Ratio (x) = 0.35214 -0.01976
# Poissons Ratio (y) = 0.07177 0.12364
# Poissons Ratio (z) = -0.00949 0.29134
#
# Static dielectric constant tensor:
#      x y z
#    x 2.122930 0.000020 -0.066090 
#    y 0.000020 1.955600 -0.000010 
#    z -0.066090 -0.000010 1.887880 
# 
# From -- ./inp_files/311572.got.cif
#   From: 2010.05.17/outbox.cif.g08.bks.cpg/sg12_156_cif.got.tgz:311572.got - 2010.06.03 13:09:07.
