data_PCOD9212270
_publ_section_title
;
Structure prediction by ZEFSAII (Michael W. Deem and Ramdas Pophale) SiO2 
 PCOD9212270
Probable space group: C 2/M
;
_chemical_formula_sum "Si O2"
_cell_formula_units_Z 58
_cell_length_a 25.133543
_cell_length_b 15.693274
_cell_length_c 6.744288
_cell_angle_alpha 90.000000
_cell_angle_beta 83.731158
_cell_angle_gamma 90.000000
_cell_volume 2644.226862
_symmetry_space_group_name_H-M "C 2/M"
_symmetry_group_IT_number 12
_symmetry_cell_setting 'monoclinic'
loop_
_space_group_symop_operation_xyz
x,y,z
-x,y,-z
-x,-y,-z
x,-y,z
1/2+x,1/2+y,z
1/2-x,1/2+y,-z
1/2-x,1/2-y,-z
1/2+x,1/2-y,z
loop_
_atom_site_type_symbol
_atom_site_label
_atom_site_fract_x
_atom_site_fract_y
_atom_site_fract_z
Si Si1 0.130461 0.403761 0.608035
Si Si2 0.422712 0.408926 0.263576
Si Si3 0.563719 0.251272 0.459606
Si Si4 0.264777 0.904498 0.717293
Si Si5 0.500000 0.500000 0.000000
Si Si6 0.713333 0.599929 0.359532
Si Si7 0.128236 0.835272 0.096878
Si Si8 0.194647 0.683281 0.907430
O O1 0.109229 0.500000 0.620507
O O2 0.091473 0.334513 0.527788
O O3 0.184110 0.404524 0.450751
O O4 0.149317 0.374175 0.819004
O O5 0.402888 0.500000 0.357757
O O6 0.418389 0.328267 0.402785
O O7 0.483909 0.427528 0.174128
O O8 0.396610 0.396125 0.058038
O O9 0.500000 0.244234 0.500000
O O10 0.585913 0.276787 0.233555
O O11 0.214627 0.883425 0.594967
O O12 0.255415 0.000000 0.798095
O O13 0.282515 0.849231 0.893786
O O14 0.730490 0.500000 0.329196
O O15 0.660984 0.614431 0.251522
O O16 0.755112 0.669336 0.257536
O O17 0.168394 0.773418 0.961795
#
# Coordination Sequence:
#
# PCOD9212270 Si02
#       8
#     8   8   8   8   2   8   8   8
#     4  10  21  41  66  96 134 171 221 269 326 400
#     4  10  23  44  67  94 130 171 224 277 327 386
#     4  12  26  44  68  99 132 174 222 277 340 394
#     4   9  18  36  61  92 126 168 211 257 315 390
#     4   8  20  44  70  92 118 178 224 280 314 388
#     4  10  23  39  60  94 135 171 217 273 326 395
#     4  12  24  41  66  98 135 172 220 278 331 396
#     4  11  20  39  67  92 127 179 213 264 329 396
#
# _framework density 21.934577000000001
#
# number of rings (size 3 to 8) (size 9 to 14) (size 15 to 20)
#    0.414    1.103    2.759    3.724    0.000    3.310 
#    0.000    1.379    0.000    0.828    0.000    0.000 
#    0.000    0.000    0.000    0.000    0.000    0.000 
#
# Total GULP energy -161679.147341 kJ/mol
# GULP energy per Si atom -5575.143012 kJ/mol
# Density = 2.188465 g / cm^3
# Si number density = 21.934577 Si / 1000 Ang^3
#
#
#
# Elastic Constant Matrix: (Units=GPa)
#
#
# Indices 1 2 3 4 5 6 
#
# 1 73.4786 28.7173 19.6998 0.0000 8.8999 0.0000
# 2 28.7173 122.6642 42.1182 0.0000 7.0627 0.0000
# 3 19.6998 42.1182 78.5543 0.0000 4.8132 0.0000
# 4 0.0000 0.0000 0.0000 35.4102 0.0000 10.0496
# 5 8.8999 7.0627 4.8132 0.0000 33.2907 0.0000
# 6 0.0000 0.0000 0.0000 10.0496 0.0000 27.2652
#
#
#
# Elastic Compliance Matrix: (Units=1/GPa)
#
#
# Indices 1 2 3 4 5 6 
#
# 1 0.015674 -0.002696 -0.002284 0.000000 -0.003288 0.000000
# 2 -0.002696 0.010517 -0.004914 0.000000 -0.000800 0.000000
# 3 -0.002284 -0.004914 0.015978 0.000000 -0.000657 0.000000
# 4 0.000000 0.000000 0.000000 0.031540 0.000000 -0.011625
# 5 -0.003288 -0.000800 -0.000657 0.000000 0.031182 0.000000
# 6 0.000000 0.000000 0.000000 -0.011625 0.000000 0.040962
#
#
# Mechanical properties :
#
#
# Convention : Reuss Voigt Hill
#
# Bulk Modulus (GPa) = 44.68003 50.64084 47.66044
# Shear Modulus (GPa) = 28.88536 31.47068 30.17802
#
# Velocity S-wave (km/s) = 3.63283 3.79192 3.71323
# Velocity P-wave (km/s) = 6.16527 6.50453 6.33717
#
# Compressibility (1/GPa) = 0.02238136
#
# Stress axis : x y z
#
# Youngs Moduli (GPa) = 63.80170 95.08689 62.58800
#
# Poissons Ratio (x) = 0.25635 0.14293
# Poissons Ratio (y) = 0.17201 0.30753
# Poissons Ratio (z) = 0.14570 0.46722
#
# Static dielectric constant tensor:
#      x y z
#    x 1.893760 0.000000 -0.026340 
#    y 0.000000 1.826540 0.000000 
#    z -0.026340 0.000000 1.791270 
# 
# From -- ./inp_files/28809.got.cif
#   From: 2010.05.17/outbox.cif.g08.bks.cpg/sg12_15_cif.got.tgz:28809.got - 2010.06.03 13:09:07.
