data_PCOD9212021
_publ_section_title
;
Structure prediction by ZEFSAII (Michael W. Deem and Ramdas Pophale) SiO2 
 PCOD9212021
Probable space group: C 2/M
;
_chemical_formula_sum "Si O2"
_cell_formula_units_Z 28
_cell_length_a 16.977627
_cell_length_b 22.806422
_cell_length_c 5.191787
_cell_angle_alpha 90.000000
_cell_angle_beta 137.435228
_cell_angle_gamma 90.000000
_cell_volume 1359.782794
_symmetry_space_group_name_H-M "C 2/M"
_symmetry_group_IT_number 12
_symmetry_cell_setting 'monoclinic'
loop_
_space_group_symop_operation_xyz
x,y,z
-x,y,-z
-x,-y,-z
x,-y,z
1/2+x,1/2+y,z
1/2-x,1/2+y,-z
1/2-x,1/2-y,-z
1/2+x,1/2-y,z
loop_
_atom_site_type_symbol
_atom_site_label
_atom_site_fract_x
_atom_site_fract_y
_atom_site_fract_z
Si Si1 0.882802 0.314357 0.340176
Si Si2 0.645630 0.691602 0.506423
Si Si3 0.675160 0.374560 0.071784
Si Si4 0.081183 0.000000 0.945311
O O1 0.908440 0.253440 0.546636
O O2 0.810567 0.357604 0.351027
O O3 0.000000 0.338164 0.500000
O O4 0.785745 0.299267 0.887644
O O5 0.625955 0.667393 0.176494
O O6 0.619590 0.642606 0.661792
O O7 0.655748 0.440724 0.108741
O O8 0.000000 0.000000 0.500000
O O9 0.000000 0.000000 0.000000
#
# Coordination Sequence:
#
# PCOD9212021 Si02
#       4
#     8   8   8   4
#     4   9  20  36  61  88 120 155 189 240 301 348
#     4   9  20  37  58  88 122 149 192 243 288 357
#     4  10  21  41  55  86 120 147 200 244 281 356
#     4  12  26  42  65  85 113 163 200 246 298 343
#
# _framework density 20.591522000000001
#
# number of rings (size 3 to 8) (size 9 to 14) (size 15 to 20)
#    1.714    0.571    0.000    2.571    0.000    4.571 
#    0.000    0.714    0.000    1.714    0.000    0.000 
#    0.000    0.000    0.000    0.000    0.000    0.000 
#
# Total GULP energy -78164.449971 kJ/mol
# GULP energy per Si atom -5583.174998 kJ/mol
# Density = 2.054465 g / cm^3
# Si number density = 20.591522 Si / 1000 Ang^3
#
#
#
# Elastic Constant Matrix: (Units=GPa)
#
#
# Indices 1 2 3 4 5 6 
#
# 1 169.1192 75.9568 27.9093 0.0000 -4.2664 0.0000
# 2 75.9568 156.6197 9.3828 0.0000 2.9145 0.0000
# 3 27.9093 9.3828 62.8949 0.0000 -16.4271 0.0000
# 4 0.0000 0.0000 0.0000 12.2688 0.0000 -3.5601
# 5 -4.2664 2.9145 -16.4271 0.0000 34.2180 0.0000
# 6 0.0000 0.0000 0.0000 -3.5601 0.0000 37.4422
#
#
#
# Elastic Compliance Matrix: (Units=1/GPa)
#
#
# Indices 1 2 3 4 5 6 
#
# 1 0.008096 -0.003739 -0.003073 0.000000 -0.000147 0.000000
# 2 -0.003739 0.008210 0.000149 0.000000 -0.001094 0.000000
# 3 -0.003073 0.000149 0.019595 0.000000 0.009011 0.000000
# 4 0.000000 0.000000 0.000000 0.083820 0.000000 0.007970
# 5 -0.000147 -0.001094 0.009011 0.000000 0.033625 0.000000
# 6 0.000000 0.000000 0.000000 0.007970 0.000000 0.027466
#
#
# Mechanical properties :
#
#
# Convention : Reuss Voigt Hill
#
# Bulk Modulus (GPa) = 44.30113 68.34796 56.32455
# Shear Modulus (GPa) = 24.79382 35.14479 29.96930
#
# Velocity S-wave (km/s) = 3.47375 4.13578 3.81913
# Velocity P-wave (km/s) = 6.13598 7.48803 6.84546
#
# Compressibility (1/GPa) = 0.02257279
#
# Stress axis : x y z
#
# Youngs Moduli (GPa) = 123.51854 121.80425 51.03458
#
# Poissons Ratio (x) = 0.45549 0.15684
# Poissons Ratio (y) = 0.46190 -0.00760
# Poissons Ratio (z) = 0.37959 -0.01813
#
# Static dielectric constant tensor:
#      x y z
#    x 1.749760 0.000000 0.024280 
#    y 0.000000 1.707650 0.000000 
#    z 0.024280 0.000000 1.814550 
# 
# From -- ./inp_files/5791.got.cif
#   From: 2010.05.17/outbox.cif.g08.bks.cpg/sg12_3_cif.got.tgz:5791.got - 2010.06.03 13:09:07.
