data_PCOD9212838
_publ_section_title
;
Structure prediction by ZEFSAII (Michael W. Deem and Ramdas Pophale) SiO2 
 PCOD9212838
Probable space group: C 2/M
;
_chemical_formula_sum "Si O2"
_cell_formula_units_Z 52
_cell_length_a 12.526108
_cell_length_b 27.108437
_cell_length_c 19.379147
_cell_angle_alpha 90.000000
_cell_angle_beta 150.963224
_cell_angle_gamma 90.000000
_cell_volume 3193.956722
_symmetry_space_group_name_H-M "C 2/M"
_symmetry_group_IT_number 12
_symmetry_cell_setting 'monoclinic'
loop_
_space_group_symop_operation_xyz
x,y,z
-x,y,-z
-x,-y,-z
x,-y,z
1/2+x,1/2+y,z
1/2-x,1/2+y,-z
1/2-x,1/2-y,-z
1/2+x,1/2-y,z
loop_
_atom_site_type_symbol
_atom_site_label
_atom_site_fract_x
_atom_site_fract_y
_atom_site_fract_z
Si Si1 0.345403 0.812443 0.695842
Si Si2 0.203790 0.943410 0.763919
Si Si3 0.779946 0.556567 0.970439
Si Si4 0.500000 0.714340 0.000000
Si Si5 0.581924 0.282814 0.788463
Si Si6 0.981376 0.155071 0.598304
Si Si7 0.314653 0.344850 0.017285
O O1 0.397942 0.755515 0.710010
O O2 0.168318 0.820222 0.655832
O O3 0.244523 0.836850 0.570188
O O4 0.573555 0.836150 0.849015
O O5 0.210646 0.938180 0.851001
O O6 0.047608 0.901906 0.644627
O O7 0.143353 0.000000 0.713657
O O8 0.455253 0.935453 0.880602
O O9 0.737953 0.500000 0.967439
O O10 0.665219 0.597886 0.951841
O O11 0.286524 0.749524 0.877917
O O12 0.520622 0.679516 0.944634
O O13 0.493695 0.317846 0.678508
O O14 0.666432 0.314423 0.900974
#
# Coordination Sequence:
#
# PCOD9212838 Si02
#       7
#     8   8   8   4   8   8   8
#     4  10  22  31  45  74 107 131 158 202 246 298
#     4   9  17  30  51  78 100 127 166 205 246 300
#     4   9  17  30  52  78  98 124 169 213 244 289
#     4  10  22  30  49  76  97 124 170 216 240 296
#     4  11  20  34  52  70  96 138 174 199 238 294
#     4  11  19  33  50  72 104 134 159 199 248 298
#     4  11  19  35  52  72  99 132 167 208 254 284
#
# _framework density 16.280747999999999
#
# number of rings (size 3 to 8) (size 9 to 14) (size 15 to 20)
#    0.000    1.846    3.077    5.077    0.000    0.000 
#    0.000    2.692    0.000    0.000    0.000    0.000 
#    0.000    9.846    0.000    0.000    0.000    0.000 
#
# Total GULP energy -145014.357197 kJ/mol
# GULP energy per Si atom -5577.475277 kJ/mol
# Density = 1.624369 g / cm^3
# Si number density = 16.280748 Si / 1000 Ang^3
#
#
#
# Elastic Constant Matrix: (Units=GPa)
#
#
# Indices 1 2 3 4 5 6 
#
# 1 67.5773 42.3420 25.8122 0.0067 -19.1221 -0.0054
# 2 42.3420 133.7092 53.0126 0.0026 -15.8446 -0.0028
# 3 25.8122 53.0126 93.2046 -0.0041 -20.6100 0.0027
# 4 0.0067 0.0026 -0.0041 122.0692 0.0076 -91.5045
# 5 -19.1221 -15.8446 -20.6100 0.0076 14.3063 -0.0060
# 6 -0.0054 -0.0028 0.0027 -91.5045 -0.0060 100.9556
#
#
#
# Elastic Compliance Matrix: (Units=1/GPa)
#
#
# Indices 1 2 3 4 5 6 
#
# 1 0.026866 -0.005802 0.003492 -0.000003 0.034513 0.000000
# 2 -0.005802 0.011075 -0.005422 0.000000 -0.003301 0.000000
# 3 0.003492 -0.005422 0.018417 -0.000001 0.025194 0.000000
# 4 -0.000003 0.000000 -0.000001 0.025555 -0.000009 0.023163
# 5 0.034513 -0.003301 0.025194 -0.000009 0.148669 0.000002
# 6 0.000000 0.000000 0.000000 0.023163 0.000002 0.030900
#
#
# Mechanical properties :
#
#
# Convention : Reuss Voigt Hill
#
# Bulk Modulus (GPa) = 24.45439 59.64720 42.05080
# Shear Modulus (GPa) = 17.20707 59.02118 38.11413
#
# Velocity S-wave (km/s) = 3.25452 6.02751 4.84369
# Velocity P-wave (km/s) = 5.40144 9.22807 7.56085
#
# Compressibility (1/GPa) = 0.04089245
#
# Stress axis : x y z
#
# Youngs Moduli (GPa) = 37.22220 90.29398 54.29723
#
# Poissons Ratio (x) = 0.52390 -0.18959
# Poissons Ratio (y) = 0.21597 0.29441
# Poissons Ratio (z) = -0.12997 0.48959
#
# Static dielectric constant tensor:
#      x y z
#    x 1.544100 0.000000 -0.006460 
#    y 0.000000 1.548960 0.000000 
#    z -0.006460 0.000000 1.540450 
# 
# From -- ./inp_files/135845.got.cif
#   From: 2010.05.17/outbox.cif.g08.bks.cpg/sg12_68_cif.got.tgz:135845.got - 2010.06.03 13:09:07.
