data_PCOD9212964
_publ_section_title
;
Structure prediction by ZEFSAII (Michael W. Deem and Ramdas Pophale) SiO2 
 PCOD9212964
Probable space group: C 2/M
;
_chemical_formula_sum "Si O2"
_cell_formula_units_Z 36
_cell_length_a 14.562665
_cell_length_b 26.579869
_cell_length_c 5.095092
_cell_angle_alpha 90.000000
_cell_angle_beta 106.391928
_cell_angle_gamma 90.000000
_cell_volume 1892.014670
_symmetry_space_group_name_H-M "C 2/M"
_symmetry_group_IT_number 12
_symmetry_cell_setting 'monoclinic'
loop_
_space_group_symop_operation_xyz
x,y,z
-x,y,-z
-x,-y,-z
x,-y,z
1/2+x,1/2+y,z
1/2-x,1/2+y,-z
1/2-x,1/2-y,-z
1/2+x,1/2-y,z
loop_
_atom_site_type_symbol
_atom_site_label
_atom_site_fract_x
_atom_site_fract_y
_atom_site_fract_z
Si Si1 0.000000 0.242530 0.500000
Si Si2 0.857437 0.799048 0.753256
Si Si3 0.788331 0.142106 0.194324
Si Si4 0.934305 0.941665 0.189561
Si Si5 0.107419 0.303387 0.980471
O O1 0.960368 0.208103 0.699292
O O2 0.915668 0.277769 0.318608
O O3 0.805276 0.834083 0.495920
O O4 0.841639 0.824245 0.019214
O O5 0.838182 0.740043 0.806728
O O6 0.838889 0.088926 0.185991
O O7 0.676375 0.149081 0.037472
O O8 0.000000 0.939356 0.500000
O O9 0.911847 0.000000 0.111105
O O10 0.000000 0.921914 0.000000
O O11 0.000000 0.312740 0.000000
#
# Coordination Sequence:
#
# PCOD9212964 Si02
#       5
#     4   8   8   8   8
#     4  10  22  36  50  76 122 154 184 228 274 318
#     4  11  23  35  53  83 116 150 191 230 267 334
#     4  12  24  35  61  83 109 153 197 226 281 344
#     4  10  23  42  61  85 114 141 180 241 297 339
#     4  10  23  38  53  79 122 156 186 233 275 323
#
# _framework density 19.027335999999998
#
# number of rings (size 3 to 8) (size 9 to 14) (size 15 to 20)
#    0.000    1.333    2.222    2.667   10.889    0.000 
#    0.000    0.000    0.000    0.667    0.000    0.778 
#    0.000    0.000    0.000    0.000    0.000    0.000 
#
# Total GULP energy -100295.179238 kJ/mol
# GULP energy per Si atom -5571.954402 kJ/mol
# Density = 1.898403 g / cm^3
# Si number density = 19.027336 Si / 1000 Ang^3
#
#
#
# Elastic Constant Matrix: (Units=GPa)
#
#
# Indices 1 2 3 4 5 6 
#
# 1 67.2264 43.1293 14.8268 0.0000 14.2165 0.0000
# 2 43.1293 73.0801 8.6156 0.0000 13.2782 0.0000
# 3 14.8268 8.6156 81.4385 0.0000 -9.3223 0.0000
# 4 0.0000 0.0000 0.0000 6.3776 0.0000 -0.5122
# 5 14.2165 13.2782 -9.3223 0.0000 31.9062 0.0000
# 6 0.0000 0.0000 0.0000 -0.5122 0.0000 24.8363
#
#
#
# Elastic Compliance Matrix: (Units=1/GPa)
#
#
# Indices 1 2 3 4 5 6 
#
# 1 0.025989 -0.013555 -0.004115 0.000000 -0.007141 0.000000
# 2 -0.013555 0.022321 -0.000275 0.000000 -0.003329 0.000000
# 3 -0.004115 -0.000275 0.013740 0.000000 0.005962 0.000000
# 4 0.000000 0.000000 0.000000 0.157058 0.000000 0.003239
# 5 -0.007141 -0.003329 0.005962 0.000000 0.037651 0.000000
# 6 0.000000 0.000000 0.000000 0.003239 0.000000 0.040330
#
#
# Mechanical properties :
#
#
# Convention : Reuss Voigt Hill
#
# Bulk Modulus (GPa) = 38.22613 39.43204 38.82909
# Shear Modulus (GPa) = 14.63269 22.96891 18.80080
#
# Velocity S-wave (km/s) = 2.77616 3.47818 3.14681
# Velocity P-wave (km/s) = 5.51451 6.07447 5.80125
#
# Compressibility (1/GPa) = 0.02616011
#
# Stress axis : x y z
#
# Youngs Moduli (GPa) = 38.47726 44.80114 72.78032
#
# Poissons Ratio (x) = 0.60730 0.29950
# Poissons Ratio (y) = 0.52157 0.01998
# Poissons Ratio (z) = 0.15834 0.01230
#
# Static dielectric constant tensor:
#      x y z
#    x 1.721160 0.000000 0.003030 
#    y 0.000000 1.678140 0.000000 
#    z 0.003030 0.000000 1.759690 
# 
# From -- ./inp_files/11446.got.cif
#   From: 2010.05.17/outbox.cif.g08.bks.cpg/sg12_6_cif.got.tgz:11446.got - 2010.06.03 13:09:07.
