data_PCOD9212571
_publ_section_title
;
Structure prediction by ZEFSAII (Michael W. Deem and Ramdas Pophale) SiO2 
 PCOD9212571
Probable space group: C 2/M
;
_chemical_formula_sum "Si O2"
_cell_formula_units_Z 56
_cell_length_a 16.619640
_cell_length_b 26.716852
_cell_length_c 7.870889
_cell_angle_alpha 90.000000
_cell_angle_beta 41.139399
_cell_angle_gamma 90.000000
_cell_volume 2299.249655
_symmetry_space_group_name_H-M "C 2/M"
_symmetry_group_IT_number 12
_symmetry_cell_setting 'monoclinic'
loop_
_space_group_symop_operation_xyz
x,y,z
-x,y,-z
-x,-y,-z
x,-y,z
1/2+x,1/2+y,z
1/2-x,1/2+y,-z
1/2-x,1/2-y,-z
1/2+x,1/2-y,z
loop_
_atom_site_type_symbol
_atom_site_label
_atom_site_fract_x
_atom_site_fract_y
_atom_site_fract_z
Si Si1 0.946206 0.757743 0.414045
Si Si2 0.363378 0.635179 0.508663
Si Si3 0.725013 0.623303 0.704689
Si Si4 0.952636 0.556602 0.271609
Si Si5 0.705880 0.721588 0.897831
Si Si6 0.216495 0.555494 0.921381
Si Si7 0.927110 0.055535 0.868475
O O1 0.905728 0.814153 0.526542
O O2 0.814617 0.733009 0.589209
O O3 0.000000 0.732672 0.500000
O O4 0.063906 0.761504 0.102670
O O5 0.328037 0.651020 0.374696
O O6 0.249724 0.603863 0.759095
O O7 0.471485 0.594987 0.344877
O O8 0.857611 0.599869 0.467239
O O9 0.708251 0.661001 0.889468
O O10 0.635091 0.575739 0.863229
O O11 0.900986 0.500000 0.373987
O O12 0.000000 0.560755 0.000000
O O13 0.074528 0.559654 0.191983
O O14 0.750000 0.750000 0.000000
O O15 0.228398 0.500000 0.818000
O O16 0.313265 0.555301 0.919249
O O17 0.977883 0.000000 0.796095
#
# Coordination Sequence:
#
# PCOD9212571 Si02
#       7
#     8   8   8   8   8   8   8
#     4  10  22  44  70  96 133 178 231 293 365 430
#     4  12  23  39  68  97 138 181 225 290 346 419
#     4  12  25  42  66 103 137 179 238 288 353 429
#     4  10  21  42  67  98 146 191 230 285 352 421
#     4  10  24  46  68  98 133 176 235 299 369 433
#     4  10  22  40  64  97 139 190 237 276 339 423
#     4  11  24  40  64 102 143 184 231 281 344 420
#
# _framework density 24.355772999999999
#
# number of rings (size 3 to 8) (size 9 to 14) (size 15 to 20)
#    0.000    1.286    2.857    2.571    2.000    5.714 
#    5.143    2.143    0.000    0.000    0.000    0.000 
#    0.000    0.000    0.000    0.000    0.000    0.000 
#
# Total GULP energy -156311.480013 kJ/mol
# GULP energy per Si atom -5582.552858 kJ/mol
# Density = 2.430034 g / cm^3
# Si number density = 24.355773 Si / 1000 Ang^3
#
#
#
# Elastic Constant Matrix: (Units=GPa)
#
#
# Indices 1 2 3 4 5 6 
#
# 1 82.6379 27.0578 23.2345 0.0000 -14.5975 0.0000
# 2 27.0578 86.9415 26.1416 0.0000 -16.5653 0.0000
# 3 23.2345 26.1416 119.5660 0.0000 -44.8005 0.0000
# 4 0.0000 0.0000 0.0000 46.2035 0.0000 -5.5494
# 5 -14.5975 -16.5653 -44.8005 0.0000 39.5109 0.0000
# 6 0.0000 0.0000 0.0000 -5.5494 0.0000 5.8754
#
#
#
# Elastic Compliance Matrix: (Units=1/GPa)
#
#
# Indices 1 2 3 4 5 6 
#
# 1 0.013999 -0.003574 -0.000978 0.000000 0.002565 0.000000
# 2 -0.003574 0.013537 -0.001101 0.000000 0.003106 0.000000
# 3 -0.000978 -0.001101 0.014755 0.000000 0.015907 0.000000
# 4 0.000000 0.000000 0.000000 0.024413 0.000000 0.023058
# 5 0.002565 0.003106 0.015907 0.000000 0.045596 0.000000
# 6 0.000000 0.000000 0.000000 0.023058 0.000000 0.191980
#
#
# Mechanical properties :
#
#
# Convention : Reuss Voigt Hill
#
# Bulk Modulus (GPa) = 32.27419 49.11257 40.69338
# Shear Modulus (GPa) = 15.34143 32.49871 23.92007
#
# Velocity S-wave (km/s) = 2.51248 3.65682 3.13726
# Velocity P-wave (km/s) = 4.65797 6.16751 5.46511
#
# Compressibility (1/GPa) = 0.03098451
#
# Stress axis : x y z
#
# Youngs Moduli (GPa) = 71.43236 73.86981 67.77555
#
# Poissons Ratio (x) = 0.26402 0.06628
# Poissons Ratio (y) = 0.25531 0.07464
# Poissons Ratio (z) = 0.06986 0.08135
#
# Static dielectric constant tensor:
#      x y z
#    x 2.064310 0.000000 0.070780 
#    y 0.000000 1.903490 0.000000 
#    z 0.070780 0.000000 2.017340 
# 
# From -- ./inp_files/79995.got.cif
#   From: 2010.05.17/outbox.cif.g08.bks.cpg/sg12_40_cif.got.tgz:79995.got - 2010.06.03 13:09:07.
