data_PCOD9212535
_publ_section_title
;
Structure prediction by ZEFSAII (Michael W. Deem and Ramdas Pophale) SiO2 
 PCOD9212535
Probable space group: C 2/M
;
_chemical_formula_sum "Si O2"
_cell_formula_units_Z 48
_cell_length_a 15.178098
_cell_length_b 18.497386
_cell_length_c 8.859100
_cell_angle_alpha 90.000000
_cell_angle_beta 110.374516
_cell_angle_gamma 90.000000
_cell_volume 2331.628615
_symmetry_space_group_name_H-M "C 2/M"
_symmetry_group_IT_number 12
_symmetry_cell_setting 'monoclinic'
loop_
_space_group_symop_operation_xyz
x,y,z
-x,y,-z
-x,-y,-z
x,-y,z
1/2+x,1/2+y,z
1/2-x,1/2+y,-z
1/2-x,1/2-y,-z
1/2+x,1/2-y,z
loop_
_atom_site_type_symbol
_atom_site_label
_atom_site_fract_x
_atom_site_fract_y
_atom_site_fract_z
Si Si1 0.761610 0.581703 0.345369
Si Si2 0.760945 0.583658 0.983849
Si Si3 0.382607 0.311151 0.588161
Si Si4 0.572037 0.179630 0.919999
Si Si5 0.567111 0.847162 0.401278
Si Si6 0.398209 0.677832 0.244635
O O1 0.729004 0.500000 0.357125
O O2 0.773555 0.589103 0.172554
O O3 0.688817 0.641040 0.360575
O O4 0.859376 0.596433 0.489984
O O5 0.766936 0.500000 0.943673
O O6 0.844395 0.631918 0.964486
O O7 0.662360 0.618209 0.877106
O O8 0.379517 0.225478 0.619757
O O9 0.489773 0.335076 0.686457
O O10 0.365924 0.319163 0.399136
O O11 0.505149 0.131121 0.772192
O O12 0.613767 0.245019 0.845884
O O13 0.500000 0.210431 0.000000
O O14 0.500000 0.823183 0.500000
#
# Coordination Sequence:
#
# PCOD9212535 Si02
#       6
#     8   8   8   8   8   8
#     4  11  25  40  63  94 125 165 204 246 309 373
#     4  11  25  42  60  91 131 165 200 250 308 368
#     4  10  21  42  66  92 117 158 214 257 306 357
#     4  11  24  40  65  96 122 160 208 252 306 364
#     4  11  20  42  66  90 122 158 204 260 304 356
#     4  10  22  42  65  91 121 159 207 264 304 352
#
# _framework density 20.586469000000001
#
# number of rings (size 3 to 8) (size 9 to 14) (size 15 to 20)
#    0.000    1.333    5.000    1.000    7.000    2.667 
#    0.000    3.333    0.000    0.000    0.000    0.000 
#    0.000    0.000    0.000    0.000    0.000    0.000 
#
# Total GULP energy -134121.599755 kJ/mol
# GULP energy per Si atom -5588.399990 kJ/mol
# Density = 2.053961 g / cm^3
# Si number density = 20.586469 Si / 1000 Ang^3
#
#
#
# Elastic Constant Matrix: (Units=GPa)
#
#
# Indices 1 2 3 4 5 6 
#
# 1 49.5899 38.9951 -0.2124 0.0000 2.0589 0.0000
# 2 38.9951 89.4967 12.2804 0.0000 7.6481 0.0000
# 3 -0.2124 12.2804 51.3967 0.0000 18.7686 0.0000
# 4 0.0000 0.0000 0.0000 26.2279 0.0000 2.9790
# 5 2.0589 7.6481 18.7686 0.0000 27.8108 0.0000
# 6 0.0000 0.0000 0.0000 2.9790 0.0000 6.6582
#
#
#
# Elastic Compliance Matrix: (Units=1/GPa)
#
#
# Indices 1 2 3 4 5 6 
#
# 1 0.031297 -0.014078 0.003882 0.000000 -0.001065 0.000000
# 2 -0.014078 0.017949 -0.003881 0.000000 -0.001274 0.000000
# 3 0.003882 -0.003881 0.026693 0.000000 -0.017235 0.000000
# 4 0.000000 0.000000 0.000000 0.040169 0.000000 -0.017972
# 5 -0.001065 -0.001274 -0.017235 0.000000 0.048018 0.000000
# 6 0.000000 0.000000 0.000000 -0.017972 0.000000 0.158233
#
#
# Mechanical properties :
#
#
# Convention : Reuss Voigt Hill
#
# Bulk Modulus (GPa) = 20.92738 32.51217 26.71978
# Shear Modulus (GPa) = 13.64476 21.43404 17.53940
#
# Velocity S-wave (km/s) = 2.57729 3.23022 2.92205
# Velocity P-wave (km/s) = 4.36397 5.45341 4.93882
#
# Compressibility (1/GPa) = 0.04778429
#
# Stress axis : x y z
#
# Youngs Moduli (GPa) = 31.95240 55.71300 37.46230
#
# Poissons Ratio (x) = 0.78433 -0.14543
# Poissons Ratio (y) = 0.44983 0.14541
# Poissons Ratio (z) = -0.12404 0.21625
#
# Static dielectric constant tensor:
#      x y z
#    x 1.727650 0.000000 -0.006520 
#    y 0.000000 1.697730 0.000000 
#    z -0.006520 0.000000 1.764920 
# 
# From -- ./inp_files/63574.got.cif
#   From: 2010.05.17/outbox.cif.g08.bks.cpg/sg12_32_cif.got.tgz:63574.got - 2010.06.03 13:09:07.
