data_PCOD9212711
_publ_section_title
;
Structure prediction by ZEFSAII (Michael W. Deem and Ramdas Pophale) SiO2 
 PCOD9212711
Probable space group: C 2/M
;
_chemical_formula_sum "Si O2"
_cell_formula_units_Z 44
_cell_length_a 14.835236
_cell_length_b 7.890229
_cell_length_c 18.608905
_cell_angle_alpha 90.000000
_cell_angle_beta 64.564195
_cell_angle_gamma 90.000000
_cell_volume 1967.092995
_symmetry_space_group_name_H-M "C 2/M"
_symmetry_group_IT_number 12
_symmetry_cell_setting 'monoclinic'
loop_
_space_group_symop_operation_xyz
x,y,z
-x,y,-z
-x,-y,-z
x,-y,z
1/2+x,1/2+y,z
1/2-x,1/2+y,-z
1/2-x,1/2-y,-z
1/2+x,1/2-y,z
loop_
_atom_site_type_symbol
_atom_site_label
_atom_site_fract_x
_atom_site_fract_y
_atom_site_fract_z
Si Si1 0.038941 0.811102 0.100739
Si Si2 0.226286 0.296276 0.589354
Si Si3 0.250000 0.250000 0.000000
Si Si4 0.015666 0.302005 0.723404
Si Si5 0.326196 0.796761 0.129482
Si Si6 0.670422 0.705006 0.305446
O O1 0.013257 0.790181 0.193107
O O2 0.935592 0.784747 0.094981
O O3 0.083310 0.000000 0.073173
O O4 0.130716 0.697023 0.045338
O O5 0.224055 0.500000 0.593797
O O6 0.250000 0.250000 0.500000
O O7 0.306403 0.239317 0.621454
O O8 0.117846 0.236397 0.653358
O O9 0.239687 0.242653 0.915723
O O10 0.029532 0.500000 0.737825
O O11 0.926998 0.282508 0.697008
O O12 0.265353 0.752671 0.222634
O O13 0.337248 0.000000 0.124641
O O14 0.659744 0.500000 0.307091
#
# Coordination Sequence:
#
# PCOD9212711 Si02
#       6
#     8   8   4   8   8   8
#     4  12  26  44  67  98 132 173 224 274 325 393
#     4  10  23  43  68  97 134 170 215 268 325 391
#     4  12  26  42  66  96 128 174 220 274 322 382
#     4  11  23  42  68  98 132 174 217 268 329 391
#     4  11  24  45  68  94 133 176 219 273 329 386
#     4  10  21  43  68  95 131 175 219 265 324 391
#
# _framework density 22.368031999999999
#
# number of rings (size 3 to 8) (size 9 to 14) (size 15 to 20)
#    0.000    1.091    3.636    2.182    0.000    9.455 
#    0.000    3.636    0.000    0.000    0.000    0.000 
#    0.000    0.000    0.000    0.000    0.000    0.000 
#
# Total GULP energy -122611.274931 kJ/mol
# GULP energy per Si atom -5573.239770 kJ/mol
# Density = 2.231712 g / cm^3
# Si number density = 22.368032 Si / 1000 Ang^3
#
#
#
# Elastic Constant Matrix: (Units=GPa)
#
#
# Indices 1 2 3 4 5 6 
#
# 1 104.1220 -2.5997 15.8390 0.0000 16.1074 0.0000
# 2 -2.5997 39.6007 2.9495 0.0000 2.2520 0.0000
# 3 15.8390 2.9495 114.4195 0.0000 24.2654 0.0000
# 4 0.0000 0.0000 0.0000 -85.8654 0.0000 32.9930
# 5 16.1074 2.2520 24.2654 0.0000 44.7021 0.0000
# 6 0.0000 0.0000 0.0000 32.9930 0.0000 7.4896
#
#
#
# Elastic Compliance Matrix: (Units=1/GPa)
#
#
# Indices 1 2 3 4 5 6 
#
# 1 0.010256 0.000918 -0.000734 0.000000 -0.003343 0.000000
# 2 0.000918 0.025426 -0.000498 0.000000 -0.001341 0.000000
# 3 -0.000734 -0.000498 0.009937 0.000000 -0.005104 0.000000
# 4 0.000000 0.000000 0.000000 -0.004325 0.000000 0.019053
# 5 -0.003343 -0.001341 -0.005104 0.000000 0.026413 0.000000
# 6 0.000000 0.000000 0.000000 0.019053 0.000000 0.049586
#
#
# Mechanical properties :
#
#
# Convention : Reuss Voigt Hill
#
# Bulk Modulus (GPa) = 22.22732 32.27998 27.25365
# Shear Modulus (GPa) = 37.61722 9.39549 23.50635
#
# Velocity S-wave (km/s) = 4.10535 2.05171 3.24526
# Velocity P-wave (km/s) = 5.69478 4.48055 5.12376
#
# Compressibility (1/GPa) = 0.04498967
#
# Stress axis : x y z
#
# Youngs Moduli (GPa) = 97.50460 39.33025 100.63671
#
# Poissons Ratio (x) = -0.03611 0.07391
# Poissons Ratio (y) = -0.08952 0.05012
# Poissons Ratio (z) = 0.07161 0.01959
#
# Static dielectric constant tensor:
#      x y z
#    x 1.791350 0.000000 -0.006650 
#    y 0.000000 1.890390 0.000000 
#    z -0.006650 0.000000 1.784280 
# 
# From -- ./inp_files/267017.got.cif
#   From: 2010.05.17/outbox.cif.g08.bks.cpg/sg12_134_cif.got.tgz:267017.got - 2010.06.03 13:09:07.
