data_PCOD9212473
_publ_section_title
;
Structure prediction by ZEFSAII (Michael W. Deem and Ramdas Pophale) SiO2 
 PCOD9212473
Probable space group: C 2/M
;
_chemical_formula_sum "Si O2"
_cell_formula_units_Z 64
_cell_length_a 14.756154
_cell_length_b 27.500949
_cell_length_c 12.693643
_cell_angle_alpha 90.000000
_cell_angle_beta 38.602312
_cell_angle_gamma 90.000000
_cell_volume 3213.881607
_symmetry_space_group_name_H-M "C 2/M"
_symmetry_group_IT_number 12
_symmetry_cell_setting 'monoclinic'
loop_
_space_group_symop_operation_xyz
x,y,z
-x,y,-z
-x,-y,-z
x,-y,z
1/2+x,1/2+y,z
1/2-x,1/2+y,-z
1/2-x,1/2-y,-z
1/2+x,1/2-y,z
loop_
_atom_site_type_symbol
_atom_site_label
_atom_site_fract_x
_atom_site_fract_y
_atom_site_fract_z
Si Si1 0.127122 0.887652 0.305617
Si Si2 0.135588 0.555568 0.796473
Si Si3 0.719707 0.057197 0.171854
Si Si4 0.652151 0.699308 0.925829
Si Si5 0.492120 0.122719 0.261806
Si Si6 0.128771 0.690594 0.970026
Si Si7 0.284851 0.870788 0.642118
Si Si8 0.536156 0.612425 0.154340
O O1 0.219164 0.931511 0.272182
O O2 0.243340 0.844715 0.183717
O O3 0.059481 0.900277 0.254153
O O4 0.000000 0.873085 0.500000
O O5 0.136376 0.500000 0.757879
O O6 0.111908 0.593693 0.724164
O O7 0.000000 0.561376 0.000000
O O8 0.617119 0.084601 0.181081
O O9 0.684537 0.081454 0.316042
O O10 0.699527 0.000000 0.188585
O O11 0.883346 0.072898 0.991869
O O12 0.683389 0.754162 0.929742
O O13 0.764374 0.672992 0.744740
O O14 0.500000 0.700288 0.000000
O O15 0.620576 0.662700 0.050251
O O16 0.405006 0.137652 0.444948
O O17 0.560856 0.168022 0.137747
O O18 0.000000 0.689472 0.000000
O O19 0.129857 0.879604 0.726774
#
# Coordination Sequence:
#
# PCOD9212473 Si02
#       8
#     8   8   8   8   8   8   8   8
#     4  12  23  39  59  90 125 160 204 259 299 359
#     4  11  22  40  63  88 124 167 207 250 305 368
#     4  11  23  41  65  91 123 164 209 254 309 369
#     4   8  19  41  64  87 121 162 204 251 309 368
#     4  12  21  40  65  93 125 161 205 258 312 363
#     4  11  21  42  65  88 121 167 205 250 311 371
#     4  10  23  41  63  93 129 156 205 263 307 360
#     4  10  21  42  62  86 125 168 200 250 308 367
#
# _framework density 19.913616000000001
#
# number of rings (size 3 to 8) (size 9 to 14) (size 15 to 20)
#    0.000    1.375    3.750    2.625    0.000    4.750 
#    2.250    3.125    0.000    0.000    0.000    0.000 
#    0.000    0.000    0.000    0.000    0.000    0.000 
#
# Total GULP energy -178890.295292 kJ/mol
# GULP energy per Si atom -5590.321728 kJ/mol
# Density = 1.986829 g / cm^3
# Si number density = 19.913616 Si / 1000 Ang^3
#
#
#
# Elastic Constant Matrix: (Units=GPa)
#
#
# Indices 1 2 3 4 5 6 
#
# 1 81.4757 15.3528 17.5338 0.0000 0.1862 0.0000
# 2 15.3528 127.3837 43.5236 0.0000 4.8384 0.0000
# 3 17.5338 43.5236 137.2604 0.0000 8.6300 0.0000
# 4 0.0000 0.0000 0.0000 5.7933 0.0000 -0.4639
# 5 0.1862 4.8384 8.6300 0.0000 26.2011 0.0000
# 6 0.0000 0.0000 0.0000 -0.4639 0.0000 23.1688
#
#
#
# Elastic Compliance Matrix: (Units=1/GPa)
#
#
# Indices 1 2 3 4 5 6 
#
# 1 0.012764 -0.001111 -0.001313 0.000000 0.000547 0.000000
# 2 -0.001111 0.008914 -0.002636 0.000000 -0.000770 0.000000
# 3 -0.001313 -0.002636 0.008432 0.000000 -0.002281 0.000000
# 4 0.000000 0.000000 0.000000 0.172889 0.000000 0.003462
# 5 0.000547 -0.000770 -0.002281 0.000000 0.039056 0.000000
# 6 0.000000 0.000000 0.000000 0.003462 0.000000 0.043231
#
#
# Mechanical properties :
#
#
# Convention : Reuss Voigt Hill
#
# Bulk Modulus (GPa) = 50.02131 55.43782 52.72956
# Shear Modulus (GPa) = 16.55248 29.01330 22.78289
#
# Velocity S-wave (km/s) = 2.88621 3.82115 3.38610
# Velocity P-wave (km/s) = 6.02334 6.88243 6.46717
#
# Compressibility (1/GPa) = 0.01999148
#
# Stress axis : x y z
#
# Youngs Moduli (GPa) = 78.34459 112.18127 118.58914
#
# Poissons Ratio (x) = 0.12459 0.15567
# Poissons Ratio (y) = 0.08701 0.31264
# Poissons Ratio (z) = 0.10284 0.29574
#
# Static dielectric constant tensor:
#      x y z
#    x 1.738300 0.000000 -0.010770 
#    y 0.000000 1.680400 0.000000 
#    z -0.010770 0.000000 1.687140 
# 
# From -- ./inp_files/149758.got.cif
#   From: 2010.05.17/outbox.cif.g08.bks.cpg/sg12_75_cif.got.tgz:149758.got - 2010.06.03 13:09:07.
