data_PCOD9212142
_publ_section_title
;
Structure prediction by ZEFSAII (Michael W. Deem and Ramdas Pophale) SiO2 
 PCOD9212142
Probable space group: C 2/M
;
_chemical_formula_sum "Si O2"
_cell_formula_units_Z 64
_cell_length_a 27.838759
_cell_length_b 14.486629
_cell_length_c 13.841169
_cell_angle_alpha 90.000000
_cell_angle_beta 37.244698
_cell_angle_gamma 90.000000
_cell_volume 3378.341013
_symmetry_space_group_name_H-M "C 2/M"
_symmetry_group_IT_number 12
_symmetry_cell_setting 'monoclinic'
loop_
_space_group_symop_operation_xyz
x,y,z
-x,y,-z
-x,-y,-z
x,-y,z
1/2+x,1/2+y,z
1/2-x,1/2+y,-z
1/2-x,1/2-y,-z
1/2+x,1/2-y,z
loop_
_atom_site_type_symbol
_atom_site_label
_atom_site_fract_x
_atom_site_fract_y
_atom_site_fract_z
Si Si1 0.090957 0.110238 0.837368
Si Si2 0.487118 0.202401 0.635502
Si Si3 0.318388 0.721982 0.463630
Si Si4 0.722523 0.393549 0.282328
Si Si5 0.369307 0.105503 0.497009
Si Si6 0.694716 0.607526 0.861951
Si Si7 0.962229 0.900528 0.453968
Si Si8 0.186434 0.727915 0.018263
O O1 0.122654 0.157352 0.690228
O O2 0.147044 0.132056 0.839913
O O3 0.094382 0.000000 0.820238
O O4 0.000000 0.137434 0.000000
O O5 0.500000 0.203352 0.500000
O O6 0.549682 0.129912 0.577718
O O7 0.509627 0.305321 0.638009
O O8 0.395373 0.189216 0.807596
O O9 0.250000 0.750000 0.500000
O O10 0.283078 0.666375 0.611206
O O11 0.359207 0.815996 0.433225
O O12 0.745332 0.500000 0.263947
O O13 0.632515 0.393955 0.386126
O O14 0.777381 0.343786 0.116449
O O15 0.289479 0.115968 0.689956
O O16 0.369408 0.000000 0.461648
O O17 0.678065 0.500000 0.910817
O O18 0.671996 0.677102 0.982923
O O19 0.000000 0.902747 0.500000
O O20 0.981015 0.000000 0.376027
O O21 0.250000 0.750000 0.000000
#
# Coordination Sequence:
#
# PCOD9212142 Si02
#       8
#     8   8   8   8   8   8   8   8
#     4  10  22  39  64  99 130 157 204 264 326 388
#     4  11  23  40  64  88 126 171 215 263 312 380
#     4  12  22  41  68  92 127 168 214 260 328 380
#     4  11  23  40  63  94 127 160 207 262 319 380
#     4  11  23  41  63  89 124 166 220 265 307 381
#     4  10  21  41  64  91 126 166 214 265 319 379
#     4   9  17  33  58  88 121 154 193 247 313 375
#     4  12  24  40  63  91 131 170 213 262 317 378
#
# _framework density 18.944209000000001
#
# number of rings (size 3 to 8) (size 9 to 14) (size 15 to 20)
#    0.000    1.250    3.750    2.625    1.750    2.250 
#    0.000    0.000    0.000    0.375    0.000    0.000 
#    0.000    0.000    0.000    0.000    0.000    0.000 
#
# Total GULP energy -178705.478853 kJ/mol
# GULP energy per Si atom -5584.546214 kJ/mol
# Density = 1.890109 g / cm^3
# Si number density = 18.944209 Si / 1000 Ang^3
#
#
#
# Elastic Constant Matrix: (Units=GPa)
#
#
# Indices 1 2 3 4 5 6 
#
# 1 105.0454 46.1027 64.6507 0.0000 -4.7466 0.0000
# 2 46.1027 103.2769 50.6837 0.0000 11.4492 0.0000
# 3 64.6507 50.6837 138.7872 0.0000 -5.3922 0.0000
# 4 0.0000 0.0000 0.0000 21.8191 0.0000 -2.2176
# 5 -4.7466 11.4492 -5.3922 0.0000 29.5870 0.0000
# 6 0.0000 0.0000 0.0000 -2.2176 0.0000 22.2321
#
#
#
# Elastic Compliance Matrix: (Units=1/GPa)
#
#
# Indices 1 2 3 4 5 6 
#
# 1 0.014765 -0.004415 -0.005144 0.000000 0.003140 0.000000
# 2 -0.004415 0.014036 -0.003332 0.000000 -0.006747 0.000000
# 3 -0.005144 -0.003332 0.010913 0.000000 0.002453 0.000000
# 4 0.000000 0.000000 0.000000 0.046301 0.000000 0.004618
# 5 0.003140 -0.006747 0.002453 0.000000 0.037360 0.000000
# 6 0.000000 0.000000 0.000000 0.004618 0.000000 0.045441
#
#
# Mechanical properties :
#
#
# Convention : Reuss Voigt Hill
#
# Bulk Modulus (GPa) = 71.76414 74.44263 73.10338
# Shear Modulus (GPa) = 25.09521 27.10578 26.10049
#
# Velocity S-wave (km/s) = 3.64358 3.78672 3.71584
# Velocity P-wave (km/s) = 7.46089 7.64853 7.55530
#
# Compressibility (1/GPa) = 0.01393454
#
# Stress axis : x y z
#
# Youngs Moduli (GPa) = 67.72864 71.24309 91.63167
#
# Poissons Ratio (x) = 0.31452 0.47132
# Poissons Ratio (y) = 0.29901 0.30528
# Poissons Ratio (z) = 0.34837 0.23735
#
# Static dielectric constant tensor:
#      x y z
#    x 1.654390 0.000000 -0.010420 
#    y 0.000000 1.680530 0.000000 
#    z -0.010420 0.000000 1.641250 
# 
# From -- ./inp_files/183785.got.cif
#   From: 2010.05.17/outbox.cif.g08.bks.cpg/sg12_92_cif.got.tgz:183785.got - 2010.06.03 13:09:07.
