data_PCOD9212200
_publ_section_title
;
Structure prediction by ZEFSAII (Michael W. Deem and Ramdas Pophale) SiO2 
 PCOD9212200
Probable space group: C 2/M
;
_chemical_formula_sum "Si O2"
_cell_formula_units_Z 58
_cell_length_a 12.730777
_cell_length_b 20.985300
_cell_length_c 16.348562
_cell_angle_alpha 90.000000
_cell_angle_beta 39.237540
_cell_angle_gamma 90.000000
_cell_volume 2762.711420
_symmetry_space_group_name_H-M "C 2/M"
_symmetry_group_IT_number 12
_symmetry_cell_setting 'monoclinic'
loop_
_space_group_symop_operation_xyz
x,y,z
-x,y,-z
-x,-y,-z
x,-y,z
1/2+x,1/2+y,z
1/2-x,1/2+y,-z
1/2-x,1/2-y,-z
1/2+x,1/2-y,z
loop_
_atom_site_type_symbol
_atom_site_label
_atom_site_fract_x
_atom_site_fract_y
_atom_site_fract_z
Si Si1 0.400114 0.426006 0.639905
Si Si2 0.724187 0.570226 0.551015
Si Si3 0.914558 0.102643 0.196255
Si Si4 0.607374 0.170891 0.814319
Si Si5 0.873474 0.698386 0.389250
Si Si6 0.260400 0.326471 0.001828
Si Si7 0.752344 0.792657 0.189268
Si Si8 0.500000 0.500000 0.000000
O O1 0.500000 0.401840 0.500000
O O2 0.355265 0.500000 0.652451
O O3 0.539560 0.423335 0.624947
O O4 0.237442 0.384921 0.752724
O O5 0.789639 0.500000 0.487269
O O6 0.692603 0.572807 0.666465
O O7 0.831915 0.628507 0.451028
O O8 0.803857 0.159636 0.228521
O O9 0.083097 0.136456 0.128362
O O10 0.962471 0.055035 0.094102
O O11 0.637099 0.194901 0.702873
O O12 0.415038 0.149645 0.927381
O O13 0.647923 0.228035 0.852353
O O14 0.750000 0.750000 0.500000
O O15 0.057177 0.720094 0.303812
O O16 0.284909 0.329819 0.084904
O O17 0.250000 0.250000 0.000000
#
# Coordination Sequence:
#
# PCOD9212200 Si02
#       8
#     8   8   8   8   8   8   8   2
#     4  10  21  41  65  92 129 172 212 258 325 401
#     4  11  24  42  66  96 131 170 218 266 325 393
#     4  12  24  47  68  95 129 174 227 271 328 388
#     4  11  23  39  65  94 126 171 211 266 334 387
#     4  11  24  40  61  97 131 167 210 267 326 393
#     4  11  24  42  64  95 127 167 223 278 324 381
#     4  11  24  41  65  95 130 169 220 271 328 394
#     4  12  24  48  72  90 132 184 224 272 330 386
#
# _framework density 20.993867999999999
#
# number of rings (size 3 to 8) (size 9 to 14) (size 15 to 20)
#    0.000    0.966    4.828    1.655    3.862    1.655 
#    2.483    0.690    0.000    1.655    0.000    0.000 
#    0.000    0.000    0.000    0.000    0.000    0.000 
#
# Total GULP energy -161779.094657 kJ/mol
# GULP energy per Si atom -5578.589471 kJ/mol
# Density = 2.094609 g / cm^3
# Si number density = 20.993868 Si / 1000 Ang^3
#
#
#
# Elastic Constant Matrix: (Units=GPa)
#
#
# Indices 1 2 3 4 5 6 
#
# 1 64.7296 16.4099 16.6406 -0.0003 -6.6308 0.0011
# 2 16.4099 75.2180 12.1783 0.0004 0.5105 0.0009
# 3 16.6406 12.1783 52.1663 0.0047 4.4164 -0.0015
# 4 -0.0003 0.0004 0.0047 29.9104 -0.0003 6.6083
# 5 -6.6308 0.5105 4.4164 -0.0003 22.3947 -0.0007
# 6 0.0011 0.0009 -0.0015 6.6083 -0.0007 15.1232
#
#
#
# Elastic Compliance Matrix: (Units=1/GPa)
#
#
# Indices 1 2 3 4 5 6 
#
# 1 0.018388 -0.003134 -0.005696 0.000002 0.006639 -0.000002
# 2 -0.003134 0.014354 -0.002283 0.000000 -0.000805 -0.000001
# 3 -0.005696 -0.002283 0.022025 -0.000005 -0.005978 0.000004
# 4 0.000002 0.000000 -0.000005 0.037006 0.000001 -0.016170
# 5 0.006639 -0.000805 -0.005978 0.000001 0.047817 0.000001
# 6 -0.000002 -0.000001 0.000004 -0.016170 0.000001 0.073189
#
#
# Mechanical properties :
#
#
# Convention : Reuss Voigt Hill
#
# Bulk Modulus (GPa) = 30.73092 31.39685 31.06388
# Shear Modulus (GPa) = 20.33746 23.27800 21.80773
#
# Velocity S-wave (km/s) = 3.11582 3.33348 3.22649
# Velocity P-wave (km/s) = 5.25493 5.45929 5.35808
#
# Compressibility (1/GPa) = 0.03254052
#
# Stress axis : x y z
#
# Youngs Moduli (GPa) = 54.38356 69.66898 45.40202
#
# Poissons Ratio (x) = 0.21837 0.25861
# Poissons Ratio (y) = 0.17046 0.10365
# Poissons Ratio (z) = 0.30976 0.15904
#
# Static dielectric constant tensor:
#      x y z
#    x 1.889110 0.000000 0.077420 
#    y 0.000000 1.772730 0.000000 
#    z 0.077420 0.000000 1.790410 
# 
# From -- ./inp_files/184445.got.cif
#   From: 2010.05.17/outbox.cif.g08.bks.cpg/sg12_93_cif.got.tgz:184445.got - 2010.06.03 13:09:07.
