data_PCOD9212383
_publ_section_title
;
Structure prediction by ZEFSAII (Michael W. Deem and Ramdas Pophale) SiO2 
 PCOD9212383
Probable space group: C 2/M
;
_chemical_formula_sum "Si O2"
_cell_formula_units_Z 48
_cell_length_a 15.200643
_cell_length_b 13.296203
_cell_length_c 13.237449
_cell_angle_alpha 90.000000
_cell_angle_beta 56.328629
_cell_angle_gamma 90.000000
_cell_volume 2226.578031
_symmetry_space_group_name_H-M "C 2/M"
_symmetry_group_IT_number 12
_symmetry_cell_setting 'monoclinic'
loop_
_space_group_symop_operation_xyz
x,y,z
-x,y,-z
-x,-y,-z
x,-y,z
1/2+x,1/2+y,z
1/2-x,1/2+y,-z
1/2-x,1/2-y,-z
1/2+x,1/2-y,z
loop_
_atom_site_type_symbol
_atom_site_label
_atom_site_fract_x
_atom_site_fract_y
_atom_site_fract_z
Si Si1 0.695382 0.385716 0.638645
Si Si2 0.459795 0.710869 0.138652
Si Si3 0.790326 0.613079 0.228206
Si Si4 0.392090 0.880272 0.632821
Si Si5 0.664557 0.266008 0.144145
Si Si6 0.597050 0.615752 0.503997
O O1 0.719203 0.500000 0.592562
O O2 0.617464 0.379557 0.782755
O O3 0.803809 0.341516 0.609790
O O4 0.631674 0.335675 0.587539
O O5 0.385226 0.810186 0.191506
O O6 0.557339 0.709801 0.153107
O O7 0.500000 0.703730 0.000000
O O8 0.830947 0.500000 0.187209
O O9 0.721721 0.650054 0.176287
O O10 0.703609 0.611340 0.371844
O O11 0.500000 0.872908 0.500000
O O12 0.369246 0.819976 0.751573
O O13 0.376017 0.000000 0.663085
O O14 0.750000 0.250000 0.000000
O O15 0.500000 0.658406 0.500000
O O16 0.561846 0.500000 0.550163
#
# Coordination Sequence:
#
# PCOD9212383 Si02
#       6
#     8   8   8   8   8   8
#     4  10  21  41  68  98 133 171 219 278 340 406
#     4  12  25  44  67  96 135 173 233 284 337 413
#     4  11  25  45  68  99 137 181 227 279 346 411
#     4  10  23  43  69 102 138 179 227 283 350 415
#     4  12  25  46  68  98 139 181 234 289 348 421
#     4   9  19  37  62  96 131 167 216 267 330 408
#
# _framework density 21.557745000000001
#
# number of rings (size 3 to 8) (size 9 to 14) (size 15 to 20)
#    0.000    1.333    3.333    1.000    2.333    6.667 
#    0.000    0.000    0.000    0.000    0.000    0.000 
#    0.000    0.000    0.000    0.000    0.000    0.000 
#
# Total GULP energy -133896.910194 kJ/mol
# GULP energy per Si atom -5579.037925 kJ/mol
# Density = 2.150868 g / cm^3
# Si number density = 21.557745 Si / 1000 Ang^3
#
#
#
# Elastic Constant Matrix: (Units=GPa)
#
#
# Indices 1 2 3 4 5 6 
#
# 1 142.5432 -7.6291 24.5067 0.0000 -11.1964 0.0000
# 2 -7.6291 59.1815 4.1764 0.0000 10.2550 0.0000
# 3 24.5067 4.1764 126.4942 0.0000 -11.7730 0.0000
# 4 0.0000 0.0000 0.0000 19.0505 0.0000 -6.3986
# 5 -11.1964 10.2550 -11.7730 0.0000 28.0070 0.0000
# 6 0.0000 0.0000 0.0000 -6.3986 0.0000 16.4084
#
#
#
# Elastic Compliance Matrix: (Units=1/GPa)
#
#
# Indices 1 2 3 4 5 6 
#
# 1 0.007440 0.000667 -0.001259 0.000000 0.002201 0.000000
# 2 0.000667 0.018297 -0.001386 0.000000 -0.007016 0.000000
# 3 -0.001259 -0.001386 0.008529 0.000000 0.003590 0.000000
# 4 0.000000 0.000000 0.000000 0.060404 0.000000 0.023555
# 5 0.002201 -0.007016 0.003590 0.000000 0.040663 0.000000
# 6 0.000000 0.000000 0.000000 0.023555 0.000000 0.070130
#
#
# Mechanical properties :
#
#
# Convention : Reuss Voigt Hill
#
# Bulk Modulus (GPa) = 32.99282 41.14744 37.07013
# Shear Modulus (GPa) = 22.77669 33.17082 27.97375
#
# Velocity S-wave (km/s) = 3.25398 3.92688 3.60616
# Velocity P-wave (km/s) = 5.42729 6.29992 5.87981
#
# Compressibility (1/GPa) = 0.03030963
#
# Stress axis : x y z
#
# Youngs Moduli (GPa) = 134.40160 54.65496 117.24414
#
# Poissons Ratio (x) = -0.03643 0.14756
# Poissons Ratio (y) = -0.08958 0.16252
# Poissons Ratio (z) = 0.16916 0.07576
#
# Static dielectric constant tensor:
#      x y z
#    x 1.746230 0.000000 0.024160 
#    y 0.000000 1.829060 0.000000 
#    z 0.024160 0.000000 1.818280 
# 
# From -- ./inp_files/143563.got.cif
#   From: 2010.05.17/outbox.cif.g08.bks.cpg/sg12_72_cif.got.tgz:143563.got - 2010.06.03 13:09:07.
