data_PCOD9212015
_publ_section_title
;
Structure prediction by ZEFSAII (Michael W. Deem and Ramdas Pophale) SiO2 
 PCOD9212015
Probable space group: C 2/M
;
_chemical_formula_sum "Si O2"
_cell_formula_units_Z 40
_cell_length_a 7.738088
_cell_length_b 27.574993
_cell_length_c 8.543880
_cell_angle_alpha 90.000000
_cell_angle_beta 56.878299
_cell_angle_gamma 90.000000
_cell_volume 1526.845732
_symmetry_space_group_name_H-M "C 2/M"
_symmetry_group_IT_number 12
_symmetry_cell_setting 'monoclinic'
loop_
_space_group_symop_operation_xyz
x,y,z
-x,y,-z
-x,-y,-z
x,-y,z
1/2+x,1/2+y,z
1/2-x,1/2+y,-z
1/2-x,1/2-y,-z
1/2+x,1/2-y,z
loop_
_atom_site_type_symbol
_atom_site_label
_atom_site_fract_x
_atom_site_fract_y
_atom_site_fract_z
Si Si1 0.896460 0.056716 0.302430
Si Si2 0.592137 0.693029 0.211787
Si Si3 0.679601 0.875361 0.660458
Si Si4 0.176558 0.443371 0.075829
Si Si5 0.324875 0.803776 0.765139
O O1 0.805093 0.090618 0.480427
O O2 0.762392 0.062161 0.211039
O O3 0.888773 0.000000 0.353493
O O4 0.128875 0.068014 0.131449
O O5 0.678612 0.656732 0.297288
O O6 0.614876 0.747280 0.268107
O O7 0.360668 0.685754 0.262998
O O8 0.732531 0.688882 0.986319
O O9 0.524845 0.911013 0.828822
O O10 0.522705 0.837574 0.656711
O O11 0.128211 0.500000 0.079757
#
# Coordination Sequence:
#
# PCOD9212015 Si02
#       5
#     8   8   8   8   8
#     4   9  20  41  74 119 168 212 265 334 402 483
#     4  10  21  40  71 116 158 211 270 333 400 473
#     4  12  21  36  80 126 156 209 272 330 402 481
#     4   9  20  42  76 118 164 211 263 329 407 484
#     4  10  21  41  71 113 162 208 266 334 401 476
#
# _framework density 26.197800999999998
#
# number of rings (size 3 to 8) (size 9 to 14) (size 15 to 20)
#    0.000    2.000    2.000    3.000    0.000    4.800 
#    0.000    0.000    0.000   43.200    0.000   63.000 
#    0.000    8.000    0.000    0.000    0.000    0.000 
#
# Total GULP energy -112443.758273 kJ/mol
# GULP energy per Si atom -5622.187914 kJ/mol
# Density = 2.613817 g / cm^3
# Si number density = 26.197801 Si / 1000 Ang^3
#
#
#
# Elastic Constant Matrix: (Units=GPa)
#
#
# Indices 1 2 3 4 5 6 
#
# 1 245.4728 127.0718 112.4609 0.0000 -11.6312 0.0000
# 2 127.0718 224.5055 156.1647 0.0000 -0.1290 0.0000
# 3 112.4609 156.1647 233.7489 0.0000 8.9105 0.0000
# 4 0.0000 0.0000 0.0000 68.7460 0.0000 -23.1573
# 5 -11.6312 -0.1290 8.9105 0.0000 24.6683 0.0000
# 6 0.0000 0.0000 0.0000 -23.1573 0.0000 95.5206
#
#
#
# Elastic Compliance Matrix: (Units=1/GPa)
#
#
# Indices 1 2 3 4 5 6 
#
# 1 0.006189 -0.002502 -0.001437 0.000000 0.003424 0.000000
# 2 -0.002502 0.009439 -0.005130 0.000000 0.000723 0.000000
# 3 -0.001437 -0.005130 0.008541 0.000000 -0.003790 0.000000
# 4 0.000000 0.000000 0.000000 0.015840 0.000000 0.003840
# 5 0.003424 0.000723 -0.003790 0.000000 0.043525 0.000000
# 6 0.000000 0.000000 0.000000 0.003840 0.000000 0.011400
#
#
# Mechanical properties :
#
#
# Convention : Reuss Voigt Hill
#
# Bulk Modulus (GPa) = 165.77770 166.12466 165.95118
# Shear Modulus (GPa) = 43.44695 58.32231 50.88463
#
# Velocity S-wave (km/s) = 4.07679 4.72341 4.41196
# Velocity P-wave (km/s) = 9.25078 9.65903 9.45711
#
# Compressibility (1/GPa) = 0.00603217
#
# Stress axis : x y z
#
# Youngs Moduli (GPa) = 161.56607 105.94255 117.07859
#
# Poissons Ratio (x) = 0.26504 0.16824
# Poissons Ratio (y) = 0.40419 0.60062
# Poissons Ratio (z) = 0.23217 0.54349
#
# Static dielectric constant tensor:
#      x y z
#    x 2.056100 0.000000 0.050050 
#    y 0.000000 2.024280 0.000000 
#    z 0.050050 0.000000 2.030550 
# 
# From -- ./inp_files/209580.got.cif
#   From: 2010.05.17/outbox.cif.g08.bks.cpg/sg12_105_cif.got.tgz:209580.got - 2010.06.03 13:09:07.
