data_PCOD9212809
_publ_section_title
;
Structure prediction by ZEFSAII (Michael W. Deem and Ramdas Pophale) SiO2 
 PCOD9212809
Probable space group: C 2/M
;
_chemical_formula_sum "Si O2"
_cell_formula_units_Z 44
_cell_length_a 15.286658
_cell_length_b 7.861450
_cell_length_c 14.628508
_cell_angle_alpha 90.000000
_cell_angle_beta 94.072348
_cell_angle_gamma 90.000000
_cell_volume 1753.546692
_symmetry_space_group_name_H-M "C 2/M"
_symmetry_group_IT_number 12
_symmetry_cell_setting 'monoclinic'
loop_
_space_group_symop_operation_xyz
x,y,z
-x,y,-z
-x,-y,-z
x,-y,z
1/2+x,1/2+y,z
1/2-x,1/2+y,-z
1/2-x,1/2-y,-z
1/2+x,1/2-y,z
loop_
_atom_site_type_symbol
_atom_site_label
_atom_site_fract_x
_atom_site_fract_y
_atom_site_fract_z
Si Si1 0.706912 0.500000 0.423762
Si Si2 0.780280 0.795690 0.900412
Si Si3 0.903484 0.683821 0.540233
Si Si4 0.177050 0.312062 0.713844
Si Si5 0.025089 0.694098 0.099757
Si Si6 0.502254 0.685370 0.295744
O O1 0.656535 0.346413 0.477222
O O2 0.749126 0.352634 0.354890
O O3 0.715566 0.750144 0.812823
O O4 0.870639 0.701269 0.889155
O O5 0.793635 0.000000 0.895188
O O6 0.750000 0.750000 0.000000
O O7 0.859507 0.500000 0.510920
O O8 0.000000 0.692729 0.500000
O O9 0.933602 0.686565 0.648667
O O10 0.135795 0.500000 0.728709
O O11 0.096107 0.201104 0.674935
O O12 0.991768 0.500000 0.098697
O O13 0.994248 0.788536 0.187534
O O14 0.000000 0.771322 0.000000
O O15 0.541742 0.500000 0.318789
#
# Coordination Sequence:
#
# PCOD9212809 Si02
#       6
#     4   8   8   8   8   8
#     4  10  21  44  72  96 135 176 219 284 332 404
#     4  11  22  37  58  85 125 171 221 279 338 398
#     4  11  24  44  76 105 136 178 229 278 346 417
#     4   9  22  40  60  89 133 169 220 277 335 393
#     4  11  24  40  61  91 128 175 231 283 334 400
#     4  12  24  40  68  98 136 180 224 285 345 403
#
# _framework density 25.092002999999998
#
# number of rings (size 3 to 8) (size 9 to 14) (size 15 to 20)
#    0.545    0.727    0.909    5.182    0.000    8.000 
#    0.000    0.909    0.000    0.000    0.000    0.000 
#    0.000    0.000    0.000    0.000    0.000    0.000 
#
# Total GULP energy -122630.127061 kJ/mol
# GULP energy per Si atom -5574.096685 kJ/mol
# Density = 2.503489 g / cm^3
# Si number density = 25.092003 Si / 1000 Ang^3
#
#
#
# Elastic Constant Matrix: (Units=GPa)
#
#
# Indices 1 2 3 4 5 6 
#
# 1 39.7609 10.8467 24.9624 0.0000 -23.5823 0.0000
# 2 10.8467 114.1188 18.7193 0.0000 -7.8054 0.0000
# 3 24.9624 18.7193 147.9744 0.0000 1.5077 0.0000
# 4 0.0000 0.0000 0.0000 13.4495 0.0000 -5.7816
# 5 -23.5823 -7.8054 1.5077 0.0000 55.6847 0.0000
# 6 0.0000 0.0000 0.0000 -5.7816 0.0000 36.4374
#
#
#
# Elastic Compliance Matrix: (Units=1/GPa)
#
#
# Indices 1 2 3 4 5 6 
#
# 1 0.039716 -0.001532 -0.006677 0.000000 0.016786 0.000000
# 2 -0.001532 0.009100 -0.000900 0.000000 0.000651 0.000000
# 3 -0.006677 -0.000900 0.008030 0.000000 -0.003171 0.000000
# 4 0.000000 0.000000 0.000000 0.079795 0.000000 0.012661
# 5 0.016786 0.000651 -0.003171 0.000000 0.025244 0.000000
# 6 0.000000 0.000000 0.000000 0.012661 0.000000 0.029453
#
#
# Mechanical properties :
#
#
# Convention : Reuss Voigt Hill
#
# Bulk Modulus (GPa) = 25.88639 45.65677 35.77158
# Shear Modulus (GPa) = 22.47881 37.60270 30.04075
#
# Velocity S-wave (km/s) = 2.99633 3.87537 3.46385
# Velocity P-wave (km/s) = 4.72331 6.18546 5.50316
#
# Compressibility (1/GPa) = 0.03863034
#
# Stress axis : x y z
#
# Youngs Moduli (GPa) = 25.17893 109.88441 124.52646
#
# Poissons Ratio (x) = 0.16829 0.83148
# Poissons Ratio (y) = 0.03856 0.11201
# Poissons Ratio (z) = 0.16812 0.09884
#
# Static dielectric constant tensor:
#      x y z
#    x 2.275780 0.000000 0.089890 
#    y 0.000000 1.825000 0.000000 
#    z 0.089890 0.000000 2.068440 
# 
# From -- ./inp_files/220978.got.cif
#   From: 2010.05.17/outbox.cif.g08.bks.cpg/sg12_111_cif.got.tgz:220978.got - 2010.06.03 13:09:07.
