data_PCOD9212614
_publ_section_title
;
Structure prediction by ZEFSAII (Michael W. Deem and Ramdas Pophale) SiO2 
 PCOD9212614
Probable space group: C 2/M
;
_chemical_formula_sum "Si O2"
_cell_formula_units_Z 48
_cell_length_a 12.511823
_cell_length_b 30.297465
_cell_length_c 14.255335
_cell_angle_alpha 90.000000
_cell_angle_beta 152.162784
_cell_angle_gamma 90.000000
_cell_volume 2523.393782
_symmetry_space_group_name_H-M "C 2/M"
_symmetry_group_IT_number 12
_symmetry_cell_setting 'monoclinic'
loop_
_space_group_symop_operation_xyz
x,y,z
-x,y,-z
-x,-y,-z
x,-y,z
1/2+x,1/2+y,z
1/2-x,1/2+y,-z
1/2-x,1/2-y,-z
1/2+x,1/2-y,z
loop_
_atom_site_type_symbol
_atom_site_label
_atom_site_fract_x
_atom_site_fract_y
_atom_site_fract_z
Si Si1 0.319579 0.925816 0.439166
Si Si2 0.496579 0.500000 0.887207
Si Si3 0.500000 0.417770 0.500000
Si Si4 0.122271 0.143261 0.420040
Si Si5 0.488181 0.000000 0.713320
Si Si6 0.291910 0.000000 0.767166
Si Si7 0.466665 0.780537 0.695814
Si Si8 0.695174 0.211816 0.077550
O O1 0.500000 0.910587 0.500000
O O2 0.164543 0.889134 0.366849
O O3 0.440932 0.956754 0.612695
O O4 0.144308 0.958302 0.253980
O O5 0.500000 0.500000 0.000000
O O6 0.753033 0.500000 0.050533
O O7 0.396565 0.385451 0.499156
O O8 0.662431 0.453174 0.679557
O O9 0.355823 0.171748 0.599157
O O10 0.897143 0.174638 0.233584
O O11 0.341010 0.000000 0.693407
O O12 0.500000 0.000000 0.000000
O O13 0.250000 0.750000 0.500000
O O14 0.674075 0.758175 0.798754
O O15 0.564194 0.780721 0.877476
O O16 0.500000 0.200281 0.000000
#
# Coordination Sequence:
#
# PCOD9212614 Si02
#       8
#     8   4   4   8   4   4   8   8
#     4  11  23  41  61  91 126 168 216 265 319 373
#     4  11  21  38  65  85 111 173 224 254 307 375
#     4  11  24  42  60  90 130 168 214 270 318 369
#     4  11  23  40  63  94 130 163 209 267 320 376
#     4  11  21  42  63  82 126 169 219 266 316 382
#     4  11  26  39  60  93 125 178 219 262 326 374
#     4   9  21  42  63  91 124 162 204 250 315 378
#     4  10  21  42  69  94 122 166 212 249 313 396
#
# _framework density 19.022000999999999
#
# number of rings (size 3 to 8) (size 9 to 14) (size 15 to 20)
#    0.000    1.500    3.333    1.500    2.333    5.333 
#    9.000    0.000    0.000    0.000    0.000    0.000 
#    0.000    0.000    0.000    0.000    0.000    0.000 
#
# Total GULP energy -133637.179511 kJ/mol
# GULP energy per Si atom -5568.215813 kJ/mol
# Density = 1.897871 g / cm^3
# Si number density = 19.022001 Si / 1000 Ang^3
#
#
#
# Elastic Constant Matrix: (Units=GPa)
#
#
# Indices 1 2 3 4 5 6 
#
# 1 92.1096 53.8781 20.9812 -0.0001 14.8858 0.0000
# 2 53.8781 112.0757 40.7738 0.0000 4.5404 0.0000
# 3 20.9812 40.7738 110.7213 0.0000 -0.8125 0.0000
# 4 -0.0001 0.0000 0.0000 -210.5845 -0.0001 50.2428
# 5 14.8858 4.5404 -0.8125 -0.0001 32.8953 0.0000
# 6 0.0000 0.0000 0.0000 50.2428 0.0000 21.9048
#
#
#
# Elastic Compliance Matrix: (Units=1/GPa)
#
#
# Indices 1 2 3 4 5 6 
#
# 1 0.016335 -0.007449 -0.000399 0.000000 -0.006374 0.000000
# 2 -0.007449 0.013776 -0.003651 0.000000 0.001379 0.000000
# 3 -0.000399 -0.003651 0.010459 0.000000 0.000943 0.000000
# 4 0.000000 0.000000 0.000000 -0.003069 0.000000 0.007040
# 5 -0.006374 0.001379 0.000943 0.000000 0.033117 0.000000
# 6 0.000000 0.000000 0.000000 0.007040 0.000000 0.029505
#
#
# Mechanical properties :
#
#
# Convention : Reuss Voigt Hill
#
# Bulk Modulus (GPa) = 56.91323 60.68588 58.79955
# Shear Modulus (GPa) = 38.76601 -17.87198 10.44701
#
# Velocity S-wave (km/s) = 4.51927 -3.06852 2.34606
# Velocity P-wave (km/s) = 7.56415 4.40657 6.19008
#
# Compressibility (1/GPa) = 0.01757061
#
# Stress axis : x y z
#
# Youngs Moduli (GPa) = 61.21858 72.58894 95.61276
#
# Poissons Ratio (x) = 0.54074 0.03814
# Poissons Ratio (y) = 0.45604 0.34912
# Poissons Ratio (z) = 0.02442 0.26505
#
# Static dielectric constant tensor:
#      x y z
#    x 1.738580 0.000000 0.034300 
#    y 0.000000 2.503790 0.000000 
#    z 0.034300 0.000000 1.740880 
# 
# From -- ./inp_files/209950.got.cif
#   From: 2010.05.17/outbox.cif.g08.bks.cpg/sg12_105_cif.got.tgz:209950.got - 2010.06.03 13:09:07.
