data_PCOD9212749
_publ_section_title
;
Structure prediction by ZEFSAII (Michael W. Deem and Ramdas Pophale) SiO2 
 PCOD9212749
Probable space group: C 2/M
;
_chemical_formula_sum "Si O2"
_cell_formula_units_Z 40
_cell_length_a 9.863750
_cell_length_b 24.444659
_cell_length_c 17.824839
_cell_angle_alpha 90.000000
_cell_angle_beta 27.640792
_cell_angle_gamma 90.000000
_cell_volume 1993.889875
_symmetry_space_group_name_H-M "C 2/M"
_symmetry_group_IT_number 12
_symmetry_cell_setting 'monoclinic'
loop_
_space_group_symop_operation_xyz
x,y,z
-x,y,-z
-x,-y,-z
x,-y,z
1/2+x,1/2+y,z
1/2-x,1/2+y,-z
1/2-x,1/2-y,-z
1/2+x,1/2-y,z
loop_
_atom_site_type_symbol
_atom_site_label
_atom_site_fract_x
_atom_site_fract_y
_atom_site_fract_z
Si Si1 0.707250 0.305658 0.563442
Si Si2 0.320343 0.647315 0.278095
Si Si3 0.203883 0.802216 0.968253
Si Si4 0.274971 0.369886 0.679192
Si Si5 0.196245 0.935730 0.190509
O O1 0.750000 0.250000 0.500000
O O2 0.660147 0.300276 0.675287
O O3 0.421822 0.329164 0.666385
O O4 0.981057 0.347712 0.420734
O O5 0.442325 0.598452 0.271030
O O6 0.523718 0.654989 0.107872
O O7 0.479777 0.837570 0.803119
O O8 0.250000 0.750000 0.000000
O O9 0.000000 0.784142 0.000000
O O10 0.500000 0.377827 0.500000
O O11 0.255783 0.421962 0.744534
O O12 0.139871 0.000000 0.209377
O O13 0.500000 0.921210 0.000000
#
# Coordination Sequence:
#
# PCOD9212749 Si02
#       5
#     8   8   8   8   8
#     4  10  22  37  60  92 135 178 211 268 335 399
#     4  10  22  40  61  94 132 172 230 267 326 410
#     4  12  27  40  63  95 138 180 225 271 329 409
#     4  11  24  40  64  96 134 173 222 281 340 399
#     4  10  21  43  72  97 130 179 231 290 342 395
#
# _framework density 20.061288000000001
#
# number of rings (size 3 to 8) (size 9 to 14) (size 15 to 20)
#    0.000    1.400    2.000    2.400   14.000    0.400 
#    0.000    8.000    0.000    4.800    0.000    0.000 
#    0.000    0.000    0.000    0.000    0.000    0.000 
#
# Total GULP energy -111425.886926 kJ/mol
# GULP energy per Si atom -5571.294346 kJ/mol
# Density = 2.001563 g / cm^3
# Si number density = 20.061288 Si / 1000 Ang^3
#
#
#
# Elastic Constant Matrix: (Units=GPa)
#
#
# Indices 1 2 3 4 5 6 
#
# 1 104.7858 19.3506 35.6767 -0.0042 -3.6430 0.0064
# 2 19.3506 63.1341 24.5965 0.0093 -11.7890 0.0049
# 3 35.6767 24.5965 123.4988 -0.1315 8.0562 0.0683
# 4 -0.0042 0.0093 -0.1315 20.2068 -0.0101 1.9541
# 5 -3.6430 -11.7890 8.0562 -0.0101 44.9037 0.0034
# 6 0.0064 0.0049 0.0683 1.9541 0.0034 27.8905
#
#
#
# Elastic Compliance Matrix: (Units=1/GPa)
#
#
# Indices 1 2 3 4 5 6 
#
# 1 0.010909 -0.002102 -0.002787 -0.000015 0.000833 0.000006
# 2 -0.002102 0.018858 -0.003501 -0.000030 0.005408 0.000007
# 3 -0.002787 -0.003501 0.009789 0.000066 -0.002902 -0.000027
# 4 -0.000015 -0.000030 0.000066 0.049826 -0.000009 -0.003491
# 5 0.000833 0.005408 -0.002902 -0.000009 0.024278 0.000004
# 6 0.000006 0.000007 -0.000027 -0.003491 0.000004 0.036099
#
#
# Mechanical properties :
#
#
# Convention : Reuss Voigt Hill
#
# Bulk Modulus (GPa) = 43.90852 50.07402 46.99127
# Shear Modulus (GPa) = 28.71370 32.71985 30.71678
#
# Velocity S-wave (km/s) = 3.78736 4.04294 3.91723
# Velocity P-wave (km/s) = 6.40782 6.84167 6.62830
#
# Compressibility (1/GPa) = 0.02277462
#
# Stress axis : x y z
#
# Youngs Moduli (GPa) = 91.66369 53.02886 102.15415
#
# Poissons Ratio (x) = 0.11148 0.28473
# Poissons Ratio (y) = 0.19270 0.35767
# Poissons Ratio (z) = 0.25549 0.18567
#
# Static dielectric constant tensor:
#      x y z
#    x 1.993280 0.000320 0.101240 
#    y 0.000320 1.830710 0.000100 
#    z 0.101240 0.000100 1.830680 
# 
# From -- ./inp_files/79934.got.cif
#   From: 2010.05.17/outbox.cif.g08.bks.cpg/sg12_40_cif.got.tgz:79934.got - 2010.06.03 13:09:07.
