data_PCOD9212011
_publ_section_title
;
Structure prediction by ZEFSAII (Michael W. Deem and Ramdas Pophale) SiO2 
 PCOD9212011
Probable space group: C 2/M
;
_chemical_formula_sum "Si O2"
_cell_formula_units_Z 56
_cell_length_a 10.201837
_cell_length_b 29.335658
_cell_length_c 8.716548
_cell_angle_alpha 90.000000
_cell_angle_beta 115.505597
_cell_angle_gamma 90.000000
_cell_volume 2354.435247
_symmetry_space_group_name_H-M "C 2/M"
_symmetry_group_IT_number 12
_symmetry_cell_setting 'monoclinic'
loop_
_space_group_symop_operation_xyz
x,y,z
-x,y,-z
-x,-y,-z
x,-y,z
1/2+x,1/2+y,z
1/2-x,1/2+y,-z
1/2-x,1/2-y,-z
1/2+x,1/2-y,z
loop_
_atom_site_type_symbol
_atom_site_label
_atom_site_fract_x
_atom_site_fract_y
_atom_site_fract_z
Si Si1 0.680362 0.947773 0.157863
Si Si2 0.262652 0.277469 0.163823
Si Si3 0.835023 0.139251 0.714747
Si Si4 0.078346 0.612062 0.387747
Si Si5 0.015019 0.049096 0.325168
Si Si6 0.591460 0.737985 0.338942
Si Si7 0.825327 0.635121 0.056006
O O1 0.652092 0.923723 0.308230
O O2 0.848428 0.951098 0.195991
O O3 0.628777 0.000000 0.140197
O O4 0.633613 0.913087 0.000425
O O5 0.421258 0.259604 0.310275
O O6 0.126463 0.264919 0.201246
O O7 0.250000 0.250000 0.000000
O O8 0.233891 0.330267 0.102201
O O9 0.696571 0.142463 0.531964
O O10 0.916091 0.185054 0.715518
O O11 0.795197 0.135247 0.872318
O O12 0.909409 0.092429 0.705962
O O13 0.000000 0.590254 0.500000
O O14 0.969476 0.643046 0.232198
O O15 0.000000 0.053127 0.500000
O O16 0.084569 0.000000 0.323227
O O17 0.750000 0.750000 0.500000
#
# Coordination Sequence:
#
# PCOD9212011 Si02
#       7
#     8   8   8   8   8   8   8
#     4  11  24  43  69 103 140 182 241 300 364 434
#     4  12  27  49  75 107 147 192 242 305 368 435
#     4  11  24  46  71 101 144 185 242 291 362 436
#     4  10  24  43  69  99 138 192 232 296 353 440
#     4  10  21  40  71 103 136 182 236 299 363 435
#     4  12  29  47  76 109 146 191 247 303 365 439
#     4  11  26  45  70 101 146 187 237 294 373 427
#
# _framework density 23.784894999999999
#
# number of rings (size 3 to 8) (size 9 to 14) (size 15 to 20)
#    0.000    1.000    2.857    2.143    4.000    7.143 
#    0.000    4.286    0.000    0.000    0.000    0.000 
#    0.000    0.000    0.000    0.000    0.000    0.000 
#
# Total GULP energy -156074.926627 kJ/mol
# GULP energy per Si atom -5574.104522 kJ/mol
# Density = 2.373076 g / cm^3
# Si number density = 23.784895 Si / 1000 Ang^3
#
#
#
# Elastic Constant Matrix: (Units=GPa)
#
#
# Indices 1 2 3 4 5 6 
#
# 1 79.3264 22.4082 2.5673 0.0000 14.6244 0.0000
# 2 22.4082 111.4639 3.4548 0.0000 -4.3034 0.0000
# 3 2.5673 3.4548 62.1739 0.0000 23.7645 0.0000
# 4 0.0000 0.0000 0.0000 26.8044 0.0000 -7.4115
# 5 14.6244 -4.3034 23.7645 0.0000 21.1279 0.0000
# 6 0.0000 0.0000 0.0000 -7.4115 0.0000 18.6397
#
#
#
# Elastic Compliance Matrix: (Units=1/GPa)
#
#
# Indices 1 2 3 4 5 6 
#
# 1 0.017788 -0.004688 0.008064 0.000000 -0.022338 0.000000
# 2 -0.004688 0.010440 -0.004280 0.000000 0.010185 0.000000
# 3 0.008064 -0.004280 0.032374 0.000000 -0.042867 0.000000
# 4 0.000000 0.000000 0.000000 0.041916 0.000000 0.016666
# 5 -0.022338 0.010185 -0.042867 0.000000 0.113084 0.000000
# 6 0.000000 0.000000 0.000000 0.016666 0.000000 0.060276
#
#
# Mechanical properties :
#
#
# Convention : Reuss Voigt Hill
#
# Bulk Modulus (GPa) = 17.00862 34.42497 25.71679
# Shear Modulus (GPa) = 16.81901 28.28333 22.55117
#
# Velocity S-wave (km/s) = 2.66208 3.45212 3.08251
# Velocity P-wave (km/s) = 4.07620 5.51311 4.84818
#
# Compressibility (1/GPa) = 0.05879373
#
# Stress axis : x y z
#
# Youngs Moduli (GPa) = 56.21886 95.78628 30.88915
#
# Poissons Ratio (x) = 0.44907 -0.24909
# Poissons Ratio (y) = 0.26357 0.13219
# Poissons Ratio (z) = -0.45335 0.40993
#
# Static dielectric constant tensor:
#      x y z
#    x 2.060740 0.000000 0.161380 
#    y 0.000000 1.946610 0.000000 
#    z 0.161380 0.000000 2.068750 
# 
# From -- ./inp_files/53300.got.cif
#   From: 2010.05.17/outbox.cif.g08.bks.cpg/sg12_27_cif.got.tgz:53300.got - 2010.06.03 13:09:07.
