data_PCOD9212936
_publ_section_title
;
Structure prediction by ZEFSAII (Michael W. Deem and Ramdas Pophale) SiO2 
 PCOD9212936
Probable space group: C 2/M
;
_chemical_formula_sum "Si O2"
_cell_formula_units_Z 48
_cell_length_a 14.858536
_cell_length_b 10.927241
_cell_length_c 24.068910
_cell_angle_alpha 90.000000
_cell_angle_beta 141.673577
_cell_angle_gamma 90.000000
_cell_volume 2423.445885
_symmetry_space_group_name_H-M "C 2/M"
_symmetry_group_IT_number 12
_symmetry_cell_setting 'monoclinic'
loop_
_space_group_symop_operation_xyz
x,y,z
-x,y,-z
-x,-y,-z
x,-y,z
1/2+x,1/2+y,z
1/2-x,1/2+y,-z
1/2-x,1/2-y,-z
1/2+x,1/2-y,z
loop_
_atom_site_type_symbol
_atom_site_label
_atom_site_fract_x
_atom_site_fract_y
_atom_site_fract_z
Si Si1 0.905808 0.500000 0.899024
Si Si2 0.905665 0.500000 0.398898
Si Si3 0.910886 0.000000 0.806014
Si Si4 0.623615 0.223991 0.193408
Si Si5 0.367477 0.360086 0.479391
Si Si6 0.422897 0.755387 0.700971
Si Si7 0.923901 0.000000 0.216722
Si Si8 0.954956 0.731950 0.348729
O O1 0.935982 0.621561 0.876894
O O2 0.737229 0.500000 0.837246
O O3 0.000000 0.500000 0.000000
O O4 0.728415 0.500000 0.304785
O O5 0.000000 0.500000 0.500000
O O6 0.952564 0.620540 0.389687
O O7 0.900692 0.869006 0.831781
O O8 0.058805 0.000000 0.841957
O O9 0.567761 0.208498 0.229895
O O10 0.797486 0.206561 0.276208
O O11 0.500000 0.354469 0.500000
O O12 0.312865 0.500000 0.452991
O O13 0.243357 0.270760 0.397106
O O14 0.424749 0.322683 0.567767
O O15 0.489474 0.621090 0.724855
O O16 0.512260 0.822905 0.696045
#
# Coordination Sequence:
#
# PCOD9212936 Si02
#       8
#     4   4   4   8   8   8   4   8
#     4  12  26  47  77 106 131 161 215 286 368 434
#     4  10  22  35  57  87 129 177 242 277 303 360
#     4   8  20  42  64  92 136 184 220 262 324 395
#     4  10  22  42  68  97 133 177 218 277 342 403
#     4  11  24  37  54  90 139 182 234 274 319 364
#     4  11  23  40  63  91 129 183 223 264 325 394
#     4  10  22  42  71  92 124 171 219 269 338 410
#     4  11  22  37  59  88 131 180 226 275 313 378
#
# _framework density 19.806508000000001
#
# number of rings (size 3 to 8) (size 9 to 14) (size 15 to 20)
#    0.000    1.500    3.333    1.000    9.333    0.000 
#    0.000    4.167    0.000    0.000    0.000    0.000 
#    0.000    0.000    0.000    0.000    0.000    0.000 
#
# Total GULP energy -133825.237698 kJ/mol
# GULP energy per Si atom -5576.051571 kJ/mol
# Density = 1.976143 g / cm^3
# Si number density = 19.806508 Si / 1000 Ang^3
#
#
#
# Elastic Constant Matrix: (Units=GPa)
#
#
# Indices 1 2 3 4 5 6 
#
# 1 112.3461 32.4617 38.9100 0.0000 -20.5193 0.0000
# 2 32.4617 100.0331 62.1280 0.0000 -12.3426 0.0000
# 3 38.9100 62.1280 80.5472 0.0000 -32.2199 0.0000
# 4 0.0000 0.0000 0.0000 13.8989 0.0000 -10.0355
# 5 -20.5193 -12.3426 -32.2199 0.0000 23.6217 0.0000
# 6 0.0000 0.0000 0.0000 -10.0355 0.0000 16.4158
#
#
#
# Elastic Compliance Matrix: (Units=1/GPa)
#
#
# Indices 1 2 3 4 5 6 
#
# 1 0.011178 -0.002449 -0.000305 0.000000 0.008015 0.000000
# 2 -0.002449 0.027180 -0.032905 0.000000 -0.032808 0.000000
# 3 -0.000305 -0.032905 0.068135 0.000000 0.075478 0.000000
# 4 0.000000 0.000000 0.000000 0.128801 0.000000 0.078740
# 5 0.008015 -0.032808 0.075478 0.000000 0.135106 0.000000
# 6 0.000000 0.000000 0.000000 0.078740 0.000000 0.109053
#
#
# Mechanical properties :
#
#
# Convention : Reuss Voigt Hill
#
# Bulk Modulus (GPa) = 28.42929 62.21397 45.32163
# Shear Modulus (GPa) = 8.88896 21.41572 15.15234
#
# Velocity S-wave (km/s) = 2.12076 3.29180 2.76890
# Velocity P-wave (km/s) = 4.51459 6.77694 5.75797
#
# Compressibility (1/GPa) = 0.03517499
#
# Stress axis : x y z
#
# Youngs Moduli (GPa) = 89.46038 36.79172 14.67676
#
# Poissons Ratio (x) = 0.09012 0.00447
# Poissons Ratio (y) = 0.21912 0.48294
# Poissons Ratio (z) = 0.02724 1.21064
#
# Static dielectric constant tensor:
#      x y z
#    x 1.786770 0.000000 -0.021170 
#    y 0.000000 1.869670 0.000000 
#    z -0.021170 0.000000 1.681420 
# 
# From -- ./inp_files/310327.got.cif
#   From: 2010.05.17/outbox.cif.g08.bks.cpg/sg12_156_cif.got.tgz:310327.got - 2010.06.03 13:09:07.
