data_PCOD9212041
_publ_section_title
;
Structure prediction by ZEFSAII (Michael W. Deem and Ramdas Pophale) SiO2 
 PCOD9212041
Probable space group: C 2/M
;
_chemical_formula_sum "Si O2"
_cell_formula_units_Z 44
_cell_length_a 8.734595
_cell_length_b 18.073977
_cell_length_c 20.002281
_cell_angle_alpha 90.000000
_cell_angle_beta 47.122765
_cell_angle_gamma 90.000000
_cell_volume 2314.032049
_symmetry_space_group_name_H-M "C 2/M"
_symmetry_group_IT_number 12
_symmetry_cell_setting 'monoclinic'
loop_
_space_group_symop_operation_xyz
x,y,z
-x,y,-z
-x,-y,-z
x,-y,z
1/2+x,1/2+y,z
1/2-x,1/2+y,-z
1/2-x,1/2-y,-z
1/2+x,1/2-y,z
loop_
_atom_site_type_symbol
_atom_site_label
_atom_site_fract_x
_atom_site_fract_y
_atom_site_fract_z
Si Si1 0.070286 0.500000 0.151472
Si Si2 0.352475 0.000000 0.721781
Si Si3 0.500000 0.125825 0.500000
Si Si4 0.922522 0.000000 0.676468
Si Si5 0.221530 0.500000 0.522054
Si Si6 0.643874 0.371859 0.696478
Si Si7 0.141684 0.346201 0.059906
Si Si8 0.712100 0.705629 0.120497
O O1 0.183048 0.500000 0.189269
O O2 0.123967 0.427670 0.093364
O O3 0.824283 0.500000 0.242441
O O4 0.599118 0.000000 0.628364
O O5 0.251455 0.072317 0.717414
O O6 0.626293 0.071032 0.511676
O O7 0.673997 0.164747 0.402903
O O8 0.009922 0.927601 0.689448
O O9 0.034471 0.000000 0.570163
O O10 0.493635 0.314562 0.777407
O O11 0.220771 0.289989 0.093165
O O12 0.914125 0.316969 0.103398
O O13 0.279045 0.339885 0.951925
#
# Coordination Sequence:
#
# PCOD9212041 Si02
#       8
#     4   4   4   4   4   8   8   8
#     4  12  22  36  52  92 116 140 185 247 266 320
#     4   9  20  29  50  84 121 144 187 229 280 322
#     4   7  12  24  52  80 104 135 198 224 260 327
#     4   9  16  29  55  79 110 145 192 227 281 323
#     4   7  12  27  44  75 111 150 178 225 272 336
#     4   9  16  33  56  81 106 154 186 227 272 339
#     4  10  24  39  60  83 113 147 188 230 276 338
#     4  10  21  41  61  78 110 152 187 221 289 335
#
# _framework density 19.014429
#
# number of rings (size 3 to 8) (size 9 to 14) (size 15 to 20)
#    0.000    2.727    1.818    2.182    2.545    3.273 
#    0.000    0.909    0.000    3.273    0.000    0.000 
#    0.000    0.000    0.000    0.000    0.000    0.000 
#
# Total GULP energy -122618.088901 kJ/mol
# GULP energy per Si atom -5573.549496 kJ/mol
# Density = 1.897115 g / cm^3
# Si number density = 19.014429 Si / 1000 Ang^3
#
#
#
# Elastic Constant Matrix: (Units=GPa)
#
#
# Indices 1 2 3 4 5 6 
#
# 1 35.8162 18.7504 13.9842 -0.0002 10.0398 0.0000
# 2 18.7504 73.9386 40.2000 0.0001 16.9843 0.0000
# 3 13.9842 40.2000 128.1489 -0.0003 -12.3323 0.0004
# 4 -0.0002 0.0001 -0.0003 21.7566 0.0002 -1.8667
# 5 10.0398 16.9843 -12.3323 0.0002 23.5885 -0.0002
# 6 0.0000 0.0000 0.0004 -1.8667 -0.0002 3.9528
#
#
#
# Elastic Compliance Matrix: (Units=1/GPa)
#
#
# Indices 1 2 3 4 5 6 
#
# 1 0.035505 -0.003189 -0.004325 0.000000 -0.015076 0.000000
# 2 -0.003189 0.024143 -0.009232 0.000000 -0.020853 0.000000
# 3 -0.004325 -0.009232 0.012624 0.000000 0.015088 -0.000001
# 4 0.000000 0.000000 0.000000 0.047904 0.000000 0.022623
# 5 -0.015076 -0.020853 0.015088 0.000000 0.071714 0.000001
# 6 0.000000 0.000000 -0.000001 0.022623 0.000001 0.263671
#
#
# Mechanical properties :
#
#
# Convention : Reuss Voigt Hill
#
# Bulk Modulus (GPa) = 25.78749 42.64143 34.21446
# Shear Modulus (GPa) = 9.96056 20.85751 15.40903
#
# Velocity S-wave (km/s) = 2.29124 3.31559 2.84982
# Velocity P-wave (km/s) = 4.53776 6.09360 5.37230
#
# Compressibility (1/GPa) = 0.03877849
#
# Stress axis : x y z
#
# Youngs Moduli (GPa) = 28.16525 41.41945 79.21698
#
# Poissons Ratio (x) = 0.13210 0.34260
# Poissons Ratio (y) = 0.08983 0.73137
# Poissons Ratio (z) = 0.12181 0.38240
#
# Static dielectric constant tensor:
#      x y z
#    x 1.688720 0.000000 -0.015170 
#    y 0.000000 1.612840 0.000000 
#    z -0.015170 0.000000 1.691080 
# 
# From -- ./inp_files/256923.got.cif
#   From: 2010.05.17/outbox.cif.g08.bks.cpg/sg12_129_cif.got.tgz:256923.got - 2010.06.03 13:09:07.
