data_PCOD9212016
_publ_section_title
;
Structure prediction by ZEFSAII (Michael W. Deem and Ramdas Pophale) SiO2 
 PCOD9212016
Probable space group: C 2/M
;
_chemical_formula_sum "Si O2"
_cell_formula_units_Z 56
_cell_length_a 17.863898
_cell_length_b 29.482676
_cell_length_c 6.427686
_cell_angle_alpha 90.000000
_cell_angle_beta 128.252128
_cell_angle_gamma 90.000000
_cell_volume 2658.459370
_symmetry_space_group_name_H-M "C 2/M"
_symmetry_group_IT_number 12
_symmetry_cell_setting 'monoclinic'
loop_
_space_group_symop_operation_xyz
x,y,z
-x,y,-z
-x,-y,-z
x,-y,z
1/2+x,1/2+y,z
1/2-x,1/2+y,-z
1/2-x,1/2-y,-z
1/2+x,1/2-y,z
loop_
_atom_site_type_symbol
_atom_site_label
_atom_site_fract_x
_atom_site_fract_y
_atom_site_fract_z
Si Si1 0.397600 0.861354 0.737218
Si Si2 0.363587 0.697363 0.209717
Si Si3 0.310606 0.447833 0.115748
Si Si4 0.899226 0.448887 0.448536
Si Si5 0.912385 0.875554 0.999130
Si Si6 0.712540 0.377829 0.608160
Si Si7 0.303229 0.227406 0.390566
O O1 0.399169 0.907027 0.605152
O O2 0.325051 0.871711 0.798325
O O3 0.358507 0.817536 0.551550
O O4 0.500000 0.850832 0.000000
O O5 0.327418 0.657995 0.298980
O O6 0.375712 0.739176 0.390094
O O7 0.433842 0.669430 0.175572
O O8 0.280493 0.713846 0.912086
O O9 0.338762 0.500000 0.154087
O O10 0.199430 0.444386 0.852069
O O11 0.377057 0.416332 0.084993
O O12 0.315812 0.426971 0.355791
O O13 0.895342 0.500000 0.536282
O O14 0.000000 0.446657 0.500000
O O15 0.826498 0.867787 0.688233
O O16 0.000000 0.886477 0.000000
O O17 0.250000 0.250000 0.500000
#
# Coordination Sequence:
#
# PCOD9212016 Si02
#       7
#     8   8   8   8   8   8   8
#     4  12  23  38  66 101 137 175 221 274 343 406
#     4  10  21  40  71  85 125 174 224 279 335 398
#     4  10  22  39  64  99 135 178 229 285 346 404
#     4  10  21  41  66  97 139 183 226 272 335 416
#     4  11  23  42  67  93 129 182 235 280 344 408
#     4  11  21  42  65  93 131 177 219 282 341 398
#     4  11  21  42  68  91 130 177 215 281 344 401
#
# _framework density 21.064830000000001
#
# number of rings (size 3 to 8) (size 9 to 14) (size 15 to 20)
#    0.000    1.286    4.286    1.714    0.000    4.000 
#    0.000    5.000    3.143    0.000    0.000    0.000 
#    0.000    0.000    0.000    0.000    0.000    0.000 
#
# Total GULP energy -156262.010633 kJ/mol
# GULP energy per Si atom -5580.786094 kJ/mol
# Density = 2.101689 g / cm^3
# Si number density = 21.064830 Si / 1000 Ang^3
#
#
#
# Elastic Constant Matrix: (Units=GPa)
#
#
# Indices 1 2 3 4 5 6 
#
# 1 102.0075 53.6812 16.3874 0.0000 -1.9778 0.0000
# 2 53.6812 165.4805 48.5301 0.0000 -15.1743 0.0000
# 3 16.3874 48.5301 59.4434 0.0000 -13.3164 0.0000
# 4 0.0000 0.0000 0.0000 21.7759 0.0000 -2.1937
# 5 -1.9778 -15.1743 -13.3164 0.0000 27.4584 0.0000
# 6 0.0000 0.0000 0.0000 -2.1937 0.0000 12.6998
#
#
#
# Elastic Compliance Matrix: (Units=1/GPa)
#
#
# Indices 1 2 3 4 5 6 
#
# 1 0.011877 -0.003854 -0.000463 0.000000 -0.001499 0.000000
# 2 -0.003854 0.009244 -0.006061 0.000000 0.001892 0.000000
# 3 -0.000463 -0.006061 0.023717 0.000000 0.008119 0.000000
# 4 0.000000 0.000000 0.000000 0.046736 0.000000 0.008073
# 5 -0.001499 0.001892 0.008119 0.000000 0.041294 0.000000
# 6 0.000000 0.000000 0.000000 0.008073 0.000000 0.080136
#
#
# Mechanical properties :
#
#
# Convention : Reuss Voigt Hill
#
# Bulk Modulus (GPa) = 41.52542 62.68099 52.10320
# Shear Modulus (GPa) = 20.67926 26.27567 23.47746
#
# Velocity S-wave (km/s) = 3.13660 3.53565 3.34209
# Velocity P-wave (km/s) = 5.73355 6.81825 6.29929
#
# Compressibility (1/GPa) = 0.02408164
#
# Stress axis : x y z
#
# Youngs Moduli (GPa) = 84.19668 108.17532 42.16322
#
# Poissons Ratio (x) = 0.41696 0.01954
# Poissons Ratio (y) = 0.32453 0.25554
# Poissons Ratio (z) = 0.03901 0.65562
#
# Static dielectric constant tensor:
#      x y z
#    x 1.794250 0.000000 0.004920 
#    y 0.000000 1.769460 0.000000 
#    z 0.004920 0.000000 1.705210 
# 
# From -- ./inp_files/18377.got.cif
#   From: 2010.05.17/outbox.cif.g08.bks.cpg/sg12_10_cif.got.tgz:18377.got - 2010.06.03 13:09:07.
