data_PCOD9212161
_publ_section_title
;
Structure prediction by ZEFSAII (Michael W. Deem and Ramdas Pophale) SiO2 
 PCOD9212161
Probable space group: C 2/M
;
_chemical_formula_sum "Si O2"
_cell_formula_units_Z 56
_cell_length_a 17.536776
_cell_length_b 14.821511
_cell_length_c 20.776506
_cell_angle_alpha 90.000000
_cell_angle_beta 29.013677
_cell_angle_gamma 90.000000
_cell_volume 2619.225866
_symmetry_space_group_name_H-M "C 2/M"
_symmetry_group_IT_number 12
_symmetry_cell_setting 'monoclinic'
loop_
_space_group_symop_operation_xyz
x,y,z
-x,y,-z
-x,-y,-z
x,-y,z
1/2+x,1/2+y,z
1/2-x,1/2+y,-z
1/2-x,1/2-y,-z
1/2+x,1/2-y,z
loop_
_atom_site_type_symbol
_atom_site_label
_atom_site_fract_x
_atom_site_fract_y
_atom_site_fract_z
Si Si1 0.071064 0.352690 0.634174
Si Si2 0.120779 0.702507 0.020969
Si Si3 0.723296 0.104270 0.072664
Si Si4 0.595336 0.315035 0.278445
Si Si5 0.227784 0.736149 0.730671
Si Si6 0.667307 0.599384 0.453875
Si Si7 0.161799 0.602098 0.421384
O O1 0.197310 0.381654 0.593662
O O2 0.128372 0.375816 0.520457
O O3 0.904379 0.396923 0.775688
O O4 0.031271 0.246180 0.665713
O O5 0.130806 0.644268 0.078881
O O6 0.943803 0.698261 0.126461
O O7 0.160562 0.810128 0.000276
O O8 0.259795 0.662786 0.874204
O O9 0.779320 0.000000 0.021907
O O10 0.671050 0.255606 0.279729
O O11 0.496789 0.390875 0.387225
O O12 0.314971 0.670883 0.615964
O O13 0.217682 0.829493 0.699970
O O14 0.685970 0.500000 0.413101
O O15 0.216902 0.500000 0.375751
O O16 0.000000 0.611227 0.500000
#
# Coordination Sequence:
#
# PCOD9212161 Si02
#       7
#     8   8   8   8   8   8   8
#     4  11  21  41  66  96 127 168 213 271 327 377
#     4  10  24  40  67  94 126 178 215 260 325 388
#     4  10  21  41  64  94 132 168 215 269 323 383
#     4  11  24  43  65  92 134 174 213 272 325 383
#     4  12  23  44  64  96 135 171 218 270 324 391
#     4  12  25  41  69  99 128 171 222 272 327 386
#     4  11  22  37  62  97 132 171 214 267 330 384
#
# _framework density 21.380362999999999
#
# number of rings (size 3 to 8) (size 9 to 14) (size 15 to 20)
#    0.000    1.000    4.286    2.571    0.000    2.286 
#    0.000    0.000    0.000    5.143    0.000    0.000 
#    0.000    0.000    0.000    0.000    0.000    0.000 
#
# Total GULP energy -156388.794292 kJ/mol
# GULP energy per Si atom -5585.314082 kJ/mol
# Density = 2.133170 g / cm^3
# Si number density = 21.380363 Si / 1000 Ang^3
#
#
#
# Elastic Constant Matrix: (Units=GPa)
#
#
# Indices 1 2 3 4 5 6 
#
# 1 51.0435 -1.3135 14.0468 -0.0006 7.5463 -0.0006
# 2 -1.3135 36.2960 23.9953 -0.0013 -2.6072 -0.0001
# 3 14.0468 23.9953 84.7156 -0.0006 -2.3385 -0.0005
# 4 -0.0006 -0.0013 -0.0006 4.5609 -0.0004 -1.5436
# 5 7.5463 -2.6072 -2.3385 -0.0004 27.5210 0.0008
# 6 -0.0006 -0.0001 -0.0005 -1.5436 0.0008 3.4607
#
#
#
# Elastic Compliance Matrix: (Units=1/GPa)
#
#
# Indices 1 2 3 4 5 6 
#
# 1 0.021901 0.003528 -0.004799 0.000005 -0.006079 0.000007
# 2 0.003528 0.034626 -0.010353 0.000011 0.001433 0.000005
# 3 -0.004799 -0.010353 0.015578 -0.000001 0.001659 0.000000
# 4 0.000005 0.000011 -0.000001 0.258234 0.000000 0.115181
# 5 -0.006079 0.001433 0.001659 0.000000 0.038279 -0.000009
# 6 0.000007 0.000005 0.000000 0.115181 -0.000009 0.340338
#
#
# Mechanical properties :
#
#
# Convention : Reuss Voigt Hill
#
# Bulk Modulus (GPa) = 20.46726 27.27916 23.87321
# Shear Modulus (GPa) = 6.68012 16.13028 11.40520
#
# Velocity S-wave (km/s) = 1.76952 2.74969 2.31214
# Velocity P-wave (km/s) = 3.71061 4.78203 4.27998
#
# Compressibility (1/GPa) = 0.04885852
#
# Stress axis : x y z
#
# Youngs Moduli (GPa) = 45.65970 28.87972 64.19239
#
# Poissons Ratio (x) = -0.10190 0.30804
# Poissons Ratio (y) = -0.16110 0.66460
# Poissons Ratio (z) = 0.21910 0.29900
#
# Static dielectric constant tensor:
#      x y z
#    x 1.764140 0.000000 -0.006460 
#    y 0.000000 1.771650 0.000000 
#    z -0.006460 0.000000 1.778070 
# 
# From -- ./inp_files/316689.got.cif
#   From: 2010.05.17/outbox.cif.g08.bks.cpg/sg12_159_cif.got.tgz:316689.got - 2010.06.03 13:09:07.
