data_PCOD9212610
_publ_section_title
;
Structure prediction by ZEFSAII (Michael W. Deem and Ramdas Pophale) SiO2 
 PCOD9212610
Probable space group: C 2/M
;
_chemical_formula_sum "Si O2"
_cell_formula_units_Z 32
_cell_length_a 13.945235
_cell_length_b 13.077585
_cell_length_c 12.617533
_cell_angle_alpha 90.000000
_cell_angle_beta 144.133566
_cell_angle_gamma 90.000000
_cell_volume 1348.185444
_symmetry_space_group_name_H-M "C 2/M"
_symmetry_group_IT_number 12
_symmetry_cell_setting 'monoclinic'
loop_
_space_group_symop_operation_xyz
x,y,z
-x,y,-z
-x,-y,-z
x,-y,z
1/2+x,1/2+y,z
1/2-x,1/2+y,-z
1/2-x,1/2-y,-z
1/2+x,1/2-y,z
loop_
_atom_site_type_symbol
_atom_site_label
_atom_site_fract_x
_atom_site_fract_y
_atom_site_fract_z
Si Si1 0.958370 0.000000 0.795890
Si Si2 0.000000 0.176746 0.000000
Si Si3 0.847820 0.208168 0.488384
Si Si4 0.298304 0.000000 0.627634
Si Si5 0.839856 0.500000 0.135971
Si Si6 0.672090 0.215671 0.756159
O O1 0.812739 0.000000 0.580154
O O2 0.940513 0.098068 0.856130
O O3 0.148907 0.000000 0.925622
O O4 0.862826 0.242384 0.936466
O O5 0.750000 0.250000 0.500000
O O6 0.766733 0.103372 0.377850
O O7 0.844570 0.283168 0.385898
O O8 0.041081 0.205978 0.686867
O O9 0.493483 0.000000 0.784655
O O10 0.852445 0.603861 0.216578
#
# Coordination Sequence:
#
# PCOD9212610 Si02
#       6
#     4   4   8   4   4   8
#     4   9  20  36  61  95 119 157 212 255 321 356
#     4   9  18  38  60  93 122 154 206 275 300 351
#     4  11  23  38  61  96 119 165 212 244 318 374
#     4  12  23  42  65  89 136 162 200 264 310 375
#     4  10  21  42  69  92 121 162 214 272 302 352
#     4  10  22  39  62  91 127 160 211 254 312 370
#
# _framework density 23.735606000000001
#
# number of rings (size 3 to 8) (size 9 to 14) (size 15 to 20)
#    0.000    1.750    2.500    2.250    3.500    5.000 
#    4.500    3.750    0.000    1.500    0.000    0.000 
#    0.000    0.000    0.000    0.000    0.000    0.000 
#
# Total GULP energy -89234.844094 kJ/mol
# GULP energy per Si atom -5577.177756 kJ/mol
# Density = 2.368158 g / cm^3
# Si number density = 23.735606 Si / 1000 Ang^3
#
#
#
# Elastic Constant Matrix: (Units=GPa)
#
#
# Indices 1 2 3 4 5 6 
#
# 1 53.1470 5.3616 34.2667 0.0000 29.6324 0.0000
# 2 5.3616 73.7829 39.8767 0.0000 38.0699 0.0000
# 3 34.2667 39.8767 121.2657 0.0001 65.9968 0.0001
# 4 0.0000 0.0000 0.0001 34.9577 0.0000 10.2724
# 5 29.6324 38.0699 65.9968 0.0000 69.8000 0.0000
# 6 0.0000 0.0000 0.0001 10.2724 0.0000 17.1858
#
#
#
# Elastic Compliance Matrix: (Units=1/GPa)
#
#
# Indices 1 2 3 4 5 6 
#
# 1 0.026652 0.005664 -0.003203 0.000000 -0.011375 0.000000
# 2 0.005664 0.020156 -0.001930 0.000000 -0.011573 0.000000
# 3 -0.003203 -0.001930 0.017455 0.000000 -0.014092 0.000000
# 4 0.000000 0.000000 0.000000 0.034701 0.000000 -0.020742
# 5 -0.011375 -0.011573 -0.014092 0.000000 0.038792 0.000000
# 6 0.000000 0.000000 0.000000 -0.020742 0.000000 0.070585
#
#
# Mechanical properties :
#
#
# Convention : Reuss Voigt Hill
#
# Bulk Modulus (GPa) = 15.30812 45.24505 30.27659
# Shear Modulus (GPa) = 21.82883 35.63474 28.73179
#
# Velocity S-wave (km/s) = 3.03589 3.87889 3.48299
# Velocity P-wave (km/s) = 4.33039 6.25816 5.38130
#
# Compressibility (1/GPa) = 0.06532480
#
# Stress axis : x y z
#
# Youngs Moduli (GPa) = 37.52105 49.61260 57.28914
#
# Poissons Ratio (x) = -0.28099 0.18348
# Poissons Ratio (y) = -0.21250 0.11058
# Poissons Ratio (z) = 0.12017 0.09576
#
# Static dielectric constant tensor:
#      x y z
#    x 1.906160 0.000000 -0.044180 
#    y 0.000000 1.908190 0.000000 
#    z -0.044180 0.000000 2.256110 
# 
# From -- ./inp_files/316947.got.cif
#   From: 2010.05.17/outbox.cif.g08.bks.cpg/sg12_159_cif.got.tgz:316947.got - 2010.06.03 13:09:07.
