data_PCOD9212094
_publ_section_title
;
Structure prediction by ZEFSAII (Michael W. Deem and Ramdas Pophale) SiO2 
 PCOD9212094
Probable space group: C 2/M
;
_chemical_formula_sum "Si O2"
_cell_formula_units_Z 58
_cell_length_a 27.004714
_cell_length_b 7.536912
_cell_length_c 24.451471
_cell_angle_alpha 90.000000
_cell_angle_beta 149.009044
_cell_angle_gamma 90.000000
_cell_volume 2562.496279
_symmetry_space_group_name_H-M "C 2/M"
_symmetry_group_IT_number 12
_symmetry_cell_setting 'monoclinic'
loop_
_space_group_symop_operation_xyz
x,y,z
-x,y,-z
-x,-y,-z
x,-y,z
1/2+x,1/2+y,z
1/2-x,1/2+y,-z
1/2-x,1/2-y,-z
1/2+x,1/2-y,z
loop_
_atom_site_type_symbol
_atom_site_label
_atom_site_fract_x
_atom_site_fract_y
_atom_site_fract_z
Si Si1 0.654614 0.788752 0.444502
Si Si2 0.718833 0.787942 0.622796
Si Si3 0.102064 0.210736 0.953645
Si Si4 0.942270 0.792478 0.208140
Si Si5 0.599807 0.706382 0.615616
Si Si6 0.000000 0.500000 0.000000
Si Si7 0.574719 0.287783 0.140445
Si Si8 0.818406 0.785466 0.192855
O O1 0.750000 0.750000 0.500000
O O2 0.671479 0.719631 0.522157
O O3 0.556459 0.719466 0.325249
O O4 0.644236 0.000000 0.437614
O O5 0.672298 0.715489 0.633747
O O6 0.832909 0.758034 0.733862
O O7 0.704839 0.000000 0.610684
O O8 0.208385 0.239255 0.076501
O O9 0.083431 0.000000 0.933343
O O10 0.088764 0.284199 0.879791
O O11 0.019949 0.277827 0.916753
O O12 0.885581 0.718845 0.206824
O O13 0.915964 0.000000 0.181321
O O14 0.500000 0.787941 0.500000
O O15 0.579332 0.500000 0.608811
O O16 0.643822 0.782366 0.712972
O O17 0.076973 0.658725 0.090943
O O18 0.570596 0.500000 0.123802
O O19 0.823013 0.000000 0.198234
#
# Coordination Sequence:
#
# PCOD9212094 Si02
#       8
#     8   8   8   8   8   2   8   8
#     4  11  23  40  64  93 121 157 203 253 313 377
#     4  10  23  42  62  87 125 164 203 255 313 374
#     4  10  22  40  62  87 126 165 203 255 317 373
#     4  10  21  41  63  89 124 162 201 256 317 371
#     4  10  22  39  60  89 123 158 204 258 307 366
#     4  12  26  40  68  94 126 176 218 256 326 386
#     4  10  24  43  63  94 132 168 213 269 317 377
#     4  10  22  37  61  91 122 159 208 256 304 371
#
# _framework density 22.634179
#
# number of rings (size 3 to 8) (size 9 to 14) (size 15 to 20)
#    0.000    1.793    0.000    2.690    3.862    6.345 
#    2.483    0.000    0.000    0.000    0.000    0.000 
#    0.000    0.000    0.000    0.000    0.000    0.000 
#
# Total GULP energy -161854.393086 kJ/mol
# GULP energy per Si atom -5581.185968 kJ/mol
# Density = 2.258266 g / cm^3
# Si number density = 22.634179 Si / 1000 Ang^3
#
#
#
# Elastic Constant Matrix: (Units=GPa)
#
#
# Indices 1 2 3 4 5 6 
#
# 1 126.3985 -9.4907 67.9850 0.0000 -6.0893 0.0000
# 2 -9.4907 70.7854 -3.4588 -0.0001 -11.0372 -0.0003
# 3 67.9850 -3.4588 175.4658 0.0000 -15.1295 0.0000
# 4 0.0000 -0.0001 0.0000 15.6846 0.0000 26.7209
# 5 -6.0893 -11.0372 -15.1295 0.0000 46.4215 0.0000
# 6 0.0000 -0.0003 0.0000 26.7209 0.0000 29.8571
#
#
#
# Elastic Compliance Matrix: (Units=1/GPa)
#
#
# Indices 1 2 3 4 5 6 
#
# 1 0.010095 0.001221 -0.003856 0.000000 0.000358 0.000000
# 2 0.001221 0.014882 0.000143 0.000000 0.003745 0.000000
# 3 -0.003856 0.000143 0.007362 0.000000 0.001928 0.000000
# 4 0.000000 0.000000 0.000000 -0.121515 0.000000 0.108751
# 5 0.000358 0.003745 0.001928 0.000000 0.023107 0.000000
# 6 0.000000 0.000000 0.000000 0.108751 0.000000 -0.063835
#
#
# Mechanical properties :
#
#
# Convention : Reuss Voigt Hill
#
# Bulk Modulus (GPa) = 36.55744 53.63564 45.09654
# Shear Modulus (GPa) = -43.17747 39.56693 -1.80527
#
# Velocity S-wave (km/s) = -4.37237 4.18557 -0.89404
# Velocity P-wave (km/s) = 3.05019 6.86344 4.34760
#
# Compressibility (1/GPa) = 0.02735421
#
# Stress axis : x y z
#
# Youngs Moduli (GPa) = 99.06372 67.19598 135.82749
#
# Poissons Ratio (x) = -0.08203 0.52379
# Poissons Ratio (y) = -0.12093 -0.01946
# Poissons Ratio (z) = 0.38202 -0.00963
#
# Static dielectric constant tensor:
#      x y z
#    x 1.876560 0.000000 -0.027420 
#    y 0.000000 1.868070 0.000000 
#    z -0.027420 0.000000 1.813380 
# 
# From -- ./inp_files/351530.got.cif
#   From: 2010.05.17/outbox.cif.g08.bks.cpg/sg12_176_cif.got.tgz:351530.got - 2010.06.03 13:09:07.
