data_PCOD9212205
_publ_section_title
;
Structure prediction by ZEFSAII (Michael W. Deem and Ramdas Pophale) SiO2 
 PCOD9212205
Probable space group: C 2/M
;
_chemical_formula_sum "Si O2"
_cell_formula_units_Z 64
_cell_length_a 8.683459
_cell_length_b 30.268711
_cell_length_c 16.557723
_cell_angle_alpha 90.000000
_cell_angle_beta 132.849815
_cell_angle_gamma 90.000000
_cell_volume 3190.608631
_symmetry_space_group_name_H-M "C 2/M"
_symmetry_group_IT_number 12
_symmetry_cell_setting 'monoclinic'
loop_
_space_group_symop_operation_xyz
x,y,z
-x,y,-z
-x,-y,-z
x,-y,z
1/2+x,1/2+y,z
1/2-x,1/2+y,-z
1/2-x,1/2-y,-z
1/2+x,1/2-y,z
loop_
_atom_site_type_symbol
_atom_site_label
_atom_site_fract_x
_atom_site_fract_y
_atom_site_fract_z
Si Si1 0.650880 0.300507 0.631125
Si Si2 0.903186 0.262965 0.244956
Si Si3 0.379823 0.051988 0.693271
Si Si4 0.712616 0.051118 0.524828
Si Si5 0.925622 0.785478 0.091562
Si Si6 0.725519 0.874010 0.051895
Si Si7 0.257486 0.551069 0.934282
Si Si8 0.593488 0.609418 0.708644
O O1 0.500000 0.302680 0.500000
O O2 0.593031 0.257984 0.664827
O O3 0.610918 0.343113 0.672299
O O4 0.899623 0.295790 0.697923
O O5 0.936101 0.224217 0.191170
O O6 0.664106 0.279812 0.145468
O O7 0.329081 0.063930 0.583234
O O8 0.620318 0.058829 0.805128
O O9 0.247513 0.078626 0.711163
O O10 0.333518 0.000000 0.684339
O O11 0.500000 0.051248 0.500000
O O12 0.870507 0.086010 0.619001
O O13 0.792707 0.000000 0.554378
O O14 0.844416 0.834652 0.049076
O O15 0.750000 0.750000 0.000000
O O16 0.844372 0.887636 0.175817
O O17 0.500000 0.856076 0.000000
O O18 0.694470 0.915304 0.981891
O O19 0.222374 0.500000 0.946678
O O20 0.500000 0.556882 0.000000
#
# Coordination Sequence:
#
# PCOD9212205 Si02
#       8
#     8   8   8   8   8   8   8   8
#     4  11  23  43  65  93 128 171 215 268 326 397
#     4  10  23  42  66  93 126 166 218 264 335 388
#     4  10  21  41  65  93 130 172 219 263 322 395
#     4  10  23  43  69  99 131 173 222 278 335 384
#     4  11  23  42  67  97 127 169 214 276 329 391
#     4  12  25  43  64  97 135 169 221 272 327 403
#     4  10  24  42  64  93 131 174 214 267 332 396
#     4  12  24  42  64  98 132 171 220 271 323 394
#
# _framework density 20.058868
#
# number of rings (size 3 to 8) (size 9 to 14) (size 15 to 20)
#    0.000    1.250    2.500    3.000    3.500    4.250 
#    2.250    0.625    0.000    0.000    0.000    0.000 
#    0.000    0.000    0.000    0.000    0.000    0.000 
#
# Total GULP energy -178770.060101 kJ/mol
# GULP energy per Si atom -5586.564378 kJ/mol
# Density = 2.001321 g / cm^3
# Si number density = 20.058868 Si / 1000 Ang^3
#
#
#
# Elastic Constant Matrix: (Units=GPa)
#
#
# Indices 1 2 3 4 5 6 
#
# 1 68.6974 20.4840 25.7325 0.0000 12.8855 0.0000
# 2 20.4840 56.0582 42.8276 0.0000 4.9637 0.0000
# 3 25.7325 42.8276 114.5152 0.0000 1.0420 0.0000
# 4 0.0000 0.0000 0.0000 26.1822 0.0000 11.9935
# 5 12.8855 4.9637 1.0420 0.0000 43.5591 0.0000
# 6 0.0000 0.0000 0.0000 11.9935 0.0000 45.7891
#
#
#
# Elastic Compliance Matrix: (Units=1/GPa)
#
#
# Indices 1 2 3 4 5 6 
#
# 1 0.017561 -0.004231 -0.002321 0.000000 -0.004657 0.000000
# 2 -0.004231 0.026297 -0.008870 0.000000 -0.001533 0.000000
# 3 -0.002321 -0.008870 0.012559 0.000000 0.001397 0.000000
# 4 0.000000 0.000000 0.000000 0.043401 0.000000 -0.011368
# 5 -0.004657 -0.001533 0.001397 0.000000 0.024476 0.000000
# 6 0.000000 0.000000 0.000000 -0.011368 0.000000 0.024817
#
#
# Mechanical properties :
#
#
# Convention : Reuss Voigt Hill
#
# Bulk Modulus (GPa) = 39.10556 46.37319 42.73938
# Shear Modulus (GPa) = 26.52791 33.12122 29.82456
#
# Velocity S-wave (km/s) = 3.64057 4.06791 3.86015
# Velocity P-wave (km/s) = 6.09995 6.72551 6.42035
#
# Compressibility (1/GPa) = 0.02557181
#
# Stress axis : x y z
#
# Youngs Moduli (GPa) = 56.94334 38.02711 79.62585
#
# Poissons Ratio (x) = 0.16090 0.18484
# Poissons Ratio (y) = 0.24093 0.70629
# Poissons Ratio (z) = 0.13219 0.33731
#
# Static dielectric constant tensor:
#      x y z
#    x 1.533490 0.000000 0.053170 
#    y 0.000000 1.696990 0.000000 
#    z 0.053170 0.000000 1.709270 
# 
# From -- ./inp_files/260409.got.cif
#   From: 2010.05.17/outbox.cif.g08.bks.cpg/sg12_131_cif.got.tgz:260409.got - 2010.06.03 13:09:07.
