data_PCOD9212631
_publ_section_title
;
Structure prediction by ZEFSAII (Michael W. Deem and Ramdas Pophale) SiO2 
 PCOD9212631
Probable space group: C 2/M
;
_chemical_formula_sum "Si O2"
_cell_formula_units_Z 32
_cell_length_a 7.472659
_cell_length_b 18.407923
_cell_length_c 17.652053
_cell_angle_alpha 90.000000
_cell_angle_beta 34.710200
_cell_angle_gamma 90.000000
_cell_volume 1382.650371
_symmetry_space_group_name_H-M "C 2/M"
_symmetry_group_IT_number 12
_symmetry_cell_setting 'monoclinic'
loop_
_space_group_symop_operation_xyz
x,y,z
-x,y,-z
-x,-y,-z
x,-y,z
1/2+x,1/2+y,z
1/2-x,1/2+y,-z
1/2-x,1/2-y,-z
1/2+x,1/2-y,z
loop_
_atom_site_type_symbol
_atom_site_label
_atom_site_fract_x
_atom_site_fract_y
_atom_site_fract_z
Si Si1 0.188554 0.083103 0.512867
Si Si2 0.217760 0.583059 0.819331
Si Si3 0.844569 0.305642 0.863147
Si Si4 0.786239 0.159148 0.258162
O O1 0.686930 0.153117 0.205386
O O2 0.480611 0.137289 0.412364
O O3 0.000000 0.092957 0.500000
O O4 0.313253 0.000000 0.470011
O O5 0.114614 0.500000 0.861479
O O6 0.595360 0.741170 0.770225
O O7 0.452915 0.590067 0.665020
O O8 0.426836 0.607919 0.817174
O O9 0.944476 0.360894 0.893935
O O10 0.500000 0.274317 0.000000
#
# Coordination Sequence:
#
# PCOD9212631 Si02
#       4
#     8   8   8   8
#     4  10  21  42  70 101 139 174 215 279 346 404
#     4  11  25  45  71 105 137 174 224 279 342 406
#     4  12  27  46  69  97 139 181 230 282 332 392
#     4  12  24  44  71  98 133 186 221 276 340 399
#
# _framework density 23.143958000000001
#
# number of rings (size 3 to 8) (size 9 to 14) (size 15 to 20)
#    0.000    0.750    5.000    2.250    0.000    4.500 
#    4.500    1.250    0.000    0.000    0.000    0.000 
#    0.000    0.000    0.000    0.000    0.000    0.000 
#
# Total GULP energy -89646.516730 kJ/mol
# GULP energy per Si atom -5602.907296 kJ/mol
# Density = 2.309128 g / cm^3
# Si number density = 23.143958 Si / 1000 Ang^3
#
#
#
# Elastic Constant Matrix: (Units=GPa)
#
#
# Indices 1 2 3 4 5 6 
#
# 1 110.0199 37.8289 23.3278 -0.0018 -7.9045 -0.0019
# 2 37.8289 137.2412 40.2735 -0.0015 -30.2450 -0.0005
# 3 23.3278 40.2735 73.7169 -0.0097 -5.3287 -0.0020
# 4 -0.0018 -0.0015 -0.0097 2.5517 0.0019 -5.8009
# 5 -7.9045 -30.2450 -5.3287 0.0019 37.0961 0.0025
# 6 -0.0019 -0.0005 -0.0020 -5.8009 0.0025 20.4631
#
#
#
# Elastic Compliance Matrix: (Units=1/GPa)
#
#
# Indices 1 2 3 4 5 6 
#
# 1 0.010291 -0.002218 -0.002038 -0.000001 0.000091 0.000000
# 2 -0.002218 0.011017 -0.004751 -0.000062 0.007827 -0.000019
# 3 -0.002038 -0.004751 0.016668 0.000180 -0.001914 0.000053
# 4 -0.000001 -0.000062 0.000180 1.102212 -0.000102 0.312453
# 5 0.000091 0.007827 -0.001914 -0.000102 0.033083 -0.000033
# 6 0.000000 -0.000019 0.000053 0.312453 -0.000033 0.137442
#
#
# Mechanical properties :
#
#
# Convention : Reuss Voigt Hill
#
# Bulk Modulus (GPa) = 50.09873 58.20427 54.15150
# Shear Modulus (GPa) = 3.74425 26.65869 15.20147
#
# Velocity S-wave (km/s) = 1.27331 3.39759 2.56563
# Velocity P-wave (km/s) = 4.88419 6.37141 5.67672
#
# Compressibility (1/GPa) = 0.01996059
#
# Stress axis : x y z
#
# Youngs Moduli (GPa) = 97.17518 90.76816 59.99634
#
# Poissons Ratio (x) = 0.20135 0.12227
# Poissons Ratio (y) = 0.21557 0.28505
# Poissons Ratio (z) = 0.19804 0.43125
#
# Static dielectric constant tensor:
#      x y z
#    x 1.864430 0.000000 0.022510 
#    y 0.000000 1.829860 0.000000 
#    z 0.022510 0.000000 1.875990 
# 
# From -- ./inp_files/96684.got.cif
#   From: 2010.05.17/outbox.cif.g08.bks.cpg/sg12_49_cif.got.tgz:96684.got - 2010.06.03 13:09:07.
