data_PCOD9212125
_publ_section_title
;
Structure prediction by ZEFSAII (Michael W. Deem and Ramdas Pophale) SiO2 
 PCOD9212125
Probable space group: C 2/M
;
_chemical_formula_sum "Si O2"
_cell_formula_units_Z 40
_cell_length_a 14.836899
_cell_length_b 9.319315
_cell_length_c 31.305170
_cell_angle_alpha 90.000000
_cell_angle_beta 156.687698
_cell_angle_gamma 90.000000
_cell_volume 1712.995033
_symmetry_space_group_name_H-M "C 2/M"
_symmetry_group_IT_number 12
_symmetry_cell_setting 'monoclinic'
loop_
_space_group_symop_operation_xyz
x,y,z
-x,y,-z
-x,-y,-z
x,-y,z
1/2+x,1/2+y,z
1/2-x,1/2+y,-z
1/2-x,1/2-y,-z
1/2+x,1/2-y,z
loop_
_atom_site_type_symbol
_atom_site_label
_atom_site_fract_x
_atom_site_fract_y
_atom_site_fract_z
Si Si1 0.768120 0.839348 0.051331
Si Si2 0.212820 0.731501 0.273764
Si Si3 0.287075 0.162294 0.139807
Si Si4 0.576721 0.339554 0.720912
Si Si5 0.882979 0.832624 0.495362
O O1 0.678685 0.738660 0.050898
O O2 0.035878 0.851075 0.180750
O O3 0.670436 0.000000 0.006399
O O4 0.750000 0.750000 0.000000
O O5 0.271719 0.652536 0.255529
O O6 0.451561 0.755358 0.400972
O O7 0.052470 0.653950 0.238837
O O8 0.293568 0.261736 0.184088
O O9 0.213342 0.000000 0.116670
O O10 0.507832 0.500000 0.704154
O O11 0.359706 0.242459 0.614780
O O12 0.000000 0.832258 0.500000
O O13 0.866583 0.000000 0.502529
#
# Coordination Sequence:
#
# PCOD9212125 Si02
#       5
#     8   8   8   8   8
#     4  10  22  40  68  96 124 161 204 255 313 371
#     4  10  24  40  64  88 126 164 209 252 312 368
#     4  10  21  41  64  87 124 165 204 252 308 368
#     4  12  24  38  61  94 128 164 210 260 308 364
#     4  11  21  38  62  86 122 171 212 251 308 371
#
# _framework density 23.350914
#
# number of rings (size 3 to 8) (size 9 to 14) (size 15 to 20)
#    1.200    0.200    2.000    4.200    0.000    2.800 
#    0.000    1.000    0.000    4.800    0.000    0.000 
#    0.000    0.000    0.000    0.000    0.000    0.000 
#
# Total GULP energy -111618.184722 kJ/mol
# GULP energy per Si atom -5580.909236 kJ/mol
# Density = 2.329777 g / cm^3
# Si number density = 23.350914 Si / 1000 Ang^3
#
#
#
# Elastic Constant Matrix: (Units=GPa)
#
#
# Indices 1 2 3 4 5 6 
#
# 1 98.0939 23.3007 17.3170 0.0002 -30.5398 -0.0003
# 2 23.3007 137.1091 29.8530 -0.0001 -18.2101 -0.0003
# 3 17.3170 29.8530 144.8995 0.0014 -21.9693 -0.0017
# 4 0.0002 -0.0001 0.0014 18.1148 -0.0004 1.3412
# 5 -30.5398 -18.2101 -21.9693 -0.0004 47.3459 -0.0002
# 6 -0.0003 -0.0003 -0.0017 1.3412 -0.0002 3.7498
#
#
#
# Elastic Compliance Matrix: (Units=1/GPa)
#
#
# Indices 1 2 3 4 5 6 
#
# 1 0.012927 -0.001128 -0.000123 0.000000 0.007848 0.000001
# 2 -0.001128 0.007991 -0.001243 0.000000 0.001769 0.000000
# 3 -0.000123 -0.001243 0.007624 -0.000001 0.002980 0.000004
# 4 0.000000 0.000000 -0.000001 0.056705 0.000000 -0.020282
# 5 0.007848 0.001769 0.002980 0.000000 0.028247 0.000004
# 6 0.000001 0.000000 0.000004 -0.020282 0.000004 0.273934
#
#
# Mechanical properties :
#
#
# Convention : Reuss Voigt Hill
#
# Bulk Modulus (GPa) = 42.45525 57.89377 50.17451
# Shear Modulus (GPa) = 12.49166 34.48420 23.48793
#
# Velocity S-wave (km/s) = 2.31542 3.84706 3.17498
# Velocity P-wave (km/s) = 5.03677 6.67682 5.91392
#
# Compressibility (1/GPa) = 0.02355422
#
# Stress axis : x y z
#
# Youngs Moduli (GPa) = 77.35656 125.14404 131.16434
#
# Poissons Ratio (x) = 0.14115 0.01609
# Poissons Ratio (y) = 0.08725 0.16308
# Poissons Ratio (z) = 0.00949 0.15559
#
# Static dielectric constant tensor:
#      x y z
#    x 1.880820 0.000000 0.071220 
#    y 0.000000 1.840840 0.000000 
#    z 0.071220 0.000000 1.944220 
# 
# From -- ./inp_files/375754.got.cif
#   From: 2010.05.17/outbox.cif.g08.bks.cpg/sg12_188_cif.got.tgz:375754.got - 2010.06.03 13:09:07.
