data_PCOD9212565
_publ_section_title
;
Structure prediction by ZEFSAII (Michael W. Deem and Ramdas Pophale) SiO2 
 PCOD9212565
Probable space group: C 2/M
;
_chemical_formula_sum "Si O2"
_cell_formula_units_Z 48
_cell_length_a 28.098373
_cell_length_b 19.280960
_cell_length_c 12.080374
_cell_angle_alpha 90.000000
_cell_angle_beta 20.743653
_cell_angle_gamma 90.000000
_cell_volume 2318.053045
_symmetry_space_group_name_H-M "C 2/M"
_symmetry_group_IT_number 12
_symmetry_cell_setting 'monoclinic'
loop_
_space_group_symop_operation_xyz
x,y,z
-x,y,-z
-x,-y,-z
x,-y,z
1/2+x,1/2+y,z
1/2-x,1/2+y,-z
1/2-x,1/2-y,-z
1/2+x,1/2-y,z
loop_
_atom_site_type_symbol
_atom_site_label
_atom_site_fract_x
_atom_site_fract_y
_atom_site_fract_z
Si Si1 0.121193 0.296048 0.969366
Si Si2 0.350315 0.282879 0.872017
Si Si3 0.511640 0.920778 0.099641
Si Si4 0.599642 0.723114 0.679020
Si Si5 0.477767 0.424516 0.181390
Si Si6 0.713282 0.578926 0.848650
O O1 0.246158 0.257906 0.636700
O O2 0.141099 0.275318 0.051404
O O3 0.112390 0.375108 0.951320
O O4 0.976697 0.268080 0.245186
O O5 0.500000 0.293232 0.500000
O O6 0.250000 0.250000 0.000000
O O7 0.308337 0.356472 0.020875
O O8 0.364783 0.919315 0.473287
O O9 0.558414 0.000000 0.988804
O O10 0.500000 0.892041 0.000000
O O11 0.500000 0.724695 0.000000
O O12 0.604542 0.645120 0.620845
O O13 0.420481 0.500000 0.336540
O O14 0.612684 0.415272 0.961596
O O15 0.500000 0.426117 0.000000
O O16 0.691199 0.500000 0.942696
#
# Coordination Sequence:
#
# PCOD9212565 Si02
#       6
#     8   8   8   8   8   8
#     4  12  24  41  63  90 126 167 212 261 313 373
#     4  12  26  45  67  89 120 161 221 281 328 362
#     4  10  23  40  64  97 135 172 203 242 308 390
#     4  11  23  36  61  94 129 165 202 248 304 382
#     4   9  19  34  59  92 130 164 197 241 301 375
#     4  10  21  42  67  93 130 168 208 259 316 378
#
# _framework density 20.707032999999999
#
# number of rings (size 3 to 8) (size 9 to 14) (size 15 to 20)
#    0.000    1.333    1.667    4.000    4.667    1.000 
#    0.000    0.833    0.000    3.000    0.000    0.000 
#    0.000    0.000    0.000    0.000    0.000    0.000 
#
# Total GULP energy -133935.675409 kJ/mol
# GULP energy per Si atom -5580.653142 kJ/mol
# Density = 2.065990 g / cm^3
# Si number density = 20.707033 Si / 1000 Ang^3
#
#
#
# Elastic Constant Matrix: (Units=GPa)
#
#
# Indices 1 2 3 4 5 6 
#
# 1 129.9759 67.0925 34.5888 0.0001 -8.1447 0.0000
# 2 67.0925 127.6832 21.1857 0.0001 -9.1094 -0.0001
# 3 34.5888 21.1857 95.3668 -0.0004 -5.7366 -0.0001
# 4 0.0001 0.0001 -0.0004 21.1026 0.0000 5.7776
# 5 -8.1447 -9.1094 -5.7366 0.0000 31.1134 0.0000
# 6 0.0000 -0.0001 -0.0001 5.7776 0.0000 24.1290
#
#
#
# Elastic Compliance Matrix: (Units=1/GPa)
#
#
# Indices 1 2 3 4 5 6 
#
# 1 0.011292 -0.005401 -0.002845 0.000000 0.000850 0.000000
# 2 -0.005401 0.010849 -0.000349 0.000000 0.001698 0.000000
# 3 -0.002845 -0.000349 0.011674 0.000000 0.001305 0.000000
# 4 0.000000 0.000000 0.000000 0.050712 0.000000 -0.012143
# 5 0.000850 0.001698 0.001305 0.000000 0.033101 0.000000
# 6 0.000000 0.000000 0.000000 -0.012143 0.000000 0.044351
#
#
# Mechanical properties :
#
#
# Convention : Reuss Voigt Hill
#
# Bulk Modulus (GPa) = 60.14870 66.52888 63.33879
# Shear Modulus (GPa) = 27.06957 30.61295 28.84126
#
# Velocity S-wave (km/s) = 3.61953 3.84915 3.73611
# Velocity P-wave (km/s) = 6.82485 7.20784 7.01896
#
# Compressibility (1/GPa) = 0.01662546
#
# Stress axis : x y z
#
# Youngs Moduli (GPa) = 88.55966 92.17561 85.66341
#
# Poissons Ratio (x) = 0.49782 0.24367
# Poissons Ratio (y) = 0.47829 0.02991
# Poissons Ratio (z) = 0.25191 0.03218
#
# Static dielectric constant tensor:
#      x y z
#    x 1.767720 0.000000 0.039740 
#    y 0.000000 1.812500 0.000000 
#    z 0.039740 0.000000 1.825930 
# 
# From -- ./inp_files/184796.got.cif
#   From: 2010.05.17/outbox.cif.g08.bks.cpg/sg12_93_cif.got.tgz:184796.got - 2010.06.03 13:09:07.
