data_PCOD9212538
_publ_section_title
;
Structure prediction by ZEFSAII (Michael W. Deem and Ramdas Pophale) SiO2 
 PCOD9212538
Probable space group: C 2/M
;
_chemical_formula_sum "Si O2"
_cell_formula_units_Z 52
_cell_length_a 9.691584
_cell_length_b 15.140057
_cell_length_c 14.546624
_cell_angle_alpha 90.000000
_cell_angle_beta 94.192319
_cell_angle_gamma 90.000000
_cell_volume 2128.731481
_symmetry_space_group_name_H-M "C 2/M"
_symmetry_group_IT_number 12
_symmetry_cell_setting 'monoclinic'
loop_
_space_group_symop_operation_xyz
x,y,z
-x,y,-z
-x,-y,-z
x,-y,z
1/2+x,1/2+y,z
1/2-x,1/2+y,-z
1/2-x,1/2-y,-z
1/2+x,1/2-y,z
loop_
_atom_site_type_symbol
_atom_site_label
_atom_site_fract_x
_atom_site_fract_y
_atom_site_fract_z
Si Si1 0.207552 0.680765 0.900425
Si Si2 0.155471 0.000000 0.802333
Si Si3 0.481533 0.344378 0.096697
Si Si4 0.069137 0.402504 0.727380
Si Si5 0.374185 0.161676 0.568759
Si Si6 0.038038 0.000000 0.610458
Si Si7 0.689153 0.364204 0.403286
Si Si8 0.163006 0.500000 0.011575
O O1 0.365174 0.691976 0.872570
O O2 0.106055 0.663220 0.809318
O O3 0.367423 0.730978 0.066473
O O4 0.203960 0.591751 0.962205
O O5 0.072747 0.912376 0.830891
O O6 0.283839 0.000000 0.880110
O O7 0.161592 0.000000 0.691509
O O8 0.500000 0.393705 0.000000
O O9 0.066683 0.500000 0.766686
O O10 0.194476 0.394907 0.661197
O O11 0.933946 0.384194 0.661160
O O12 0.500000 0.168924 0.500000
O O13 0.327871 0.259306 0.594798
O O14 0.249348 0.114328 0.508639
O O15 0.950812 0.088353 0.630090
O O16 0.000000 0.000000 0.500000
O O17 0.000000 0.500000 0.000000
#
# Coordination Sequence:
#
# PCOD9212538 Si02
#       8
#     8   4   8   8   8   4   8   4
#     4  12  27  46  75 112 155 196 252 315 378 457
#     4  12  28  50  79 111 152 205 254 307 388 463
#     4  12  26  49  79 111 150 200 254 308 385 458
#     4  11  23  40  67 101 139 187 242 298 371 446
#     4   9  21  39  64  95 131 185 240 305 368 430
#     4  12  26  44  69 102 144 188 244 297 370 443
#     4  10  21  42  66  92 139 185 243 302 365 440
#     4  12  27  53  78 110 157 197 252 320 372 450
#
# _framework density 24.427692
#
# number of rings (size 3 to 8) (size 9 to 14) (size 15 to 20)
#    0.000    0.923    3.077    3.000    7.538    0.923 
#    2.769    0.000    0.000    0.000    0.000    0.000 
#    0.000    0.000    0.000    0.000    0.000    0.000 
#
# Total GULP energy -145292.549560 kJ/mol
# GULP energy per Si atom -5588.174983 kJ/mol
# Density = 2.437209 g / cm^3
# Si number density = 24.427692 Si / 1000 Ang^3
#
#
#
# Elastic Constant Matrix: (Units=GPa)
#
#
# Indices 1 2 3 4 5 6 
#
# 1 111.9353 42.3502 30.1441 0.0000 32.7871 0.0000
# 2 42.3502 109.2636 18.7916 0.0000 3.5460 0.0000
# 3 30.1441 18.7916 150.6775 0.0000 15.4765 0.0000
# 4 0.0000 0.0000 0.0000 47.1107 0.0000 3.8384
# 5 32.7871 3.5460 15.4765 0.0000 29.8671 0.0000
# 6 0.0000 0.0000 0.0000 3.8384 0.0000 32.6187
#
#
#
# Elastic Compliance Matrix: (Units=1/GPa)
#
#
# Indices 1 2 3 4 5 6 
#
# 1 0.016132 -0.005571 -0.000825 0.000000 -0.016620 0.000000
# 2 -0.005571 0.011285 -0.000827 0.000000 0.005205 0.000000
# 3 -0.000825 -0.000827 0.007184 0.000000 -0.002718 0.000000
# 4 0.000000 0.000000 0.000000 0.021432 0.000000 -0.002522
# 5 -0.016620 0.005205 -0.002718 0.000000 0.052518 0.000000
# 6 0.000000 0.000000 0.000000 -0.002522 0.000000 0.030954
#
#
# Mechanical properties :
#
#
# Convention : Reuss Voigt Hill
#
# Bulk Modulus (GPa) = 49.62064 61.60537 55.61300
# Shear Modulus (GPa) = 31.11940 40.62530 35.87235
#
# Velocity S-wave (km/s) = 3.57310 4.08252 3.83627
# Velocity P-wave (km/s) = 6.11393 6.89179 6.51448
#
# Compressibility (1/GPa) = 0.02015291
#
# Stress axis : x y z
#
# Youngs Moduli (GPa) = 61.98774 88.61289 139.19390
#
# Poissons Ratio (x) = 0.49370 0.11489
# Poissons Ratio (y) = 0.34536 0.11517
# Poissons Ratio (z) = 0.05117 0.07332
#
# Static dielectric constant tensor:
#      x y z
#    x 1.962900 0.000000 -0.003470 
#    y 0.000000 1.927980 0.000000 
#    z -0.003470 0.000000 1.985370 
# 
# From -- ./inp_files/206332.got.cif
#   From: 2010.05.17/outbox.cif.g08.bks.cpg/sg12_104_cif.got.tgz:206332.got - 2010.06.03 13:09:07.
