data_PCOD9212123
_publ_section_title
;
Structure prediction by ZEFSAII (Michael W. Deem and Ramdas Pophale) SiO2 
 PCOD9212123
Probable space group: C 2/M
;
_chemical_formula_sum "Si O2"
_cell_formula_units_Z 64
_cell_length_a 14.437847
_cell_length_b 27.639998
_cell_length_c 8.794790
_cell_angle_alpha 90.000000
_cell_angle_beta 71.973083
_cell_angle_gamma 90.000000
_cell_volume 3337.381825
_symmetry_space_group_name_H-M "C 2/M"
_symmetry_group_IT_number 12
_symmetry_cell_setting 'monoclinic'
loop_
_space_group_symop_operation_xyz
x,y,z
-x,y,-z
-x,-y,-z
x,-y,z
1/2+x,1/2+y,z
1/2-x,1/2+y,-z
1/2-x,1/2-y,-z
1/2+x,1/2-y,z
loop_
_atom_site_type_symbol
_atom_site_label
_atom_site_fract_x
_atom_site_fract_y
_atom_site_fract_z
Si Si1 0.521942 0.316528 0.169377
Si Si2 0.984646 0.713357 0.691059
Si Si3 0.821305 0.365581 0.856806
Si Si4 0.214009 0.943912 0.471337
Si Si5 0.894136 0.444086 0.591226
Si Si6 0.794657 0.133840 0.791245
Si Si7 0.708350 0.201503 0.598398
Si Si8 0.321582 0.359833 0.317926
O O1 0.549138 0.263933 0.219314
O O2 0.602965 0.355130 0.179377
O O3 0.418762 0.330313 0.298374
O O4 0.500000 0.315927 0.000000
O O5 0.094709 0.704146 0.693329
O O6 0.000000 0.715966 0.500000
O O7 0.906148 0.673119 0.780481
O O8 0.849327 0.413726 0.750899
O O9 0.718884 0.351032 0.829123
O O10 0.792611 0.373738 0.044904
O O11 0.325005 0.943341 0.478301
O O12 0.200379 0.911088 0.328637
O O13 0.160669 0.914583 0.635362
O O14 0.185224 0.000000 0.467993
O O15 0.904512 0.500000 0.631636
O O16 0.000000 0.423573 0.500000
O O17 0.768051 0.182632 0.711965
O O18 0.750000 0.250000 0.500000
O O19 0.731864 0.160169 0.463214
#
# Coordination Sequence:
#
# PCOD9212123 Si02
#       8
#     8   8   8   8   8   8   8   8
#     4  12  26  42  61  87 125 166 213 254 318 365
#     4  12  25  38  63  91 122 171 213 253 295 375
#     4  11  23  38  61  92 129 161 204 255 309 362
#     4   9  21  42  68  94 122 158 205 258 314 371
#     4   9  19  39  67  93 121 163 207 246 301 375
#     4  11  26  40  61  92 127 163 203 264 310 367
#     4  11  22  40  60  88 122 160 210 251 303 362
#     4  10  21  41  64  86 121 164 202 261 305 365
#
# _framework density 19.17671
#
# number of rings (size 3 to 8) (size 9 to 14) (size 15 to 20)
#    0.000    1.375    3.750    1.125    7.000    1.000 
#    0.000    1.250    0.000    3.000    0.000    0.000 
#    0.000    0.000    0.000    0.000    0.000    0.000 
#
# Total GULP energy -178417.704803 kJ/mol
# GULP energy per Si atom -5575.553275 kJ/mol
# Density = 1.913306 g / cm^3
# Si number density = 19.176710 Si / 1000 Ang^3
#
#
#
# Elastic Constant Matrix: (Units=GPa)
#
#
# Indices 1 2 3 4 5 6 
#
# 1 67.1470 33.1515 14.6085 0.0000 -2.8540 0.0000
# 2 33.1515 118.3268 24.4010 0.0000 -0.1467 0.0000
# 3 14.6085 24.4010 48.6075 0.0000 4.3080 0.0000
# 4 0.0000 0.0000 0.0000 15.6331 0.0000 4.3853
# 5 -2.8540 -0.1467 4.3080 0.0000 24.5150 0.0000
# 6 0.0000 0.0000 0.0000 4.3853 0.0000 22.5902
#
#
#
# Elastic Compliance Matrix: (Units=1/GPa)
#
#
# Indices 1 2 3 4 5 6 
#
# 1 0.017877 -0.004293 -0.003454 0.000000 0.002662 0.000000
# 2 -0.004293 0.010478 -0.003993 0.000000 0.000265 0.000000
# 3 -0.003454 -0.003993 0.024027 0.000000 -0.004648 0.000000
# 4 0.000000 0.000000 0.000000 0.067651 0.000000 -0.013133
# 5 0.002662 0.000265 -0.004648 0.000000 0.041920 0.000000
# 6 0.000000 0.000000 0.000000 -0.013133 0.000000 0.046816
#
#
# Mechanical properties :
#
#
# Convention : Reuss Voigt Hill
#
# Bulk Modulus (GPa) = 34.59896 42.04480 38.32188
# Shear Modulus (GPa) = 20.67125 23.34236 22.00680
#
# Velocity S-wave (km/s) = 3.28675 3.49266 3.39127
# Velocity P-wave (km/s) = 5.69956 6.18364 5.94653
#
# Compressibility (1/GPa) = 0.02890260
#
# Stress axis : x y z
#
# Youngs Moduli (GPa) = 55.93860 95.44071 41.61924
#
# Poissons Ratio (x) = 0.40973 0.14373
# Poissons Ratio (y) = 0.24015 0.16619
# Poissons Ratio (z) = 0.19319 0.38110
#
# Static dielectric constant tensor:
#      x y z
#    x 1.706560 0.000000 0.024380 
#    y 0.000000 1.699890 0.000000 
#    z 0.024380 0.000000 1.688730 
# 
# From -- ./inp_files/66903.got.cif
#   From: 2010.05.17/outbox.cif.g08.bks.cpg/sg12_34_cif.got.tgz:66903.got - 2010.06.03 13:09:07.
