data_PCOD9212579
_publ_section_title
;
Structure prediction by ZEFSAII (Michael W. Deem and Ramdas Pophale) SiO2 
 PCOD9212579
Probable space group: C 2/M
;
_chemical_formula_sum "Si O2"
_cell_formula_units_Z 44
_cell_length_a 15.143513
_cell_length_b 12.462859
_cell_length_c 14.018570
_cell_angle_alpha 90.000000
_cell_angle_beta 46.422155
_cell_angle_gamma 90.000000
_cell_volume 1916.679661
_symmetry_space_group_name_H-M "C 2/M"
_symmetry_group_IT_number 12
_symmetry_cell_setting 'monoclinic'
loop_
_space_group_symop_operation_xyz
x,y,z
-x,y,-z
-x,-y,-z
x,-y,z
1/2+x,1/2+y,z
1/2-x,1/2+y,-z
1/2-x,1/2-y,-z
1/2+x,1/2-y,z
loop_
_atom_site_type_symbol
_atom_site_label
_atom_site_fract_x
_atom_site_fract_y
_atom_site_fract_z
Si Si1 0.727725 0.724836 0.748514
Si Si2 0.571158 0.622013 0.343285
Si Si3 0.374337 0.783488 0.454137
Si Si4 0.329710 0.000000 0.905639
Si Si5 0.476441 0.882337 0.130236
Si Si6 0.505560 0.000000 0.611527
Si Si7 0.144687 0.000000 0.906447
O O1 0.798965 0.817005 0.755215
O O2 0.835720 0.701409 0.593498
O O3 0.614092 0.784738 0.782132
O O4 0.686266 0.614942 0.828556
O O5 0.500000 0.617062 0.500000
O O6 0.585468 0.500000 0.301101
O O7 0.475530 0.694866 0.358554
O O8 0.250000 0.750000 0.500000
O O9 0.427635 0.898386 0.393085
O O10 0.394777 0.899885 0.910964
O O11 0.187988 0.000000 0.986025
O O12 0.376971 0.000000 0.760496
O O13 0.414707 0.000000 0.191204
O O14 0.500000 0.872210 0.000000
O O15 0.500000 0.000000 0.500000
O O16 0.000000 0.000000 0.000000
#
# Coordination Sequence:
#
# PCOD9212579 Si02
#       7
#     8   8   8   4   8   4   4
#     4  11  21  40  62  89 127 170 205 267 325 380
#     4   9  19  35  58  88 121 159 205 253 315 382
#     4  11  23  35  58  90 132 168 209 257 311 389
#     4  10  21  42  68  91 123 166 218 265 334 391
#     4   9  20  40  70  92 117 159 225 275 327 390
#     4  12  22  39  63  91 125 179 213 245 315 407
#     4  12  26  43  65  92 128 173 223 274 324 390
#
# _framework density 22.956365999999999
#
# number of rings (size 3 to 8) (size 9 to 14) (size 15 to 20)
#    0.545    1.091    0.000    6.545    1.273    0.727 
#    0.000    5.909    0.000    0.000    0.000    0.000 
#    0.000    0.000    0.000    0.000    0.000    0.000 
#
# Total GULP energy -122589.294519 kJ/mol
# GULP energy per Si atom -5572.240660 kJ/mol
# Density = 2.290412 g / cm^3
# Si number density = 22.956366 Si / 1000 Ang^3
#
#
#
# Elastic Constant Matrix: (Units=GPa)
#
#
# Indices 1 2 3 4 5 6 
#
# 1 150.0685 70.4209 23.5691 0.0000 -33.8824 0.0000
# 2 70.4209 211.6743 32.9713 0.0000 -34.7771 0.0000
# 3 23.5691 32.9713 56.6489 0.0000 -1.7116 0.0000
# 4 0.0000 0.0000 0.000011351.9631 0.0000**********
# 5 -33.8824 -34.7771 -1.7116 0.0000 39.0537 0.0000
# 6 0.0000 0.0000 0.0000********** 0.000038595.1250
#
#
#
# Elastic Compliance Matrix: (Units=1/GPa)
#
#
# Indices 1 2 3 4 5 6 
#
# 1 0.009323 -0.001598 -0.002751 0.000000 0.006545 0.000000
# 2 -0.001598 0.006400 -0.002934 0.000000 0.004185 0.000000
# 3 -0.002751 -0.002934 0.020381 0.000000 -0.004106 0.000000
# 4 0.000000 0.000000 0.000000 0.035577 0.000000 0.019271
# 5 0.006545 0.004185 -0.004106 0.000000 0.034831 0.000000
# 6 0.000000 0.000000 0.000000 0.019271 0.000000 0.010464
#
#
# Mechanical properties :
#
#
# Convention : Reuss Voigt Hill
#
# Bulk Modulus (GPa) = 46.42872 74.70159 60.56516
# Shear Modulus (GPa) = 36.04330 10016.65705 5026.35017
#
# Velocity S-wave (km/s) = 3.96672 66.12729 46.84311
# Velocity P-wave (km/s) = 6.42250 76.57046 54.33362
#
# Compressibility (1/GPa) = 0.02153839
#
# Stress axis : x y z
#
# Youngs Moduli (GPa) = 107.25799 156.24194 49.06568
#
# Poissons Ratio (x) = 0.24965 0.13499
# Poissons Ratio (y) = 0.17138 0.14396
# Poissons Ratio (z) = 0.29510 0.45841
#
# Static dielectric constant tensor:
#      x y z
#    x 1.872940 0.000000 0.087050 
#    y 0.000000 1.868620 0.000000 
#    z 0.087050 0.000000 1.952000 
# 
# From -- ./inp_files/276898.got.cif
#   From: 2010.05.17/outbox.cif.g08.bks.cpg/sg12_139_cif.got.tgz:276898.got - 2010.06.03 13:09:07.
