data_PCOD9212615
_publ_section_title
;
Structure prediction by ZEFSAII (Michael W. Deem and Ramdas Pophale) SiO2 
 PCOD9212615
Probable space group: C 2/M
;
_chemical_formula_sum "Si O2"
_cell_formula_units_Z 52
_cell_length_a 22.389957
_cell_length_b 20.184630
_cell_length_c 8.437173
_cell_angle_alpha 90.000000
_cell_angle_beta 132.948712
_cell_angle_gamma 90.000000
_cell_volume 2791.005333
_symmetry_space_group_name_H-M "C 2/M"
_symmetry_group_IT_number 12
_symmetry_cell_setting 'monoclinic'
loop_
_space_group_symop_operation_xyz
x,y,z
-x,y,-z
-x,-y,-z
x,-y,z
1/2+x,1/2+y,z
1/2-x,1/2+y,-z
1/2-x,1/2-y,-z
1/2+x,1/2-y,z
loop_
_atom_site_type_symbol
_atom_site_label
_atom_site_fract_x
_atom_site_fract_y
_atom_site_fract_z
Si Si1 0.719119 0.000000 0.388559
Si Si2 0.079716 0.814189 0.038610
Si Si3 0.683710 0.367151 0.516868
Si Si4 0.801043 0.281448 0.948052
Si Si5 0.120247 0.500000 0.500854
Si Si6 0.983700 0.921920 0.657711
Si Si7 0.055932 0.500000 0.892964
Si Si8 0.414019 0.112145 0.307371
O O1 0.765112 0.933300 0.424686
O O2 0.700293 0.000000 0.540818
O O3 0.632489 0.000000 0.144489
O O4 0.145518 0.838677 0.286263
O O5 0.129757 0.763519 0.015258
O O6 0.000000 0.789585 0.000000
O O7 0.044649 0.875663 0.870851
O O8 0.739214 0.313368 0.707656
O O9 0.605793 0.391441 0.476284
O O10 0.750000 0.250000 0.000000
O O11 0.847438 0.339518 0.122821
O O12 0.114438 0.564998 0.600460
O O13 0.039936 0.500000 0.242612
O O14 0.000000 0.918567 0.500000
O O15 0.987108 0.000000 0.712221
O O16 0.065618 0.562828 0.797745
O O17 0.500000 0.147252 0.500000
#
# Coordination Sequence:
#
# PCOD9212615 Si02
#       8
#     4   8   8   8   4   8   4   8
#     4  12  21  36  64  96 128 153 204 261 339 357
#     4  10  25  45  64  89 130 172 213 258 319 393
#     4  11  24  41  62  97 128 159 209 274 330 370
#     4  12  25  42  64  91 128 172 210 262 313 385
#     4   9  21  37  63  93 120 165 199 258 311 381
#     4  10  21  42  69  95 121 167 220 267 317 382
#     4   9  17  41  61  85 123 155 207 255 304 376
#     4   9  20  40  61  87 122 159 208 251 303 370
#
# _framework density 18.631278999999999
#
# number of rings (size 3 to 8) (size 9 to 14) (size 15 to 20)
#    0.000    1.692    2.308    2.538    3.231    4.000 
#    5.538    0.000    0.000    0.000    0.000    0.000 
#    0.000    0.000    0.000    0.000    0.000    0.000 
#
# Total GULP energy -144899.961463 kJ/mol
# GULP energy per Si atom -5573.075441 kJ/mol
# Density = 1.858887 g / cm^3
# Si number density = 18.631279 Si / 1000 Ang^3
#
#
#
# Elastic Constant Matrix: (Units=GPa)
#
#
# Indices 1 2 3 4 5 6 
#
# 1 116.7866 57.6218 45.2393 0.0000 3.2232 0.0000
# 2 57.6218 94.8092 55.9775 0.0000 14.9355 0.0000
# 3 45.2393 55.9775 136.6773 0.0000 12.8791 0.0000
# 4 0.0000 0.0000 0.0000 41.0949 0.0000 -18.2007
# 5 3.2232 14.9355 12.8791 0.0000 18.4129 0.0000
# 6 0.0000 0.0000 0.0000 -18.2007 0.0000 -66.9934
#
#
#
# Elastic Compliance Matrix: (Units=1/GPa)
#
#
# Indices 1 2 3 4 5 6 
#
# 1 0.012811 -0.007648 -0.001585 0.000000 0.005071 0.000000
# 2 -0.007648 0.019614 -0.004420 0.000000 -0.011479 0.000000
# 3 -0.001585 -0.004420 0.009943 0.000000 -0.003092 0.000000
# 4 0.000000 0.000000 0.000000 0.021720 0.000000 -0.005901
# 5 0.005071 -0.011479 -0.003092 0.000000 0.064896 0.000000
# 6 0.000000 0.000000 0.000000 -0.005901 0.000000 -0.013324
#
#
# Mechanical properties :
#
#
# Convention : Reuss Voigt Hill
#
# Bulk Modulus (GPa) = 66.40201 73.99447 70.19824
# Shear Modulus (GPa) = 33.78658 11.13183 22.45920
#
# Velocity S-wave (km/s) = 4.26306 2.44699 3.47574
# Velocity P-wave (km/s) = 7.74268 6.91268 7.33942
#
# Compressibility (1/GPa) = 0.01505979
#
# Stress axis : x y z
#
# Youngs Moduli (GPa) = 78.06053 50.98427 100.57528
#
# Poissons Ratio (x) = 0.38995 0.15946
# Poissons Ratio (y) = 0.59704 0.44452
# Poissons Ratio (z) = 0.12376 0.22534
#
# Static dielectric constant tensor:
#      x y z
#    x 1.689470 0.000000 0.011940 
#    y 0.000000 1.624630 0.000000 
#    z 0.011940 0.000000 1.643420 
# 
# From -- ./inp_files/88509.got.cif
#   From: 2010.05.17/outbox.cif.g08.bks.cpg/sg12_45_cif.got.tgz:88509.got - 2010.06.03 13:09:07.
