data_PCOD9212005
_publ_section_title
;
Structure prediction by ZEFSAII (Michael W. Deem and Ramdas Pophale) SiO2 
 PCOD9212005
Probable space group: C 2/M
;
_chemical_formula_sum "Si O2"
_cell_formula_units_Z 34
_cell_length_a 18.611110
_cell_length_b 19.225086
_cell_length_c 8.283172
_cell_angle_alpha 90.000000
_cell_angle_beta 30.283395
_cell_angle_gamma 90.000000
_cell_volume 1494.537219
_symmetry_space_group_name_H-M "C 2/M"
_symmetry_group_IT_number 12
_symmetry_cell_setting 'monoclinic'
loop_
_space_group_symop_operation_xyz
x,y,z
-x,y,-z
-x,-y,-z
x,-y,z
1/2+x,1/2+y,z
1/2-x,1/2+y,-z
1/2-x,1/2-y,-z
1/2+x,1/2-y,z
loop_
_atom_site_type_symbol
_atom_site_label
_atom_site_fract_x
_atom_site_fract_y
_atom_site_fract_z
Si Si1 0.086505 0.780551 0.682137
Si Si2 0.835872 0.580435 0.823820
Si Si3 0.306050 0.293635 0.044625
Si Si4 0.500000 0.000000 0.000000
Si Si5 0.270153 0.574625 0.601088
O O1 0.217051 0.735030 0.368376
O O2 0.142565 0.857774 0.614965
O O3 0.971750 0.785794 0.760051
O O4 0.000000 0.750621 0.000000
O O5 0.837387 0.500000 0.767986
O O6 0.737245 0.627393 0.905064
O O7 0.000000 0.605225 0.500000
O O8 0.779975 0.584229 0.115328
O O9 0.250000 0.250000 0.000000
O O10 0.624910 0.940435 0.786084
O O11 0.350623 0.500000 0.437132
#
# Coordination Sequence:
#
# PCOD9212005 Si02
#       5
#     8   8   8   2   8
#     4  12  27  47  68 107 147 195 243 307 370 432
#     4  10  21  40  70 106 135 181 252 300 355 429
#     4  12  25  46  74 100 146 196 246 303 364 438
#     4   8  20  44  72 106 152 194 222 300 370 464
#     4   9  21  43  71 103 144 186 241 289 364 445
#
# _framework density 22.749517999999998
#
# number of rings (size 3 to 8) (size 9 to 14) (size 15 to 20)
#    0.706    0.706    2.353    2.824    0.000    3.294 
#    2.118    2.353    0.000    0.706    0.000    0.000 
#    0.000    0.000    0.000    0.000    0.000    0.000 
#
# Total GULP energy -94830.907022 kJ/mol
# GULP energy per Si atom -5578.288648 kJ/mol
# Density = 2.269774 g / cm^3
# Si number density = 22.749518 Si / 1000 Ang^3
#
#
#
# Elastic Constant Matrix: (Units=GPa)
#
#
# Indices 1 2 3 4 5 6 
#
# 1 73.9652 19.8274 13.4893 0.0002 -29.3714 -0.0001
# 2 19.8274 58.9350 20.5194 -0.0013 -9.4232 0.0007
# 3 13.4893 20.5194 78.3407 -0.0006 -4.2919 0.0003
# 4 0.0002 -0.0013 -0.0006 880.6783 0.0005 -460.2873
# 5 -29.3714 -9.4232 -4.2919 0.0005 42.0672 -0.0002
# 6 -0.0001 0.0007 0.0003 -460.2873 -0.0002 271.5561
#
#
#
# Elastic Compliance Matrix: (Units=1/GPa)
#
#
# Indices 1 2 3 4 5 6 
#
# 1 0.020050 -0.004099 -0.001671 0.000000 0.012910 0.000000
# 2 -0.004099 0.020101 -0.004494 0.000000 0.001182 0.000000
# 3 -0.001671 -0.004494 0.014190 0.000000 -0.000726 0.000000
# 4 0.000000 0.000000 0.000000 0.009951 0.000000 0.016867
# 5 0.012910 0.001182 -0.000726 0.000000 0.032976 0.000000
# 6 0.000000 0.000000 0.000000 0.016867 0.000000 0.032272
#
#
# Mechanical properties :
#
#
# Convention : Reuss Voigt Hill
#
# Bulk Modulus (GPa) = 29.57616 35.43475 32.50546
# Shear Modulus (GPa) = 30.99034 249.35396 140.17215
#
# Velocity S-wave (km/s) = 3.69486 10.48076 7.85807
# Velocity P-wave (km/s) = 5.58853 12.73074 9.83116
#
# Compressibility (1/GPa) = 0.03381102
#
# Stress axis : x y z
#
# Youngs Moduli (GPa) = 49.87470 49.74946 70.47243
#
# Poissons Ratio (x) = 0.20394 0.11779
# Poissons Ratio (y) = 0.20445 0.31672
# Poissons Ratio (z) = 0.08336 0.22359
#
# Static dielectric constant tensor:
#      x y z
#    x 1.888450 0.000000 0.025880 
#    y 0.000000 1.849710 0.000000 
#    z 0.025880 0.000000 1.862070 
# 
# From -- ./inp_files/88325.got.cif
#   From: 2010.05.17/outbox.cif.g08.bks.cpg/sg12_45_cif.got.tgz:88325.got - 2010.06.03 13:09:07.
