data_PCOD9212019
_publ_section_title
;
Structure prediction by ZEFSAII (Michael W. Deem and Ramdas Pophale) SiO2 
 PCOD9212019
Probable space group: C 2/M
;
_chemical_formula_sum "Si O2"
_cell_formula_units_Z 44
_cell_length_a 22.976385
_cell_length_b 12.066227
_cell_length_c 12.750877
_cell_angle_alpha 90.000000
_cell_angle_beta 32.411490
_cell_angle_gamma 90.000000
_cell_volume 1894.762936
_symmetry_space_group_name_H-M "C 2/M"
_symmetry_group_IT_number 12
_symmetry_cell_setting 'monoclinic'
loop_
_space_group_symop_operation_xyz
x,y,z
-x,y,-z
-x,-y,-z
x,-y,z
1/2+x,1/2+y,z
1/2-x,1/2+y,-z
1/2-x,1/2-y,-z
1/2+x,1/2-y,z
loop_
_atom_site_type_symbol
_atom_site_label
_atom_site_fract_x
_atom_site_fract_y
_atom_site_fract_z
Si Si1 0.869079 0.171653 0.912799
Si Si2 0.057304 0.000000 0.689488
Si Si3 0.899230 0.809044 0.224253
Si Si4 0.124029 0.129347 0.327519
Si Si5 0.990935 0.626643 0.235045
Si Si6 0.283713 0.190121 0.669854
O O1 0.975336 0.095592 0.764635
O O2 0.824700 0.152082 0.864011
O O3 0.911249 0.296394 0.871498
O O4 0.785169 0.137081 0.130819
O O5 0.121363 0.098567 0.656994
O O6 0.942305 0.695504 0.210503
O O7 0.796767 0.795519 0.305175
O O8 0.000000 0.852990 0.000000
O O9 0.179831 0.194123 0.335453
O O10 0.000000 0.168069 0.500000
O O11 0.123593 0.000000 0.353936
O O12 0.021879 0.500000 0.165197
O O13 0.892263 0.629101 0.468516
#
# Coordination Sequence:
#
# PCOD9212019 Si02
#       6
#     8   4   8   8   8   8
#     4  11  23  46  70 103 137 180 235 291 344 411
#     4  10  21  40  77 100 138 177 239 292 338 397
#     4  11  23  42  70 103 140 180 232 287 346 416
#     4  11  24  44  71  99 133 177 238 297 341 408
#     4  11  26  44  66  99 143 182 226 283 351 420
#     4  12  25  43  69 101 139 187 230 279 356 422
#
# _framework density 23.221903000000001
#
# number of rings (size 3 to 8) (size 9 to 14) (size 15 to 20)
#    0.000    0.909    6.364    1.364    2.545    1.818 
#    0.000    1.818    0.000    0.000    0.000    0.000 
#    0.000    0.000    0.000    0.000    0.000    0.000 
#
# Total GULP energy -122665.599644 kJ/mol
# GULP energy per Si atom -5575.709075 kJ/mol
# Density = 2.316905 g / cm^3
# Si number density = 23.221903 Si / 1000 Ang^3
#
#
#
# Elastic Constant Matrix: (Units=GPa)
#
#
# Indices 1 2 3 4 5 6 
#
# 1 113.9312 38.4575 16.7042 0.0000 -10.5600 0.0000
# 2 38.4575 148.3743 -6.7178 0.0000 -9.8195 0.0000
# 3 16.7042 -6.7178 76.8951 0.0000 2.5740 0.0000
# 4 0.0000 0.0000 0.0000 -7.5355 0.0000 -1.8151
# 5 -10.5600 -9.8195 2.5740 0.0000 34.0781 0.0000
# 6 0.0000 0.0000 0.0000 -1.8151 0.0000 16.8360
#
#
#
# Elastic Compliance Matrix: (Units=1/GPa)
#
#
# Indices 1 2 3 4 5 6 
#
# 1 0.010273 -0.002604 -0.002547 0.000000 0.002625 0.000000
# 2 -0.002604 0.007553 0.001183 0.000000 0.001280 0.000000
# 3 -0.002547 0.001183 0.013711 0.000000 -0.001484 0.000000
# 4 0.000000 0.000000 0.000000 -0.129346 0.000000 -0.013945
# 5 0.002625 0.001280 -0.001484 0.000000 0.030639 0.000000
# 6 0.000000 0.000000 0.000000 -0.013945 0.000000 0.057893
#
#
# Mechanical properties :
#
#
# Convention : Reuss Voigt Hill
#
# Bulk Modulus (GPa) = 42.37303 48.45427 45.41365
# Shear Modulus (GPa) = 766.07062 28.05949 397.06506
#
# Velocity S-wave (km/s) = 18.18262 3.47986 13.09040
# Velocity P-wave (km/s) = 21.42654 6.08744 15.75046
#
# Compressibility (1/GPa) = 0.02359992
#
# Stress axis : x y z
#
# Youngs Moduli (GPa) = 97.34182 132.39799 72.93391
#
# Poissons Ratio (x) = 0.34480 0.18577
# Poissons Ratio (y) = 0.25351 -0.08626
# Poissons Ratio (z) = 0.24794 -0.15659
#
# Static dielectric constant tensor:
#      x y z
#    x 1.860340 0.000000 0.071220 
#    y 0.000000 1.859050 0.000000 
#    z 0.071220 0.000000 2.005580 
# 
# From -- ./inp_files/245558.got.cif
#   From: 2010.05.17/outbox.cif.g08.bks.cpg/sg12_123_cif.got.tgz:245558.got - 2010.06.03 13:09:07.
