data_PCOD9212745
_publ_section_title
;
Structure prediction by ZEFSAII (Michael W. Deem and Ramdas Pophale) SiO2 
 PCOD9212745
Probable space group: C 2/M
;
_chemical_formula_sum "Si O2"
_cell_formula_units_Z 56
_cell_length_a 21.598376
_cell_length_b 31.170750
_cell_length_c 9.717396
_cell_angle_alpha 90.000000
_cell_angle_beta 151.948144
_cell_angle_gamma 90.000000
_cell_volume 3076.564164
_symmetry_space_group_name_H-M "C 2/M"
_symmetry_group_IT_number 12
_symmetry_cell_setting 'monoclinic'
loop_
_space_group_symop_operation_xyz
x,y,z
-x,y,-z
-x,-y,-z
x,-y,z
1/2+x,1/2+y,z
1/2-x,1/2+y,-z
1/2-x,1/2-y,-z
1/2+x,1/2-y,z
loop_
_atom_site_type_symbol
_atom_site_label
_atom_site_fract_x
_atom_site_fract_y
_atom_site_fract_z
Si Si1 0.045288 0.385069 0.743863
Si Si2 0.500000 0.286356 0.500000
Si Si3 0.656706 0.741830 0.055827
Si Si4 0.700879 0.670328 0.693213
Si Si5 0.351649 0.611315 0.668210
Si Si6 0.500000 0.769556 0.000000
Si Si7 0.883886 0.551063 0.882233
Si Si8 0.823356 0.667364 0.473321
O O1 0.000000 0.393695 0.500000
O O2 0.933326 0.358713 0.606609
O O3 0.177241 0.356377 0.006215
O O4 0.075920 0.427007 0.895058
O O5 0.405415 0.316781 0.402497
O O6 0.576518 0.256459 0.757741
O O7 0.742317 0.784131 0.245105
O O8 0.561912 0.740754 0.001801
O O9 0.744203 0.699539 0.220639
O O10 0.644718 0.643184 0.456018
O O11 0.252714 0.572696 0.434416
O O12 0.277277 0.636635 0.644519
O O13 0.500000 0.599080 0.000000
O O14 0.605310 0.801394 0.276713
O O15 0.872729 0.500000 0.870261
O O16 0.000000 0.561475 0.000000
#
# Coordination Sequence:
#
# PCOD9212745 Si02
#       8
#     8   4   8   8   8   4   8   8
#     4  11  23  40  66  94 123 166 210 262 314 376
#     4  12  26  40  52  80 119 166 217 270 320 368
#     4  12  25  37  59  80 119 171 218 273 313 360
#     4  11  24  40  56  84 122 169 216 264 316 363
#     4  11  23  39  65  96 126 162 208 257 317 377
#     4  12  22  40  60  80 113 166 227 268 312 356
#     4  10  21  43  71  99 129 160 200 255 317 386
#     4  12  22  39  59  87 126 160 217 269 307 364
#
# _framework density 18.202124000000001
#
# number of rings (size 3 to 8) (size 9 to 14) (size 15 to 20)
#    0.000    0.714    4.286    4.286    4.000    0.571 
#    0.000    0.000    0.000    0.000    0.000    3.000 
#    0.000    0.000    0.000    0.000    0.000    0.000 
#
# Total GULP energy -156622.399589 kJ/mol
# GULP energy per Si atom -5593.657128 kJ/mol
# Density = 1.816069 g / cm^3
# Si number density = 18.202124 Si / 1000 Ang^3
#
#
#
# Elastic Constant Matrix: (Units=GPa)
#
#
# Indices 1 2 3 4 5 6 
#
# 1 99.9769 34.9595 44.8606 0.0000 6.4971 0.0000
# 2 34.9595 90.7998 42.6498 0.0000 1.4003 0.0000
# 3 44.8606 42.6498 119.3647 0.0000 -3.5109 0.0000
# 4 0.0000 0.0000 0.0000 -6.2308 0.0000 -8.9206
# 5 6.4971 1.4003 -3.5109 0.0000 32.8340 0.0000
# 6 0.0000 0.0000 0.0000 -8.9206 0.0000 9.8092
#
#
#
# Elastic Compliance Matrix: (Units=1/GPa)
#
#
# Indices 1 2 3 4 5 6 
#
# 1 0.013020 -0.003162 -0.003847 0.000000 -0.002853 0.000000
# 2 -0.003162 0.014040 -0.003840 0.000000 -0.000384 0.000000
# 3 -0.003847 -0.003840 0.011258 0.000000 0.002129 0.000000
# 4 0.000000 0.000000 0.000000 -0.069719 0.000000 -0.063403
# 5 -0.002853 -0.000384 0.002129 0.000000 0.031265 0.000000
# 6 0.000000 0.000000 0.000000 -0.063403 0.000000 0.044285
#
#
# Mechanical properties :
#
#
# Convention : Reuss Voigt Hill
#
# Bulk Modulus (GPa) = 60.16669 61.67568 60.92118
# Shear Modulus (GPa) = 70.04136 19.79392 44.91764
#
# Velocity S-wave (km/s) = 6.20994 3.30123 4.97300
# Velocity P-wave (km/s) = 9.19480 6.96334 8.15575
#
# Compressibility (1/GPa) = 0.01662049
#
# Stress axis : x y z
#
# Youngs Moduli (GPa) = 76.80729 71.22529 88.82430
#
# Poissons Ratio (x) = 0.22519 0.34174
# Poissons Ratio (y) = 0.24283 0.34105
# Poissons Ratio (z) = 0.29551 0.27348
#
# Static dielectric constant tensor:
#      x y z
#    x 1.651690 0.000000 -0.003990 
#    y 0.000000 1.589650 0.000000 
#    z -0.003990 0.000000 1.676180 
# 
# From -- ./inp_files/91670.got.cif
#   From: 2010.05.17/outbox.cif.g08.bks.cpg/sg12_46_cif.got.tgz:91670.got - 2010.06.03 13:09:07.
