data_PCOD9212470
_publ_section_title
;
Structure prediction by ZEFSAII (Michael W. Deem and Ramdas Pophale) SiO2 
 PCOD9212470
Probable space group: C 2/M
;
_chemical_formula_sum "Si O2"
_cell_formula_units_Z 48
_cell_length_a 16.164664
_cell_length_b 21.320158
_cell_length_c 16.222418
_cell_angle_alpha 90.000000
_cell_angle_beta 159.795841
_cell_angle_gamma 90.000000
_cell_volume 1930.868392
_symmetry_space_group_name_H-M "C 2/M"
_symmetry_group_IT_number 12
_symmetry_cell_setting 'monoclinic'
loop_
_space_group_symop_operation_xyz
x,y,z
-x,y,-z
-x,-y,-z
x,-y,z
1/2+x,1/2+y,z
1/2-x,1/2+y,-z
1/2-x,1/2-y,-z
1/2+x,1/2-y,z
loop_
_atom_site_type_symbol
_atom_site_label
_atom_site_fract_x
_atom_site_fract_y
_atom_site_fract_z
Si Si1 0.651994 0.000000 0.429851
Si Si2 0.246297 0.630075 0.509159
Si Si3 0.605826 0.500000 0.979843
Si Si4 0.500000 0.285894 0.000000
Si Si5 0.860704 0.610502 0.294800
Si Si6 0.821474 0.074600 0.160267
Si Si7 0.000000 0.887289 0.500000
Si Si8 0.419305 0.179554 0.803507
O O1 0.681232 0.937364 0.406703
O O2 0.384077 0.000000 0.209757
O O3 0.861011 0.000000 0.696618
O O4 0.530532 0.613717 0.773322
O O5 0.187615 0.683537 0.388821
O O6 0.066506 0.628475 0.418944
O O7 0.641063 0.566587 0.058374
O O8 0.264665 0.328436 0.785108
O O9 0.508890 0.243919 0.925776
O O10 0.000000 0.577231 0.500000
O O11 0.943520 0.074726 0.364708
O O12 0.786937 0.000000 0.107779
O O13 0.608179 0.123274 0.976818
O O14 0.783458 0.842669 0.323234
#
# Coordination Sequence:
#
# PCOD9212470 Si02
#       8
#     4   8   4   4   8   8   4   8
#     4  10  22  44  78 114 164 187 243 324 409 480
#     4  10  25  43  72 113 149 196 247 324 395 470
#     4  10  25  47  80 118 153 189 252 334 408 486
#     4  12  28  49  75 104 154 220 270 320 372 464
#     4  11  28  49  81 112 155 198 261 326 410 469
#     4  11  22  37  71 101 148 191 253 319 400 463
#     4  10  21  42  62 102 144 193 252 316 390 455
#     4  11  25  45  71 104 155 205 260 319 377 469
#
# _framework density 24.859282
#
# number of rings (size 3 to 8) (size 9 to 14) (size 15 to 20)
#    0.000    1.333    2.500    0.500   11.667    3.000 
#    0.000    1.667    0.000    0.000    0.000    0.000 
#    0.000    0.000    0.000    0.000    0.000    0.000 
#
# Total GULP energy -133704.082792 kJ/mol
# GULP energy per Si atom -5571.003450 kJ/mol
# Density = 2.480270 g / cm^3
# Si number density = 24.859282 Si / 1000 Ang^3
#
#
#
# Elastic Constant Matrix: (Units=GPa)
#
#
# Indices 1 2 3 4 5 6 
#
# 1 161.3311 24.8896 65.3021 -0.0001 14.6140 -0.0002
# 2 24.8896 89.2373 57.5667 0.0003 -12.3778 -0.0001
# 3 65.3021 57.5667 105.8842 0.0012 7.9266 -0.0002
# 4 -0.0001 0.0003 0.0012 33.2215 -0.0003 -8.0162
# 5 14.6140 -12.3778 7.9266 -0.0003 56.6595 -0.0004
# 6 -0.0002 -0.0001 -0.0002 -8.0162 -0.0004 27.0022
#
#
#
# Elastic Compliance Matrix: (Units=1/GPa)
#
#
# Indices 1 2 3 4 5 6 
#
# 1 0.008457 0.001232 -0.005803 0.000000 -0.001100 0.000000
# 2 0.001232 0.019057 -0.011530 0.000000 0.005458 0.000000
# 3 -0.005803 -0.011530 0.019573 -0.000001 -0.003760 0.000000
# 4 0.000000 0.000000 -0.000001 0.032424 0.000000 0.009626
# 5 -0.001100 0.005458 -0.003760 0.000000 0.019652 0.000000
# 6 0.000000 0.000000 0.000000 0.009626 0.000000 0.039892
#
#
# Mechanical properties :
#
#
# Convention : Reuss Voigt Hill
#
# Bulk Modulus (GPa) = 67.17607 72.44105 69.80856
# Shear Modulus (GPa) = 28.37409 37.28960 32.83184
#
# Velocity S-wave (km/s) = 3.38211 3.87722 3.63810
# Velocity P-wave (km/s) = 6.50636 7.01766 6.76684
#
# Compressibility (1/GPa) = 0.01488625
#
# Stress axis : x y z
#
# Youngs Moduli (GPa) = 118.24544 52.47377 51.09033
#
# Poissons Ratio (x) = -0.06466 0.29649
# Poissons Ratio (y) = -0.14571 0.58905
# Poissons Ratio (z) = 0.68621 0.60500
#
# Static dielectric constant tensor:
#      x y z
#    x 2.110810 0.000000 0.042680 
#    y 0.000000 2.039770 0.000000 
#    z 0.042680 0.000000 2.151620 
# 
# From -- ./inp_files/279466.got.cif
#   From: 2010.05.17/outbox.cif.g08.bks.cpg/sg12_140_cif.got.tgz:279466.got - 2010.06.03 13:09:07.
