data_PCOD9212190
_publ_section_title
;
Structure prediction by ZEFSAII (Michael W. Deem and Ramdas Pophale) SiO2 
 PCOD9212190
Probable space group: C 2/M
;
_chemical_formula_sum "Si O2"
_cell_formula_units_Z 56
_cell_length_a 27.369248
_cell_length_b 8.519455
_cell_length_c 12.971227
_cell_angle_alpha 90.000000
_cell_angle_beta 67.961603
_cell_angle_gamma 90.000000
_cell_volume 2803.521528
_symmetry_space_group_name_H-M "C 2/M"
_symmetry_group_IT_number 12
_symmetry_cell_setting 'monoclinic'
loop_
_space_group_symop_operation_xyz
x,y,z
-x,y,-z
-x,-y,-z
x,-y,z
1/2+x,1/2+y,z
1/2-x,1/2+y,-z
1/2-x,1/2-y,-z
1/2+x,1/2-y,z
loop_
_atom_site_type_symbol
_atom_site_label
_atom_site_fract_x
_atom_site_fract_y
_atom_site_fract_z
Si Si1 0.190982 0.187909 0.534327
Si Si2 0.107554 0.689577 0.010453
Si Si3 0.499995 0.311665 0.180007
Si Si4 0.383791 0.812829 0.226106
Si Si5 0.801966 0.312056 0.903395
Si Si6 0.844701 0.189792 0.664226
Si Si7 0.962780 0.191183 0.622269
O O1 0.250000 0.250000 0.500000
O O2 0.153542 0.241143 0.657153
O O3 0.169194 0.241685 0.440142
O O4 0.191810 0.000000 0.532546
O O5 0.103393 0.500000 0.017040
O O6 0.146899 0.740999 0.070439
O O7 0.049417 0.759477 0.071797
O O8 0.129985 0.734203 0.880467
O O9 0.495088 0.500000 0.180439
O O10 0.444299 0.237466 0.195100
O O11 0.515323 0.261541 0.284183
O O12 0.379608 0.000000 0.236376
O O13 0.801696 0.500000 0.903694
O O14 0.806436 0.250596 0.783572
O O15 0.750000 0.250000 0.000000
O O16 0.903316 0.243480 0.648925
O O17 0.843833 0.000000 0.666267
O O18 0.000000 0.243947 0.500000
O O19 0.962502 0.000000 0.621758
#
# Coordination Sequence:
#
# PCOD9212190 Si02
#       7
#     8   8   8   8   8   8   8
#     4  11  25  44  67  93 124 162 209 259 311 370
#     4  10  23  42  62  88 126 168 204 250 311 370
#     4  11  21  36  62  94 125 160 206 256 306 366
#     4  11  24  42  63  88 126 171 210 251 307 369
#     4  11  24  41  64  93 125 161 209 259 311 369
#     4  10  21  41  65  90 124 163 202 250 310 371
#     4   9  17  32  57  87 120 157 197 241 296 358
#
# _framework density 19.974878
#
# number of rings (size 3 to 8) (size 9 to 14) (size 15 to 20)
#    0.000    1.571    1.429    3.000    2.000    6.857 
#    0.000    0.000    0.000    2.143    0.000    0.000 
#    0.000    0.000    0.000    0.000    0.000    0.000 
#
# Total GULP energy -156527.543429 kJ/mol
# GULP energy per Si atom -5590.269408 kJ/mol
# Density = 1.992941 g / cm^3
# Si number density = 19.974878 Si / 1000 Ang^3
#
#
#
# Elastic Constant Matrix: (Units=GPa)
#
#
# Indices 1 2 3 4 5 6 
#
# 1 57.9296 9.9211 31.3688 0.0000 -2.6413 0.0000
# 2 9.9211 22.7383 25.3806 0.0000 3.8233 0.0000
# 3 31.3688 25.3806 168.2881 0.0000 -2.6414 0.0000
# 4 0.0000 0.0000 0.0000 33.0738 0.0000 -4.6106
# 5 -2.6413 3.8233 -2.6414 0.0000 40.7537 0.0000
# 6 0.0000 0.0000 0.0000 -4.6106 0.0000 30.3020
#
#
#
# Elastic Compliance Matrix: (Units=1/GPa)
#
#
# Indices 1 2 3 4 5 6 
#
# 1 0.019848 -0.005816 -0.002797 0.000000 0.001651 0.000000
# 2 -0.005816 0.055838 -0.007433 0.000000 -0.006097 0.000000
# 3 -0.002797 -0.007433 0.007600 0.000000 0.001009 0.000000
# 4 0.000000 0.000000 0.000000 0.030891 0.000000 0.004700
# 5 0.001651 -0.006097 0.001009 0.000000 0.025282 0.000000
# 6 0.000000 0.000000 0.000000 0.004700 0.000000 0.033716
#
#
# Mechanical properties :
#
#
# Convention : Reuss Voigt Hill
#
# Bulk Modulus (GPa) = 19.53300 42.47746 31.00523
# Shear Modulus (GPa) = 22.48893 32.97826 27.73359
#
# Velocity S-wave (km/s) = 3.35902 4.06764 3.73020
# Velocity P-wave (km/s) = 4.98438 6.58578 5.84023
#
# Compressibility (1/GPa) = 0.05119542
#
# Stress axis : x y z
#
# Youngs Moduli (GPa) = 50.38287 17.90890 131.57355
#
# Poissons Ratio (x) = 0.10416 0.36796
# Poissons Ratio (y) = 0.29303 0.97797
# Poissons Ratio (z) = 0.14090 0.13312
#
# Static dielectric constant tensor:
#      x y z
#    x 1.680580 0.000000 0.021810 
#    y 0.000000 1.682250 0.000000 
#    z 0.021810 0.000000 1.697370 
# 
# From -- ./inp_files/180623.got.cif
#   From: 2010.05.17/outbox.cif.g08.bks.cpg/sg12_91_cif.got.tgz:180623.got - 2010.06.03 13:09:07.
