data_PCOD9212018
_publ_section_title
;
Structure prediction by ZEFSAII (Michael W. Deem and Ramdas Pophale) SiO2 
 PCOD9212018
Probable space group: C 2/M
;
_chemical_formula_sum "Si O2"
_cell_formula_units_Z 40
_cell_length_a 16.785068
_cell_length_b 24.667119
_cell_length_c 9.672815
_cell_angle_alpha 90.000000
_cell_angle_beta 148.360448
_cell_angle_gamma 90.000000
_cell_volume 2100.878617
_symmetry_space_group_name_H-M "C 2/M"
_symmetry_group_IT_number 12
_symmetry_cell_setting 'monoclinic'
loop_
_space_group_symop_operation_xyz
x,y,z
-x,y,-z
-x,-y,-z
x,-y,z
1/2+x,1/2+y,z
1/2-x,1/2+y,-z
1/2-x,1/2-y,-z
1/2+x,1/2-y,z
loop_
_atom_site_type_symbol
_atom_site_label
_atom_site_fract_x
_atom_site_fract_y
_atom_site_fract_z
Si Si1 0.191268 0.721256 0.550714
Si Si2 0.667706 0.500000 0.311870
Si Si3 0.665183 0.092262 0.923149
Si Si4 0.696646 0.099254 0.654249
Si Si5 0.673133 0.786347 0.001510
Si Si6 0.836044 0.500000 0.844147
O O1 0.250000 0.750000 0.500000
O O2 0.241450 0.659990 0.670057
O O3 0.008612 0.718825 0.276255
O O4 0.258366 0.761867 0.760819
O O5 0.740977 0.553991 0.355870
O O6 0.707526 0.500000 0.534272
O O7 0.500000 0.500000 0.000000
O O8 0.735368 0.084479 0.872084
O O9 0.485151 0.095827 0.628203
O O10 0.716103 0.151265 0.047026
O O11 0.681269 0.050120 0.073364
O O12 0.750000 0.750000 0.000000
O O13 0.000000 0.500000 0.000000
#
# Coordination Sequence:
#
# PCOD9212018 Si02
#       6
#     8   4   8   8   8   4
#     4  11  24  39  66  96 132 174 222 272 332 388
#     4  12  27  43  61  95 140 161 205 278 351 386
#     4  10  21  40  72  91 125 171 231 266 310 398
#     4  10  21  43  64  92 127 180 215 262 332 397
#     4  11  22  42  63  97 132 174 222 270 325 398
#     4  12  23  41  69 103 120 166 233 280 318 389
#
# _framework density 19.039653000000001
#
# number of rings (size 3 to 8) (size 9 to 14) (size 15 to 20)
#    0.000    1.200    4.000    1.800    2.800    3.200 
#    0.000    2.000    0.000    0.000    0.000    0.000 
#    0.000    0.000    0.000    0.000    0.000    0.000 
#
# Total GULP energy -111455.552317 kJ/mol
# GULP energy per Si atom -5572.777616 kJ/mol
# Density = 1.899632 g / cm^3
# Si number density = 19.039653 Si / 1000 Ang^3
#
#
#
# Elastic Constant Matrix: (Units=GPa)
#
#
# Indices 1 2 3 4 5 6 
#
# 1 116.2337 71.2730 44.3991 0.0000 -49.8478 0.0000
# 2 71.2730 171.3808 60.3879 0.0000 -33.5624 0.0000
# 3 44.3991 60.3879 107.3700 0.0000 -44.4464 0.0000
# 4 0.0000 0.0000 0.0000 25.7218 0.0000 -2.4786
# 5 -49.8478 -33.5624 -44.4464 0.0000 51.2241 0.0000
# 6 0.0000 0.0000 0.0000 -2.4786 0.0000 28.9882
#
#
#
# Elastic Compliance Matrix: (Units=1/GPa)
#
#
# Indices 1 2 3 4 5 6 
#
# 1 0.017552 -0.004946 0.001955 0.000000 0.015536 0.000000
# 2 -0.004946 0.008791 -0.003912 0.000000 -0.002448 0.000000
# 3 0.001955 -0.003912 0.016279 0.000000 0.013464 0.000000
# 4 0.000000 0.000000 0.000000 0.039200 0.000000 0.003352
# 5 0.015536 -0.002448 0.013464 0.000000 0.044720 0.000000
# 6 0.000000 0.000000 0.000000 0.003352 0.000000 0.034783
#
#
# Mechanical properties :
#
#
# Convention : Reuss Voigt Hill
#
# Bulk Modulus (GPa) = 34.70314 83.01163 58.85739
# Shear Modulus (GPa) = 27.06537 35.78180 31.42358
#
# Velocity S-wave (km/s) = 3.77440 4.33983 4.06695
# Velocity P-wave (km/s) = 6.10419 8.29495 7.28242
#
# Compressibility (1/GPa) = 0.02881584
#
# Stress axis : x y z
#
# Youngs Moduli (GPa) = 56.97298 113.75235 61.42797
#
# Poissons Ratio (x) = 0.56260 -0.12009
# Poissons Ratio (y) = 0.28178 0.24033
# Poissons Ratio (z) = -0.11138 0.44504
#
# Static dielectric constant tensor:
#      x y z
#    x 1.694040 0.000000 0.041640 
#    y 0.000000 1.658130 0.000000 
#    z 0.041640 0.000000 1.641950 
# 
# From -- ./inp_files/79956.got.cif
#   From: 2010.05.17/outbox.cif.g08.bks.cpg/sg12_40_cif.got.tgz:79956.got - 2010.06.03 13:09:07.
