data_PCOD9212486
_publ_section_title
;
Structure prediction by ZEFSAII (Michael W. Deem and Ramdas Pophale) SiO2 
 PCOD9212486
Probable space group: C 2/M
;
_chemical_formula_sum "Si O2"
_cell_formula_units_Z 48
_cell_length_a 13.832578
_cell_length_b 25.090852
_cell_length_c 6.914736
_cell_angle_alpha 90.000000
_cell_angle_beta 87.157683
_cell_angle_gamma 90.000000
_cell_volume 2396.953098
_symmetry_space_group_name_H-M "C 2/M"
_symmetry_group_IT_number 12
_symmetry_cell_setting 'monoclinic'
loop_
_space_group_symop_operation_xyz
x,y,z
-x,y,-z
-x,-y,-z
x,-y,z
1/2+x,1/2+y,z
1/2-x,1/2+y,-z
1/2-x,1/2-y,-z
1/2+x,1/2-y,z
loop_
_atom_site_type_symbol
_atom_site_label
_atom_site_fract_x
_atom_site_fract_y
_atom_site_fract_z
Si Si1 0.895061 0.782276 0.454772
Si Si2 0.895879 0.000000 0.106081
Si Si3 0.604972 0.405132 0.588583
Si Si4 0.303796 0.894569 0.321601
Si Si5 0.260411 0.783838 0.192698
Si Si6 0.500000 0.091185 0.500000
Si Si7 0.054866 0.500000 0.198681
Si Si8 0.209985 0.500000 0.908471
O O1 0.902805 0.841920 0.364875
O O2 0.833123 0.783409 0.658405
O O3 0.842763 0.744574 0.309761
O O4 0.000000 0.762628 0.500000
O O5 0.883037 0.947225 0.239558
O O6 0.823286 0.000000 0.932840
O O7 0.000000 0.000000 0.000000
O O8 0.500000 0.418262 0.500000
O O9 0.704150 0.405736 0.450686
O O10 0.286145 0.846096 0.175049
O O11 0.399373 0.881260 0.441337
O O12 0.322920 0.948444 0.204210
O O13 0.250000 0.750000 0.000000
O O14 0.531289 0.051999 0.323656
O O15 0.166332 0.500000 0.127238
O O16 0.000000 0.500000 0.000000
#
# Coordination Sequence:
#
# PCOD9212486 Si02
#       8
#     8   4   8   8   8   4   4   4
#     4   9  21  43  66  90 124 170 212 259 331 390
#     4  12  24  35  60 100 131 164 220 277 318 382
#     4  10  21  42  63  86 126 171 209 263 324 385
#     4  11  23  40  66  93 126 174 209 266 332 385
#     4  10  23  42  65  93 127 161 217 273 318 389
#     4  11  22  40  62  90 132 170 208 255 320 392
#     4  11  20  40  59  87 129 170 210 251 313 382
#     4  12  23  38  59  95 126 160 215 254 319 393
#
# _framework density 20.025423
#
# number of rings (size 3 to 8) (size 9 to 14) (size 15 to 20)
#    0.000    1.500    1.667    3.250    3.500    0.667 
#    3.000    1.667    0.000    0.000    0.000    0.000 
#    0.000    0.000    0.000    0.000    0.000    0.000 
#
# Total GULP energy -133887.805375 kJ/mol
# GULP energy per Si atom -5578.658557 kJ/mol
# Density = 1.997984 g / cm^3
# Si number density = 20.025423 Si / 1000 Ang^3
#
#
#
# Elastic Constant Matrix: (Units=GPa)
#
#
# Indices 1 2 3 4 5 6 
#
# 1 140.9944 29.6010 27.1628 0.0000 10.5248 0.0000
# 2 29.6010 101.8767 53.0406 0.0000 -0.2136 0.0000
# 3 27.1628 53.0406 74.4886 0.0000 2.0639 0.0000
# 4 0.0000 0.0000 0.0000 48.2857 0.0000 9.0270
# 5 10.5248 -0.2136 2.0639 0.0000 26.1296 0.0000
# 6 0.0000 0.0000 0.0000 9.0270 0.0000 37.4801
#
#
#
# Elastic Compliance Matrix: (Units=1/GPa)
#
#
# Indices 1 2 3 4 5 6 
#
# 1 0.007963 -0.001355 -0.001854 0.000000 -0.003072 0.000000
# 2 -0.001355 0.015856 -0.010838 0.000000 0.001531 0.000000
# 3 -0.001854 -0.010838 0.021848 0.000000 -0.001068 0.000000
# 4 0.000000 0.000000 0.000000 0.021687 0.000000 -0.005223
# 5 -0.003072 0.001531 -0.001068 0.000000 0.039605 0.000000
# 6 0.000000 0.000000 0.000000 -0.005223 0.000000 0.027939
#
#
# Mechanical properties :
#
#
# Convention : Reuss Voigt Hill
#
# Bulk Modulus (GPa) = 56.90770 59.66314 58.28542
# Shear Modulus (GPa) = 29.61207 36.21611 32.91409
#
# Velocity S-wave (km/s) = 3.84959 4.25727 4.05855
# Velocity P-wave (km/s) = 6.94540 7.35011 7.15062
#
# Compressibility (1/GPa) = 0.01757232
#
# Stress axis : x y z
#
# Youngs Moduli (GPa) = 125.57353 63.06914 45.77040
#
# Poissons Ratio (x) = 0.08546 0.08485
# Poissons Ratio (y) = 0.17016 0.49608
# Poissons Ratio (z) = 0.23280 0.68357
#
# Static dielectric constant tensor:
#      x y z
#    x 1.777640 0.000000 -0.009180 
#    y 0.000000 1.706110 0.000000 
#    z -0.009180 0.000000 1.682530 
# 
# From -- ./inp_files/12440.got.cif
#   From: 2010.05.17/outbox.cif.g08.bks.cpg/sg12_7_cif.got.tgz:12440.got - 2010.06.03 13:09:07.
