data_PCOD9212728
_publ_section_title
;
Structure prediction by ZEFSAII (Michael W. Deem and Ramdas Pophale) SiO2 
 PCOD9212728
Probable space group: C 2/M
;
_chemical_formula_sum "Si O2"
_cell_formula_units_Z 40
_cell_length_a 11.308934
_cell_length_b 20.375255
_cell_length_c 17.393625
_cell_angle_alpha 90.000000
_cell_angle_beta 154.275469
_cell_angle_gamma 90.000000
_cell_volume 1739.600086
_symmetry_space_group_name_H-M "C 2/M"
_symmetry_group_IT_number 12
_symmetry_cell_setting 'monoclinic'
loop_
_space_group_symop_operation_xyz
x,y,z
-x,y,-z
-x,-y,-z
x,-y,z
1/2+x,1/2+y,z
1/2-x,1/2+y,-z
1/2-x,1/2-y,-z
1/2+x,1/2-y,z
loop_
_atom_site_type_symbol
_atom_site_label
_atom_site_fract_x
_atom_site_fract_y
_atom_site_fract_z
Si Si1 0.181709 0.500000 0.182263
Si Si2 0.811700 0.000000 0.707464
Si Si3 0.785628 0.232326 0.209259
Si Si4 0.572449 0.603651 0.343582
Si Si5 0.741133 0.000000 0.923900
Si Si6 0.500000 0.312196 0.500000
Si Si7 0.493059 0.874353 0.291253
O O1 0.374033 0.564074 0.286088
O O2 0.980307 0.500000 0.135620
O O3 0.000000 0.500000 0.000000
O O4 0.500000 0.000000 0.500000
O O5 0.941994 0.064326 0.743361
O O6 0.943347 0.000000 0.867338
O O7 0.853383 0.224930 0.341004
O O8 0.993147 0.179417 0.294166
O O9 0.841550 0.306695 0.218622
O O10 0.500000 0.214028 0.000000
O O11 0.876083 0.598945 0.553601
O O12 0.675611 0.931685 0.844984
O O13 0.256054 0.354492 0.393899
#
# Coordination Sequence:
#
# PCOD9212728 Si02
#       7
#     4   4   8   8   4   4   8
#     4  11  19  36  71 105 127 170 229 295 337 398
#     4  11  26  43  66 101 132 192 224 271 344 425
#     4  11  25  45  71 104 141 181 237 292 342 415
#     4  10  21  43  69  97 143 168 225 294 342 398
#     4  12  23  42  70  99 137 180 238 278 355 411
#     4  10  22  45  74 105 138 180 228 284 370 401
#     4  11  25  44  67 104 139 181 230 293 343 418
#
# _framework density 22.993791000000002
#
# number of rings (size 3 to 8) (size 9 to 14) (size 15 to 20)
#    0.000    1.200    2.000    6.600    2.800    3.600 
#   10.800    1.500    0.000    0.000    0.000    0.000 
#    0.000    0.000    0.000    0.000    0.000    0.000 
#
# Total GULP energy -111734.999420 kJ/mol
# GULP energy per Si atom -5586.749971 kJ/mol
# Density = 2.294146 g / cm^3
# Si number density = 22.993791 Si / 1000 Ang^3
#
#
#
# Elastic Constant Matrix: (Units=GPa)
#
#
# Indices 1 2 3 4 5 6 
#
# 1 70.1665 39.7530 25.4560 0.0159 -8.9453 -0.0027
# 2 39.7530 155.9653 64.3182 0.0208 -25.0631 0.0068
# 3 25.4560 64.3182 182.7336 0.0647 -18.1927 -0.0070
# 4 0.0159 0.0208 0.0647 60.7388 0.0084 -7.7327
# 5 -8.9453 -25.0631 -18.1927 0.0084 29.9973 -0.0045
# 6 -0.0027 0.0068 -0.0070 -7.7327 -0.0045 28.0647
#
#
#
# Elastic Compliance Matrix: (Units=1/GPa)
#
#
# Indices 1 2 3 4 5 6 
#
# 1 0.016853 -0.003699 -0.000908 -0.000002 0.001385 0.000002
# 2 -0.003699 0.009078 -0.002165 -0.000001 0.005169 -0.000003
# 3 -0.000908 -0.002165 0.006550 -0.000006 0.001892 0.000001
# 4 -0.000002 -0.000001 -0.000006 0.017062 -0.000009 0.004701
# 5 0.001385 0.005169 0.001892 -0.000009 0.039215 0.000003
# 6 0.000002 -0.000003 0.000001 0.004701 0.000003 0.036927
#
#
# Mechanical properties :
#
#
# Convention : Reuss Voigt Hill
#
# Bulk Modulus (GPa) = 52.80811 74.21333 63.51072
# Shear Modulus (GPa) = 34.35433 42.38270 38.36851
#
# Velocity S-wave (km/s) = 3.86951 4.29794 4.08934
# Velocity P-wave (km/s) = 6.55594 7.54819 7.06949
#
# Compressibility (1/GPa) = 0.01893648
#
# Stress axis : x y z
#
# Youngs Moduli (GPa) = 59.33566 110.15691 152.68314
#
# Poissons Ratio (x) = 0.40743 0.13865
# Poissons Ratio (y) = 0.21946 0.33062
# Poissons Ratio (z) = 0.05388 0.23854
#
# Static dielectric constant tensor:
#      x y z
#    x 1.907190 0.000000 -0.010820 
#    y 0.000000 1.821010 -0.000070 
#    z -0.010820 -0.000070 1.891170 
# 
# From -- ./inp_files/312228.got.cif
#   From: 2010.05.17/outbox.cif.g08.bks.cpg/sg12_157_cif.got.tgz:312228.got - 2010.06.03 13:09:07.
