data_PCOD9212332
_publ_section_title
;
Structure prediction by ZEFSAII (Michael W. Deem and Ramdas Pophale) SiO2 
 PCOD9212332
Probable space group: C 2/M
;
_chemical_formula_sum "Si O2"
_cell_formula_units_Z 56
_cell_length_a 11.481085
_cell_length_b 26.966288
_cell_length_c 10.567463
_cell_angle_alpha 90.000000
_cell_angle_beta 51.189075
_cell_angle_gamma 90.000000
_cell_volume 2549.377073
_symmetry_space_group_name_H-M "C 2/M"
_symmetry_group_IT_number 12
_symmetry_cell_setting 'monoclinic'
loop_
_space_group_symop_operation_xyz
x,y,z
-x,y,-z
-x,-y,-z
x,-y,z
1/2+x,1/2+y,z
1/2-x,1/2+y,-z
1/2-x,1/2-y,-z
1/2+x,1/2-y,z
loop_
_atom_site_type_symbol
_atom_site_label
_atom_site_fract_x
_atom_site_fract_y
_atom_site_fract_z
Si Si1 0.453909 0.556741 0.328099
Si Si2 0.817457 0.441947 0.849312
Si Si3 0.617284 0.369179 0.824108
Si Si4 0.762285 0.897308 0.824645
Si Si5 0.882430 0.212003 0.700241
Si Si6 0.145997 0.442846 0.676059
Si Si7 0.845543 0.231840 0.316792
O O1 0.458325 0.500000 0.288360
O O2 0.476449 0.592075 0.193936
O O3 0.595224 0.569634 0.317365
O O4 0.291501 0.567518 0.493781
O O5 0.769228 0.500000 0.870974
O O6 0.735088 0.403336 0.815210
O O7 0.993866 0.439932 0.702273
O O8 0.794520 0.422298 0.008077
O O9 0.679251 0.326254 0.693807
O O10 0.500000 0.344386 0.000000
O O11 0.821725 0.841299 0.787687
O O12 0.644186 0.905031 0.793533
O O13 0.735672 0.240873 0.746860
O O14 0.000000 0.206225 0.500000
O O15 0.982383 0.235661 0.747168
O O16 0.155206 0.500000 0.717193
O O17 0.750000 0.250000 0.500000
#
# Coordination Sequence:
#
# PCOD9212332 Si02
#       7
#     8   8   8   8   8   8   8
#     4  11  22  38  67  99 134 178 225 272 333 403
#     4  11  24  42  64  97 144 185 219 273 343 410
#     4  12  24  44  69  97 134 171 229 282 338 408
#     4  12  21  38  69  98 135 180 230 275 340 410
#     4  10  21  41  67  96 132 170 228 295 348 402
#     4  10  23  39  58  95 141 180 227 278 328 400
#     4  10  23  44  68  95 128 176 223 289 348 406
#
# _framework density 21.966149000000001
#
# number of rings (size 3 to 8) (size 9 to 14) (size 15 to 20)
#    0.000    1.143    2.857    3.429    2.000    4.571 
#    5.143    6.429    0.000    0.000    0.000    0.000 
#    0.000    0.000    0.000    0.000    0.000    0.000 
#
# Total GULP energy -156246.405724 kJ/mol
# GULP energy per Si atom -5580.228776 kJ/mol
# Density = 2.191615 g / cm^3
# Si number density = 21.966149 Si / 1000 Ang^3
#
#
#
# Elastic Constant Matrix: (Units=GPa)
#
#
# Indices 1 2 3 4 5 6 
#
# 1 132.8719 47.4034 19.2992 0.0000 -9.2320 0.0000
# 2 47.4034 98.0284 24.7169 0.0000 0.5015 0.0000
# 3 19.2992 24.7169 39.3665 0.0000 -12.7056 0.0000
# 4 0.0000 0.0000 0.0000 -23.3738 0.0000 -1.6579
# 5 -9.2320 0.5015 -12.7056 0.0000 26.7875 0.0000
# 6 0.0000 0.0000 0.0000 -1.6579 0.0000 44.3898
#
#
#
# Elastic Compliance Matrix: (Units=1/GPa)
#
#
# Indices 1 2 3 4 5 6 
#
# 1 0.009407 -0.004317 -0.000979 0.000000 0.002859 0.000000
# 2 -0.004317 0.014585 -0.008985 0.000000 -0.006022 0.000000
# 3 -0.000979 -0.008985 0.037157 0.000000 0.017455 0.000000
# 4 0.000000 0.000000 0.000000 -0.042670 0.000000 -0.001594
# 5 0.002859 -0.006022 0.017455 0.000000 0.046708 0.000000
# 6 0.000000 0.000000 0.000000 -0.001594 0.000000 0.022468
#
#
# Mechanical properties :
#
#
# Convention : Reuss Voigt Hill
#
# Bulk Modulus (GPa) = 30.68601 50.34507 40.51554
# Shear Modulus (GPa) = 39.34604 21.48386 30.41495
#
# Velocity S-wave (km/s) = 4.23686 3.13076 3.72510
# Velocity P-wave (km/s) = 6.15911 6.00317 6.08164
#
# Compressibility (1/GPa) = 0.03258814
#
# Stress axis : x y z
#
# Youngs Moduli (GPa) = 106.30558 68.56470 26.91292
#
# Poissons Ratio (x) = 0.29597 0.02634
# Poissons Ratio (y) = 0.45889 0.24181
# Poissons Ratio (z) = 0.10405 0.61604
#
# Static dielectric constant tensor:
#      x y z
#    x 1.884100 0.000000 0.015320 
#    y 0.000000 1.757900 0.000000 
#    z 0.015320 0.000000 1.832540 
# 
# From -- ./inp_files/136924.got.cif
#   From: 2010.05.17/outbox.cif.g08.bks.cpg/sg12_69_cif.got.tgz:136924.got - 2010.06.03 13:09:07.
