data_PCOD9212688
_publ_section_title
;
Structure prediction by ZEFSAII (Michael W. Deem and Ramdas Pophale) SiO2 
 PCOD9212688
Probable space group: C 2/M
;
_chemical_formula_sum "Si O2"
_cell_formula_units_Z 54
_cell_length_a 10.843161
_cell_length_b 26.686385
_cell_length_c 10.500222
_cell_angle_alpha 90.000000
_cell_angle_beta 55.815143
_cell_angle_gamma 90.000000
_cell_volume 2513.448198
_symmetry_space_group_name_H-M "C 2/M"
_symmetry_group_IT_number 12
_symmetry_cell_setting 'monoclinic'
loop_
_space_group_symop_operation_xyz
x,y,z
-x,y,-z
-x,-y,-z
x,-y,z
1/2+x,1/2+y,z
1/2-x,1/2+y,-z
1/2-x,1/2-y,-z
1/2+x,1/2-y,z
loop_
_atom_site_type_symbol
_atom_site_label
_atom_site_fract_x
_atom_site_fract_y
_atom_site_fract_z
Si Si1 0.885322 0.415564 0.244100
Si Si2 0.332223 0.783484 0.641593
Si Si3 0.239886 0.181366 0.205455
Si Si4 0.610060 0.555644 0.558682
Si Si5 0.500000 0.638605 0.000000
Si Si6 0.918752 0.838321 0.314290
Si Si7 0.815430 0.360730 0.884193
Si Si8 0.500000 0.000000 0.000000
O O1 0.809637 0.363782 0.244632
O O2 0.779134 0.438968 0.411885
O O3 0.052378 0.400638 0.185990
O O4 0.896577 0.455834 0.125567
O O5 0.500000 0.772247 0.500000
O O6 0.239086 0.735750 0.746540
O O7 0.237620 0.810222 0.582985
O O8 0.345678 0.822437 0.751534
O O9 0.060426 0.177130 0.312369
O O10 0.297986 0.170033 0.027608
O O11 0.500000 0.562145 0.500000
O O12 0.582157 0.500000 0.626461
O O13 0.589785 0.601915 0.664829
O O14 0.536027 0.671988 0.857259
O O15 0.655746 0.613006 0.947341
#
# Coordination Sequence:
#
# PCOD9212688 Si02
#       8
#     8   8   8   8   4   8   8   2
#     4  12  23  41  68  98 130 164 218 276 333 385
#     4  11  25  40  63  92 133 183 219 263 326 387
#     4  11  23  39  63  97 129 171 218 271 324 389
#     4  11  23  40  67  98 130 170 213 274 338 388
#     4   8  20  42  68  88 122 177 210 263 322 372
#     4  10  22  43  64  92 136 171 222 272 317 395
#     4  10  21  43  65  91 129 170 220 267 319 392
#     4  12  24  44  64 102 130 160 222 282 334 376
#
# _framework density 21.48443
#
# number of rings (size 3 to 8) (size 9 to 14) (size 15 to 20)
#    0.000    1.333    3.704    1.333    4.148    0.593 
#    8.000    0.370    6.519    4.000    0.000    0.000 
#    0.000    0.000    0.000    0.000    0.000    0.000 
#
# Total GULP energy -150396.172819 kJ/mol
# GULP energy per Si atom -5570.228623 kJ/mol
# Density = 2.143553 g / cm^3
# Si number density = 21.484430 Si / 1000 Ang^3
#
#
#
# Elastic Constant Matrix: (Units=GPa)
#
#
# Indices 1 2 3 4 5 6 
#
# 1 108.3964 40.4800 7.7936 0.0000 -33.6444 0.0000
# 2 40.4800 135.8511 22.2432 0.0000 -6.3849 0.0000
# 3 7.7936 22.2432 68.3006 0.0000 -9.8248 0.0000
# 4 0.0000 0.0000 0.0000 20.3935 0.0000 -18.5396
# 5 -33.6444 -6.3849 -9.8248 0.0000 30.3323 0.0000
# 6 0.0000 0.0000 0.0000 -18.5396 0.0000 23.9115
#
#
#
# Elastic Compliance Matrix: (Units=1/GPa)
#
#
# Indices 1 2 3 4 5 6 
#
# 1 0.016201 -0.004340 0.002117 0.000000 0.017742 0.000000
# 2 -0.004340 0.008960 -0.002983 0.000000 -0.003894 0.000000
# 3 0.002117 -0.002983 0.016382 0.000000 0.007026 0.000000
# 4 0.000000 0.000000 0.000000 0.166140 0.000000 0.128815
# 5 0.017742 -0.003894 0.007026 0.000000 0.054103 0.000000
# 6 0.000000 0.000000 0.000000 0.128815 0.000000 0.141697
#
#
# Mechanical properties :
#
#
# Convention : Reuss Voigt Hill
#
# Bulk Modulus (GPa) = 32.12333 50.39796 41.26065
# Shear Modulus (GPa) = 11.78492 31.06289 21.42391
#
# Velocity S-wave (km/s) = 2.34462 3.80654 3.16125
# Velocity P-wave (km/s) = 4.72377 6.54434 5.70712
#
# Compressibility (1/GPa) = 0.03113002
#
# Stress axis : x y z
#
# Youngs Moduli (GPa) = 61.72554 111.61218 61.04379
#
# Poissons Ratio (x) = 0.48441 -0.12922
# Poissons Ratio (y) = 0.26790 0.18208
# Poissons Ratio (z) = -0.13067 0.33291
#
# Static dielectric constant tensor:
#      x y z
#    x 1.834910 0.000000 -0.007430 
#    y 0.000000 1.740300 0.000000 
#    z -0.007430 0.000000 1.879500 
# 
# From -- ./inp_files/136963.got.cif
#   From: 2010.05.17/outbox.cif.g08.bks.cpg/sg12_69_cif.got.tgz:136963.got - 2010.06.03 13:09:07.
