data_PCOD9212619
_publ_section_title
;
Structure prediction by ZEFSAII (Michael W. Deem and Ramdas Pophale) SiO2 
 PCOD9212619
Probable space group: C 2/M
;
_chemical_formula_sum "Si O2"
_cell_formula_units_Z 48
_cell_length_a 19.144801
_cell_length_b 29.399279
_cell_length_c 8.948036
_cell_angle_alpha 90.000000
_cell_angle_beta 27.668901
_cell_angle_gamma 90.000000
_cell_volume 2338.683082
_symmetry_space_group_name_H-M "C 2/M"
_symmetry_group_IT_number 12
_symmetry_cell_setting 'monoclinic'
loop_
_space_group_symop_operation_xyz
x,y,z
-x,y,-z
-x,-y,-z
x,-y,z
1/2+x,1/2+y,z
1/2-x,1/2+y,-z
1/2-x,1/2-y,-z
1/2+x,1/2-y,z
loop_
_atom_site_type_symbol
_atom_site_label
_atom_site_fract_x
_atom_site_fract_y
_atom_site_fract_z
Si Si1 0.344781 0.127307 0.379719
Si Si2 0.649763 0.449105 0.617993
Si Si3 0.173361 0.794591 0.220347
Si Si4 0.838045 0.377357 0.738360
Si Si5 0.431349 0.448198 0.791542
Si Si6 0.844839 0.791410 0.384422
O O1 0.274025 0.078358 0.472832
O O2 0.364467 0.138183 0.517036
O O3 0.227612 0.161903 0.531687
O O4 0.500000 0.132238 0.000000
O O5 0.703897 0.500000 0.478027
O O6 0.571463 0.427335 0.620369
O O7 0.500000 0.451931 0.000000
O O8 0.164074 0.790588 0.418285
O O9 0.000000 0.798507 0.500000
O O10 0.250000 0.750000 0.000000
O O11 0.264991 0.838039 0.980942
O O12 0.000000 0.391023 0.500000
O O13 0.716012 0.417460 0.944817
O O14 0.500000 0.452772 0.500000
O O15 0.397714 0.500000 0.911321
O O16 0.750000 0.750000 0.500000
O O17 0.000000 0.788179 0.000000
#
# Coordination Sequence:
#
# PCOD9212619 Si02
#       6
#     8   8   8   8   8   8
#     4  12  26  42  66  99 135 178 227 281 335 398
#     4  10  21  42  69  96 131 178 229 281 336 400
#     4  12  26  46  71 100 136 177 220 274 336 402
#     4  12  26  43  66  97 138 179 224 277 339 402
#     4  10  23  42  68  98 133 177 228 280 338 404
#     4  12  26  46  72 100 135 174 224 276 332 397
#
# _framework density 20.524370999999999
#
# number of rings (size 3 to 8) (size 9 to 14) (size 15 to 20)
#    0.000    0.667    1.667    6.000    7.000    0.667 
#    0.000    0.000    0.000    0.000    0.000    0.000 
#    0.000    0.000    0.000    0.000    0.000    0.000 
#
# Total GULP energy -133967.663218 kJ/mol
# GULP energy per Si atom -5581.985967 kJ/mol
# Density = 2.047766 g / cm^3
# Si number density = 20.524371 Si / 1000 Ang^3
#
#
#
# Elastic Constant Matrix: (Units=GPa)
#
#
# Indices 1 2 3 4 5 6 
#
# 1 179.5570 26.4707 51.9490 -0.0001 27.3877 0.0001
# 2 26.4707 77.9659 37.0491 0.0000 -1.1270 0.0000
# 3 51.9490 37.0491 145.6493 -0.0003 12.4290 0.0002
# 4 -0.0001 0.0000 -0.0003 25.7174 0.0002 -3.9139
# 5 27.3877 -1.1270 12.4290 0.0002 40.9988 -0.0002
# 6 0.0001 0.0000 0.0002 -3.9139 -0.0002 37.1587
#
#
#
# Elastic Compliance Matrix: (Units=1/GPa)
#
#
# Indices 1 2 3 4 5 6 
#
# 1 0.006935 -0.001601 -0.001711 0.000000 -0.004158 0.000000
# 2 -0.001601 0.015058 -0.003476 0.000000 0.002537 0.000000
# 3 -0.001711 -0.003476 0.008491 0.000000 -0.001526 0.000000
# 4 0.000000 0.000000 0.000000 0.039518 0.000000 0.004162
# 5 -0.004158 0.002537 -0.001526 0.000000 0.027701 0.000000
# 6 0.000000 0.000000 0.000000 0.004162 0.000000 0.027350
#
#
# Mechanical properties :
#
#
# Convention : Reuss Voigt Hill
#
# Bulk Modulus (GPa) = 59.14840 70.45666 64.80253
# Shear Modulus (GPa) = 34.65871 39.95521 37.30696
#
# Velocity S-wave (km/s) = 4.11379 4.41695 4.26806
# Velocity P-wave (km/s) = 7.17255 7.77274 7.47867
#
# Compressibility (1/GPa) = 0.01690663
#
# Stress axis : x y z
#
# Youngs Moduli (GPa) = 144.20470 66.40928 117.77808
#
# Poissons Ratio (x) = 0.10634 0.20155
# Poissons Ratio (y) = 0.23092 0.40937
# Poissons Ratio (z) = 0.24677 0.23082
#
# Static dielectric constant tensor:
#      x y z
#    x 1.954890 0.000000 0.106560 
#    y 0.000000 1.744510 0.000000 
#    z 0.106560 0.000000 1.703880 
# 
# From -- ./inp_files/80626.got.cif
#   From: 2010.05.17/outbox.cif.g08.bks.cpg/sg12_41_cif.got.tgz:80626.got - 2010.06.03 13:09:07.
