data_PCOD9212686
_publ_section_title
;
Structure prediction by ZEFSAII (Michael W. Deem and Ramdas Pophale) SiO2 
 PCOD9212686
Probable space group: C 2/M
;
_chemical_formula_sum "Si O2"
_cell_formula_units_Z 30
_cell_length_a 11.485711
_cell_length_b 23.273207
_cell_length_c 4.965973
_cell_angle_alpha 90.000000
_cell_angle_beta 117.337238
_cell_angle_gamma 90.000000
_cell_volume 1179.199811
_symmetry_space_group_name_H-M "C 2/M"
_symmetry_group_IT_number 12
_symmetry_cell_setting 'monoclinic'
loop_
_space_group_symop_operation_xyz
x,y,z
-x,y,-z
-x,-y,-z
x,-y,z
1/2+x,1/2+y,z
1/2-x,1/2+y,-z
1/2-x,1/2-y,-z
1/2+x,1/2-y,z
loop_
_atom_site_type_symbol
_atom_site_label
_atom_site_fract_x
_atom_site_fract_y
_atom_site_fract_z
Si Si1 0.000000 0.792185 0.500000
Si Si2 0.500000 0.208301 0.000000
Si Si3 0.883530 0.885295 0.659982
Si Si4 0.000000 0.000000 0.500000
Si Si5 0.142941 0.378208 0.797675
Si Si6 0.403910 0.000000 0.143020
O O1 0.975844 0.750378 0.724015
O O2 0.886569 0.839686 0.417612
O O3 0.613029 0.167344 0.999659
O O4 0.752118 0.872282 0.686546
O O5 0.918862 0.948497 0.583649
O O6 0.000000 0.872663 0.000000
O O7 0.175111 0.441376 0.947839
O O8 0.000000 0.380690 0.500000
O O9 0.500000 0.000000 0.500000
O O10 0.500000 0.000000 0.000000
#
# Coordination Sequence:
#
# PCOD9212686 Si02
#       6
#     4   4   8   2   8   4
#     4  11  26  49  72 107 148 197 248 304 360 439
#     4  12  24  47  74 109 146 194 252 302 364 432
#     4  11  25  50  74 106 146 194 242 301 367 436
#     4  10  24  46  78 110 144 190 244 296 366 446
#     4  11  25  46  73 107 146 191 242 304 368 431
#     4  10  21  43  65 103 139 178 226 295 360 426
#
# _framework density 25.44098
#
# number of rings (size 3 to 8) (size 9 to 14) (size 15 to 20)
#    0.000    1.067    4.000    1.200    0.000    6.400 
#    9.600    0.000    0.000    0.000    0.000    0.000 
#    0.000    0.000    0.000    0.000    0.000    0.000 
#
# Total GULP energy -83514.835077 kJ/mol
# GULP energy per Si atom -5567.655672 kJ/mol
# Density = 2.538308 g / cm^3
# Si number density = 25.440980 Si / 1000 Ang^3
#
#
#
# Elastic Constant Matrix: (Units=GPa)
#
#
# Indices 1 2 3 4 5 6 
#
# 1 258.0379 77.9914 55.4474 0.0000 -40.9348 0.0000
# 2 77.9914 252.7577 35.7318 0.0000 -43.7467 0.0000
# 3 55.4474 35.7318 98.8779 0.0000 -21.7680 0.0000
# 4 0.0000 0.0000 0.0000 34.4258 0.0000 -51.7019
# 5 -40.9348 -43.7467 -21.7680 0.0000 68.1626 0.0000
# 6 0.0000 0.0000 0.0000 -51.7019 0.0000 27.2501
#
#
#
# Elastic Compliance Matrix: (Units=1/GPa)
#
#
# Indices 1 2 3 4 5 6 
#
# 1 0.004854 -0.000922 -0.002019 0.000000 0.001679 0.000000
# 2 -0.000922 0.004730 -0.000695 0.000000 0.002260 0.000000
# 3 -0.002019 -0.000695 0.011974 0.000000 0.002165 0.000000
# 4 0.000000 0.000000 0.000000 -0.015706 0.000000 -0.029800
# 5 0.001679 0.002260 0.002165 0.000000 0.017821 0.000000
# 6 0.000000 0.000000 0.000000 -0.029800 0.000000 -0.019842
#
#
# Mechanical properties :
#
#
# Convention : Reuss Voigt Hill
#
# Bulk Modulus (GPa) = 69.99858 105.33497 87.66677
# Shear Modulus (GPa) = 315.16170 55.33456 185.24813
#
# Velocity S-wave (km/s) = 11.14219 4.66877 8.54242
# Velocity P-wave (km/s) = 13.89623 8.39980 11.48177
#
# Compressibility (1/GPa) = 0.01428600
#
# Stress axis : x y z
#
# Youngs Moduli (GPa) = 206.00484 211.40561 83.51665
#
# Poissons Ratio (x) = 0.19488 0.16866
# Poissons Ratio (y) = 0.18990 0.05803
# Poissons Ratio (z) = 0.41601 0.14689
#
# Static dielectric constant tensor:
#      x y z
#    x 1.493400 0.000000 -0.152160 
#    y 0.000000 2.083240 0.000000 
#    z -0.152160 0.000000 2.044750 
# 
# From -- ./inp_files/6782.got.cif
#   From: 2010.05.17/outbox.cif.g08.bks.cpg/sg12_4_cif.got.tgz:6782.got - 2010.06.03 13:09:07.
