data_PCOD9212592
_publ_section_title
;
Structure prediction by ZEFSAII (Michael W. Deem and Ramdas Pophale) SiO2 
 PCOD9212592
Probable space group: C 2/M
;
_chemical_formula_sum "Si O2"
_cell_formula_units_Z 60
_cell_length_a 18.437708
_cell_length_b 12.492099
_cell_length_c 18.926125
_cell_angle_alpha 90.000000
_cell_angle_beta 42.559474
_cell_angle_gamma 90.000000
_cell_volume 2948.348764
_symmetry_space_group_name_H-M "C 2/M"
_symmetry_group_IT_number 12
_symmetry_cell_setting 'monoclinic'
loop_
_space_group_symop_operation_xyz
x,y,z
-x,y,-z
-x,-y,-z
x,-y,z
1/2+x,1/2+y,z
1/2-x,1/2+y,-z
1/2-x,1/2-y,-z
1/2+x,1/2-y,z
loop_
_atom_site_type_symbol
_atom_site_label
_atom_site_fract_x
_atom_site_fract_y
_atom_site_fract_z
Si Si1 0.628596 0.878428 0.414014
Si Si2 0.847732 0.500000 0.285762
Si Si3 0.206437 0.730511 0.223929
Si Si4 0.217068 0.618725 0.066013
Si Si5 0.564679 0.295205 0.125838
Si Si6 0.793640 0.809699 0.538284
Si Si7 0.929207 0.679874 0.118329
Si Si8 0.514694 0.624837 0.312498
O O1 0.500000 0.865834 0.500000
O O2 0.674153 0.859104 0.303325
O O3 0.679862 0.784839 0.424678
O O4 0.650759 0.000000 0.423421
O O5 0.782921 0.402961 0.376225
O O6 0.908007 0.592439 0.193555
O O7 0.221820 0.677790 0.137089
O O8 0.313906 0.787210 0.171350
O O9 0.110938 0.816114 0.284250
O O10 0.176171 0.500000 0.103639
O O11 0.133637 0.685415 0.079539
O O12 0.337778 0.621172 0.950116
O O13 0.486276 0.280894 0.116360
O O14 0.505852 0.318721 0.241817
O O15 0.750000 0.750000 0.500000
O O16 0.906720 0.860825 0.434020
O O17 0.000000 0.645895 0.000000
O O18 0.538275 0.500000 0.285874
#
# Coordination Sequence:
#
# PCOD9212592 Si02
#       8
#     8   4   8   8   8   8   8   8
#     4  11  24  45  70  99 138 182 231 290 352 421
#     4  12  27  46  73 102 141 184 227 289 361 413
#     4  11  23  43  69 101 139 182 231 291 346 419
#     4  10  21  42  68  95 133 181 230 279 343 410
#     4  10  23  43  65  99 140 175 229 289 338 418
#     4  12  26  47  70 104 141 180 237 286 354 425
#     4  12  25  47  69 102 142 182 233 291 352 413
#     4  11  24  43  70 100 140 184 231 289 352 418
#
# _framework density 20.350373999999999
#
# number of rings (size 3 to 8) (size 9 to 14) (size 15 to 20)
#    0.000    0.933    4.667    1.800    2.800    0.000 
#    0.000    4.333    0.000    0.000    0.000    0.000 
#    0.000    0.000    0.000    0.000    0.000    0.000 
#
# Total GULP energy -167062.748448 kJ/mol
# GULP energy per Si atom -5568.758282 kJ/mol
# Density = 2.030406 g / cm^3
# Si number density = 20.350374 Si / 1000 Ang^3
#
#
#
# Elastic Constant Matrix: (Units=GPa)
#
#
# Indices 1 2 3 4 5 6 
#
# 1 76.0771 23.9103 18.0286 0.0000 2.0364 0.0000
# 2 23.9103 124.5335 19.1005 0.0000 -0.5366 0.0000
# 3 18.0286 19.1005 130.2653 0.0000 13.9252 0.0000
# 4 0.0000 0.0000 0.0000 18.6065 0.0000 8.4615
# 5 2.0364 -0.5366 13.9252 0.0000 20.6829 0.0000
# 6 0.0000 0.0000 0.0000 8.4615 0.0000 8.4076
#
#
#
# Elastic Compliance Matrix: (Units=1/GPa)
#
#
# Indices 1 2 3 4 5 6 
#
# 1 0.014316 -0.002510 -0.001569 0.000000 -0.000419 0.000000
# 2 -0.002510 0.008678 -0.001051 0.000000 0.001180 0.000000
# 3 -0.001569 -0.001051 0.008657 0.000000 -0.005702 0.000000
# 4 0.000000 0.000000 0.000000 0.099101 0.000000 -0.099737
# 5 -0.000419 0.001180 -0.005702 0.000000 0.052260 0.000000
# 6 0.000000 0.000000 0.000000 -0.099737 0.000000 0.219317
#
#
# Mechanical properties :
#
#
# Convention : Reuss Voigt Hill
#
# Bulk Modulus (GPa) = 46.74567 50.32831 48.53699
# Shear Modulus (GPa) = 11.91271 27.52849 19.72060
#
# Velocity S-wave (km/s) = 2.42209 3.68193 3.11634
# Velocity P-wave (km/s) = 5.55358 6.54676 6.07052
#
# Compressibility (1/GPa) = 0.02139236
#
# Stress axis : x y z
#
# Youngs Moduli (GPa) = 69.85022 115.23131 115.50854
#
# Poissons Ratio (x) = 0.28922 0.18119
# Poissons Ratio (y) = 0.17532 0.12143
# Poissons Ratio (z) = 0.10957 0.12114
#
# Static dielectric constant tensor:
#      x y z
#    x 1.726310 0.000000 -0.009240 
#    y 0.000000 1.698990 0.000000 
#    z -0.009240 0.000000 1.743320 
# 
# From -- ./inp_files/315954.got.cif
#   From: 2010.05.17/outbox.cif.g08.bks.cpg/sg12_158_cif.got.tgz:315954.got - 2010.06.03 13:09:07.
