data_PCOD9212174
_publ_section_title
;
Structure prediction by ZEFSAII (Michael W. Deem and Ramdas Pophale) SiO2 
 PCOD9212174
Probable space group: C 2/M
;
_chemical_formula_sum "Si O2"
_cell_formula_units_Z 56
_cell_length_a 29.576493
_cell_length_b 9.255350
_cell_length_c 18.209896
_cell_angle_alpha 90.000000
_cell_angle_beta 146.595471
_cell_angle_gamma 90.000000
_cell_volume 2744.360603
_symmetry_space_group_name_H-M "C 2/M"
_symmetry_group_IT_number 12
_symmetry_cell_setting 'monoclinic'
loop_
_space_group_symop_operation_xyz
x,y,z
-x,y,-z
-x,-y,-z
x,-y,z
1/2+x,1/2+y,z
1/2-x,1/2+y,-z
1/2-x,1/2-y,-z
1/2+x,1/2-y,z
loop_
_atom_site_type_symbol
_atom_site_label
_atom_site_fract_x
_atom_site_fract_y
_atom_site_fract_z
Si Si1 0.131445 0.169152 0.703378
Si Si2 0.856042 0.671903 0.525511
Si Si3 0.478951 0.332195 0.592715
Si Si4 0.917312 0.171349 0.046833
Si Si5 0.086016 0.671903 0.238980
Si Si6 0.223300 0.827768 0.038408
Si Si7 0.678139 0.327794 0.233292
O O1 0.081122 0.178165 0.559606
O O2 0.209168 0.271977 0.811936
O O3 0.067902 0.210700 0.682254
O O4 0.154161 0.000000 0.744722
O O5 0.862440 0.500000 0.524247
O O6 0.935763 0.743327 0.597524
O O7 0.855610 0.701753 0.611745
O O8 0.771925 0.721853 0.372988
O O9 0.484413 0.500000 0.621701
O O10 0.997961 0.263317 0.141332
O O11 0.937553 0.000000 0.077022
O O12 0.866205 0.209156 0.050666
O O13 0.856641 0.193518 0.895255
O O14 0.080612 0.500000 0.221275
O O15 0.120817 0.747372 0.213919
O O16 0.226875 0.000000 0.035067
O O17 0.250000 0.750000 0.000000
O O18 0.675640 0.500000 0.245011
#
# Coordination Sequence:
#
# PCOD9212174 Si02
#       7
#     8   8   8   8   8   8   8
#     4   9  19  37  57  83 117 152 195 244 293 347
#     4  10  22  38  58  87 122 154 195 246 295 352
#     4   9  19  35  58  85 116 154 194 240 293 351
#     4  10  23  42  63  86 115 158 203 241 293 357
#     4  11  24  39  59  91 125 154 192 247 303 352
#     4  11  24  40  60  86 118 157 199 244 294 350
#     4  10  21  41  65  86 115 156 201 246 292 354
#
# _framework density 20.405481999999999
#
# number of rings (size 3 to 8) (size 9 to 14) (size 15 to 20)
#    0.000    2.000    0.000    3.429    2.000    7.429 
#    0.000    1.429    0.000    0.000    0.000    0.000 
#    0.000    0.000    0.000    0.000    0.000    0.000 
#
# Total GULP energy -156496.588404 kJ/mol
# GULP energy per Si atom -5589.163872 kJ/mol
# Density = 2.035904 g / cm^3
# Si number density = 20.405482 Si / 1000 Ang^3
#
#
#
# Elastic Constant Matrix: (Units=GPa)
#
#
# Indices 1 2 3 4 5 6 
#
# 1 117.9360 41.4325 7.3392 0.0000 5.7369 0.0000
# 2 41.4325 28.7383 19.3745 0.0000 1.4622 0.0000
# 3 7.3392 19.3745 54.6040 0.0000 8.4038 0.0000
# 4 0.0000 0.0000 0.0000 24.8730 0.0000 2.9560
# 5 5.7369 1.4622 8.4038 0.0000 29.6015 0.0000
# 6 0.0000 0.0000 0.0000 2.9560 0.0000 24.5523
#
#
#
# Elastic Compliance Matrix: (Units=1/GPa)
#
#
# Indices 1 2 3 4 5 6 
#
# 1 0.021692 -0.038913 0.011756 0.000000 -0.005619 0.000000
# 2 -0.038913 0.115716 -0.037759 0.000000 0.012545 0.000000
# 3 0.011756 -0.037759 0.031574 0.000000 -0.009377 0.000000
# 4 0.000000 0.000000 0.000000 0.040788 0.000000 -0.004911
# 5 -0.005619 0.012545 -0.009377 0.000000 0.036914 0.000000
# 6 0.000000 0.000000 0.000000 -0.004911 0.000000 0.041321
#
#
# Mechanical properties :
#
#
# Convention : Reuss Voigt Hill
#
# Bulk Modulus (GPa) = 25.54216 37.50786 31.52501
# Shear Modulus (GPa) = 11.60404 24.68084 18.14244
#
# Velocity S-wave (km/s) = 2.38727 3.48159 2.98501
# Velocity P-wave (km/s) = 4.48812 5.88074 5.23098
#
# Compressibility (1/GPa) = 0.03915095
#
# Stress axis : x y z
#
# Youngs Moduli (GPa) = 46.10080 8.64187 31.67146
#
# Poissons Ratio (x) = 0.33628 -0.37234
# Poissons Ratio (y) = 1.79392 1.19587
# Poissons Ratio (z) = -0.54198 0.32631
#
# Static dielectric constant tensor:
#      x y z
#    x 1.707910 0.000000 -0.026610 
#    y 0.000000 1.672570 0.000000 
#    z -0.026610 0.000000 1.765100 
# 
# From -- ./inp_files/292561.got.cif
#   From: 2010.05.17/outbox.cif.g08.bks.cpg/sg12_147_cif.got.tgz:292561.got - 2010.06.03 13:09:07.
