data_PCOD9212536
_publ_section_title
;
Structure prediction by ZEFSAII (Michael W. Deem and Ramdas Pophale) SiO2 
 PCOD9212536
Probable space group: C 2/M
;
_chemical_formula_sum "Si O2"
_cell_formula_units_Z 46
_cell_length_a 22.020315
_cell_length_b 23.089476
_cell_length_c 13.261585
_cell_angle_alpha 90.000000
_cell_angle_beta 162.935648
_cell_angle_gamma 90.000000
_cell_volume 1978.611989
_symmetry_space_group_name_H-M "C 2/M"
_symmetry_group_IT_number 12
_symmetry_cell_setting 'monoclinic'
loop_
_space_group_symop_operation_xyz
x,y,z
-x,y,-z
-x,-y,-z
x,-y,z
1/2+x,1/2+y,z
1/2-x,1/2+y,-z
1/2-x,1/2-y,-z
1/2+x,1/2-y,z
loop_
_atom_site_type_symbol
_atom_site_label
_atom_site_fract_x
_atom_site_fract_y
_atom_site_fract_z
Si Si1 0.000000 0.500000 0.000000
Si Si2 0.500000 0.108823 0.500000
Si Si3 0.849640 0.935940 0.912114
Si Si4 0.228937 0.252904 0.216907
Si Si5 0.352928 0.328031 0.597705
Si Si6 0.915812 0.403081 0.696244
Si Si7 0.878854 0.326947 0.128285
O O1 0.018010 0.449284 0.116671
O O2 0.656155 0.147520 0.816707
O O3 0.647882 0.072269 0.662223
O O4 0.012816 0.886646 0.199238
O O5 0.940697 0.000000 0.069176
O O6 0.763809 0.927217 0.662738
O O7 0.266551 0.303508 0.356554
O O8 0.398323 0.203532 0.503697
O O9 0.009632 0.221534 0.883838
O O10 0.249333 0.279303 0.136404
O O11 0.177717 0.346543 0.397505
O O12 0.095012 0.380669 0.906464
#
# Coordination Sequence:
#
# PCOD9212536 Si02
#       7
#     2   4   8   8   8   8   8
#     4  12  24  40  62  94 134 178 204 276 324 372
#     4  10  21  42  66  92 120 172 221 274 324 380
#     4  11  23  43  65  91 126 170 226 265 321 386
#     4  10  22  40  64  95 135 172 212 267 324 392
#     4  11  23  41  64 100 131 174 209 267 328 388
#     4  11  23  38  61  95 130 169 217 256 323 391
#     4  10  22  40  60  95 127 169 220 265 322 390
#
# _framework density 23.248619999999999
#
# number of rings (size 3 to 8) (size 9 to 14) (size 15 to 20)
#    0.000    1.391    4.348    1.826    1.217    5.565 
#    0.000    0.000    0.000    1.043    0.000    0.000 
#    0.000    0.000    0.000    0.000    0.000    0.000 
#
# Total GULP energy -128472.338882 kJ/mol
# GULP energy per Si atom -5585.753864 kJ/mol
# Density = 2.319571 g / cm^3
# Si number density = 23.248620 Si / 1000 Ang^3
#
#
#
# Elastic Constant Matrix: (Units=GPa)
#
#
# Indices 1 2 3 4 5 6 
#
# 1 89.0353 40.2057 30.4724 0.0000 -33.5693 0.0000
# 2 40.2057 165.7108 43.8381 0.0000 -28.0368 0.0000
# 3 30.4724 43.8381 68.2749 -0.0001 -27.4172 -0.0001
# 4 0.0000 0.0000 -0.0001 30.9205 0.0000 -15.8106
# 5 -33.5693 -28.0368 -27.4172 0.0000 38.3866 0.0000
# 6 0.0000 0.0000 -0.0001 -15.8106 0.0000 29.2031
#
#
#
# Elastic Compliance Matrix: (Units=1/GPa)
#
#
# Indices 1 2 3 4 5 6 
#
# 1 0.017349 -0.001625 -0.001520 0.000000 0.012899 0.000000
# 2 -0.001625 0.007638 -0.003519 0.000000 0.001645 0.000000
# 3 -0.001520 -0.003519 0.022461 0.000000 0.012143 0.000000
# 4 0.000000 0.000000 0.000000 0.044722 0.000000 0.024212
# 5 0.012899 0.001645 0.012143 0.000000 0.047206 0.000000
# 6 0.000000 0.000000 0.000000 0.024212 0.000000 0.047352
#
#
# Mechanical properties :
#
#
# Convention : Reuss Voigt Hill
#
# Bulk Modulus (GPa) = 29.30750 61.33927 45.32338
# Shear Modulus (GPa) = 23.64890 33.60235 28.62562
#
# Velocity S-wave (km/s) = 3.19284 3.80590 3.51277
# Velocity P-wave (km/s) = 5.12112 6.76420 5.99918
#
# Compressibility (1/GPa) = 0.03412096
#
# Stress axis : x y z
#
# Youngs Moduli (GPa) = 57.64060 130.92617 44.52249
#
# Poissons Ratio (x) = 0.21272 0.06767
# Poissons Ratio (y) = 0.09365 0.15666
# Poissons Ratio (z) = 0.08761 0.46067
#
# Static dielectric constant tensor:
#      x y z
#    x 1.897660 0.000000 0.013510 
#    y 0.000000 1.872490 0.000000 
#    z 0.013510 0.000000 1.908560 
# 
# From -- ./inp_files/170720.got.cif
#   From: 2010.05.17/outbox.cif.g08.bks.cpg/sg12_86_cif.got.tgz:170720.got - 2010.06.03 13:09:07.
