data_PCOD9212438
_publ_section_title
;
Structure prediction by ZEFSAII (Michael W. Deem and Ramdas Pophale) SiO2 
 PCOD9212438
Probable space group: C 2/M
;
_chemical_formula_sum "Si O2"
_cell_formula_units_Z 64
_cell_length_a 18.699393
_cell_length_b 29.881775
_cell_length_c 8.434579
_cell_angle_alpha 90.000000
_cell_angle_beta 139.198893
_cell_angle_gamma 90.000000
_cell_volume 3079.639322
_symmetry_space_group_name_H-M "C 2/M"
_symmetry_group_IT_number 12
_symmetry_cell_setting 'monoclinic'
loop_
_space_group_symop_operation_xyz
x,y,z
-x,y,-z
-x,-y,-z
x,-y,z
1/2+x,1/2+y,z
1/2-x,1/2+y,-z
1/2-x,1/2-y,-z
1/2+x,1/2-y,z
loop_
_atom_site_type_symbol
_atom_site_label
_atom_site_fract_x
_atom_site_fract_y
_atom_site_fract_z
Si Si1 0.114265 0.631390 0.768548
Si Si2 0.255433 0.446902 0.518939
Si Si3 0.143962 0.271251 0.899194
Si Si4 0.258706 0.296483 0.415898
Si Si5 0.619248 0.876860 0.154254
Si Si6 0.520209 0.551351 0.226327
Si Si7 0.009715 0.801054 0.834900
Si Si8 0.664416 0.387293 0.051465
O O1 0.108930 0.685186 0.746921
O O2 0.229915 0.619309 0.880676
O O3 0.000000 0.613571 0.500000
O O4 0.124151 0.620677 0.972002
O O5 0.252897 0.500000 0.547838
O O6 0.145477 0.425504 0.268425
O O7 0.350985 0.439060 0.547948
O O8 0.290057 0.417853 0.728955
O O9 0.051511 0.235238 0.780624
O O10 0.250000 0.250000 0.000000
O O11 0.187209 0.286856 0.142019
O O12 0.250000 0.250000 0.500000
O O13 0.201733 0.341960 0.379722
O O14 0.383041 0.310345 0.583807
O O15 0.500000 0.860808 0.000000
O O16 0.498656 0.500000 0.230108
O O17 0.500000 0.555961 0.000000
O O18 0.438530 0.583272 0.182321
O O19 0.100110 0.841091 0.988948
O O20 0.000000 0.783902 0.000000
#
# Coordination Sequence:
#
# PCOD9212438 Si02
#       8
#     8   8   8   8   8   8   8   8
#     4  11  26  43  63  88 130 175 219 271 327 390
#     4  10  21  41  71 103 132 168 215 273 335 399
#     4  11  25  41  57  90 126 172 216 267 327 374
#     4  11  25  40  64  93 128 170 223 271 318 381
#     4  11  25  44  66  94 131 174 224 273 331 392
#     4   8  15  31  60  95 128 159 198 254 317 387
#     4  12  23  37  65  94 127 172 222 275 316 387
#     4  11  20  38  65  96 133 166 217 263 330 391
#
# _framework density 20.781654
#
# number of rings (size 3 to 8) (size 9 to 14) (size 15 to 20)
#    0.000    1.375    2.500    4.500    5.250    0.250 
#    0.000    3.125    0.000    4.125    0.000    0.000 
#    0.000    0.000    0.000    0.000    0.000    0.000 
#
# Total GULP energy -178388.365158 kJ/mol
# GULP energy per Si atom -5574.636411 kJ/mol
# Density = 2.073435 g / cm^3
# Si number density = 20.781654 Si / 1000 Ang^3
#
#
#
# Elastic Constant Matrix: (Units=GPa)
#
#
# Indices 1 2 3 4 5 6 
#
# 1 120.3146 48.6731 21.5430 0.0000 31.6103 0.0000
# 2 48.6731 89.0833 18.3771 0.0000 5.7272 0.0000
# 3 21.5430 18.3771 61.4044 0.0000 24.1258 0.0000
# 4 0.0000 0.0000 0.0000 27.6520 0.0000 8.1093
# 5 31.6103 5.7272 24.1258 0.0000 30.7056 0.0000
# 6 0.0000 0.0000 0.0000 8.1093 0.0000 25.9290
#
#
#
# Elastic Compliance Matrix: (Units=1/GPa)
#
#
# Indices 1 2 3 4 5 6 
#
# 1 0.015509 -0.008147 0.003867 0.000000 -0.017484 0.000000
# 2 -0.008147 0.016259 -0.005948 0.000000 0.010028 0.000000
# 3 0.003867 -0.005948 0.025802 0.000000 -0.023145 0.000000
# 4 0.000000 0.000000 0.000000 0.039816 0.000000 -0.012452
# 5 -0.017484 0.010028 -0.023145 0.000000 0.066882 0.000000
# 6 0.000000 0.000000 0.000000 -0.012452 0.000000 0.042461
#
#
# Mechanical properties :
#
#
# Convention : Reuss Voigt Hill
#
# Bulk Modulus (GPa) = 26.94373 49.77654 38.36014
# Shear Modulus (GPa) = 20.87189 29.00459 24.93824
#
# Velocity S-wave (km/s) = 3.17257 3.73994 3.46788
# Velocity P-wave (km/s) = 5.13942 6.53098 5.87653
#
# Compressibility (1/GPa) = 0.03711438
#
# Stress axis : x y z
#
# Youngs Moduli (GPa) = 64.47947 61.50367 38.75605
#
# Poissons Ratio (x) = 0.50109 -0.14986
# Poissons Ratio (y) = 0.52533 0.23051
# Poissons Ratio (z) = -0.24933 0.36580
#
# Static dielectric constant tensor:
#      x y z
#    x 1.727640 0.000000 0.017320 
#    y 0.000000 1.739880 0.000000 
#    z 0.017320 0.000000 1.816190 
# 
# From -- ./inp_files/80796.got.cif
#   From: 2010.05.17/outbox.cif.g08.bks.cpg/sg12_41_cif.got.tgz:80796.got - 2010.06.03 13:09:07.
