data_PCOD9212854
_publ_section_title
;
Structure prediction by ZEFSAII (Michael W. Deem and Ramdas Pophale) SiO2 
 PCOD9212854
Probable space group: C 2/M
;
_chemical_formula_sum "Si O2"
_cell_formula_units_Z 56
_cell_length_a 14.955822
_cell_length_b 18.871575
_cell_length_c 21.328629
_cell_angle_alpha 90.000000
_cell_angle_beta 147.050674
_cell_angle_gamma 90.000000
_cell_volume 3274.146448
_symmetry_space_group_name_H-M "C 2/M"
_symmetry_group_IT_number 12
_symmetry_cell_setting 'monoclinic'
loop_
_space_group_symop_operation_xyz
x,y,z
-x,y,-z
-x,-y,-z
x,-y,z
1/2+x,1/2+y,z
1/2-x,1/2+y,-z
1/2-x,1/2-y,-z
1/2+x,1/2-y,z
loop_
_atom_site_type_symbol
_atom_site_label
_atom_site_fract_x
_atom_site_fract_y
_atom_site_fract_z
Si Si1 0.707971 0.579323 0.514633
Si Si2 0.500000 0.366080 0.500000
Si Si3 0.060355 0.585171 0.786866
Si Si4 0.247765 0.257238 0.680660
Si Si5 0.401796 0.194361 0.078447
Si Si6 0.355793 0.295214 0.611029
Si Si7 0.500000 0.210444 0.000000
Si Si8 0.176645 0.704248 0.772477
O O1 0.731464 0.500000 0.506444
O O2 0.567640 0.587251 0.483894
O O3 0.651287 0.628338 0.424479
O O4 0.875607 0.599223 0.650914
O O5 0.358042 0.313660 0.391976
O O6 0.082409 0.500000 0.804506
O O7 0.098141 0.627316 0.873902
O O8 0.167338 0.627439 0.798498
O O9 0.432992 0.236659 0.807098
O O10 0.266422 0.295096 0.625125
O O11 0.165882 0.297708 0.690743
O O12 0.430850 0.172474 0.022472
O O13 0.250000 0.250000 0.000000
O O14 0.250000 0.250000 0.500000
O O15 0.532076 0.255456 0.714662
O O16 0.652395 0.258887 0.110263
#
# Coordination Sequence:
#
# PCOD9212854 Si02
#       8
#     8   4   8   8   8   8   4   8
#     4  11  23  35  53  84 121 154 183 227 287 342
#     4  12  17  34  52  86 115 142 186 236 279 344
#     4  11  22  39  58  83 117 154 186 228 288 343
#     4  11  21  30  60  88 109 143 194 240 278 321
#     4  11  19  38  59  85 112 148 193 238 280 334
#     4  12  18  35  57  82 114 149 193 230 278 339
#     4  10  22  32  62  88 108 138 200 240 282 326
#     4  11  20  37  56  88 111 145 192 238 281 332
#
# _framework density 17.103694000000001
#
# number of rings (size 3 to 8) (size 9 to 14) (size 15 to 20)
#    0.000    0.857    8.571    0.214    0.000    0.000 
#    0.000    1.429    0.000    5.143    0.000    0.000 
#    0.000    0.000    0.000    0.000    0.000    0.000 
#
# Total GULP energy -155975.542636 kJ/mol
# GULP energy per Si atom -5570.555094 kJ/mol
# Density = 1.706477 g / cm^3
# Si number density = 17.103694 Si / 1000 Ang^3
#
#
#
# Elastic Constant Matrix: (Units=GPa)
#
#
# Indices 1 2 3 4 5 6 
#
# 1 125.5218 42.4810 14.0324 0.0000 -29.2050 0.0001
# 2 42.4810 89.9213 24.1548 0.0001 -9.3381 0.0004
# 3 14.0324 24.1548 65.5547 0.0004 8.8476 0.0010
# 4 0.0000 0.0001 0.0004 23.3312 0.0003 9.5916
# 5 -29.2050 -9.3381 8.8476 0.0003 38.8425 0.0004
# 6 0.0001 0.0004 0.0010 9.5916 0.0004 88.3434
#
#
#
# Elastic Compliance Matrix: (Units=1/GPa)
#
#
# Indices 1 2 3 4 5 6 
#
# 1 0.011441 -0.004008 -0.002067 0.000000 0.008110 0.000000
# 2 -0.004008 0.014424 -0.004661 0.000000 0.001516 0.000000
# 3 -0.002067 -0.004661 0.018339 0.000000 -0.006852 0.000000
# 4 0.000000 0.000000 0.000000 0.044863 0.000000 -0.004871
# 5 0.008110 0.001516 -0.006852 0.000000 0.033768 0.000000
# 6 0.000000 0.000000 0.000000 -0.004871 0.000000 0.011848
#
#
# Mechanical properties :
#
#
# Convention : Reuss Voigt Hill
#
# Bulk Modulus (GPa) = 43.99062 49.14823 46.56942
# Shear Modulus (GPa) = 30.53757 43.45873 36.99815
#
# Velocity S-wave (km/s) = 4.23003 5.04620 4.65603
# Velocity P-wave (km/s) = 7.04509 7.92149 7.49611
#
# Compressibility (1/GPa) = 0.02273212
#
# Stress axis : x y z
#
# Youngs Moduli (GPa) = 87.40510 69.33005 54.52788
#
# Poissons Ratio (x) = 0.27785 0.11270
# Poissons Ratio (y) = 0.35029 0.25418
# Poissons Ratio (z) = 0.18065 0.32318
#
# Static dielectric constant tensor:
#      x y z
#    x 1.637580 0.000000 -0.017110 
#    y 0.000000 1.591740 0.000000 
#    z -0.017110 0.000000 1.611870 
# 
# From -- ./inp_files/311771.got.cif
#   From: 2010.05.17/outbox.cif.g08.bks.cpg/sg12_156_cif.got.tgz:311771.got - 2010.06.03 13:09:07.
