data_PCOD9212543
_publ_section_title
;
Structure prediction by ZEFSAII (Michael W. Deem and Ramdas Pophale) SiO2 
 PCOD9212543
Probable space group: C 2/M
;
_chemical_formula_sum "Si O2"
_cell_formula_units_Z 56
_cell_length_a 19.827892
_cell_length_b 18.371854
_cell_length_c 14.062600
_cell_angle_alpha 90.000000
_cell_angle_beta 148.263304
_cell_angle_gamma 90.000000
_cell_volume 2694.601128
_symmetry_space_group_name_H-M "C 2/M"
_symmetry_group_IT_number 12
_symmetry_cell_setting 'monoclinic'
loop_
_space_group_symop_operation_xyz
x,y,z
-x,y,-z
-x,-y,-z
x,-y,z
1/2+x,1/2+y,z
1/2-x,1/2+y,-z
1/2-x,1/2-y,-z
1/2+x,1/2-y,z
loop_
_atom_site_type_symbol
_atom_site_label
_atom_site_fract_x
_atom_site_fract_y
_atom_site_fract_z
Si Si1 0.004514 0.579101 0.618337
Si Si2 0.150766 0.582632 0.155049
Si Si3 0.566849 0.788296 0.345823
Si Si4 0.981504 0.086664 0.869169
Si Si5 0.775248 0.141903 0.954732
Si Si6 0.781169 0.701858 0.919555
Si Si7 0.712727 0.349437 0.513026
O O1 0.957423 0.500000 0.595660
O O2 0.930972 0.645848 0.577261
O O3 0.000000 0.581424 0.500000
O O4 0.154393 0.589185 0.820376
O O5 0.161511 0.500000 0.129600
O O6 0.238641 0.591502 0.353934
O O7 0.198850 0.645299 0.141116
O O8 0.000000 0.593914 0.000000
O O9 0.423626 0.784712 0.133661
O O10 0.620339 0.711934 0.447519
O O11 0.659386 0.809611 0.370043
O O12 0.863081 0.120492 0.669298
O O13 0.965304 0.000000 0.853416
O O14 0.000000 0.113525 0.000000
O O15 0.107541 0.106599 0.959699
O O16 0.801675 0.166972 0.094691
O O17 0.733414 0.215544 0.847303
#
# Coordination Sequence:
#
# PCOD9212543 Si02
#       7
#     8   8   8   8   8   8   8
#     4  10  23  39  61  94 126 162 212 267 324 381
#     4  11  24  41  66  98 133 175 218 269 331 393
#     4  10  22  40  63  93 125 173 213 268 322 379
#     4  11  25  42  65  94 130 173 213 269 335 394
#     4  10  22  41  65  91 124 169 216 267 320 390
#     4  10  21  42  66  94 125 168 221 265 323 380
#     4  11  23  42  64  97 133 169 222 266 324 393
#
# _framework density 20.782295999999999
#
# number of rings (size 3 to 8) (size 9 to 14) (size 15 to 20)
#    0.000    1.571    2.857    0.857    4.000    5.714 
#    0.000    0.714    0.000    1.714    0.000    0.000 
#    0.000    0.000    0.000    0.000    0.000    0.000 
#
# Total GULP energy -156295.980474 kJ/mol
# GULP energy per Si atom -5581.999303 kJ/mol
# Density = 2.073499 g / cm^3
# Si number density = 20.782296 Si / 1000 Ang^3
#
#
#
# Elastic Constant Matrix: (Units=GPa)
#
#
# Indices 1 2 3 4 5 6 
#
# 1 69.5206 20.7626 25.1681 0.0000 6.2717 0.0000
# 2 20.7626 107.9546 21.5595 0.0000 -13.3249 0.0000
# 3 25.1681 21.5595 69.2249 0.0000 -8.8890 0.0000
# 4 0.0000 0.0000 0.0000 25.3521 0.0000 -20.1715
# 5 6.2717 -13.3249 -8.8890 0.0000 22.7805 0.0000
# 6 0.0000 0.0000 0.0000 -20.1715 0.0000 42.9969
#
#
#
# Elastic Compliance Matrix: (Units=1/GPa)
#
#
# Indices 1 2 3 4 5 6 
#
# 1 0.018872 -0.003449 -0.007068 0.000000 -0.009971 0.000000
# 2 -0.003449 0.011037 -0.001298 0.000000 0.006899 0.000000
# 3 -0.007068 -0.001298 0.018499 0.000000 0.008405 0.000000
# 4 0.000000 0.000000 0.000000 0.062937 0.000000 0.029526
# 5 -0.009971 0.006899 0.008405 0.000000 0.053957 0.000000
# 6 0.000000 0.000000 0.000000 0.029526 0.000000 0.037109
#
#
# Mechanical properties :
#
#
# Convention : Reuss Voigt Hill
#
# Bulk Modulus (GPa) = 40.35531 42.40893 41.38212
# Shear Modulus (GPa) = 21.34017 30.17325 25.75671
#
# Velocity S-wave (km/s) = 3.20792 3.81448 3.52427
# Velocity P-wave (km/s) = 5.76032 6.31276 6.04285
#
# Compressibility (1/GPa) = 0.02477989
#
# Stress axis : x y z
#
# Youngs Moduli (GPa) = 52.98737 90.60282 54.05802
#
# Poissons Ratio (x) = 0.31248 0.38206
# Poissons Ratio (y) = 0.18275 0.07015
# Poissons Ratio (z) = 0.37450 0.11757
#
# Static dielectric constant tensor:
#      x y z
#    x 1.737310 0.000000 -0.062400 
#    y 0.000000 1.777210 0.000000 
#    z -0.062400 0.000000 2.023200 
# 
# From -- ./inp_files/234705.got.cif
#   From: 2010.05.17/outbox.cif.g08.bks.cpg/sg12_118_cif.got.tgz:234705.got - 2010.06.03 13:09:07.
