data_PCOD9212412
_publ_section_title
;
Structure prediction by ZEFSAII (Michael W. Deem and Ramdas Pophale) SiO2 
 PCOD9212412
Probable space group: C 2/M
;
_chemical_formula_sum "Si O2"
_cell_formula_units_Z 64
_cell_length_a 14.685322
_cell_length_b 28.916095
_cell_length_c 9.367668
_cell_angle_alpha 90.000000
_cell_angle_beta 49.941637
_cell_angle_gamma 90.000000
_cell_volume 3044.647266
_symmetry_space_group_name_H-M "C 2/M"
_symmetry_group_IT_number 12
_symmetry_cell_setting 'monoclinic'
loop_
_space_group_symop_operation_xyz
x,y,z
-x,y,-z
-x,-y,-z
x,-y,z
1/2+x,1/2+y,z
1/2-x,1/2+y,-z
1/2-x,1/2-y,-z
1/2+x,1/2-y,z
loop_
_atom_site_type_symbol
_atom_site_label
_atom_site_fract_x
_atom_site_fract_y
_atom_site_fract_z
Si Si1 0.865882 0.945671 0.094830
Si Si2 0.129258 0.885038 0.414453
Si Si3 0.477426 0.054205 0.192405
Si Si4 0.320921 0.286929 0.769259
Si Si5 0.729219 0.113215 0.452655
Si Si6 0.759243 0.446766 0.068316
Si Si7 0.344281 0.218611 0.492820
Si Si8 0.562445 0.246022 0.084799
O O1 0.771575 0.914991 0.273756
O O2 0.850243 0.000000 0.147593
O O3 0.838081 0.940790 0.956130
O O4 0.000000 0.932550 0.000000
O O5 0.140670 0.832348 0.352107
O O6 0.160892 0.887840 0.547419
O O7 0.226963 0.913877 0.229940
O O8 0.000000 0.902681 0.500000
O O9 0.381329 0.087703 0.359279
O O10 0.443704 0.000000 0.245398
O O11 0.500000 0.061563 0.000000
O O12 0.608833 0.061837 0.124997
O O13 0.355575 0.243232 0.635135
O O14 0.383708 0.284066 0.860462
O O15 0.178190 0.284589 0.930892
O O16 0.699098 0.166288 0.450360
O O17 0.758676 0.500000 0.118274
O O18 0.250000 0.250000 0.500000
O O19 0.463634 0.220127 0.278284
O O20 0.500000 0.261754 0.000000
#
# Coordination Sequence:
#
# PCOD9212412 Si02
#       8
#     8   8   8   8   8   8   8   8
#     4  10  23  46  68  95 136 175 218 273 329 395
#     4  12  24  40  66  96 130 173 223 273 324 401
#     4  10  21  41  69  99 133 167 214 281 332 389
#     4  11  26  45  66  96 131 179 219 274 334 383
#     4  12  25  40  70  98 130 177 226 267 328 402
#     4  10  23  43  66  97 136 169 212 276 338 392
#     4  12  24  45  64  96 138 174 215 278 334 381
#     4  11  23  44  71  91 125 176 222 275 328 390
#
# _framework density 21.020499000000001
#
# number of rings (size 3 to 8) (size 9 to 14) (size 15 to 20)
#    0.000    1.000    3.750    2.250    1.750    3.750 
#    4.500    1.875    0.000    0.000    0.000    0.000 
#    0.000    0.000    0.000    0.000    0.000    0.000 
#
# Total GULP energy -178931.017833 kJ/mol
# GULP energy per Si atom -5591.594307 kJ/mol
# Density = 2.097266 g / cm^3
# Si number density = 21.020499 Si / 1000 Ang^3
#
#
#
# Elastic Constant Matrix: (Units=GPa)
#
#
# Indices 1 2 3 4 5 6 
#
# 1 108.1948 16.2016 11.6996 0.0000 4.0972 0.0000
# 2 16.2016 82.7596 43.0146 0.0000 2.3608 0.0000
# 3 11.6996 43.0146 87.4259 0.0000 -7.3341 0.0000
# 4 0.0000 0.0000 0.0000 26.5589 0.0000 10.9129
# 5 4.0972 2.3608 -7.3341 0.0000 32.8426 0.0000
# 6 0.0000 0.0000 0.0000 10.9129 0.0000 12.7552
#
#
#
# Elastic Compliance Matrix: (Units=1/GPa)
#
#
# Indices 1 2 3 4 5 6 
#
# 1 0.009584 -0.001506 -0.000645 0.000000 -0.001231 0.000000
# 2 -0.001506 0.016768 -0.008289 0.000000 -0.002869 0.000000
# 3 -0.000645 -0.008289 0.015959 0.000000 0.004240 0.000000
# 4 0.000000 0.000000 0.000000 0.058065 0.000000 -0.049678
# 5 -0.001231 -0.002869 0.004240 0.000000 0.031755 0.000000
# 6 0.000000 0.000000 0.000000 -0.049678 0.000000 0.120902
#
#
# Mechanical properties :
#
#
# Convention : Reuss Voigt Hill
#
# Bulk Modulus (GPa) = 46.66149 46.69021 46.67585
# Shear Modulus (GPa) = 17.78998 28.26232 23.02615
#
# Velocity S-wave (km/s) = 2.91231 3.67074 3.31329
# Velocity P-wave (km/s) = 5.79267 6.34238 6.07374
#
# Compressibility (1/GPa) = 0.02143095
#
# Stress axis : x y z
#
# Youngs Moduli (GPa) = 104.33538 59.63656 62.66173
#
# Poissons Ratio (x) = 0.08981 0.04042
# Poissons Ratio (y) = 0.15713 0.51942
# Poissons Ratio (z) = 0.06729 0.49434
#
# Static dielectric constant tensor:
#      x y z
#    x 1.813540 0.000000 -0.002330 
#    y 0.000000 1.721710 0.000000 
#    z -0.002330 0.000000 1.738770 
# 
# From -- ./inp_files/68616.got.cif
#   From: 2010.05.17/outbox.cif.g08.bks.cpg/sg12_35_cif.got.tgz:68616.got - 2010.06.03 13:09:07.
