data_PCOD9212410
_publ_section_title
;
Structure prediction by ZEFSAII (Michael W. Deem and Ramdas Pophale) SiO2 
 PCOD9212410
Probable space group: C 2/M
;
_chemical_formula_sum "Si O2"
_cell_formula_units_Z 60
_cell_length_a 11.217154
_cell_length_b 20.045285
_cell_length_c 12.618312
_cell_angle_alpha 90.000000
_cell_angle_beta 84.377875
_cell_angle_gamma 90.000000
_cell_volume 2823.592549
_symmetry_space_group_name_H-M "C 2/M"
_symmetry_group_IT_number 12
_symmetry_cell_setting 'monoclinic'
loop_
_space_group_symop_operation_xyz
x,y,z
-x,y,-z
-x,-y,-z
x,-y,z
1/2+x,1/2+y,z
1/2-x,1/2+y,-z
1/2-x,1/2-y,-z
1/2+x,1/2-y,z
loop_
_atom_site_type_symbol
_atom_site_label
_atom_site_fract_x
_atom_site_fract_y
_atom_site_fract_z
Si Si1 0.438065 0.721381 0.186107
Si Si2 0.792071 0.575628 0.280946
Si Si3 0.604396 0.686924 0.569645
Si Si4 0.241107 0.878851 0.884746
Si Si5 0.628354 0.620356 0.115665
Si Si6 0.563284 0.500000 0.871790
Si Si7 0.989460 0.372501 0.127407
Si Si8 0.362769 0.157125 0.482187
O O1 0.442495 0.696388 0.306978
O O2 0.317873 0.689632 0.149526
O O3 0.550015 0.686886 0.118172
O O4 0.444043 0.799748 0.168528
O O5 0.760114 0.500000 0.313757
O O6 0.685338 0.610121 0.225518
O O7 0.831592 0.619487 0.376470
O O8 0.899859 0.575568 0.187240
O O9 0.500000 0.658668 0.500000
O O10 0.625576 0.763082 0.530244
O O11 0.735177 0.650359 0.557715
O O12 0.163748 0.940669 0.849893
O O13 0.377563 0.882763 0.840587
O O14 0.224655 0.879970 0.013615
O O15 0.541439 0.557754 0.104464
O O16 0.000000 0.375501 0.000000
O O17 0.500000 0.134971 0.500000
#
# Coordination Sequence:
#
# PCOD9212410 Si02
#       8
#     8   8   8   8   8   4   8   8
#     4  11  24  39  68  98 131 173 222 282 346 397
#     4  12  26  43  68  96 135 185 221 276 341 408
#     4  10  21  41  69  99 126 169 223 289 342 408
#     4  11  24  38  64  93 135 181 223 277 325 403
#     4  11  21  42  65  93 129 177 228 272 331 396
#     4  10  21  42  63  87 120 177 238 270 311 388
#     4  12  26  41  60  99 144 178 220 274 334 409
#     4  10  23  43  69  95 129 171 226 283 345 403
#
# _framework density 21.249524000000001
#
# number of rings (size 3 to 8) (size 9 to 14) (size 15 to 20)
#    0.000    1.067    3.333    4.000    4.667    2.667 
#    0.000    0.000    5.867    1.200    0.000    0.000 
#    0.000    0.000    0.000    0.000    0.000    0.000 
#
# Total GULP energy -167016.022379 kJ/mol
# GULP energy per Si atom -5567.200746 kJ/mol
# Density = 2.120116 g / cm^3
# Si number density = 21.249524 Si / 1000 Ang^3
#
#
#
# Elastic Constant Matrix: (Units=GPa)
#
#
# Indices 1 2 3 4 5 6 
#
# 1 95.4004 1.1747 13.1717 0.0000 7.5824 0.0000
# 2 1.1747 48.9138 -7.5766 0.0000 -0.4457 0.0000
# 3 13.1717 -7.5766 54.1349 0.0000 5.2164 0.0000
# 4 0.0000 0.0000 0.0000 719.3575 0.0000 -167.2872
# 5 7.5824 -0.4457 5.2164 0.0000 37.1986 0.0000
# 6 0.0000 0.0000 0.0000 -167.2872 0.0000 18.8367
#
#
#
# Elastic Compliance Matrix: (Units=1/GPa)
#
#
# Indices 1 2 3 4 5 6 
#
# 1 0.010998 -0.000682 -0.002590 0.000000 -0.001887 0.000000
# 2 -0.000682 0.020940 0.003101 0.000000 -0.000045 0.000000
# 3 -0.002590 0.003101 0.019749 0.000000 -0.002204 0.000000
# 4 0.000000 0.000000 0.000000 -0.001305 0.000000 -0.011589
# 5 -0.001887 -0.000045 -0.002204 0.000000 0.027576 0.000000
# 6 0.000000 0.000000 0.000000 -0.011589 0.000000 -0.049835
#
#
# Mechanical properties :
#
#
# Convention : Reuss Voigt Hill
#
# Bulk Modulus (GPa) = 19.47590 23.55430 21.51510
# Shear Modulus (GPa) = 109.69662 167.85717 138.77689
#
# Velocity S-wave (km/s) = 7.19272 8.89746 8.09012
# Velocity P-wave (km/s) = 8.84112 10.80101 9.86984
#
# Compressibility (1/GPa) = 0.05134552
#
# Stress axis : x y z
#
# Youngs Moduli (GPa) = 90.92524 47.75444 50.63566
#
# Poissons Ratio (x) = 0.03259 0.13113
# Poissons Ratio (y) = 0.06205 -0.15703
# Poissons Ratio (z) = 0.23547 -0.14809
#
# Static dielectric constant tensor:
#      x y z
#    x 1.802110 0.000000 0.004050 
#    y 0.000000 1.716280 0.000000 
#    z 0.004050 0.000000 1.822890 
# 
# From -- ./inp_files/133921.got.cif
#   From: 2010.05.17/outbox.cif.g08.bks.cpg/sg12_67_cif.got.tgz:133921.got - 2010.06.03 13:09:07.
