data_PCOD9212294
_publ_section_title
;
Structure prediction by ZEFSAII (Michael W. Deem and Ramdas Pophale) SiO2 
 PCOD9212294
Probable space group: C 2/M
;
_chemical_formula_sum "Si O2"
_cell_formula_units_Z 64
_cell_length_a 12.157333
_cell_length_b 19.961238
_cell_length_c 12.758512
_cell_angle_alpha 90.000000
_cell_angle_beta 75.644985
_cell_angle_gamma 90.000000
_cell_volume 2999.508746
_symmetry_space_group_name_H-M "C 2/M"
_symmetry_group_IT_number 12
_symmetry_cell_setting 'monoclinic'
loop_
_space_group_symop_operation_xyz
x,y,z
-x,y,-z
-x,-y,-z
x,-y,z
1/2+x,1/2+y,z
1/2-x,1/2+y,-z
1/2-x,1/2-y,-z
1/2+x,1/2-y,z
loop_
_atom_site_type_symbol
_atom_site_label
_atom_site_fract_x
_atom_site_fract_y
_atom_site_fract_z
Si Si1 0.195617 0.880321 0.166393
Si Si2 0.793585 0.648516 0.732446
Si Si3 0.332941 0.689391 0.448534
Si Si4 0.514101 0.920256 0.613766
Si Si5 0.233636 0.923693 0.383748
Si Si6 0.867896 0.131420 0.037903
Si Si7 0.965461 0.767719 0.734183
Si Si8 0.403053 0.219004 0.092561
O O1 0.209957 0.924456 0.265702
O O2 0.299466 0.828712 0.138275
O O3 0.081782 0.838074 0.214285
O O4 0.187818 0.904233 0.048984
O O5 0.725412 0.655474 0.640053
O O6 0.705859 0.622556 0.840329
O O7 0.902597 0.600982 0.700974
O O8 0.857160 0.719645 0.739992
O O9 0.250000 0.750000 0.500000
O O10 0.337558 0.632504 0.537274
O O11 0.453325 0.720059 0.384097
O O12 0.500000 0.891713 0.500000
O O13 0.635458 0.900658 0.631289
O O14 0.516825 0.000000 0.606911
O O15 0.219739 0.000000 0.428405
O O16 0.868958 0.213844 0.035331
O O17 0.000000 0.112361 0.000000
O O18 0.043007 0.739522 0.809418
O O19 0.500000 0.184640 0.000000
#
# Coordination Sequence:
#
# PCOD9212294 Si02
#       8
#     8   8   8   8   8   8   8   8
#     4  12  22  40  62  88 130 172 210 272 325 395
#     4  12  22  36  64  96 131 172 213 268 340 394
#     4  12  24  39  60  96 135 168 219 281 332 394
#     4  10  21  41  67  92 119 160 213 266 322 399
#     4  11  26  46  66  92 129 177 225 271 338 408
#     4  11  21  39  62  97 134 173 217 269 340 405
#     4  12  22  35  57  95 133 166 211 269 332 394
#     4  11  19  34  59  96 132 162 206 263 338 397
#
# _framework density 21.336828000000001
#
# number of rings (size 3 to 8) (size 9 to 14) (size 15 to 20)
#    0.000    0.625    6.250    4.125    0.000    1.500 
#    0.000    1.875    0.000    4.875    0.000    0.000 
#    0.000    0.000    0.000    0.000    0.000    0.000 
#
# Total GULP energy -178766.386551 kJ/mol
# GULP energy per Si atom -5586.449580 kJ/mol
# Density = 2.128826 g / cm^3
# Si number density = 21.336828 Si / 1000 Ang^3
#
#
#
# Elastic Constant Matrix: (Units=GPa)
#
#
# Indices 1 2 3 4 5 6 
#
# 1 80.2530 14.1975 48.1436 0.0000 -6.6921 0.0000
# 2 14.1975 36.6388 33.7864 0.0000 -0.2233 0.0000
# 3 48.1436 33.7864 154.0560 0.0000 -12.9215 0.0000
# 4 0.0000 0.0000 0.0000 17.6131 0.0000 4.6588
# 5 -6.6921 -0.2233 -12.9215 0.0000 55.6065 0.0000
# 6 0.0000 0.0000 0.0000 4.6588 0.0000 16.4522
#
#
#
# Elastic Compliance Matrix: (Units=1/GPa)
#
#
# Indices 1 2 3 4 5 6 
#
# 1 0.015482 -0.002003 -0.004328 0.000000 0.000850 0.000000
# 2 -0.002003 0.034619 -0.007113 0.000000 -0.001755 0.000000
# 3 -0.004328 -0.007113 0.009544 0.000000 0.001668 0.000000
# 4 0.000000 0.000000 0.000000 0.061373 0.000000 -0.017379
# 5 0.000850 -0.001755 0.001668 0.000000 0.018466 0.000000
# 6 0.000000 0.000000 0.000000 -0.017379 0.000000 0.065703
#
#
# Mechanical properties :
#
#
# Convention : Reuss Voigt Hill
#
# Bulk Modulus (GPa) = 30.52934 51.46698 40.99816
# Shear Modulus (GPa) = 20.57662 29.58904 25.08283
#
# Velocity S-wave (km/s) = 3.10880 3.72796 3.43237
# Velocity P-wave (km/s) = 5.21781 6.53482 5.91309
#
# Compressibility (1/GPa) = 0.03275538
#
# Stress axis : x y z
#
# Youngs Moduli (GPa) = 64.59124 28.88610 104.78274
#
# Poissons Ratio (x) = 0.05787 0.45346
# Poissons Ratio (y) = 0.12940 0.74537
# Poissons Ratio (z) = 0.27953 0.20548
#
# Static dielectric constant tensor:
#      x y z
#    x 1.791420 0.000000 0.014470 
#    y 0.000000 1.783900 0.000000 
#    z 0.014470 0.000000 1.836320 
# 
# From -- ./inp_files/135923.got.cif
#   From: 2010.05.17/outbox.cif.g08.bks.cpg/sg12_68_cif.got.tgz:135923.got - 2010.06.03 13:09:07.
