data_PCOD9212185
_publ_section_title
;
Structure prediction by ZEFSAII (Michael W. Deem and Ramdas Pophale) SiO2 
 PCOD9212185
Probable space group: C 2/M
;
_chemical_formula_sum "Si O2"
_cell_formula_units_Z 48
_cell_length_a 18.790454
_cell_length_b 15.100171
_cell_length_c 17.318812
_cell_angle_alpha 90.000000
_cell_angle_beta 149.422718
_cell_angle_gamma 90.000000
_cell_volume 2499.764231
_symmetry_space_group_name_H-M "C 2/M"
_symmetry_group_IT_number 12
_symmetry_cell_setting 'monoclinic'
loop_
_space_group_symop_operation_xyz
x,y,z
-x,y,-z
-x,-y,-z
x,-y,z
1/2+x,1/2+y,z
1/2-x,1/2+y,-z
1/2-x,1/2-y,-z
1/2+x,1/2-y,z
loop_
_atom_site_type_symbol
_atom_site_label
_atom_site_fract_x
_atom_site_fract_y
_atom_site_fract_z
Si Si1 0.950790 0.194534 0.038005
Si Si2 0.333074 0.000000 0.365717
Si Si3 0.223818 0.838664 0.375183
Si Si4 0.894820 0.166187 0.571759
Si Si5 0.274261 0.693735 0.099261
Si Si6 0.956023 0.000000 0.547658
Si Si7 0.719233 0.500000 0.915843
Si Si8 0.342863 0.500000 0.957541
O O1 0.082263 0.211217 0.215609
O O2 0.808363 0.247327 0.917351
O O3 0.927351 0.089938 0.025949
O O4 0.000000 0.215261 0.000000
O O5 0.500000 0.000000 0.500000
O O6 0.279912 0.085569 0.367842
O O7 0.263007 0.000000 0.214608
O O8 0.177956 0.870387 0.417904
O O9 0.334806 0.760887 0.491520
O O10 0.060506 0.182023 0.737361
O O11 0.875331 0.090423 0.489988
O O12 0.211516 0.594710 0.036532
O O13 0.250000 0.750000 0.000000
O O14 0.082353 0.000000 0.730580
O O15 0.000000 0.000000 0.500000
O O16 0.698054 0.500000 0.989449
#
# Coordination Sequence:
#
# PCOD9212185 Si02
#       8
#     8   4   8   8   8   4   4   4
#     4  12  23  39  64  98 131 172 217 269 338 403
#     4  12  28  41  63 108 145 173 215 279 352 404
#     4  11  23  41  63  95 137 167 215 268 331 398
#     4  10  23  42  68  93 126 175 221 274 327 395
#     4  11  21  40  68  93 128 173 228 271 326 405
#     4  10  21  41  65  90 119 167 224 271 319 385
#     4  10  22  40  66  97 121 169 233 271 326 402
#     4  12  22  41  68  95 133 176 217 273 333 419
#
# _framework density 19.201809999999998
#
# number of rings (size 3 to 8) (size 9 to 14) (size 15 to 20)
#    0.000    1.000    5.000    2.250    2.333    3.333 
#    0.000    1.250    0.000    0.000    0.000    0.000 
#    0.000    0.000    0.000    0.000    0.000    0.000 
#
# Total GULP energy -133653.793454 kJ/mol
# GULP energy per Si atom -5568.908061 kJ/mol
# Density = 1.915811 g / cm^3
# Si number density = 19.201810 Si / 1000 Ang^3
#
#
#
# Elastic Constant Matrix: (Units=GPa)
#
#
# Indices 1 2 3 4 5 6 
#
# 1 139.4477 43.2060 26.9877 -0.0001 0.2322 0.0000
# 2 43.2060 95.8901 36.6642 0.0000 15.7474 0.0000
# 3 26.9877 36.6642 62.1858 -0.0001 2.2049 0.0000
# 4 -0.0001 0.0000 -0.0001 5.9594 0.0000 -3.3709
# 5 0.2322 15.7474 2.2049 0.0000 30.9311 0.0000
# 6 0.0000 0.0000 0.0000 -3.3709 0.0000 31.4594
#
#
#
# Elastic Compliance Matrix: (Units=1/GPa)
#
#
# Indices 1 2 3 4 5 6 
#
# 1 0.008591 -0.003516 -0.001720 0.000000 0.001848 0.000000
# 2 -0.003516 0.016252 -0.007783 0.000000 -0.007693 0.000000
# 3 -0.001720 -0.007783 0.021329 0.000000 0.002455 0.000000
# 4 0.000000 0.000000 0.000000 0.178630 0.000000 0.019140
# 5 0.001848 -0.007693 0.002455 0.000000 0.036058 0.000000
# 6 0.000000 0.000000 0.000000 0.019140 0.000000 0.033838
#
#
# Mechanical properties :
#
#
# Convention : Reuss Voigt Hill
#
# Bulk Modulus (GPa) = 49.67258 56.80437 53.23847
# Shear Modulus (GPa) = 15.26954 26.38103 20.82528
#
# Velocity S-wave (km/s) = 2.82301 3.71061 3.29682
# Velocity P-wave (km/s) = 6.04572 6.92858 6.50215
#
# Compressibility (1/GPa) = 0.02013183
#
# Stress axis : x y z
#
# Youngs Moduli (GPa) = 116.40693 61.52917 46.88345
#
# Poissons Ratio (x) = 0.21636 0.08066
# Poissons Ratio (y) = 0.40934 0.36491
# Poissons Ratio (z) = 0.20027 0.47891
#
# Static dielectric constant tensor:
#      x y z
#    x 1.710880 0.000000 -0.030140 
#    y 0.000000 1.642390 0.000000 
#    z -0.030140 0.000000 1.709320 
# 
# From -- ./inp_files/278286.got.cif
#   From: 2010.05.17/outbox.cif.g08.bks.cpg/sg12_140_cif.got.tgz:278286.got - 2010.06.03 13:09:07.
