data_PCOD9212655
_publ_section_title
;
Structure prediction by ZEFSAII (Michael W. Deem and Ramdas Pophale) SiO2 
 PCOD9212655
Probable space group: C 2/M
;
_chemical_formula_sum "Si O2"
_cell_formula_units_Z 40
_cell_length_a 8.813730
_cell_length_b 27.638530
_cell_length_c 14.530567
_cell_angle_alpha 90.000000
_cell_angle_beta 28.793216
_cell_angle_gamma 90.000000
_cell_volume 1704.860036
_symmetry_space_group_name_H-M "C 2/M"
_symmetry_group_IT_number 12
_symmetry_cell_setting 'monoclinic'
loop_
_space_group_symop_operation_xyz
x,y,z
-x,y,-z
-x,-y,-z
x,-y,z
1/2+x,1/2+y,z
1/2-x,1/2+y,-z
1/2-x,1/2-y,-z
1/2+x,1/2-y,z
loop_
_atom_site_type_symbol
_atom_site_label
_atom_site_fract_x
_atom_site_fract_y
_atom_site_fract_z
Si Si1 0.224689 0.868795 0.288097
Si Si2 0.863781 0.592530 0.479807
Si Si3 0.224453 0.182857 0.801635
Si Si4 0.143405 0.553533 0.152817
Si Si5 0.649007 0.234581 0.721218
O O1 0.514645 0.904379 0.154851
O O2 0.326422 0.813119 0.227384
O O3 0.000000 0.868524 0.500000
O O4 0.996703 0.889535 0.330672
O O5 0.000000 0.570239 0.500000
O O6 0.075264 0.640615 0.349916
O O7 0.927548 0.558705 0.358668
O O8 0.453876 0.218502 0.736237
O O9 0.038925 0.217066 0.830335
O O10 0.000000 0.162580 0.000000
O O11 0.106596 0.500000 0.131323
O O12 0.500000 0.557900 0.000000
O O13 0.000000 0.246389 0.500000
#
# Coordination Sequence:
#
# PCOD9212655 Si02
#       5
#     8   8   8   8   8
#     4   9  19  38  60  88 120 159 209 245 296 366
#     4  11  23  39  61  90 125 165 204 254 298 355
#     4  12  24  38  57  87 125 164 209 256 301 356
#     4  10  21  42  71  94 119 156 196 253 319 371
#     4  11  21  38  59  84 120 164 209 250 299 360
#
# _framework density 23.462337000000002
#
# number of rings (size 3 to 8) (size 9 to 14) (size 15 to 20)
#    0.000    1.400    6.000    2.400    2.800    4.000 
#    0.000    1.000    0.000    2.400    0.000    0.000 
#    0.000    0.000    0.000    0.000    0.000    0.000 
#
# Total GULP energy -111855.761670 kJ/mol
# GULP energy per Si atom -5592.788083 kJ/mol
# Density = 2.340894 g / cm^3
# Si number density = 23.462337 Si / 1000 Ang^3
#
#
#
# Elastic Constant Matrix: (Units=GPa)
#
#
# Indices 1 2 3 4 5 6 
#
# 1 52.9202 -10.5904 7.5545 0.0000 -13.1913 0.0000
# 2 -10.5904 116.8852 17.8596 0.0000 -8.9053 0.0000
# 3 7.5545 17.8596 51.0571 0.0000 -18.6017 0.0001
# 4 0.0000 0.0000 0.0000 111.1372 0.0000 -176.0062
# 5 -13.1913 -8.9053 -18.6017 0.0000 27.4500 -0.0001
# 6 0.0000 0.0000 0.0001 -176.0062 -0.0001 334.2668
#
#
#
# Elastic Compliance Matrix: (Units=1/GPa)
#
#
# Indices 1 2 3 4 5 6 
#
# 1 0.022401 0.002932 -0.000095 0.000000 0.011652 0.000000
# 2 0.002932 0.009445 -0.002799 0.000000 0.002576 0.000000
# 3 -0.000095 -0.002799 0.026864 0.000000 0.017251 0.000000
# 4 0.000000 0.000000 0.000000 0.054165 0.000000 0.028520
# 5 0.011652 0.002576 0.017251 0.000000 0.054555 0.000000
# 6 0.000000 0.000000 0.000000 0.028520 0.000000 0.018009
#
#
# Mechanical properties :
#
#
# Convention : Reuss Voigt Hill
#
# Bulk Modulus (GPa) = 17.01081 27.83445 22.42263
# Shear Modulus (GPa) = 24.39512 108.30671 66.35092
#
# Velocity S-wave (km/s) = 3.22802 6.80163 5.32364
# Velocity P-wave (km/s) = 4.59995 8.57742 6.88228
#
# Compressibility (1/GPa) = 0.05878614
#
# Stress axis : x y z
#
# Youngs Moduli (GPa) = 44.64072 105.87610 37.22430
#
# Poissons Ratio (x) = -0.31042 0.00353
# Poissons Ratio (y) = -0.13088 0.10419
# Poissons Ratio (z) = 0.00424 0.29635
#
# Static dielectric constant tensor:
#      x y z
#    x 1.949610 0.000000 0.014770 
#    y 0.000000 1.853450 0.000000 
#    z 0.014770 0.000000 1.959680 
# 
# From -- ./inp_files/41403.got.cif
#   From: 2010.05.17/outbox.cif.g08.bks.cpg/sg12_21_cif.got.tgz:41403.got - 2010.06.03 13:09:07.
