data_PCOD9212831
_publ_section_title
;
Structure prediction by ZEFSAII (Michael W. Deem and Ramdas Pophale) SiO2 
 PCOD9212831
Probable space group: C 2/M
;
_chemical_formula_sum "Si O2"
_cell_formula_units_Z 44
_cell_length_a 13.146933
_cell_length_b 26.656582
_cell_length_c 10.826002
_cell_angle_alpha 90.000000
_cell_angle_beta 32.761296
_cell_angle_gamma 90.000000
_cell_volume 2053.084723
_symmetry_space_group_name_H-M "C 2/M"
_symmetry_group_IT_number 12
_symmetry_cell_setting 'monoclinic'
loop_
_space_group_symop_operation_xyz
x,y,z
-x,y,-z
-x,-y,-z
x,-y,z
1/2+x,1/2+y,z
1/2-x,1/2+y,-z
1/2-x,1/2-y,-z
1/2+x,1/2-y,z
loop_
_atom_site_type_symbol
_atom_site_label
_atom_site_fract_x
_atom_site_fract_y
_atom_site_fract_z
Si Si1 0.057785 0.727139 0.146851
Si Si2 0.134677 0.115257 0.543499
Si Si3 0.000000 0.629674 0.500000
Si Si4 0.232873 0.802524 0.647763
Si Si5 0.042450 0.442396 0.691739
Si Si6 0.786300 0.622292 0.112686
O O1 0.931978 0.761866 0.185523
O O2 0.922816 0.722583 0.403459
O O3 0.250000 0.750000 0.000000
O O4 0.112610 0.673544 0.033265
O O5 0.175380 0.159352 0.597984
O O6 0.240719 0.067362 0.492270
O O7 0.232412 0.125365 0.311518
O O8 0.913131 0.113414 0.750361
O O9 0.189314 0.663984 0.318331
O O10 0.004794 0.594525 0.374414
O O11 0.007084 0.500000 0.698248
O O12 0.918588 0.422907 0.933186
#
# Coordination Sequence:
#
# PCOD9212831 Si02
#       6
#     8   8   4   8   8   8
#     4  11  21  40  63  94 130 176 218 263 326 391
#     4  10  22  41  65  93 130 168 219 277 329 398
#     4  10  21  46  66  94 134 174 219 276 322 400
#     4  10  22  41  61  95 132 172 223 261 323 393
#     4  11  24  44  69  93 127 173 224 281 343 390
#     4  11  22  41  65  96 133 169 217 277 336 397
#
# _framework density 21.431166000000001
#
# number of rings (size 3 to 8) (size 9 to 14) (size 15 to 20)
#    0.000    1.455    5.455    0.818    0.000    2.182 
#    9.818    9.091    0.000    5.455    0.000    0.000 
#    0.000    0.000    0.000    0.000    0.000    0.000 
#
# Total GULP energy -122904.235582 kJ/mol
# GULP energy per Si atom -5586.556163 kJ/mol
# Density = 2.138239 g / cm^3
# Si number density = 21.431166 Si / 1000 Ang^3
#
#
#
# Elastic Constant Matrix: (Units=GPa)
#
#
# Indices 1 2 3 4 5 6 
#
# 1 127.8849 48.5054 46.7101 0.0000 -31.1194 0.0000
# 2 48.5054 119.6795 37.8491 0.0000 -16.3010 0.0000
# 3 46.7101 37.8491 92.7441 0.0000 -25.0247 0.0000
# 4 0.0000 0.0000 0.0000 15.8142 0.0000 -6.9645
# 5 -31.1194 -16.3010 -25.0247 0.0000 44.8402 0.0000
# 6 0.0000 0.0000 0.0000 -6.9645 0.0000 26.7850
#
#
#
# Elastic Compliance Matrix: (Units=1/GPa)
#
#
# Indices 1 2 3 4 5 6 
#
# 1 0.011291 -0.002896 -0.003149 0.000000 0.005026 0.000000
# 2 -0.002896 0.010427 -0.002727 0.000000 0.000259 0.000000
# 3 -0.003149 -0.002727 0.014862 0.000000 0.005118 0.000000
# 4 0.000000 0.000000 0.000000 0.071412 0.000000 0.018568
# 5 0.005026 0.000259 0.005118 0.000000 0.028740 0.000000
# 6 0.000000 0.000000 0.000000 0.018568 0.000000 0.042162
#
#
# Mechanical properties :
#
#
# Convention : Reuss Voigt Hill
#
# Bulk Modulus (GPa) = 52.52928 67.38198 59.95563
# Shear Modulus (GPa) = 24.65700 31.30415 27.98057
#
# Velocity S-wave (km/s) = 3.39561 3.82604 3.61723
# Velocity P-wave (km/s) = 6.31961 7.14335 6.74407
#
# Compressibility (1/GPa) = 0.01903700
#
# Stress axis : x y z
#
# Youngs Moduli (GPa) = 88.56627 95.90495 67.28599
#
# Poissons Ratio (x) = 0.27772 0.21186
# Poissons Ratio (y) = 0.25647 0.18348
# Poissons Ratio (z) = 0.27887 0.26153
#
# Static dielectric constant tensor:
#      x y z
#    x 1.815430 0.000000 0.013340 
#    y 0.000000 1.776160 0.000000 
#    z 0.013340 0.000000 1.810220 
# 
# From -- ./inp_files/149387.got.cif
#   From: 2010.05.17/outbox.cif.g08.bks.cpg/sg12_75_cif.got.tgz:149387.got - 2010.06.03 13:09:07.
