data_PCOD9212514
_publ_section_title
;
Structure prediction by ZEFSAII (Michael W. Deem and Ramdas Pophale) SiO2 
 PCOD9212514
Probable space group: C 2/M
;
_chemical_formula_sum "Si O2"
_cell_formula_units_Z 48
_cell_length_a 11.021665
_cell_length_b 21.697447
_cell_length_c 9.090290
_cell_angle_alpha 90.000000
_cell_angle_beta 80.616852
_cell_angle_gamma 90.000000
_cell_volume 2144.784020
_symmetry_space_group_name_H-M "C 2/M"
_symmetry_group_IT_number 12
_symmetry_cell_setting 'monoclinic'
loop_
_space_group_symop_operation_xyz
x,y,z
-x,y,-z
-x,-y,-z
x,-y,z
1/2+x,1/2+y,z
1/2-x,1/2+y,-z
1/2-x,1/2-y,-z
1/2+x,1/2-y,z
loop_
_atom_site_type_symbol
_atom_site_label
_atom_site_fract_x
_atom_site_fract_y
_atom_site_fract_z
Si Si1 0.777840 0.071534 0.466246
Si Si2 0.674187 0.428000 0.041865
Si Si3 0.723924 0.740795 0.832252
Si Si4 0.577385 0.149648 0.343938
Si Si5 0.159788 0.622283 0.776497
Si Si6 0.063601 0.868993 0.784280
O O1 0.662146 0.095577 0.393324
O O2 0.736816 0.084331 0.640579
O O3 0.890857 0.112795 0.385852
O O4 0.804779 0.000000 0.439252
O O5 0.654153 0.500000 0.070652
O O6 0.806131 0.406461 0.073128
O O7 0.574784 0.387475 0.152178
O O8 0.644289 0.411408 0.880221
O O9 0.704906 0.807253 0.765933
O O10 0.602628 0.699642 0.822578
O O11 0.834858 0.701950 0.739415
O O12 0.750000 0.750000 0.000000
O O13 0.500000 0.173759 0.500000
O O14 0.481075 0.124323 0.244667
#
# Coordination Sequence:
#
# PCOD9212514 Si02
#       6
#     8   8   8   8   8   8
#     4  10  21  42  65  90 127 170 213 264 328 386
#     4  11  22  39  62  95 129 166 218 269 322 383
#     4  11  23  43  65  91 130 166 222 265 323 381
#     4   9  23  41  63  94 126 167 210 264 328 388
#     4  11  24  39  62  96 122 167 211 265 322 377
#     4  10  22  40  63  89 124 177 210 266 326 386
#
# _framework density 22.379874999999998
#
# number of rings (size 3 to 8) (size 9 to 14) (size 15 to 20)
#    0.000    1.667    1.667    2.500    2.333   11.000 
#    0.000    1.667    0.000    3.000    0.000    0.000 
#    0.000    0.000    0.000    0.000    0.000    0.000 
#
# Total GULP energy -134246.836991 kJ/mol
# GULP energy per Si atom -5593.618208 kJ/mol
# Density = 2.232894 g / cm^3
# Si number density = 22.379875 Si / 1000 Ang^3
#
#
#
# Elastic Constant Matrix: (Units=GPa)
#
#
# Indices 1 2 3 4 5 6 
#
# 1 51.4365 -4.3068 34.8129 0.0000 12.1318 0.0000
# 2 -4.3068 98.5255 6.0303 0.0000 2.2203 0.0000
# 3 34.8129 6.0303 38.9836 0.0000 4.7265 0.0000
# 4 0.0000 0.0000 0.0000 36.0804 0.0000 1.8783
# 5 12.1318 2.2203 4.7265 0.0000 42.1528 0.0000
# 6 0.0000 0.0000 0.0000 1.8783 0.0000 10.3524
#
#
#
# Elastic Compliance Matrix: (Units=1/GPa)
#
#
# Indices 1 2 3 4 5 6 
#
# 1 0.056108 0.005738 -0.049674 0.000000 -0.010881 0.000000
# 2 0.005738 0.010839 -0.006621 0.000000 -0.001480 0.000000
# 3 -0.049674 -0.006621 0.070215 0.000000 0.006772 0.000000
# 4 0.000000 0.000000 0.000000 0.027980 0.000000 -0.005077
# 5 -0.010881 -0.001480 0.006772 0.000000 0.026173 0.000000
# 6 0.000000 0.000000 0.000000 -0.005077 0.000000 0.097517
#
#
# Mechanical properties :
#
#
# Convention : Reuss Voigt Hill
#
# Bulk Modulus (GPa) = 27.74127 29.11316 28.42722
# Shear Modulus (GPa) = 12.43897 27.87774 20.15835
#
# Velocity S-wave (km/s) = 2.36012 3.53322 3.00448
# Velocity P-wave (km/s) = 4.45527 5.44810 4.97650
#
# Compressibility (1/GPa) = 0.03604737
#
# Stress axis : x y z
#
# Youngs Moduli (GPa) = 17.82270 92.25851 14.24206
#
# Poissons Ratio (x) = -0.52939 0.70746
# Poissons Ratio (y) = -0.10227 0.09430
# Poissons Ratio (z) = 0.88532 0.61089
#
# Static dielectric constant tensor:
#      x y z
#    x 1.845610 0.000000 -0.010910 
#    y 0.000000 1.776940 0.000000 
#    z -0.010910 0.000000 1.841510 
# 
# From -- ./inp_files/50726.got.cif
#   From: 2010.05.17/outbox.cif.g08.bks.cpg/sg12_26_cif.got.tgz:50726.got - 2010.06.03 13:09:07.
