data_PCOD9212373
_publ_section_title
;
Structure prediction by ZEFSAII (Michael W. Deem and Ramdas Pophale) SiO2 
 PCOD9212373
Probable space group: C 2/M
;
_chemical_formula_sum "Si O2"
_cell_formula_units_Z 34
_cell_length_a 12.315843
_cell_length_b 20.777736
_cell_length_c 7.770185
_cell_angle_alpha 90.000000
_cell_angle_beta 131.052057
_cell_angle_gamma 90.000000
_cell_volume 1499.444057
_symmetry_space_group_name_H-M "C 2/M"
_symmetry_group_IT_number 12
_symmetry_cell_setting 'monoclinic'
loop_
_space_group_symop_operation_xyz
x,y,z
-x,y,-z
-x,-y,-z
x,-y,z
1/2+x,1/2+y,z
1/2-x,1/2+y,-z
1/2-x,1/2-y,-z
1/2+x,1/2-y,z
loop_
_atom_site_type_symbol
_atom_site_label
_atom_site_fract_x
_atom_site_fract_y
_atom_site_fract_z
Si Si1 0.824016 0.839343 0.202929
Si Si2 0.000000 0.500000 0.000000
Si Si3 0.819538 0.615977 0.620651
Si Si4 0.972576 0.737675 0.154810
Si Si5 0.666175 0.427465 0.117192
O O1 0.807763 0.872395 0.371602
O O2 0.947323 0.788982 0.276770
O O3 0.675791 0.800062 0.027304
O O4 0.820776 0.891403 0.048759
O O5 0.083036 0.557940 0.201174
O O6 0.908291 0.682857 0.695065
O O7 0.756806 0.601253 0.368515
O O8 0.000000 0.772125 0.000000
O O9 0.717842 0.500000 0.143831
O O10 0.500000 0.428495 0.000000
#
# Coordination Sequence:
#
# PCOD9212373 Si02
#       5
#     8   2   8   8   8
#     4  10  21  41  68  96 135 180 223 272 348 408
#     4  12  20  44  72 106 138 172 234 286 346 394
#     4  11  23  44  72 101 140 177 225 296 337 400
#     4   9  19  41  66  99 136 170 227 282 338 402
#     4  11  26  44  65 100 140 183 231 277 339 416
#
# _framework density 22.675069000000001
#
# number of rings (size 3 to 8) (size 9 to 14) (size 15 to 20)
#    0.000    1.647    4.706    0.706    1.647    1.882 
#    0.000   32.941    0.000    0.000    0.000    0.000 
#    0.000    0.000    0.000    0.000    0.000    0.000 
#
# Total GULP energy -94802.471178 kJ/mol
# GULP energy per Si atom -5576.615952 kJ/mol
# Density = 2.262346 g / cm^3
# Si number density = 22.675069 Si / 1000 Ang^3
#
#
#
# Elastic Constant Matrix: (Units=GPa)
#
#
# Indices 1 2 3 4 5 6 
#
# 1 116.8452 63.2506 27.5729 0.0000 -24.2793 0.0000
# 2 63.2506 142.4233 53.6571 0.0000 -20.7403 0.0000
# 3 27.5729 53.6571 103.4380 0.0000 -8.8525 0.0000
# 4 0.0000 0.0000 0.0000 23.2329 0.0000 9.4299
# 5 -24.2793 -20.7403 -8.8525 0.0000 21.0417 0.0000
# 6 0.0000 0.0000 0.0000 9.4299 0.0000 6.3787
#
#
#
# Elastic Compliance Matrix: (Units=1/GPa)
#
#
# Indices 1 2 3 4 5 6 
#
# 1 0.013148 -0.004071 -0.000455 0.000000 0.010968 0.000000
# 2 -0.004071 0.011090 -0.004289 0.000000 0.004430 0.000000
# 3 -0.000455 -0.004289 0.012040 0.000000 0.000314 0.000000
# 4 0.000000 0.000000 0.000000 0.107617 0.000000 -0.159096
# 5 0.010968 0.004430 0.000314 0.000000 0.064678 0.000000
# 6 0.000000 0.000000 0.000000 -0.159096 0.000000 0.391971
#
#
# Mechanical properties :
#
#
# Convention : Reuss Voigt Hill
#
# Bulk Modulus (GPa) = 53.61733 72.40752 63.01242
# Shear Modulus (GPa) = 8.00783 24.67903 16.34343
#
# Velocity S-wave (km/s) = 1.88128 3.30264 2.68762
# Velocity P-wave (km/s) = 5.33069 6.82240 6.12215
#
# Compressibility (1/GPa) = 0.01865069
#
# Stress axis : x y z
#
# Youngs Moduli (GPa) = 76.05652 90.17216 83.05462
#
# Poissons Ratio (x) = 0.36707 0.03775
# Poissons Ratio (y) = 0.30961 0.35618
# Poissons Ratio (z) = 0.03457 0.38670
#
# Static dielectric constant tensor:
#      x y z
#    x 2.649970 0.000000 -0.839890 
#    y 0.000000 1.785540 0.000000 
#    z -0.839890 0.000000 2.783350 
# 
# From -- ./inp_files/49052.got.cif
#   From: 2010.05.17/outbox.cif.g08.bks.cpg/sg12_25_cif.got.tgz:49052.got - 2010.06.03 13:09:07.
