data_PCOD9212909
_publ_section_title
;
Structure prediction by ZEFSAII (Michael W. Deem and Ramdas Pophale) SiO2 
 PCOD9212909
Probable space group: C 2/M
;
_chemical_formula_sum "Si O2"
_cell_formula_units_Z 56
_cell_length_a 19.137305
_cell_length_b 24.945955
_cell_length_c 17.055194
_cell_angle_alpha 90.000000
_cell_angle_beta 156.264132
_cell_angle_gamma 90.000000
_cell_volume 3277.374190
_symmetry_space_group_name_H-M "C 2/M"
_symmetry_group_IT_number 12
_symmetry_cell_setting 'monoclinic'
loop_
_space_group_symop_operation_xyz
x,y,z
-x,y,-z
-x,-y,-z
x,-y,z
1/2+x,1/2+y,z
1/2-x,1/2+y,-z
1/2-x,1/2-y,-z
1/2+x,1/2-y,z
loop_
_atom_site_type_symbol
_atom_site_label
_atom_site_fract_x
_atom_site_fract_y
_atom_site_fract_z
Si Si1 0.804837 0.193828 0.517199
Si Si2 0.193348 0.197967 0.889855
Si Si3 0.764661 0.000000 0.686649
Si Si4 0.494625 0.204248 0.903840
Si Si5 0.918972 0.829885 0.801616
Si Si6 0.597915 0.889334 0.518926
Si Si7 0.253032 0.882834 0.087397
Si Si8 0.668060 0.500000 0.057129
O O1 0.750000 0.250000 0.500000
O O2 0.653427 0.176804 0.302562
O O3 0.845397 0.160149 0.637411
O O4 0.988726 0.202099 0.662991
O O5 0.250000 0.250000 0.000000
O O6 0.319607 0.196537 0.945939
O O7 0.218251 0.144835 0.968280
O O8 0.664821 0.053179 0.559276
O O9 0.770739 0.000000 0.788660
O O10 0.958906 0.000000 0.851715
O O11 0.448934 0.267663 0.850478
O O12 0.500000 0.188320 0.000000
O O13 0.769103 0.853466 0.701703
O O14 0.105060 0.858362 0.992519
O O15 0.500000 0.896415 0.500000
O O16 0.448427 0.866164 0.310048
O O17 0.232338 0.946504 0.078987
#
# Coordination Sequence:
#
# PCOD9212909 Si02
#       8
#     8   8   4   8   8   8   8   4
#     4   9  18  36  53  69 107 142 181 223 275 323
#     4  11  20  37  59  76 106 150 186 224 286 332
#     4  11  22  37  50  73 117 153 181 239 276 302
#     4  11  23  35  54  82 114 139 187 233 278 335
#     4  10  22  35  51  78 106 150 187 228 269 324
#     4  12  23  32  50  73 108 152 196 221 273 308
#     4  11  22  36  57  74 104 148 191 230 266 331
#     4  11  21  38  55  73 113 149 188 233 280 314
#
# _framework density 17.086849000000001
#
# number of rings (size 3 to 8) (size 9 to 14) (size 15 to 20)
#    0.000    1.286    7.143    1.500    4.000    0.571 
#    0.000    0.000    0.000    0.000    0.000    0.500 
#    0.000    4.571    0.000    0.000    0.000    0.000 
#
# Total GULP energy -156167.253574 kJ/mol
# GULP energy per Si atom -5577.401913 kJ/mol
# Density = 1.704796 g / cm^3
# Si number density = 17.086849 Si / 1000 Ang^3
#
#
#
# Elastic Constant Matrix: (Units=GPa)
#
#
# Indices 1 2 3 4 5 6 
#
# 1 99.3214 2.4089 44.8829 0.0000 12.7533 0.0000
# 2 2.4089 46.1618 0.2408 0.0000 3.6085 0.0000
# 3 44.8829 0.2408 95.9045 0.0000 13.5292 0.0000
# 4 0.0000 0.0000 0.0000 21.7162 0.0000 6.2438
# 5 12.7533 3.6085 13.5292 0.0000 38.5090 0.0000
# 6 0.0000 0.0000 0.0000 6.2438 0.0000 9.7905
#
#
#
# Elastic Compliance Matrix: (Units=1/GPa)
#
#
# Indices 1 2 3 4 5 6 
#
# 1 0.012965 -0.000472 -0.005752 0.000000 -0.002229 0.000000
# 2 -0.000472 0.021846 0.000456 0.000000 -0.002051 0.000000
# 3 -0.005752 0.000456 0.013525 0.000000 -0.002890 0.000000
# 4 0.000000 0.000000 0.000000 0.056388 0.000000 -0.035961
# 5 -0.002229 -0.002051 -0.002890 0.000000 0.027913 0.000000
# 6 0.000000 0.000000 0.000000 -0.035961 0.000000 0.125073
#
#
# Mechanical properties :
#
#
# Convention : Reuss Voigt Hill
#
# Bulk Modulus (GPa) = 27.17514 37.38365 32.27939
# Shear Modulus (GPa) = 17.76107 26.92682 22.34395
#
# Velocity S-wave (km/s) = 3.22756 3.97404 3.62009
# Velocity P-wave (km/s) = 5.46152 6.55618 6.03372
#
# Compressibility (1/GPa) = 0.03679834
#
# Stress axis : x y z
#
# Youngs Moduli (GPa) = 77.12882 45.77600 73.93444
#
# Poissons Ratio (x) = 0.02162 0.42528
# Poissons Ratio (y) = 0.03643 -0.03368
# Poissons Ratio (z) = 0.44366 -0.02085
#
# Static dielectric constant tensor:
#      x y z
#    x 1.607600 0.000000 -0.018010 
#    y 0.000000 1.571660 0.000000 
#    z -0.018010 0.000000 1.645410 
# 
# From -- ./inp_files/286657.got.cif
#   From: 2010.05.17/outbox.cif.g08.bks.cpg/sg12_144_cif.got.tgz:286657.got - 2010.06.03 13:09:07.
