data_PCOD9212465
_publ_section_title
;
Structure prediction by ZEFSAII (Michael W. Deem and Ramdas Pophale) SiO2 
 PCOD9212465
Probable space group: C 2/M
;
_chemical_formula_sum "Si O2"
_cell_formula_units_Z 40
_cell_length_a 8.777687
_cell_length_b 33.357449
_cell_length_c 8.445426
_cell_angle_alpha 90.000000
_cell_angle_beta 52.827033
_cell_angle_gamma 90.000000
_cell_volume 1970.389258
_symmetry_space_group_name_H-M "C 2/M"
_symmetry_group_IT_number 12
_symmetry_cell_setting 'monoclinic'
loop_
_space_group_symop_operation_xyz
x,y,z
-x,y,-z
-x,-y,-z
x,-y,z
1/2+x,1/2+y,z
1/2-x,1/2+y,-z
1/2-x,1/2-y,-z
1/2+x,1/2-y,z
loop_
_atom_site_type_symbol
_atom_site_label
_atom_site_fract_x
_atom_site_fract_y
_atom_site_fract_z
Si Si1 0.280296 0.354178 0.913329
Si Si2 0.435762 0.803189 0.715352
Si Si3 0.500000 0.599049 0.000000
Si Si4 0.114886 0.452377 0.265811
Si Si5 0.000000 0.580696 0.000000
Si Si6 0.711727 0.725633 0.293964
O O1 0.295705 0.312939 0.811923
O O2 0.139666 0.341675 0.145063
O O3 0.470865 0.371908 0.868307
O O4 0.180955 0.389355 0.877859
O O5 0.500000 0.814664 0.500000
O O6 0.272826 0.768704 0.800972
O O7 0.614491 0.783146 0.696070
O O8 0.686746 0.571917 0.864030
O O9 0.149981 0.500000 0.250732
O O10 0.000000 0.441751 0.500000
O O11 0.016611 0.442880 0.156182
O O12 0.500000 0.727964 0.500000
#
# Coordination Sequence:
#
# PCOD9212465 Si02
#       6
#     8   8   4   8   4   8
#     4  11  23  39  59  85 124 163 204 258 323 365
#     4  11  23  39  59  83 118 166 219 266 315 375
#     4  10  25  38  65  96 132 160 210 262 315 384
#     4  10  22  44  73  98 129 171 207 251 317 386
#     4  10  21  42  61 100 130 160 208 264 315 378
#     4  11  23  38  57  85 118 163 218 266 315 371
#
# _framework density 20.300556
#
# number of rings (size 3 to 8) (size 9 to 14) (size 15 to 20)
#    0.000    1.400    2.000    3.600    5.600    4.800 
#    0.000    3.000    0.000   10.800    0.000    0.000 
#    0.000    0.000    0.000    0.000    0.000    0.000 
#
# Total GULP energy -111656.013652 kJ/mol
# GULP energy per Si atom -5582.800683 kJ/mol
# Density = 2.025435 g / cm^3
# Si number density = 20.300556 Si / 1000 Ang^3
#
#
#
# Elastic Constant Matrix: (Units=GPa)
#
#
# Indices 1 2 3 4 5 6 
#
# 1 131.6834 36.6572 35.8304 0.0000 19.4448 0.0000
# 2 36.6572 78.6383 35.6767 0.0000 13.2216 0.0000
# 3 35.8304 35.6767 87.1123 0.0000 19.8635 0.0000
# 4 0.0000 0.0000 0.0000 -78.7803 0.0000 -50.2611
# 5 19.4448 13.2216 19.8635 0.0000 24.6668 0.0000
# 6 0.0000 0.0000 0.0000 -50.2611 0.0000 1.2801
#
#
#
# Elastic Compliance Matrix: (Units=1/GPa)
#
#
# Indices 1 2 3 4 5 6 
#
# 1 0.009542 -0.002910 -0.001682 0.000000 -0.004607 0.000000
# 2 -0.002910 0.016826 -0.005096 0.000000 -0.002621 0.000000
# 3 -0.001682 -0.005096 0.016332 0.000000 -0.009094 0.000000
# 4 0.000000 0.000000 0.000000 -0.000487 0.000000 -0.019132
# 5 -0.004607 -0.002621 -0.009094 0.000000 0.052900 0.000000
# 6 0.000000 0.000000 0.000000 -0.019132 0.000000 0.029988
#
#
# Mechanical properties :
#
#
# Convention : Reuss Voigt Hill
#
# Bulk Modulus (GPa) = 42.87731 57.08472 49.98102
# Shear Modulus (GPa) = 32.83989 2.05128 17.44558
#
# Velocity S-wave (km/s) = 4.02641 1.00630 2.93467
# Velocity P-wave (km/s) = 6.54088 5.43425 6.01307
#
# Compressibility (1/GPa) = 0.02332236
#
# Stress axis : x y z
#
# Youngs Moduli (GPa) = 104.79757 59.43256 61.22841
#
# Poissons Ratio (x) = 0.17296 0.10301
# Poissons Ratio (y) = 0.30498 0.31205
# Poissons Ratio (z) = 0.17631 0.30289
#
# Static dielectric constant tensor:
#      x y z
#    x 1.752770 0.000000 0.029040 
#    y 0.000000 1.703560 0.000000 
#    z 0.029040 0.000000 1.771840 
# 
# From -- ./inp_files/41499.got.cif
#   From: 2010.05.17/outbox.cif.g08.bks.cpg/sg12_21_cif.got.tgz:41499.got - 2010.06.03 13:09:07.
