data_PCOD9212874
_publ_section_title
;
Structure prediction by ZEFSAII (Michael W. Deem and Ramdas Pophale) SiO2 
 PCOD9212874
Probable space group: C 2/M
;
_chemical_formula_sum "Si O2"
_cell_formula_units_Z 38
_cell_length_a 22.340902
_cell_length_b 9.643982
_cell_length_c 9.837091
_cell_angle_alpha 90.000000
_cell_angle_beta 116.643938
_cell_angle_gamma 90.000000
_cell_volume 1894.389537
_symmetry_space_group_name_H-M "C 2/M"
_symmetry_group_IT_number 12
_symmetry_cell_setting 'monoclinic'
loop_
_space_group_symop_operation_xyz
x,y,z
-x,y,-z
-x,-y,-z
x,-y,z
1/2+x,1/2+y,z
1/2-x,1/2+y,-z
1/2-x,1/2-y,-z
1/2+x,1/2-y,z
loop_
_atom_site_type_symbol
_atom_site_label
_atom_site_fract_x
_atom_site_fract_y
_atom_site_fract_z
Si Si1 0.964055 0.705913 0.758043
Si Si2 0.314863 0.000000 0.158106
Si Si3 0.928002 0.500000 0.500053
Si Si4 0.386173 0.263663 0.135801
Si Si5 0.500000 0.000000 0.000000
Si Si6 0.418606 0.500000 0.388396
Si Si7 0.663890 0.500000 0.109064
Si Si8 0.597947 0.500000 0.320162
O O1 0.926106 0.634056 0.594912
O O2 0.952814 0.620104 0.881870
O O3 0.946780 0.864878 0.749930
O O4 0.042991 0.686638 0.810032
O O5 0.331207 0.856788 0.096197
O O6 0.368714 0.000000 0.334090
O O7 0.240347 0.000000 0.138912
O O8 0.000000 0.500000 0.500000
O O9 0.397169 0.365732 0.277514
O O10 0.370446 0.365817 0.995112
O O11 0.500000 0.500000 0.500000
O O12 0.384483 0.500000 0.502087
O O13 0.654283 0.500000 0.261420
#
# Coordination Sequence:
#
# PCOD9212874 Si02
#       8
#     8   4   4   8   2   4   4   4
#     4  11  21  37  63  95 123 159 211 275 327 364
#     4  12  23  41  67  92 131 168 225 256 309 398
#     4  11  21  38  64  98 120 152 211 281 326 352
#     4  11  22  40  67  91 125 166 222 267 310 378
#     4  10  22  34  50  90 132 156 194 256 342 384
#     4  11  21  39  63  98 126 158 210 271 327 375
#     4  11  27  43  57  94 135 186 203 251 324 391
#     4  12  23  38  64  91 137 162 212 260 332 386
#
# _framework density 20.059232999999999
#
# number of rings (size 3 to 8) (size 9 to 14) (size 15 to 20)
#    0.000    0.842    4.211    4.421    0.000    1.263 
#    0.000    4.211    0.000    5.053    0.000    0.000 
#    0.000    0.000    0.000    0.000    0.000    0.000 
#
# Total GULP energy -105891.726675 kJ/mol
# GULP energy per Si atom -5573.248772 kJ/mol
# Density = 2.001358 g / cm^3
# Si number density = 20.059233 Si / 1000 Ang^3
#
#
#
# Elastic Constant Matrix: (Units=GPa)
#
#
# Indices 1 2 3 4 5 6 
#
# 1 58.8222 3.8679 -9.0200 0.0000 -10.8165 0.0000
# 2 3.8679 134.3599 23.0212 0.0000 -13.4968 0.0000
# 3 -9.0200 23.0212 73.8131 0.0000 -19.6109 0.0000
# 4 0.0000 0.0000 0.0000 24.8242 0.0000 -7.3997
# 5 -10.8165 -13.4968 -19.6109 0.0000 28.6418 0.0000
# 6 0.0000 0.0000 0.0000 -7.3997 0.0000 25.0189
#
#
#
# Elastic Compliance Matrix: (Units=1/GPa)
#
#
# Indices 1 2 3 4 5 6 
#
# 1 0.019913 -0.000402 0.005508 0.000000 0.011102 0.000000
# 2 -0.000402 0.008017 -0.001939 0.000000 0.002299 0.000000
# 3 0.005508 -0.001939 0.018501 0.000000 0.013834 0.000000
# 4 0.000000 0.000000 0.000000 0.044178 0.000000 0.013066
# 5 0.011102 0.002299 0.013834 0.000000 0.049662 0.000000
# 6 0.000000 0.000000 0.000000 0.013066 0.000000 0.043834
#
#
# Mechanical properties :
#
#
# Convention : Reuss Voigt Hill
#
# Bulk Modulus (GPa) = 18.95121 33.63704 26.29413
# Shear Modulus (GPa) = 25.59377 32.30536 28.94957
#
# Velocity S-wave (km/s) = 3.57586 4.01746 3.80307
# Velocity P-wave (km/s) = 5.14949 6.19073 5.69396
#
# Compressibility (1/GPa) = 0.05276707
#
# Stress axis : x y z
#
# Youngs Moduli (GPa) = 50.21830 124.72899 54.05082
#
# Poissons Ratio (x) = 0.05012 -0.29774
# Poissons Ratio (y) = 0.02018 0.10480
# Poissons Ratio (z) = -0.27662 0.24183
#
# Static dielectric constant tensor:
#      x y z
#    x 1.712040 0.000000 -0.070190 
#    y 0.000000 1.720870 0.000000 
#    z -0.070190 0.000000 1.747860 
# 
# From -- ./inp_files/93884.got.cif
#   From: 2010.05.17/outbox.cif.g08.bks.cpg/sg12_47_cif.got.tgz:93884.got - 2010.06.03 13:09:07.
