data_PCOD9212215
_publ_section_title
;
Structure prediction by ZEFSAII (Michael W. Deem and Ramdas Pophale) SiO2 
 PCOD9212215
Probable space group: C 2/M
;
_chemical_formula_sum "Si O2"
_cell_formula_units_Z 48
_cell_length_a 16.050564
_cell_length_b 12.747556
_cell_length_c 11.264088
_cell_angle_alpha 90.000000
_cell_angle_beta 63.604438
_cell_angle_gamma 90.000000
_cell_volume 2064.420839
_symmetry_space_group_name_H-M "C 2/M"
_symmetry_group_IT_number 12
_symmetry_cell_setting 'monoclinic'
loop_
_space_group_symop_operation_xyz
x,y,z
-x,y,-z
-x,-y,-z
x,-y,z
1/2+x,1/2+y,z
1/2-x,1/2+y,-z
1/2-x,1/2-y,-z
1/2+x,1/2-y,z
loop_
_atom_site_type_symbol
_atom_site_label
_atom_site_fract_x
_atom_site_fract_y
_atom_site_fract_z
Si Si1 0.647046 0.617142 0.138186
Si Si2 0.035911 0.157111 0.613310
Si Si3 0.284988 0.661730 0.371174
Si Si4 0.074720 0.610441 0.557364
Si Si5 0.211608 0.376507 0.741956
Si Si6 0.107804 0.212718 0.923450
O O1 0.676636 0.500000 0.083036
O O2 0.541712 0.613606 0.251406
O O3 0.706091 0.646663 0.216710
O O4 0.651631 0.693635 0.024230
O O5 0.138826 0.119093 0.583157
O O6 0.045028 0.281269 0.636087
O O7 0.000000 0.142006 0.500000
O O8 0.180072 0.619774 0.441154
O O9 0.277480 0.791017 0.370508
O O10 0.335778 0.646090 0.211013
O O11 0.067929 0.500000 0.629731
O O12 0.000000 0.604922 0.500000
O O13 0.213051 0.500000 0.714739
O O14 0.121457 0.331984 0.868146
O O15 0.000000 0.184196 0.000000
#
# Coordination Sequence:
#
# PCOD9212215 Si02
#       6
#     8   8   8   8   8   8
#     4  11  22  40  64  95 129 169 216 267 328 387
#     4  11  23  42  64  89 133 172 220 275 315 379
#     4  10  22  41  68  94 130 172 211 273 331 380
#     4  10  22  41  64  91 124 168 219 265 320 382
#     4   9  20  37  62  95 129 167 209 258 323 391
#     4  10  21  41  65  96 132 163 214 268 323 394
#
# _framework density 23.251073000000002
#
# number of rings (size 3 to 8) (size 9 to 14) (size 15 to 20)
#    1.000    0.833    1.667    3.000    0.000    3.000 
#    0.000    3.333    0.000    0.500    0.000    0.000 
#    0.000    0.000    0.000    0.000    0.000    0.000 
#
# Total GULP energy -133807.387131 kJ/mol
# GULP energy per Si atom -5575.307797 kJ/mol
# Density = 2.319815 g / cm^3
# Si number density = 23.251073 Si / 1000 Ang^3
#
#
#
# Elastic Constant Matrix: (Units=GPa)
#
#
# Indices 1 2 3 4 5 6 
#
# 1 196.3806 9.8131 52.8555 0.0000 16.0262 0.0000
# 2 9.8131 134.7607 11.8730 0.0000 12.7370 0.0000
# 3 52.8555 11.8730 65.6569 0.0000 -4.7290 0.0000
# 4 0.0000 0.0000 0.0000 18.0789 0.0000 -1.5625
# 5 16.0262 12.7370 -4.7290 0.0000 37.0789 0.0000
# 6 0.0000 0.0000 0.0000 -1.5625 0.0000 -204.5853
#
#
#
# Elastic Compliance Matrix: (Units=1/GPa)
#
#
# Indices 1 2 3 4 5 6 
#
# 1 0.007006 0.000389 -0.005993 0.000000 -0.003926 0.000000
# 2 0.000389 0.007860 -0.001959 0.000000 -0.003118 0.000000
# 3 -0.005993 -0.001959 0.020836 0.000000 0.005921 0.000000
# 4 0.000000 0.000000 0.000000 0.055277 0.000000 -0.000422
# 5 -0.003926 -0.003118 0.005921 0.000000 0.030493 0.000000
# 6 0.000000 0.000000 0.000000 -0.000422 0.000000 -0.004885
#
#
# Mechanical properties :
#
#
# Convention : Reuss Voigt Hill
#
# Bulk Modulus (GPa) = 48.60202 60.65348 54.62775
# Shear Modulus (GPa) = 36.08249 -8.40172 13.84038
#
# Velocity S-wave (km/s) = 3.94364 -1.90298 2.44244
# Velocity P-wave (km/s) = 6.45639 4.61676 5.61246
#
# Compressibility (1/GPa) = 0.02057527
#
# Stress axis : x y z
#
# Youngs Moduli (GPa) = 142.73043 127.23445 47.99353
#
# Poissons Ratio (x) = -0.04949 0.28764
# Poissons Ratio (y) = -0.05551 0.09402
# Poissons Ratio (z) = 0.85543 0.24924
#
# Static dielectric constant tensor:
#      x y z
#    x 1.906710 0.000000 0.018090 
#    y 0.000000 1.955710 0.000000 
#    z 0.018090 0.000000 1.886730 
# 
# From -- ./inp_files/143534.got.cif
#   From: 2010.05.17/outbox.cif.g08.bks.cpg/sg12_72_cif.got.tgz:143534.got - 2010.06.03 13:09:07.
