data_PCOD9213836
_publ_section_title
;
Structure prediction by ZEFSAII (Michael W. Deem and Ramdas Pophale) SiO2 
 PCOD9213836
Probable space group: C 2/M
;
_chemical_formula_sum "Si O2"
_cell_formula_units_Z 64
_cell_length_a 24.361896
_cell_length_b 9.024077
_cell_length_c 14.887880
_cell_angle_alpha 90.000000
_cell_angle_beta 94.542983
_cell_angle_gamma 90.000000
_cell_volume 3262.722364
_symmetry_space_group_name_H-M "C 2/M"
_symmetry_group_IT_number 12
_symmetry_cell_setting 'monoclinic'
loop_
_space_group_symop_operation_xyz
x,y,z
-x,y,-z
-x,-y,-z
x,-y,z
1/2+x,1/2+y,z
1/2-x,1/2+y,-z
1/2-x,1/2-y,-z
1/2+x,1/2-y,z
loop_
_atom_site_type_symbol
_atom_site_label
_atom_site_fract_x
_atom_site_fract_y
_atom_site_fract_z
Si Si1 0.564339 0.678523 0.006038
Si Si2 0.361171 0.323229 0.813400
Si Si3 0.123459 0.322430 0.843413
Si Si4 0.720343 0.673001 0.580473
Si Si5 0.738068 0.177499 0.775730
Si Si6 0.958739 0.825785 0.303591
Si Si7 0.927429 0.674226 0.673290
Si Si8 0.592254 0.669134 0.512130
O O1 0.565707 0.500000 0.995745
O O2 0.596778 0.751798 0.928176
O O3 0.500000 0.723378 0.000000
O O4 0.596807 0.715818 0.101609
O O5 0.365992 0.500000 0.797490
O O6 0.297502 0.290755 0.826486
O O7 0.377848 0.235535 0.726648
O O8 0.120527 0.500000 0.848299
O O9 0.186485 0.277915 0.830782
O O10 0.087478 0.262813 0.755868
O O11 0.735848 0.500000 0.585143
O O12 0.750000 0.750000 0.500000
O O13 0.734055 0.747897 0.677357
O O14 0.654650 0.681627 0.555678
O O15 0.734300 0.000000 0.761949
O O16 0.947491 0.809467 0.408248
O O17 0.017942 0.760181 0.288254
O O18 0.955651 0.000000 0.281036
O O19 0.934312 0.500000 0.684901
O O20 0.917641 0.717909 0.568988
O O21 0.584319 0.500000 0.476779
#
# Coordination Sequence:
#
# PCOD9213836 Si02
#       8
#     8   8   8   8   8   8   8   8
#     4  10  22  41  66  93 120 159 210 255 303 372
#     4  10  22  42  64  87 121 165 208 249 299 369
#     4  11  23  39  63  94 127 159 199 259 320 366
#     4  11  22  37  58  86 119 162 212 259 304 359
#     4  10  22  40  61  88 124 163 204 253 310 367
#     4  11  22  40  63  86 118 163 209 250 300 371
#     4  12  25  38  58  91 125 158 200 257 315 362
#     4  10  22  39  58  83 117 160 208 250 299 366
#
# _framework density 19.615521000000001
#
# number of rings (size 3 to 8) (size 9 to 14) (size 15 to 20)
#    0.000    1.375    1.250    4.125    0.000    9.750 
#    0.000    0.000    0.000    0.000    0.000    0.000 
#    0.000    0.000    0.000    0.000    0.000    0.000 
#
# Total GULP energy -178935.903696 kJ/mol
# GULP energy per Si atom -5591.746991 kJ/mol
# Density = 1.957088 g / cm^3
# Si number density = 19.615521 Si / 1000 Ang^3
#
#
#
# Elastic Constant Matrix: (Units=GPa)
#
#
# Indices 1 2 3 4 5 6 
#
# 1 120.4544 34.3670 29.1880 0.0000 -10.1699 0.0000
# 2 34.3670 36.0496 27.9690 0.0000 -9.6510 0.0000
# 3 29.1880 27.9690 57.5536 0.0000 -14.1096 0.0000
# 4 0.0000 0.0000 0.0000 28.8524 0.0000 4.0773
# 5 -10.1699 -9.6510 -14.1096 0.0000 31.8384 0.0000
# 6 0.0000 0.0000 0.0000 4.0773 0.0000 14.9836
#
#
#
# Elastic Compliance Matrix: (Units=1/GPa)
#
#
# Indices 1 2 3 4 5 6 
#
# 1 0.011428 -0.010245 -0.000767 0.000000 0.000205 0.000000
# 2 -0.010245 0.054264 -0.020132 0.000000 0.004255 0.000000
# 3 -0.000767 -0.020132 0.029159 0.000000 0.006575 0.000000
# 4 0.000000 0.000000 0.000000 0.036045 0.000000 -0.009809
# 5 0.000205 0.004255 0.006575 0.000000 0.035678 0.000000
# 6 0.000000 0.000000 0.000000 -0.009809 0.000000 0.069409
#
#
# Mechanical properties :
#
#
# Convention : Reuss Voigt Hill
#
# Bulk Modulus (GPa) = 30.70807 44.12286 37.41546
# Shear Modulus (GPa) = 16.17467 23.30378 19.73923
#
# Velocity S-wave (km/s) = 2.87467 3.45052 3.17567
# Velocity P-wave (km/s) = 5.16791 6.19818 5.70634
#
# Compressibility (1/GPa) = 0.03256473
#
# Stress axis : x y z
#
# Youngs Moduli (GPa) = 87.50468 18.42826 34.29439
#
# Poissons Ratio (x) = 0.18879 0.02630
# Poissons Ratio (y) = 0.89647 0.69041
# Poissons Ratio (z) = 0.06709 0.37100
#
# Static dielectric constant tensor:
#      x y z
#    x 1.706440 0.000000 0.003390 
#    y 0.000000 1.653370 0.000000 
#    z 0.003390 0.000000 1.662760 
# 
# From -- ./inp_files/238613.got.cif
#   From: 2010.05.17/outbox.cif.g08.bks.cpg/sg12_120_cif.got.tgz:238613.got - 2010.06.03 13:09:07.
