data_PCOD9213418
_publ_section_title
;
Structure prediction by ZEFSAII (Michael W. Deem and Ramdas Pophale) SiO2 
 PCOD9213418
Probable space group: C 2/M
;
_chemical_formula_sum "Si O2"
_cell_formula_units_Z 40
_cell_length_a 19.606415
_cell_length_b 11.717675
_cell_length_c 8.157580
_cell_angle_alpha 90.000000
_cell_angle_beta 77.645214
_cell_angle_gamma 90.000000
_cell_volume 1830.733173
_symmetry_space_group_name_H-M "C 2/M"
_symmetry_group_IT_number 12
_symmetry_cell_setting 'monoclinic'
loop_
_space_group_symop_operation_xyz
x,y,z
-x,y,-z
-x,-y,-z
x,-y,z
1/2+x,1/2+y,z
1/2-x,1/2+y,-z
1/2-x,1/2-y,-z
1/2+x,1/2-y,z
loop_
_atom_site_type_symbol
_atom_site_label
_atom_site_fract_x
_atom_site_fract_y
_atom_site_fract_z
Si Si1 0.417579 0.000000 0.088562
Si Si2 0.237098 0.132925 0.784761
Si Si3 0.889057 0.750192 0.003705
Si Si4 0.922055 0.500000 0.477365
Si Si5 0.597849 0.370676 0.680804
Si Si6 0.119285 0.738430 0.351456
O O1 0.413351 0.000000 0.287088
O O2 0.500000 0.000000 0.000000
O O3 0.382986 0.114771 0.036404
O O4 0.182719 0.130808 0.660691
O O5 0.297791 0.224531 0.725001
O O6 0.258104 0.000000 0.804431
O O7 0.183655 0.179986 0.949473
O O8 0.916347 0.762405 0.805307
O O9 0.927373 0.798146 0.147578
O O10 0.892021 0.613456 0.569624
O O11 0.000000 0.500000 0.500000
O O12 0.573162 0.500000 0.709291
O O13 0.588970 0.320462 0.505878
#
# Coordination Sequence:
#
# PCOD9213418 Si02
#       6
#     4   8   8   4   8   8
#     4  12  24  44  64  95 129 164 204 263 319 373
#     4   9  19  37  57  84 128 167 204 256 308 372
#     4  10  22  38  57  90 125 160 204 255 308 372
#     4  12  24  40  66  97 123 164 210 263 315 375
#     4   9  21  37  57  86 122 162 207 251 312 364
#     4  12  20  38  61  89 125 164 210 255 315 367
#
# _framework density 21.849169
#
# number of rings (size 3 to 8) (size 9 to 14) (size 15 to 20)
#    1.200    0.400    3.000    3.000    0.000    1.600 
#    1.800    0.000    0.000    3.000    0.000    0.000 
#    0.000    0.000    0.000    0.000    0.000    0.000 
#
# Total GULP energy -111381.250168 kJ/mol
# GULP energy per Si atom -5569.062508 kJ/mol
# Density = 2.179944 g / cm^3
# Si number density = 21.849169 Si / 1000 Ang^3
#
#
#
# Elastic Constant Matrix: (Units=GPa)
#
#
# Indices 1 2 3 4 5 6 
#
# 1 30.9271 -10.5988 8.0729 0.0000 2.9493 0.0000
# 2 -10.5988 124.8617 67.5876 0.0000 9.6762 0.0000
# 3 8.0729 67.5876 217.7176 0.0000 24.3450 0.0000
# 4 0.0000 0.0000 0.0000 8.1503 0.0000 -6.2933
# 5 2.9493 9.6762 24.3450 0.0000 20.9207 0.0000
# 6 0.0000 0.0000 0.0000 -6.2933 0.0000 -58.2516
#
#
#
# Elastic Compliance Matrix: (Units=1/GPa)
#
#
# Indices 1 2 3 4 5 6 
#
# 1 0.034868 0.004489 -0.002190 0.000000 -0.004444 0.000000
# 2 0.004489 0.010227 -0.003152 0.000000 -0.001696 0.000000
# 3 -0.002190 -0.003152 0.006271 0.000000 -0.005531 0.000000
# 4 0.000000 0.000000 0.000000 0.113247 0.000000 -0.012235
# 5 -0.004444 -0.001696 -0.005531 0.000000 0.055647 0.000000
# 6 0.000000 0.000000 0.000000 -0.012235 0.000000 -0.015845
#
#
# Mechanical properties :
#
#
# Convention : Reuss Voigt Hill
#
# Bulk Modulus (GPa) = 20.13592 55.95887 38.04740
# Shear Modulus (GPa) = 22.45435 14.72687 18.59061
#
# Velocity S-wave (km/s) = 3.20925 2.59901 2.92012
# Velocity P-wave (km/s) = 4.79252 5.88842 5.36851
#
# Compressibility (1/GPa) = 0.04966249
#
# Stress axis : x y z
#
# Youngs Moduli (GPa) = 28.67957 97.77631 159.45799
#
# Poissons Ratio (x) = -0.43896 0.34916
# Poissons Ratio (y) = -0.12875 0.50259
# Poissons Ratio (z) = 0.06280 0.30818
#
# Static dielectric constant tensor:
#      x y z
#    x 1.865180 0.000000 0.006290 
#    y 0.000000 1.780380 0.000000 
#    z 0.006290 0.000000 1.815870 
# 
# From -- ./inp_files/93743.got.cif
#   From: 2010.05.17/outbox.cif.g08.bks.cpg/sg12_47_cif.got.tgz:93743.got - 2010.06.03 13:09:07.
