data_PCOD9213567
_publ_section_title
;
Structure prediction by ZEFSAII (Michael W. Deem and Ramdas Pophale) SiO2 
 PCOD9213567
Probable space group: C 2/M
;
_chemical_formula_sum "Si O2"
_cell_formula_units_Z 48
_cell_length_a 12.702738
_cell_length_b 20.542230
_cell_length_c 8.753123
_cell_angle_alpha 90.000000
_cell_angle_beta 66.286099
_cell_angle_gamma 90.000000
_cell_volume 2091.207673
_symmetry_space_group_name_H-M "C 2/M"
_symmetry_group_IT_number 12
_symmetry_cell_setting 'monoclinic'
loop_
_space_group_symop_operation_xyz
x,y,z
-x,y,-z
-x,-y,-z
x,-y,z
1/2+x,1/2+y,z
1/2-x,1/2+y,-z
1/2-x,1/2-y,-z
1/2+x,1/2-y,z
loop_
_atom_site_type_symbol
_atom_site_label
_atom_site_fract_x
_atom_site_fract_y
_atom_site_fract_z
Si Si1 0.475901 0.649867 0.692655
Si Si2 0.817867 0.733202 0.747874
Si Si3 0.108079 0.331464 0.855740
Si Si4 0.671095 0.430071 0.717059
Si Si5 0.756377 0.115336 0.001713
Si Si6 0.607757 0.121031 0.526761
O O1 0.500000 0.634757 0.500000
O O2 0.429703 0.723932 0.724594
O O3 0.586148 0.629219 0.726887
O O4 0.370092 0.612218 0.832434
O O5 0.716482 0.783678 0.765207
O O6 0.853388 0.685686 0.589559
O O7 0.769595 0.686746 0.909113
O O8 0.152016 0.388837 0.943748
O O9 0.072085 0.360100 0.715864
O O10 0.000000 0.298092 0.000000
O O11 0.612560 0.500000 0.730402
O O12 0.779945 0.423264 0.542925
O O13 0.721437 0.425556 0.859133
O O14 0.500000 0.092119 0.500000
#
# Coordination Sequence:
#
# PCOD9213567 Si02
#       6
#     8   8   8   8   8   8
#     4  11  22  39  63  94 130 166 207 259 319 378
#     4  10  22  38  60  94 131 170 209 256 316 378
#     4  11  21  37  61  92 130 166 208 259 319 382
#     4  11  25  45  68  91 122 170 221 267 314 371
#     4  10  23  39  59  92 128 165 211 260 316 377
#     4  11  24  41  62  91 126 166 213 262 317 379
#
# _framework density 22.953243000000001
#
# number of rings (size 3 to 8) (size 9 to 14) (size 15 to 20)
#    0.000    1.333    0.000    7.500    0.000   12.667 
#    0.000    2.500    0.000    2.000    0.000    0.000 
#    0.000    0.000    0.000    0.000    0.000    0.000 
#
# Total GULP energy -134093.637549 kJ/mol
# GULP energy per Si atom -5587.234898 kJ/mol
# Density = 2.290100 g / cm^3
# Si number density = 22.953243 Si / 1000 Ang^3
#
#
#
# Elastic Constant Matrix: (Units=GPa)
#
#
# Indices 1 2 3 4 5 6 
#
# 1 104.8546 23.6441 13.9191 0.0000 -3.3715 0.0000
# 2 23.6441 71.8022 6.9202 0.0000 0.7230 0.0000
# 3 13.9191 6.9202 126.9619 0.0000 -2.1737 0.0000
# 4 0.0000 0.0000 0.0000 0.8227 0.0000 -1.1989
# 5 -3.3715 0.7230 -2.1737 0.0000 45.2651 0.0000
# 6 0.0000 0.0000 0.0000 -1.1989 0.0000 11.1891
#
#
#
# Elastic Compliance Matrix: (Units=1/GPa)
#
#
# Indices 1 2 3 4 5 6 
#
# 1 0.010445 -0.003356 -0.000949 0.000000 0.000786 0.000000
# 2 -0.003356 0.015082 -0.000463 0.000000 -0.000513 0.000000
# 3 -0.000949 -0.000463 0.008011 0.000000 0.000321 0.000000
# 4 0.000000 0.000000 0.000000 1.440538 0.000000 0.154355
# 5 0.000786 -0.000513 0.000321 0.000000 0.022174 0.000000
# 6 0.000000 0.000000 0.000000 0.154355 0.000000 0.105912
#
#
# Mechanical properties :
#
#
# Convention : Reuss Voigt Hill
#
# Bulk Modulus (GPa) = 41.66161 43.62062 42.64112
# Shear Modulus (GPa) = 3.08700 28.73107 15.90903
#
# Velocity S-wave (km/s) = 1.16096 3.54181 2.63555
# Velocity P-wave (km/s) = 4.47070 5.98091 5.28007
#
# Compressibility (1/GPa) = 0.02400291
#
# Stress axis : x y z
#
# Youngs Moduli (GPa) = 95.73982 66.30410 124.82644
#
# Poissons Ratio (x) = 0.22251 0.11843
# Poissons Ratio (y) = 0.32130 0.05779
# Poissons Ratio (z) = 0.09083 0.03069
#
# Static dielectric constant tensor:
#      x y z
#    x 1.883280 0.000000 0.020460 
#    y 0.000000 1.890590 0.000000 
#    z 0.020460 0.000000 1.839080 
# 
# From -- ./inp_files/51346.got.cif
#   From: 2010.05.17/outbox.cif.g08.bks.cpg/sg12_26_cif.got.tgz:51346.got - 2010.06.03 13:09:07.
