data_PCOD9213778
_publ_section_title
;
Structure prediction by ZEFSAII (Michael W. Deem and Ramdas Pophale) SiO2 
 PCOD9213778
Probable space group: C 2/M
;
_chemical_formula_sum "Si O2"
_cell_formula_units_Z 56
_cell_length_a 16.272254
_cell_length_b 9.322172
_cell_length_c 17.230764
_cell_angle_alpha 90.000000
_cell_angle_beta 77.652883
_cell_angle_gamma 90.000000
_cell_volume 2553.325364
_symmetry_space_group_name_H-M "C 2/M"
_symmetry_group_IT_number 12
_symmetry_cell_setting 'monoclinic'
loop_
_space_group_symop_operation_xyz
x,y,z
-x,y,-z
-x,-y,-z
x,-y,z
1/2+x,1/2+y,z
1/2-x,1/2+y,-z
1/2-x,1/2-y,-z
1/2+x,1/2-y,z
loop_
_atom_site_type_symbol
_atom_site_label
_atom_site_fract_x
_atom_site_fract_y
_atom_site_fract_z
Si Si1 0.987601 0.833193 0.880004
Si Si2 0.051571 0.669005 0.594578
Si Si3 0.357431 0.667877 0.027271
Si Si4 0.322970 0.668589 0.531278
Si Si5 0.887264 0.830452 0.684606
Si Si6 0.744540 0.328913 0.164505
Si Si7 0.603454 0.167245 0.749863
O O1 0.064917 0.825501 0.926442
O O2 0.024536 0.754338 0.798682
O O3 0.973356 0.000000 0.865811
O O4 0.903319 0.778466 0.939571
O O5 0.045647 0.500000 0.577494
O O6 0.091108 0.759608 0.517317
O O7 0.113193 0.686803 0.656491
O O8 0.964613 0.732248 0.643875
O O9 0.335970 0.500000 0.022155
O O10 0.280209 0.752745 0.080591
O O11 0.320660 0.500000 0.512895
O O12 0.250000 0.750000 0.500000
O O13 0.323088 0.681045 0.624464
O O14 0.841629 0.789733 0.774289
O O15 0.911089 0.000000 0.683940
O O16 0.742799 0.500000 0.151816
O O17 0.815416 0.296673 0.215636
O O18 0.585791 0.000000 0.766785
#
# Coordination Sequence:
#
# PCOD9213778 Si02
#       7
#     8   8   8   8   8   8   8
#     4   8  14  25  43  69 101 134 167 209 260 311
#     4  11  23  38  56  80 110 142 178 219 262 312
#     4   8  14  25  42  69 103 132 164 211 262 308
#     4  11  23  40  62  85 110 139 173 216 263 311
#     4  10  22  39  56  77 108 143 177 216 263 313
#     4   9  17  31  51  73 100 135 173 213 260 313
#     4   9  18  32  50  74 104 136 172 217 263 308
#
# _framework density 21.932183999999999
#
# number of rings (size 3 to 8) (size 9 to 14) (size 15 to 20)
#    0.000    2.571    0.000    3.000    0.000    7.429 
#    0.000    5.714    0.000    0.857    0.000    0.000 
#    0.000    0.000    0.000    0.000    0.000    0.000 
#
# Total GULP energy -156412.798317 kJ/mol
# GULP energy per Si atom -5586.171368 kJ/mol
# Density = 2.188227 g / cm^3
# Si number density = 21.932184 Si / 1000 Ang^3
#
#
#
# Elastic Constant Matrix: (Units=GPa)
#
#
# Indices 1 2 3 4 5 6 
#
# 1 82.2327 24.8110 25.3020 0.0000 -13.7969 0.0000
# 2 24.8110 53.4663 47.6167 0.0000 -18.8969 0.0000
# 3 25.3020 47.6167 144.7901 0.0000 -23.3919 0.0000
# 4 0.0000 0.0000 0.0000 34.4094 0.0000 -9.2536
# 5 -13.7969 -18.8969 -23.3919 0.0000 44.8212 0.0000
# 6 0.0000 0.0000 0.0000 -9.2536 0.0000 21.8022
#
#
#
# Elastic Compliance Matrix: (Units=1/GPa)
#
#
# Indices 1 2 3 4 5 6 
#
# 1 0.014285 -0.005690 -0.000330 0.000000 0.001826 0.000000
# 2 -0.005690 0.031045 -0.008064 0.000000 0.007129 0.000000
# 3 -0.000330 -0.008064 0.009884 0.000000 0.001657 0.000000
# 4 0.000000 0.000000 0.000000 0.032806 0.000000 0.013924
# 5 0.001826 0.007129 0.001657 0.000000 0.026743 0.000000
# 6 0.000000 0.000000 0.000000 0.013924 0.000000 0.051777
#
#
# Mechanical properties :
#
#
# Convention : Reuss Voigt Hill
#
# Bulk Modulus (GPa) = 36.97267 52.88316 44.92791
# Shear Modulus (GPa) = 24.54317 32.39051 28.46684
#
# Velocity S-wave (km/s) = 3.34885 3.84715 3.60661
# Velocity P-wave (km/s) = 5.64335 6.62560 6.15410
#
# Compressibility (1/GPa) = 0.02704701
#
# Stress axis : x y z
#
# Youngs Moduli (GPa) = 70.00234 32.21170 101.17566
#
# Poissons Ratio (x) = 0.18327 0.03341
# Poissons Ratio (y) = 0.39828 0.81584
# Poissons Ratio (z) = 0.02311 0.25974
#
# Static dielectric constant tensor:
#      x y z
#    x 1.895710 0.000000 0.044220 
#    y 0.000000 1.723710 0.000000 
#    z 0.044220 0.000000 1.812910 
# 
# From -- ./inp_files/313758.got.cif
#   From: 2010.05.17/outbox.cif.g08.bks.cpg/sg12_157_cif.got.tgz:313758.got - 2010.06.03 13:09:07.
