data_PCOD9213983
_publ_section_title
;
Structure prediction by ZEFSAII (Michael W. Deem and Ramdas Pophale) SiO2 
 PCOD9213983
Probable space group: C 2/M
;
_chemical_formula_sum "Si O2"
_cell_formula_units_Z 42
_cell_length_a 11.794273
_cell_length_b 15.588957
_cell_length_c 13.739701
_cell_angle_alpha 90.000000
_cell_angle_beta 133.688148
_cell_angle_gamma 90.000000
_cell_volume 1826.711281
_symmetry_space_group_name_H-M "C 2/M"
_symmetry_group_IT_number 12
_symmetry_cell_setting 'monoclinic'
loop_
_space_group_symop_operation_xyz
x,y,z
-x,y,-z
-x,-y,-z
x,-y,z
1/2+x,1/2+y,z
1/2-x,1/2+y,-z
1/2-x,1/2-y,-z
1/2+x,1/2-y,z
loop_
_atom_site_type_symbol
_atom_site_label
_atom_site_fract_x
_atom_site_fract_y
_atom_site_fract_z
Si Si1 0.500000 0.500000 0.000000
Si Si2 0.628485 0.902002 0.308993
Si Si3 0.117412 0.097122 0.699926
Si Si4 0.160263 0.173514 0.100554
Si Si5 0.486627 0.772888 0.377618
Si Si6 0.807017 0.403172 0.007372
O O1 0.388810 0.578800 0.890217
O O2 0.789058 0.890767 0.345405
O O3 0.589053 0.834120 0.369381
O O4 0.487585 0.896435 0.144982
O O5 0.622200 0.000000 0.342894
O O6 0.993041 0.172767 0.637202
O O7 0.054804 0.000000 0.666574
O O8 0.246935 0.104609 0.862740
O O9 0.304394 0.209751 0.243975
O O10 0.214835 0.160147 0.022469
O O11 0.000000 0.226654 0.000000
O O12 0.500000 0.787717 0.500000
O O13 0.754319 0.500000 0.007582
#
# Coordination Sequence:
#
# PCOD9213983 Si02
#       6
#     2   8   8   8   8   8
#     4   8  16  36  58  92 132 166 186 264 310 376
#     4   9  20  39  61  90 125 157 201 260 315 374
#     4  10  22  39  61  87 122 167 211 257 312 366
#     4   9  18  34  60  91 131 156 199 254 313 361
#     4  11  25  40  61  91 126 168 212 255 305 371
#     4   9  15  31  59  88 116 154 201 252 309 369
#
# _framework density 22.992139000000002
#
# number of rings (size 3 to 8) (size 9 to 14) (size 15 to 20)
#    0.571    1.905    0.952    0.571    1.333    9.905 
#    0.000    0.000    0.000    3.429    0.000    0.000 
#    0.000    0.000    0.000    0.000    0.000    0.000 
#
# Total GULP energy -117069.505245 kJ/mol
# GULP energy per Si atom -5574.738345 kJ/mol
# Density = 2.293981 g / cm^3
# Si number density = 22.992139 Si / 1000 Ang^3
#
#
#
# Elastic Constant Matrix: (Units=GPa)
#
#
# Indices 1 2 3 4 5 6 
#
# 1 38.7954 43.2632 32.6697 0.0000 -5.0834 0.0000
# 2 43.2632 167.3980 47.6134 0.0000 -18.1821 0.0000
# 3 32.6697 47.6134 86.6939 0.0000 -24.8467 0.0000
# 4 0.0000 0.0000 0.0000 24.9096 0.0000 2.1696
# 5 -5.0834 -18.1821 -24.8467 0.0000 33.4614 0.0000
# 6 0.0000 0.0000 0.0000 2.1696 0.0000 41.0120
#
#
#
# Elastic Compliance Matrix: (Units=1/GPa)
#
#
# Indices 1 2 3 4 5 6 
#
# 1 0.047721 -0.008853 -0.015781 0.000000 -0.009278 0.000000
# 2 -0.008853 0.008761 -0.000631 0.000000 0.002947 0.000000
# 3 -0.015781 -0.000631 0.021650 0.000000 0.013336 0.000000
# 4 0.000000 0.000000 0.000000 0.040331 0.000000 -0.002134
# 5 -0.009278 0.002947 0.013336 0.000000 0.039980 0.000000
# 6 0.000000 0.000000 0.000000 -0.002134 0.000000 0.024496
#
#
# Mechanical properties :
#
#
# Convention : Reuss Voigt Hill
#
# Bulk Modulus (GPa) = 36.22601 59.99778 48.11190
# Shear Modulus (GPa) = 20.60409 31.16600 25.88505
#
# Velocity S-wave (km/s) = 2.99680 3.68572 3.35897
# Velocity P-wave (km/s) = 5.26920 6.65314 6.00119
#
# Compressibility (1/GPa) = 0.02760447
#
# Stress axis : x y z
#
# Youngs Moduli (GPa) = 20.95492 114.13789 46.18847
#
# Poissons Ratio (x) = 1.01042 0.72888
# Poissons Ratio (y) = 0.18551 0.02915
# Poissons Ratio (z) = 0.33068 0.07204
#
# Static dielectric constant tensor:
#      x y z
#    x 2.398190 0.000000 -0.156430 
#    y 0.000000 1.892210 0.000000 
#    z -0.156430 0.000000 1.946520 
# 
# From -- ./inp_files/215087.got.cif
#   From: 2010.05.17/outbox.cif.g08.bks.cpg/sg12_108_cif.got.tgz:215087.got - 2010.06.03 13:09:07.
