data_PCOD9213881
_publ_section_title
;
Structure prediction by ZEFSAII (Michael W. Deem and Ramdas Pophale) SiO2 
 PCOD9213881
Probable space group: C 2/M
;
_chemical_formula_sum "Si O2"
_cell_formula_units_Z 48
_cell_length_a 34.032027
_cell_length_b 8.682942
_cell_length_c 8.025365
_cell_angle_alpha 90.000000
_cell_angle_beta 91.816988
_cell_angle_gamma 90.000000
_cell_volume 2370.287870
_symmetry_space_group_name_H-M "C 2/M"
_symmetry_group_IT_number 12
_symmetry_cell_setting 'monoclinic'
loop_
_space_group_symop_operation_xyz
x,y,z
-x,y,-z
-x,-y,-z
x,-y,z
1/2+x,1/2+y,z
1/2-x,1/2+y,-z
1/2-x,1/2-y,-z
1/2+x,1/2-y,z
loop_
_atom_site_type_symbol
_atom_site_label
_atom_site_fract_x
_atom_site_fract_y
_atom_site_fract_z
Si Si1 0.585023 0.316982 0.191795
Si Si2 0.206504 0.184755 0.017653
Si Si3 0.836494 0.682443 0.663175
Si Si4 0.344058 0.684044 0.317433
Si Si5 0.998227 0.179417 0.300378
Si Si6 0.918093 0.318892 0.169381
O O1 0.589718 0.500000 0.219271
O O2 0.618149 0.228758 0.298692
O O3 0.540625 0.274066 0.235419
O O4 0.590710 0.275025 0.999898
O O5 0.180959 0.225208 0.850284
O O6 0.207227 0.000000 0.029847
O O7 0.250000 0.250000 0.000000
O O8 0.187173 0.251726 0.182338
O O9 0.824829 0.756639 0.485240
O O10 0.667950 0.000000 0.344279
O O11 0.348452 0.500000 0.324813
O O12 0.386682 0.761493 0.300340
O O13 0.000000 0.186750 0.500000
O O14 0.962250 0.279329 0.229959
O O15 0.991243 0.000000 0.251046
O O16 0.913434 0.500000 0.138760
#
# Coordination Sequence:
#
# PCOD9213881 Si02
#       6
#     8   8   8   8   8   8
#     4  11  22  39  63  90 126 174 224 269 324 393
#     4  11  25  46  73 101 134 175 218 270 329 395
#     4  12  25  42  69 102 137 173 218 275 333 391
#     4  11  24  44  70  97 132 178 224 266 326 398
#     4  10  22  39  59  85 121 169 222 273 326 390
#     4  12  24  38  61  92 128 169 218 276 333 384
#
# _framework density 20.250703000000001
#
# number of rings (size 3 to 8) (size 9 to 14) (size 15 to 20)
#    0.000    0.833    1.667    6.000    0.000    7.667 
#    0.000    0.000    0.000    0.000    0.000    0.000 
#    0.000    0.000    0.000    0.000    0.000    0.000 
#
# Total GULP energy -134341.018145 kJ/mol
# GULP energy per Si atom -5597.542423 kJ/mol
# Density = 2.020461 g / cm^3
# Si number density = 20.250703 Si / 1000 Ang^3
#
#
#
# Elastic Constant Matrix: (Units=GPa)
#
#
# Indices 1 2 3 4 5 6 
#
# 1 106.9354 35.5225 41.1845 0.0000 -16.8473 0.0000
# 2 35.5225 55.5520 20.1385 0.0000 -8.6328 0.0000
# 3 41.1845 20.1385 122.6798 0.0000 -23.5999 0.0000
# 4 0.0000 0.0000 0.0000 19.3292 0.0000 -8.5996
# 5 -16.8473 -8.6328 -23.5999 0.0000 12.7722 0.0000
# 6 0.0000 0.0000 0.0000 -8.5996 0.0000 26.1877
#
#
#
# Elastic Compliance Matrix: (Units=1/GPa)
#
#
# Indices 1 2 3 4 5 6 
#
# 1 0.013854 -0.006607 -0.001412 0.000000 0.011201 0.000000
# 2 -0.006607 0.023355 -0.000397 0.000000 0.006338 0.000000
# 3 -0.001412 -0.000397 0.012847 0.000000 0.021608 0.000000
# 4 0.000000 0.000000 0.000000 0.060587 0.000000 0.019896
# 5 0.011201 0.006338 0.021608 0.000000 0.137280 0.000000
# 6 0.000000 0.000000 0.000000 0.019896 0.000000 0.044719
#
#
# Mechanical properties :
#
#
# Convention : Reuss Voigt Hill
#
# Bulk Modulus (GPa) = 30.09725 53.20646 41.65185
# Shear Modulus (GPa) = 15.59831 24.21260 19.90545
#
# Velocity S-wave (km/s) = 2.77837 3.46156 3.13861
# Velocity P-wave (km/s) = 5.01867 6.50442 5.80924
#
# Compressibility (1/GPa) = 0.03322563
#
# Stress axis : x y z
#
# Youngs Moduli (GPa) = 72.17873 42.81827 77.83858
#
# Poissons Ratio (x) = 0.28289 0.10990
# Poissons Ratio (y) = 0.47687 0.03087
# Poissons Ratio (z) = 0.10191 0.01698
#
# Static dielectric constant tensor:
#      x y z
#    x 1.707280 0.000000 -0.002600 
#    y 0.000000 1.673160 0.000000 
#    z -0.002600 0.000000 1.723220 
# 
# From -- ./inp_files/108697.got.cif
#   From: 2010.05.17/outbox.cif.g08.bks.cpg/sg12_55_cif.got.tgz:108697.got - 2010.06.03 13:09:07.
