data_PCOD9213365
_publ_section_title
;
Structure prediction by ZEFSAII (Michael W. Deem and Ramdas Pophale) SiO2 
 PCOD9213365
Probable space group: C 2/M
;
_chemical_formula_sum "Si O2"
_cell_formula_units_Z 48
_cell_length_a 10.108450
_cell_length_b 14.171325
_cell_length_c 15.933947
_cell_angle_alpha 90.000000
_cell_angle_beta 83.451987
_cell_angle_gamma 90.000000
_cell_volume 2267.650162
_symmetry_space_group_name_H-M "C 2/M"
_symmetry_group_IT_number 12
_symmetry_cell_setting 'monoclinic'
loop_
_space_group_symop_operation_xyz
x,y,z
-x,y,-z
-x,-y,-z
x,-y,z
1/2+x,1/2+y,z
1/2-x,1/2+y,-z
1/2-x,1/2-y,-z
1/2+x,1/2-y,z
loop_
_atom_site_type_symbol
_atom_site_label
_atom_site_fract_x
_atom_site_fract_y
_atom_site_fract_z
Si Si1 0.752179 0.109770 0.686954
Si Si2 0.933443 0.613135 0.709254
Si Si3 0.407792 0.601114 0.133210
Si Si4 0.233994 0.749465 0.170542
Si Si5 0.793839 0.104102 0.959368
Si Si6 0.364675 0.757295 0.560685
O O1 0.593020 0.125142 0.685685
O O2 0.789161 0.160412 0.770248
O O3 0.843888 0.160724 0.612769
O O4 0.776313 0.000000 0.688724
O O5 0.909140 0.500000 0.718734
O O6 0.863176 0.660512 0.632389
O O7 0.878803 0.672408 0.794211
O O8 0.389612 0.500000 0.176851
O O9 0.366324 0.691841 0.187512
O O10 0.554767 0.604839 0.085950
O O11 0.309483 0.606153 0.058971
O O12 0.263596 0.802759 0.080070
O O13 0.734998 0.000000 0.941948
O O14 0.500000 0.766122 0.500000
O O15 0.750000 0.750000 0.500000
#
# Coordination Sequence:
#
# PCOD9213365 Si02
#       6
#     8   8   8   8   8   8
#     4  10  22  38  56  82 116 149 182 226 283 335
#     4  10  22  38  57  82 114 152 183 220 281 343
#     4   9  18  32  50  74 105 143 186 232 280 333
#     4  11  19  32  55  79 107 142 191 234 271 326
#     4   9  18  32  50  74 106 143 183 232 288 327
#     4  11  22  40  66  89 113 144 186 229 273 328
#
# _framework density 21.167287999999999
#
# number of rings (size 3 to 8) (size 9 to 14) (size 15 to 20)
#    0.000    2.000    1.667    3.500    0.000    1.333 
#    0.000    0.000    0.000    0.000    0.000   14.000 
#    0.000    0.000    0.000    0.000    0.000    0.000 
#
# Total GULP energy -133650.794091 kJ/mol
# GULP energy per Si atom -5568.783087 kJ/mol
# Density = 2.111911 g / cm^3
# Si number density = 21.167288 Si / 1000 Ang^3
#
#
#
# Elastic Constant Matrix: (Units=GPa)
#
#
# Indices 1 2 3 4 5 6 
#
# 1 33.8290 9.9533 -2.3830 0.0000 1.3873 0.0000
# 2 9.9533 154.5843 11.1709 0.0000 10.2735 0.0000
# 3 -2.3830 11.1709 55.8860 0.0000 -0.4530 0.0000
# 4 0.0000 0.0000 0.0000 23.8015 0.0000 -6.3309
# 5 1.3873 10.2735 -0.4530 0.0000 23.5633 0.0000
# 6 0.0000 0.0000 0.0000 -6.3309 0.0000 28.2581
#
#
#
# Elastic Compliance Matrix: (Units=1/GPa)
#
#
# Indices 1 2 3 4 5 6 
#
# 1 0.030308 -0.002015 0.001688 0.000000 -0.000873 0.000000
# 2 -0.002015 0.006900 -0.001489 0.000000 -0.002918 0.000000
# 3 0.001688 -0.001489 0.018270 0.000000 0.000901 0.000000
# 4 0.000000 0.000000 0.000000 0.044676 0.000000 0.010009
# 5 -0.000873 -0.002918 0.000901 0.000000 0.043780 0.000000
# 6 0.000000 0.000000 0.000000 0.010009 0.000000 0.037631
#
#
# Mechanical properties :
#
#
# Convention : Reuss Voigt Hill
#
# Bulk Modulus (GPa) = 19.28769 31.30909 25.29839
# Shear Modulus (GPa) = 24.69374 30.16179 27.42776
#
# Velocity S-wave (km/s) = 3.41926 3.77891 3.60357
# Velocity P-wave (km/s) = 4.97194 5.81925 5.41220
#
# Compressibility (1/GPa) = 0.05184653
#
# Stress axis : x y z
#
# Youngs Moduli (GPa) = 32.99440 144.92173 54.73318
#
# Poissons Ratio (x) = 0.29208 -0.09240
# Poissons Ratio (y) = 0.06650 0.08149
# Poissons Ratio (z) = -0.05570 0.21577
#
# Static dielectric constant tensor:
#      x y z
#    x 1.804720 0.000000 0.030450 
#    y 0.000000 1.822740 0.000000 
#    z 0.030450 0.000000 1.865940 
# 
# From -- ./inp_files/261627.got.cif
#   From: 2010.05.17/outbox.cif.g08.bks.cpg/sg12_131_cif.got.tgz:261627.got - 2010.06.03 13:09:07.
