data_PCOD9213002
_publ_section_title
;
Structure prediction by ZEFSAII (Michael W. Deem and Ramdas Pophale) SiO2 
 PCOD9213002
Probable space group: C 2/M
;
_chemical_formula_sum "Si O2"
_cell_formula_units_Z 52
_cell_length_a 16.879640
_cell_length_b 22.708344
_cell_length_c 12.750204
_cell_angle_alpha 90.000000
_cell_angle_beta 148.899818
_cell_angle_gamma 90.000000
_cell_volume 2524.447912
_symmetry_space_group_name_H-M "C 2/M"
_symmetry_group_IT_number 12
_symmetry_cell_setting 'monoclinic'
loop_
_space_group_symop_operation_xyz
x,y,z
-x,y,-z
-x,-y,-z
x,-y,z
1/2+x,1/2+y,z
1/2-x,1/2+y,-z
1/2-x,1/2-y,-z
1/2+x,1/2-y,z
loop_
_atom_site_type_symbol
_atom_site_label
_atom_site_fract_x
_atom_site_fract_y
_atom_site_fract_z
Si Si1 0.326123 0.913462 0.790532
Si Si2 0.204597 0.066504 0.878804
Si Si3 0.117219 0.936656 0.362733
Si Si4 0.253343 0.717034 0.343853
Si Si5 0.000000 0.716963 0.500000
Si Si6 0.936169 0.184247 0.762767
Si Si7 0.724887 0.815495 0.921920
O O1 0.223819 0.930850 0.775007
O O2 0.255753 0.934889 0.601783
O O3 0.322842 0.842925 0.777857
O O4 0.500000 0.933430 0.000000
O O5 0.033068 0.070282 0.732512
O O6 0.261221 0.000000 0.974042
O O7 0.279663 0.127399 0.006913
O O8 0.125549 0.881928 0.293724
O O9 0.108142 0.000000 0.299811
O O10 0.360486 0.742293 0.375958
O O11 0.132684 0.766439 0.240849
O O12 0.368355 0.702727 0.571453
O O13 0.929823 0.682606 0.322070
O O14 0.118963 0.179171 0.968627
O O15 0.750000 0.750000 0.000000
#
# Coordination Sequence:
#
# PCOD9213002 Si02
#       7
#     8   8   8   8   4   8   8
#     4  11  23  32  54  87 125 158 195 241 303 365
#     4  10  22  40  60  84 119 160 199 247 304 362
#     4   9  19  37  60  84 114 157 203 242 292 364
#     4  10  22  36  55  87 119 156 196 249 298 358
#     4  12  24  36  61  88 117 154 210 248 308 358
#     4   9  20  38  57  83 122 154 193 247 303 348
#     4  11  22  38  63  88 117 157 203 251 300 357
#
# _framework density 20.598564
#
# number of rings (size 3 to 8) (size 9 to 14) (size 15 to 20)
#    0.000    1.846    1.538    1.846    8.615    3.692 
#    0.000    0.385    0.000    0.923    0.000    4.308 
#    0.000    0.000    0.000    0.000    0.000    0.000 
#
# Total GULP energy -145060.692713 kJ/mol
# GULP energy per Si atom -5579.257412 kJ/mol
# Density = 2.055168 g / cm^3
# Si number density = 20.598564 Si / 1000 Ang^3
#
#
#
# Elastic Constant Matrix: (Units=GPa)
#
#
# Indices 1 2 3 4 5 6 
#
# 1 24.2148 23.0149 -13.5528 0.0000 2.1466 0.0000
# 2 23.0149 181.7992 24.0020 0.0000 -7.3226 0.0000
# 3 -13.5528 24.0020 77.6251 0.0000 -8.6905 0.0000
# 4 0.0000 0.0000 0.0000 8.6977 0.0000 4.2781
# 5 2.1466 -7.3226 -8.6905 0.0000 18.5692 0.0000
# 6 0.0000 0.0000 0.0000 4.2781 0.0000 21.3462
#
#
#
# Elastic Compliance Matrix: (Units=1/GPa)
#
#
# Indices 1 2 3 4 5 6 
#
# 1 0.057145 -0.009033 0.012275 0.000000 -0.004423 0.000000
# 2 -0.009033 0.007203 -0.003556 0.000000 0.002221 0.000000
# 3 0.012275 -0.003556 0.016683 0.000000 0.004987 0.000000
# 4 0.000000 0.000000 0.000000 0.127546 0.000000 -0.025562
# 5 -0.004423 0.002221 0.004987 0.000000 0.057574 0.000000
# 6 0.000000 0.000000 0.000000 -0.025562 0.000000 0.051970
#
#
# Mechanical properties :
#
#
# Convention : Reuss Voigt Hill
#
# Bulk Modulus (GPa) = 12.43727 38.95193 25.69460
# Shear Modulus (GPa) = 14.46974 26.40095 20.43535
#
# Velocity S-wave (km/s) = 2.65328 3.58395 3.15314
# Velocity P-wave (km/s) = 3.92907 6.00644 5.07518
#
# Compressibility (1/GPa) = 0.08040347
#
# Stress axis : x y z
#
# Youngs Moduli (GPa) = 17.49942 138.83121 59.94031
#
# Poissons Ratio (x) = 1.25406 -0.73576
# Poissons Ratio (y) = 0.15807 0.21313
# Poissons Ratio (z) = -0.21480 0.49364
#
# Static dielectric constant tensor:
#      x y z
#    x 1.723570 0.000000 -0.012430 
#    y 0.000000 1.792510 0.000000 
#    z -0.012430 0.000000 1.741490 
# 
# From -- ./inp_files/227452.got.cif
#   From: 2010.05.17/outbox.cif.g08.bks.cpg/sg12_114_cif.got.tgz:227452.got - 2010.06.03 13:09:07.
