data_PCOD9213720
_publ_section_title
;
Structure prediction by ZEFSAII (Michael W. Deem and Ramdas Pophale) SiO2 
 PCOD9213720
Probable space group: C 2/M
;
_chemical_formula_sum "Si O2"
_cell_formula_units_Z 32
_cell_length_a 5.030810
_cell_length_b 29.708277
_cell_length_c 8.789784
_cell_angle_alpha 90.000000
_cell_angle_beta 91.565856
_cell_angle_gamma 90.000000
_cell_volume 1313.201521
_symmetry_space_group_name_H-M "C 2/M"
_symmetry_group_IT_number 12
_symmetry_cell_setting 'monoclinic'
loop_
_space_group_symop_operation_xyz
x,y,z
-x,y,-z
-x,-y,-z
x,-y,z
1/2+x,1/2+y,z
1/2-x,1/2+y,-z
1/2-x,1/2-y,-z
1/2+x,1/2-y,z
loop_
_atom_site_type_symbol
_atom_site_label
_atom_site_fract_x
_atom_site_fract_y
_atom_site_fract_z
Si Si1 0.591848 0.643305 0.672180
Si Si2 0.255354 0.099648 0.103985
Si Si3 0.888722 0.450973 0.668646
Si Si4 0.520342 0.776605 0.315716
O O1 0.500000 0.655175 0.500000
O O2 0.352554 0.638756 0.787081
O O3 0.700638 0.592275 0.670637
O O4 0.823198 0.677725 0.720557
O O5 0.375613 0.060189 0.210117
O O6 0.500000 0.113394 0.000000
O O7 0.000000 0.085993 0.000000
O O8 0.768539 0.500000 0.699771
O O9 0.000000 0.451812 0.500000
O O10 0.500000 0.776630 0.500000
O O11 0.224291 0.762494 0.264634
#
# Coordination Sequence:
#
# PCOD9213720 Si02
#       4
#     8   8   8   8
#     4  12  24  43  76 103 145 189 240 291 363 417
#     4  12  27  47  69 103 144 194 240 291 351 421
#     4  11  25  45  73 109 144 186 242 295 354 423
#     4  10  22  38  66 109 144 175 230 301 359 414
#
# _framework density 24.367929
#
# number of rings (size 3 to 8) (size 9 to 14) (size 15 to 20)
#    0.000    0.750    5.000    3.000    3.500    2.500 
#    0.000    0.000    0.000    4.500    0.000    0.000 
#    0.000    0.000    0.000    0.000    0.000    0.000 
#
# Total GULP energy -89525.662386 kJ/mol
# GULP energy per Si atom -5595.353899 kJ/mol
# Density = 2.431247 g / cm^3
# Si number density = 24.367929 Si / 1000 Ang^3
#
#
#
# Elastic Constant Matrix: (Units=GPa)
#
#
# Indices 1 2 3 4 5 6 
#
# 1 164.6076 51.7787 48.9444 0.0000 -22.6776 0.0000
# 2 51.7787 176.1650 23.7057 0.0000 -27.8541 0.0000
# 3 48.9444 23.7057 118.8636 0.0000 -10.0008 0.0000
# 4 0.0000 0.0000 0.0000 -57.4013 0.0000 7.0351
# 5 -22.6776 -27.8541 -10.0008 0.0000 48.2342 0.0000
# 6 0.0000 0.0000 0.0000 7.0351 0.0000 41.6564
#
#
#
# Elastic Compliance Matrix: (Units=1/GPa)
#
#
# Indices 1 2 3 4 5 6 
#
# 1 0.007650 -0.001551 -0.002660 0.000000 0.002150 0.000000
# 2 -0.001551 0.006671 -0.000437 0.000000 0.003032 0.000000
# 3 -0.002660 -0.000437 0.009637 0.000000 0.000495 0.000000
# 4 0.000000 0.000000 0.000000 -0.017068 0.000000 0.002883
# 5 0.002150 0.003032 0.000495 0.000000 0.023597 0.000000
# 6 0.000000 0.000000 0.000000 0.002883 0.000000 0.023519
#
#
# Mechanical properties :
#
#
# Convention : Reuss Voigt Hill
#
# Bulk Modulus (GPa) = 68.19884 78.72154 73.46019
# Shear Modulus (GPa) = 73.32738 28.84503 51.08620
#
# Velocity S-wave (km/s) = 5.49155 3.44427 4.58367
# Velocity P-wave (km/s) = 8.26180 6.94211 7.63054
#
# Compressibility (1/GPa) = 0.01466301
#
# Stress axis : x y z
#
# Youngs Moduli (GPa) = 130.72140 149.91376 103.76649
#
# Poissons Ratio (x) = 0.23246 0.27600
# Poissons Ratio (y) = 0.20270 0.04531
# Poissons Ratio (z) = 0.34770 0.06547
#
# Static dielectric constant tensor:
#      x y z
#    x 1.984930 0.000000 0.015010 
#    y 0.000000 2.006480 0.000000 
#    z 0.015010 0.000000 1.956970 
# 
# From -- ./inp_files/34309.got.cif
#   From: 2010.05.17/outbox.cif.g08.bks.cpg/sg12_18_cif.got.tgz:34309.got - 2010.06.03 13:09:07.
