data_PCOD9213139
_publ_section_title
;
Structure prediction by ZEFSAII (Michael W. Deem and Ramdas Pophale) SiO2 
 PCOD9213139
Probable space group: C 2/M
;
_chemical_formula_sum "Si O2"
_cell_formula_units_Z 40
_cell_length_a 22.482365
_cell_length_b 7.356262
_cell_length_c 11.442860
_cell_angle_alpha 90.000000
_cell_angle_beta 58.702513
_cell_angle_gamma 90.000000
_cell_volume 1617.098561
_symmetry_space_group_name_H-M "C 2/M"
_symmetry_group_IT_number 12
_symmetry_cell_setting 'monoclinic'
loop_
_space_group_symop_operation_xyz
x,y,z
-x,y,-z
-x,-y,-z
x,-y,z
1/2+x,1/2+y,z
1/2-x,1/2+y,-z
1/2-x,1/2-y,-z
1/2+x,1/2-y,z
loop_
_atom_site_type_symbol
_atom_site_label
_atom_site_fract_x
_atom_site_fract_y
_atom_site_fract_z
Si Si1 0.214775 0.214673 0.409514
Si Si2 0.583417 0.721048 0.673353
Si Si3 0.853327 0.207650 0.150286
Si Si4 0.043490 0.220429 0.345038
Si Si5 0.668235 0.717945 0.079354
O O1 0.250000 0.250000 0.500000
O O2 0.136653 0.279581 0.515676
O O3 0.270443 0.294701 0.263477
O O4 0.212148 0.000000 0.386449
O O5 0.590193 0.500000 0.668611
O O6 0.609036 0.788000 0.773714
O O7 0.505508 0.762655 0.716062
O O8 0.878499 0.000000 0.117598
O O9 0.860437 0.290038 0.015252
O O10 0.121189 0.282934 0.235439
O O11 0.000000 0.287937 0.500000
O O12 0.046571 0.000000 0.355301
O O13 0.660058 0.500000 0.084925
O O14 0.750000 0.750000 0.000000
#
# Coordination Sequence:
#
# PCOD9213139 Si02
#       5
#     8   8   8   8   8
#     4   9  16  27  48  78 109 140 172 212 263 315
#     4   8  15  28  48  75 104 132 170 219 263 306
#     4   9  18  32  49  75 108 138 175 220 268 319
#     4   9  18  32  52  79 106 135 178 227 272 316
#     4  10  22  37  55  78 107 143 179 224 274 326
#
# _framework density 24.735658999999998
#
# number of rings (size 3 to 8) (size 9 to 14) (size 15 to 20)
#    0.000    3.000    0.000    1.800    2.800    1.600 
#    0.000    4.000    0.000    6.600    0.000    7.000 
#    0.000    0.000    0.000    0.000    0.000    0.000 
#
# Total GULP energy -111616.880384 kJ/mol
# GULP energy per Si atom -5580.844019 kJ/mol
# Density = 2.467936 g / cm^3
# Si number density = 24.735659 Si / 1000 Ang^3
#
#
#
# Elastic Constant Matrix: (Units=GPa)
#
#
# Indices 1 2 3 4 5 6 
#
# 1 100.2848 -5.3644 68.2386 0.0000 -16.7123 0.0000
# 2 -5.3644 92.9354 1.4514 0.0000 3.4479 0.0000
# 3 68.2386 1.4514 188.3207 0.0000 -8.6436 0.0000
# 4 0.0000 0.0000 0.0000 4.0598 0.0000 -7.4076
# 5 -16.7123 3.4479 -8.6436 0.0000 39.0803 0.0000
# 6 0.0000 0.0000 0.0000 -7.4076 0.0000 5.9655
#
#
#
# Elastic Compliance Matrix: (Units=1/GPa)
#
#
# Indices 1 2 3 4 5 6 
#
# 1 0.014173 0.000713 -0.004916 0.000000 0.004911 0.000000
# 2 0.000713 0.010834 -0.000375 0.000000 -0.000734 0.000000
# 3 -0.004916 -0.000375 0.007071 0.000000 -0.000505 0.000000
# 4 0.000000 0.000000 0.000000 -0.194605 0.000000 -0.241651
# 5 0.004911 -0.000734 -0.000505 0.000000 0.027642 0.000000
# 6 0.000000 0.000000 0.000000 -0.241651 0.000000 -0.132439
#
#
# Mechanical properties :
#
#
# Convention : Reuss Voigt Hill
#
# Bulk Modulus (GPa) = 43.62725 56.68800 50.15763
# Shear Modulus (GPa) = -19.95795 30.96880 5.50543
#
# Velocity S-wave (km/s) = -2.84359 3.54219 1.49350
# Velocity P-wave (km/s) = 2.62571 6.30053 4.82654
#
# Compressibility (1/GPa) = 0.02292145
#
# Stress axis : x y z
#
# Youngs Moduli (GPa) = 70.55667 92.29865 141.42213
#
# Poissons Ratio (x) = -0.06578 0.69519
# Poissons Ratio (y) = -0.05028 0.05309
# Poissons Ratio (z) = 0.34684 0.03465
#
# Static dielectric constant tensor:
#      x y z
#    x 1.958960 0.000000 0.006150 
#    y 0.000000 1.997150 0.000000 
#    z 0.006150 0.000000 1.967420 
# 
# From -- ./inp_files/171864.got.cif
#   From: 2010.05.17/outbox.cif.g08.bks.cpg/sg12_86_cif.got.tgz:171864.got - 2010.06.03 13:09:07.
