data_PCOD9213595
_publ_section_title
;
Structure prediction by ZEFSAII (Michael W. Deem and Ramdas Pophale) SiO2 
 PCOD9213595
Probable space group: C 2/M
;
_chemical_formula_sum "Si O2"
_cell_formula_units_Z 60
_cell_length_a 17.379743
_cell_length_b 14.012128
_cell_length_c 29.435423
_cell_angle_alpha 90.000000
_cell_angle_beta 25.280495
_cell_angle_gamma 90.000000
_cell_volume 3061.233939
_symmetry_space_group_name_H-M "C 2/M"
_symmetry_group_IT_number 12
_symmetry_cell_setting 'monoclinic'
loop_
_space_group_symop_operation_xyz
x,y,z
-x,y,-z
-x,-y,-z
x,-y,z
1/2+x,1/2+y,z
1/2-x,1/2+y,-z
1/2-x,1/2-y,-z
1/2+x,1/2-y,z
loop_
_atom_site_type_symbol
_atom_site_label
_atom_site_fract_x
_atom_site_fract_y
_atom_site_fract_z
Si Si1 0.123078 0.103045 0.844316
Si Si2 0.007113 0.614374 0.160892
Si Si3 0.669316 0.391560 0.078678
Si Si4 0.500000 0.323185 0.000000
Si Si5 0.370077 0.309606 0.399292
Si Si6 0.970816 0.606554 0.461738
Si Si7 0.108847 0.741837 0.188984
Si Si8 0.667262 0.274697 0.303871
O O1 0.247281 0.194946 0.774754
O O2 0.995194 0.106655 0.868899
O O3 0.215302 0.000000 0.797645
O O4 0.005225 0.114212 0.952052
O O5 0.997205 0.500000 0.166054
O O6 0.821032 0.663909 0.245645
O O7 0.062243 0.652799 0.181072
O O8 0.157780 0.643688 0.042682
O O9 0.708146 0.500000 0.072143
O O10 0.611222 0.329703 0.152446
O O11 0.685672 0.265440 0.903639
O O12 0.250000 0.250000 0.500000
O O13 0.466467 0.254212 0.305866
O O14 0.534145 0.339760 0.344795
O O15 0.233103 0.382114 0.448111
O O16 0.035982 0.500000 0.412763
O O17 0.068464 0.701876 0.391164
O O18 0.000000 0.609002 0.500000
#
# Coordination Sequence:
#
# PCOD9213595 Si02
#       8
#     8   8   8   4   8   8   8   8
#     4  11  21  36  60  92 127 165 212 257 308 367
#     4  11  23  39  61  92 128 167 207 253 315 388
#     4  10  22  38  61  92 127 169 216 261 307 377
#     4  12  23  34  61  92 130 174 207 256 317 372
#     4  10  24  42  63  89 123 164 207 260 316 372
#     4  10  22  41  67  94 117 150 204 259 310 370
#     4  12  22  40  63  90 130 170 215 260 316 382
#     4  11  21  41  62  88 123 162 201 254 315 370
#
# _framework density 19.599938999999999
#
# number of rings (size 3 to 8) (size 9 to 14) (size 15 to 20)
#    0.000    1.200    4.000    2.600    0.000    1.600 
#    0.000    1.000    0.000    7.600    0.000    0.000 
#    0.000    0.000    0.000    0.000    0.000    0.000 
#
# Total GULP energy -167208.386836 kJ/mol
# GULP energy per Si atom -5573.612895 kJ/mol
# Density = 1.955533 g / cm^3
# Si number density = 19.599939 Si / 1000 Ang^3
#
#
#
# Elastic Constant Matrix: (Units=GPa)
#
#
# Indices 1 2 3 4 5 6 
#
# 1 99.3604 30.6526 32.3064 0.0005 17.6452 -0.0001
# 2 30.6526 81.8996 26.9672 -0.0009 11.8762 0.0003
# 3 32.3064 26.9672 84.8240 -0.0024 25.2353 -0.0018
# 4 0.0005 -0.0009 -0.0024 40.8104 0.0010 -7.9048
# 5 17.6452 11.8762 25.2353 0.0010 30.9635 0.0000
# 6 -0.0001 0.0003 -0.0018 -7.9048 0.0000 -15.1521
#
#
#
# Elastic Compliance Matrix: (Units=1/GPa)
#
#
# Indices 1 2 3 4 5 6 
#
# 1 0.012609 -0.003306 -0.002628 0.000000 -0.003776 0.000000
# 2 -0.003306 0.014623 -0.003012 0.000000 -0.001270 0.000001
# 3 -0.002628 -0.003012 0.017106 0.000001 -0.011288 -0.000002
# 4 0.000000 0.000000 0.000001 0.022255 -0.000001 -0.011610
# 5 -0.003776 -0.001270 -0.011288 -0.000001 0.044135 0.000002
# 6 0.000000 0.000001 -0.000002 -0.011610 0.000002 -0.059940
#
#
# Mechanical properties :
#
#
# Convention : Reuss Voigt Hill
#
# Bulk Modulus (GPa) = 37.81305 49.54849 43.68077
# Shear Modulus (GPa) = 64.51909 23.06821 43.79365
#
# Velocity S-wave (km/s) = 5.74365 3.43440 4.73205
# Velocity P-wave (km/s) = 7.95740 6.40793 7.22433
#
# Compressibility (1/GPa) = 0.02644590
#
# Stress axis : x y z
#
# Youngs Moduli (GPa) = 79.30590 68.38309 58.45930
#
# Poissons Ratio (x) = 0.22611 0.15363
# Poissons Ratio (y) = 0.26222 0.17608
# Poissons Ratio (z) = 0.20841 0.20597
#
# Static dielectric constant tensor:
#      x y z
#    x 1.686770 0.000000 -0.001080 
#    y 0.000000 1.694380 0.000000 
#    z -0.001080 0.000000 1.760740 
# 
# From -- ./inp_files/361550.got.cif
#   From: 2010.05.17/outbox.cif.g08.bks.cpg/sg12_181_cif.got.tgz:361550.got - 2010.06.03 13:09:07.
