data_PCOD9213249
_publ_section_title
;
Structure prediction by ZEFSAII (Michael W. Deem and Ramdas Pophale) SiO2 
 PCOD9213249
Probable space group: C 2/M
;
_chemical_formula_sum "Si O2"
_cell_formula_units_Z 56
_cell_length_a 23.428968
_cell_length_b 18.977007
_cell_length_c 19.794766
_cell_angle_alpha 90.000000
_cell_angle_beta 17.785579
_cell_angle_gamma 90.000000
_cell_volume 2688.310399
_symmetry_space_group_name_H-M "C 2/M"
_symmetry_group_IT_number 12
_symmetry_cell_setting 'monoclinic'
loop_
_space_group_symop_operation_xyz
x,y,z
-x,y,-z
-x,-y,-z
x,-y,z
1/2+x,1/2+y,z
1/2-x,1/2+y,-z
1/2-x,1/2-y,-z
1/2+x,1/2-y,z
loop_
_atom_site_type_symbol
_atom_site_label
_atom_site_fract_x
_atom_site_fract_y
_atom_site_fract_z
Si Si1 0.466939 0.297238 0.615812
Si Si2 0.082335 0.115739 0.203743
Si Si3 0.663794 0.080847 0.662068
Si Si4 0.391718 0.915033 0.689218
Si Si5 0.884527 0.195701 0.964378
Si Si6 0.625683 0.781779 0.791534
Si Si7 0.000495 0.579102 0.707601
O O1 0.500000 0.312235 0.500000
O O2 0.420295 0.363918 0.714963
O O3 0.292575 0.245821 0.822485
O O4 0.661020 0.269421 0.427780
O O5 0.888345 0.078321 0.406507
O O6 0.082597 0.183165 0.152296
O O7 0.276999 0.077915 0.970513
O O8 0.610690 0.138558 0.778297
O O9 0.590622 0.111078 0.672732
O O10 0.594010 0.000000 0.750831
O O11 0.500000 0.893474 0.500000
O O12 0.189378 0.879057 0.923389
O O13 0.511761 0.891387 0.619510
O O14 0.376683 0.000000 0.707793
O O15 0.054081 0.228557 0.814697
O O16 0.500000 0.774695 0.000000
O O17 0.077916 0.500000 0.617904
#
# Coordination Sequence:
#
# PCOD9213249 Si02
#       7
#     8   8   8   8   8   8   8
#     4  11  22  38  59  86 121 157 196 254 307 356
#     4  10  22  37  61  88 119 156 207 252 305 368
#     4  10  22  40  62  90 124 164 207 257 306 361
#     4   9  19  36  60  89 122 161 203 249 305 368
#     4  11  22  39  62  91 120 163 202 257 307 361
#     4  11  24  40  62  91 125 160 210 256 307 369
#     4   9  18  35  60  86 117 158 203 250 301 360
#
# _framework density 20.830928
#
# number of rings (size 3 to 8) (size 9 to 14) (size 15 to 20)
#    0.000    1.857    1.429    2.143    0.000    6.571 
#    0.000    0.000    0.000    3.429    0.000    0.000 
#    0.000    0.000    0.000    0.000    0.000    0.000 
#
# Total GULP energy -156215.006044 kJ/mol
# GULP energy per Si atom -5579.107359 kJ/mol
# Density = 2.078352 g / cm^3
# Si number density = 20.830928 Si / 1000 Ang^3
#
#
#
# Elastic Constant Matrix: (Units=GPa)
#
#
# Indices 1 2 3 4 5 6 
#
# 1 137.5071 37.5260 22.8995 -0.0864 2.7786 -0.1050
# 2 37.5260 42.2325 2.5823 0.0912 2.6269 0.1318
# 3 22.8995 2.5823 32.8279 0.0164 0.2629 0.0244
# 4 -0.0864 0.0912 0.0164 -2.5089 -0.1020 -34.3854
# 5 2.7786 2.6269 0.2629 -0.1020 31.5621 -0.1353
# 6 -0.1050 0.1318 0.0244 -34.3854 -0.1353 -42.4856
#
#
#
# Elastic Compliance Matrix: (Units=1/GPa)
#
#
# Indices 1 2 3 4 5 6 
#
# 1 0.010969 -0.009315 -0.006918 -0.000006 -0.000133 -0.000055
# 2 -0.009315 0.031826 0.004009 0.000020 -0.001862 0.000114
# 3 -0.006918 0.004009 0.034972 0.000007 -0.000016 0.000044
# 4 -0.000006 0.000020 0.000007 0.039494 -0.000011 -0.031964
# 5 -0.000133 -0.001862 -0.000016 -0.000011 0.031850 -0.000098
# 6 -0.000055 0.000114 0.000044 -0.031964 -0.000098 0.002333
#
#
# Mechanical properties :
#
#
# Convention : Reuss Voigt Hill
#
# Bulk Modulus (GPa) = 18.75479 37.62033 28.18756
# Shear Modulus (GPa) = 25.81783 7.28417 16.55100
#
# Velocity S-wave (km/s) = 3.52433 1.87200 2.82182
# Velocity P-wave (km/s) = 5.05807 4.77196 4.91710
#
# Compressibility (1/GPa) = 0.05331972
#
# Stress axis : x y z
#
# Youngs Moduli (GPa) = 91.16421 31.42097 28.59413
#
# Poissons Ratio (x) = 0.29270 0.19781
# Poissons Ratio (y) = 0.84922 -0.11464
# Poissons Ratio (z) = 0.63066 -0.12598
#
# Static dielectric constant tensor:
#      x y z
#    x 1.758760 -0.000010 0.002330 
#    y -0.000010 1.789840 0.000020 
#    z 0.002330 0.000020 1.728580 
# 
# From -- ./inp_files/285986.got.cif
#   From: 2010.05.17/outbox.cif.g08.bks.cpg/sg12_143_cif.got.tgz:285986.got - 2010.06.03 13:09:07.
