data_PCOD9213434
_publ_section_title
;
Structure prediction by ZEFSAII (Michael W. Deem and Ramdas Pophale) SiO2 
 PCOD9213434
Probable space group: C 2/M
;
_chemical_formula_sum "Si O2"
_cell_formula_units_Z 48
_cell_length_a 21.466225
_cell_length_b 9.335191
_cell_length_c 16.496778
_cell_angle_alpha 90.000000
_cell_angle_beta 50.204062
_cell_angle_gamma 90.000000
_cell_volume 2539.950107
_symmetry_space_group_name_H-M "C 2/M"
_symmetry_group_IT_number 12
_symmetry_cell_setting 'monoclinic'
loop_
_space_group_symop_operation_xyz
x,y,z
-x,y,-z
-x,-y,-z
x,-y,z
1/2+x,1/2+y,z
1/2-x,1/2+y,-z
1/2-x,1/2-y,-z
1/2+x,1/2-y,z
loop_
_atom_site_type_symbol
_atom_site_label
_atom_site_fract_x
_atom_site_fract_y
_atom_site_fract_z
Si Si1 0.274916 0.828286 0.238118
Si Si2 0.451217 0.831942 0.398463
Si Si3 0.031387 0.834619 0.197640
Si Si4 0.601373 0.664734 0.306810
Si Si5 0.074298 0.668141 0.000306
Si Si6 0.234443 0.330321 0.428774
O O1 0.186881 0.796009 0.273322
O O2 0.344597 0.791781 0.115884
O O3 0.282401 0.742418 0.315336
O O4 0.279440 0.000000 0.249645
O O5 0.460476 0.750655 0.304211
O O6 0.524574 0.764684 0.389044
O O7 0.361978 0.810608 0.507629
O O8 0.464632 0.000000 0.375537
O O9 0.102139 0.829948 0.207510
O O10 0.008968 0.000000 0.204037
O O11 0.057702 0.760203 0.093654
O O12 0.582818 0.500000 0.344747
O O13 0.079987 0.500000 0.018075
O O14 0.000000 0.683970 0.000000
O O15 0.250623 0.500000 0.421994
O O16 0.250000 0.250000 0.500000
#
# Coordination Sequence:
#
# PCOD9213434 Si02
#       6
#     8   8   8   8   8   8
#     4  10  22  40  59  85 120 155 192 238 291 345
#     4   9  19  37  60  84 113 150 191 234 286 341
#     4   9  19  36  59  86 114 149 192 235 289 344
#     4   8  18  36  58  87 118 150 191 236 290 346
#     4  10  22  38  58  84 117 155 195 238 288 343
#     4  11  25  41  60  86 117 154 194 238 288 344
#
# _framework density 18.898008000000001
#
# number of rings (size 3 to 8) (size 9 to 14) (size 15 to 20)
#    1.000    1.500    0.000    1.000    2.333    5.667 
#    0.000    3.333    0.000    0.000    0.000    0.000 
#    0.000    0.000    0.000    0.000    0.000    0.000 
#
# Total GULP energy -133777.219036 kJ/mol
# GULP energy per Si atom -5574.050793 kJ/mol
# Density = 1.885499 g / cm^3
# Si number density = 18.898008 Si / 1000 Ang^3
#
#
#
# Elastic Constant Matrix: (Units=GPa)
#
#
# Indices 1 2 3 4 5 6 
#
# 1 33.4928 25.5465 13.3265 0.0000 -0.6967 -0.0001
# 2 25.5465 73.3285 61.1280 0.0000 2.9660 0.0001
# 3 13.3265 61.1280 106.3275 0.0000 16.5742 0.0000
# 4 0.0000 0.0000 0.0000 26.3875 0.0000 -0.4641
# 5 -0.6967 2.9660 16.5742 0.0000 27.2606 -0.0001
# 6 -0.0001 0.0001 0.0000 -0.4641 -0.0001 15.9045
#
#
#
# Elastic Compliance Matrix: (Units=1/GPa)
#
#
# Indices 1 2 3 4 5 6 
#
# 1 0.042659 -0.020073 0.006278 0.000000 -0.000543 0.000000
# 2 -0.020073 0.036888 -0.019868 0.000000 0.007553 0.000000
# 3 0.006278 -0.019868 0.021739 0.000000 -0.010895 0.000000
# 4 0.000000 0.000000 0.000000 0.037916 0.000000 0.001107
# 5 -0.000543 0.007553 -0.010895 0.000000 0.042471 0.000000
# 6 0.000000 0.000000 0.000000 0.001107 0.000000 0.062907
#
#
# Mechanical properties :
#
#
# Convention : Reuss Voigt Hill
#
# Bulk Modulus (GPa) = 29.44805 45.90564 37.67684
# Shear Modulus (GPa) = 15.46907 21.45371 18.46139
#
# Velocity S-wave (km/s) = 2.86414 3.37298 3.12892
# Velocity P-wave (km/s) = 5.15308 6.28596 5.74750
#
# Compressibility (1/GPa) = 0.03395811
#
# Stress axis : x y z
#
# Youngs Moduli (GPa) = 23.44190 27.10943 46.00105
#
# Poissons Ratio (x) = 0.54417 -0.28880
# Poissons Ratio (y) = 0.47056 0.91396
# Poissons Ratio (z) = -0.14717 0.53862
#
# Static dielectric constant tensor:
#      x y z
#    x 1.672190 0.000000 0.000960 
#    y 0.000000 1.640250 0.000000 
#    z 0.000960 0.000000 1.632960 
# 
# From -- ./inp_files/280765.got.cif
#   From: 2010.05.17/outbox.cif.g08.bks.cpg/sg12_141_cif.got.tgz:280765.got - 2010.06.03 13:09:07.
