data_PCOD9213896
_publ_section_title
;
Structure prediction by ZEFSAII (Michael W. Deem and Ramdas Pophale) SiO2 
 PCOD9213896
Probable space group: C 2/M
;
_chemical_formula_sum "Si O2"
_cell_formula_units_Z 42
_cell_length_a 14.572495
_cell_length_b 12.454745
_cell_length_c 13.918999
_cell_angle_alpha 90.000000
_cell_angle_beta 121.271883
_cell_angle_gamma 90.000000
_cell_volume 2159.222566
_symmetry_space_group_name_H-M "C 2/M"
_symmetry_group_IT_number 12
_symmetry_cell_setting 'monoclinic'
loop_
_space_group_symop_operation_xyz
x,y,z
-x,y,-z
-x,-y,-z
x,-y,z
1/2+x,1/2+y,z
1/2-x,1/2+y,-z
1/2-x,1/2-y,-z
1/2+x,1/2-y,z
loop_
_atom_site_type_symbol
_atom_site_label
_atom_site_fract_x
_atom_site_fract_y
_atom_site_fract_z
Si Si1 0.377089 0.756525 0.951091
Si Si2 0.333176 0.373810 0.118244
Si Si3 0.974064 0.826070 0.656981
Si Si4 0.809112 0.877711 0.730032
Si Si5 0.500000 0.500000 0.500000
Si Si6 0.604381 0.121540 0.489578
O O1 0.291947 0.848034 0.933092
O O2 0.334299 0.698744 0.832198
O O3 0.500000 0.790276 0.000000
O O4 0.370176 0.673138 0.036052
O O5 0.353098 0.500000 0.135506
O O6 0.404364 0.316265 0.238767
O O7 0.907390 0.873736 0.709267
O O8 0.920512 0.712443 0.601406
O O9 0.973128 0.905655 0.566226
O O10 0.704702 0.847687 0.610921
O O11 0.793302 0.000000 0.756061
O O12 0.500000 0.117790 0.500000
O O13 0.623899 0.000000 0.462318
#
# Coordination Sequence:
#
# PCOD9213896 Si02
#       6
#     8   8   8   8   2   8
#     4  11  24  42  68  96 130 171 217 279 325 393
#     4  11  24  44  68  98 131 171 219 273 336 389
#     4  12  22  41  64  96 127 167 220 265 328 388
#     4  11  22  39  66  95 125 167 220 269 320 387
#     4  12  24  36  66  94 128 164 204 282 324 380
#     4  10  22  39  59  88 129 169 208 260 323 390
#
# _framework density 19.451446000000001
#
# number of rings (size 3 to 8) (size 9 to 14) (size 15 to 20)
#    0.000    0.952    4.762    2.286    0.000    1.143 
#    0.000    4.762    0.000    0.000    0.000    0.000 
#    0.000    0.000    0.000    0.000    0.000    0.000 
#
# Total GULP energy -117046.881830 kJ/mol
# GULP energy per Si atom -5573.661040 kJ/mol
# Density = 1.940717 g / cm^3
# Si number density = 19.451446 Si / 1000 Ang^3
#
#
#
# Elastic Constant Matrix: (Units=GPa)
#
#
# Indices 1 2 3 4 5 6 
#
# 1 100.0019 -2.0585 27.0841 0.0000 12.1439 0.0000
# 2 -2.0585 72.0084 50.0363 0.0000 -0.4410 0.0000
# 3 27.0841 50.0363 81.3380 0.0000 9.5821 0.0000
# 4 0.0000 0.0000 0.0000 -2.3309 0.0000 10.8789
# 5 12.1439 -0.4410 9.5821 0.0000 46.9273 0.0000
# 6 0.0000 0.0000 0.0000 10.8789 0.0000 13.7051
#
#
#
# Elastic Compliance Matrix: (Units=1/GPa)
#
#
# Indices 1 2 3 4 5 6 
#
# 1 0.012246 0.005305 -0.007146 0.000000 -0.001660 0.000000
# 2 0.005305 0.027081 -0.018745 0.000000 0.002709 0.000000
# 3 -0.007146 -0.018745 0.026649 0.000000 -0.003768 0.000000
# 4 0.000000 0.000000 0.000000 -0.091187 0.000000 0.072383
# 5 -0.001660 0.002709 -0.003768 0.000000 0.022534 0.000000
# 6 0.000000 0.000000 0.000000 0.072383 0.000000 0.015509
#
#
# Mechanical properties :
#
#
# Convention : Reuss Voigt Hill
#
# Bulk Modulus (GPa) = 40.31460 44.83024 42.57242
# Shear Modulus (GPa) = 80.29572 23.54605 51.92088
#
# Velocity S-wave (km/s) = 6.43193 3.48300 5.17209
# Velocity P-wave (km/s) = 8.71380 6.26677 7.58956
#
# Compressibility (1/GPa) = 0.02480491
#
# Stress axis : x y z
#
# Youngs Moduli (GPa) = 81.65991 36.92682 37.52519
#
# Poissons Ratio (x) = -0.19590 0.26814
# Poissons Ratio (y) = -0.43322 0.70340
# Poissons Ratio (z) = 0.58352 0.69218
#
# Static dielectric constant tensor:
#      x y z
#    x 1.693540 0.000000 0.042890 
#    y 0.000000 1.676240 0.000000 
#    z 0.042890 0.000000 1.679910 
# 
# From -- ./inp_files/212413.got.cif
#   From: 2010.05.17/outbox.cif.g08.bks.cpg/sg12_107_cif.got.tgz:212413.got - 2010.06.03 13:09:07.
