data_PCOD9213505
_publ_section_title
;
Structure prediction by ZEFSAII (Michael W. Deem and Ramdas Pophale) SiO2 
 PCOD9213505
Probable space group: C 2/M
;
_chemical_formula_sum "Si O2"
_cell_formula_units_Z 40
_cell_length_a 10.478312
_cell_length_b 15.046794
_cell_length_c 12.922880
_cell_angle_alpha 90.000000
_cell_angle_beta 87.569560
_cell_angle_gamma 90.000000
_cell_volume 2035.653065
_symmetry_space_group_name_H-M "C 2/M"
_symmetry_group_IT_number 12
_symmetry_cell_setting 'monoclinic'
loop_
_space_group_symop_operation_xyz
x,y,z
-x,y,-z
-x,-y,-z
x,-y,z
1/2+x,1/2+y,z
1/2-x,1/2+y,-z
1/2-x,1/2-y,-z
1/2+x,1/2-y,z
loop_
_atom_site_type_symbol
_atom_site_label
_atom_site_fract_x
_atom_site_fract_y
_atom_site_fract_z
Si Si1 0.383561 0.248093 0.435080
Si Si2 0.238858 0.099387 0.824632
Si Si3 0.749235 0.207367 0.760106
Si Si4 0.499341 0.399231 0.305428
Si Si5 0.355426 0.897167 0.042937
O O1 0.500000 0.212040 0.500000
O O2 0.250000 0.250000 0.500000
O O3 0.354941 0.200210 0.327486
O O4 0.425205 0.346457 0.397299
O O5 0.291442 0.189337 0.770800
O O6 0.092064 0.101448 0.792526
O O7 0.288068 0.000000 0.792542
O O8 0.265162 0.107921 0.945308
O O9 0.871546 0.151269 0.724214
O O10 0.690298 0.169927 0.867735
O O11 0.523800 0.500000 0.334108
O O12 0.352170 0.000000 0.080918
O O13 0.500000 0.878951 0.000000
#
# Coordination Sequence:
#
# PCOD9213505 Si02
#       5
#     8   8   8   8   8
#     4  11  23  43  65  94 126 168 217 275 331 387
#     4   9  21  39  59  89 127 165 207 255 314 382
#     4  11  22  38  67  91 127 166 223 263 325 380
#     4  10  22  40  66  96 125 166 218 271 320 386
#     4  10  22  38  59  92 133 172 211 262 321 386
#
# _framework density 19.649712999999998
#
# number of rings (size 3 to 8) (size 9 to 14) (size 15 to 20)
#    0.000    1.800    2.000    1.200    5.600    1.200 
#    0.000    3.000    0.000    5.400    0.000    0.000 
#    0.000    0.000    0.000    0.000    0.000    0.000 
#
# Total GULP energy -111571.068825 kJ/mol
# GULP energy per Si atom -5578.553441 kJ/mol
# Density = 1.960499 g / cm^3
# Si number density = 19.649713 Si / 1000 Ang^3
#
#
#
# Elastic Constant Matrix: (Units=GPa)
#
#
# Indices 1 2 3 4 5 6 
#
# 1 106.5311 62.6160 59.5066 0.0000 7.2798 0.0000
# 2 62.6160 115.8037 44.1953 0.0000 -16.3944 0.0000
# 3 59.5066 44.1953 88.6233 0.0000 12.8345 0.0000
# 4 0.0000 0.0000 0.0000 15.4216 0.0000 -1.9709
# 5 7.2798 -16.3944 12.8345 0.0000 41.0382 0.0000
# 6 0.0000 0.0000 0.0000 -1.9709 0.0000 28.6517
#
#
#
# Elastic Compliance Matrix: (Units=1/GPa)
#
#
# Indices 1 2 3 4 5 6 
#
# 1 0.018629 -0.007443 -0.008262 0.000000 -0.003694 0.000000
# 2 -0.007443 0.015396 -0.003941 0.000000 0.008703 0.000000
# 3 -0.008262 -0.003941 0.019705 0.000000 -0.006271 0.000000
# 4 0.000000 0.000000 0.000000 0.065419 0.000000 0.004500
# 5 -0.003694 0.008703 -0.006271 0.000000 0.030461 0.000000
# 6 0.000000 0.000000 0.000000 0.004500 0.000000 0.035212
#
#
# Mechanical properties :
#
#
# Convention : Reuss Voigt Hill
#
# Bulk Modulus (GPa) = 69.25831 71.51044 70.38438
# Shear Modulus (GPa) = 21.84131 26.66497 24.25314
#
# Velocity S-wave (km/s) = 3.33758 3.68777 3.51704
# Velocity P-wave (km/s) = 7.08347 7.38948 7.23810
#
# Compressibility (1/GPa) = 0.01443870
#
# Stress axis : x y z
#
# Youngs Moduli (GPa) = 53.67973 64.95358 50.74972
#
# Poissons Ratio (x) = 0.48343 0.41929
# Poissons Ratio (y) = 0.39952 0.19998
# Poissons Ratio (z) = 0.44350 0.25595
#
# Static dielectric constant tensor:
#      x y z
#    x 1.690540 0.000000 0.033710 
#    y 0.000000 1.715290 0.000000 
#    z 0.033710 0.000000 1.690060 
# 
# From -- ./inp_files/119075.got.cif
#   From: 2010.05.17/outbox.cif.g08.bks.cpg/sg12_60_cif.got.tgz:119075.got - 2010.06.03 13:09:07.
