data_PCOD9213012
_publ_section_title
;
Structure prediction by ZEFSAII (Michael W. Deem and Ramdas Pophale) SiO2 
 PCOD9213012
Probable space group: C 2/M
;
_chemical_formula_sum "Si O2"
_cell_formula_units_Z 64
_cell_length_a 9.259770
_cell_length_b 29.872469
_cell_length_c 21.057960
_cell_angle_alpha 90.000000
_cell_angle_beta 146.151006
_cell_angle_gamma 90.000000
_cell_volume 3244.497788
_symmetry_space_group_name_H-M "C 2/M"
_symmetry_group_IT_number 12
_symmetry_cell_setting 'monoclinic'
loop_
_space_group_symop_operation_xyz
x,y,z
-x,y,-z
-x,-y,-z
x,-y,z
1/2+x,1/2+y,z
1/2-x,1/2+y,-z
1/2-x,1/2-y,-z
1/2+x,1/2-y,z
loop_
_atom_site_type_symbol
_atom_site_label
_atom_site_fract_x
_atom_site_fract_y
_atom_site_fract_z
Si Si1 0.289633 0.737522 0.087239
Si Si2 0.755749 0.207290 0.458445
Si Si3 0.703656 0.641362 0.868363
Si Si4 0.755092 0.597251 0.233939
Si Si5 0.773634 0.114542 0.269205
Si Si6 0.839947 0.385174 0.507266
Si Si7 0.542715 0.180713 0.764592
Si Si8 0.208495 0.551537 0.876417
O O1 0.414280 0.689938 0.152835
O O2 0.376303 0.781851 0.155801
O O3 0.250000 0.750000 0.000000
O O4 0.000000 0.727669 0.000000
O O5 0.750000 0.250000 0.500000
O O6 0.722236 0.165050 0.492074
O O7 0.521859 0.206980 0.323075
O O8 0.000000 0.205441 0.500000
O O9 0.518000 0.603791 0.831105
O O10 0.699241 0.635910 0.790755
O O11 0.000000 0.635750 0.000000
O O12 0.777236 0.640145 0.193844
O O13 0.797061 0.556352 0.201896
O O14 0.980203 0.597268 0.369481
O O15 0.693287 0.153355 0.289621
O O16 0.530473 0.080273 0.182736
O O17 0.052659 0.094380 0.391305
O O18 0.000000 0.386214 0.500000
O O19 0.186001 0.500000 0.888274
O O20 0.500000 0.567774 0.000000
#
# Coordination Sequence:
#
# PCOD9213012 Si02
#       8
#     8   8   8   8   8   8   8   8
#     4  11  23  36  52  79 120 163 211 264 308 359
#     4  11  23  35  54  81 115 163 222 272 315 358
#     4  11  22  36  59  89 121 168 216 262 317 375
#     4  10  22  39  64  90 125 164 205 257 320 379
#     4  11  22  40  66  92 127 165 213 263 321 387
#     4  11  22  41  61  91 127 170 209 260 316 378
#     4  10  22  36  56  80 118 164 212 258 310 371
#     4  10  23  45  72 100 128 160 204 259 320 392
#
# _framework density 19.725702999999999
#
# number of rings (size 3 to 8) (size 9 to 14) (size 15 to 20)
#    0.000    1.375    2.500    3.375    1.750    6.000 
#    0.000    1.875    0.000    3.000    0.000    0.000 
#    0.000    0.000    0.000    0.000    0.000    0.000 
#
# Total GULP energy -178325.518245 kJ/mol
# GULP energy per Si atom -5572.672445 kJ/mol
# Density = 1.968081 g / cm^3
# Si number density = 19.725703 Si / 1000 Ang^3
#
#
#
# Elastic Constant Matrix: (Units=GPa)
#
#
# Indices 1 2 3 4 5 6 
#
# 1 114.2345 14.3329 35.5882 0.0000 -3.0674 -0.0003
# 2 14.3329 38.8110 39.2365 -0.0001 -7.3907 0.0004
# 3 35.5882 39.2365 102.7221 0.0014 9.8892 -0.0035
# 4 0.0000 -0.0001 0.0014 18.6812 0.0002 -5.2339
# 5 -3.0674 -7.3907 9.8892 0.0002 36.9705 0.0000
# 6 -0.0003 0.0004 -0.0035 -5.2339 0.0000 39.8355
#
#
#
# Elastic Compliance Matrix: (Units=1/GPa)
#
#
# Indices 1 2 3 4 5 6 
#
# 1 0.009935 0.000622 -0.003870 0.000000 0.001984 0.000000
# 2 0.000622 0.049152 -0.020468 0.000001 0.015352 -0.000002
# 3 -0.003870 -0.020468 0.019829 -0.000001 -0.009717 0.000002
# 4 0.000000 0.000001 -0.000001 0.055576 0.000000 0.007302
# 5 0.001984 0.015352 -0.009717 0.000000 0.032881 -0.000001
# 6 0.000000 -0.000002 0.000002 0.007302 -0.000001 0.026063
#
#
# Mechanical properties :
#
#
# Convention : Reuss Voigt Hill
#
# Bulk Modulus (GPa) = 31.76290 48.23142 39.99716
# Shear Modulus (GPa) = 19.89147 30.20477 25.04812
#
# Velocity S-wave (km/s) = 3.17898 3.91735 3.56732
# Velocity P-wave (km/s) = 5.44167 6.70559 6.10642
#
# Compressibility (1/GPa) = 0.03148327
#
# Stress axis : x y z
#
# Youngs Moduli (GPa) = 100.65457 20.34497 50.42998
#
# Poissons Ratio (x) = -0.01265 0.19519
# Poissons Ratio (y) = -0.06258 1.03220
# Poissons Ratio (z) = 0.38958 0.41642
#
# Static dielectric constant tensor:
#      x y z
#    x 1.691540 0.000010 0.033660 
#    y 0.000010 2.004460 0.000000 
#    z 0.033660 0.000000 1.745090 
# 
# From -- ./inp_files/260372.got.cif
#   From: 2010.05.17/outbox.cif.g08.bks.cpg/sg12_131_cif.got.tgz:260372.got - 2010.06.03 13:09:07.
