data_PCOD9213152
_publ_section_title
;
Structure prediction by ZEFSAII (Michael W. Deem and Ramdas Pophale) SiO2 
 PCOD9213152
Probable space group: C 2/M
;
_chemical_formula_sum "Si O2"
_cell_formula_units_Z 32
_cell_length_a 18.744260
_cell_length_b 12.998395
_cell_length_c 6.643732
_cell_angle_alpha 90.000000
_cell_angle_beta 43.247087
_cell_angle_gamma 90.000000
_cell_volume 1109.055386
_symmetry_space_group_name_H-M "C 2/M"
_symmetry_group_IT_number 12
_symmetry_cell_setting 'monoclinic'
loop_
_space_group_symop_operation_xyz
x,y,z
-x,y,-z
-x,-y,-z
x,-y,z
1/2+x,1/2+y,z
1/2-x,1/2+y,-z
1/2-x,1/2-y,-z
1/2+x,1/2-y,z
loop_
_atom_site_type_symbol
_atom_site_label
_atom_site_fract_x
_atom_site_fract_y
_atom_site_fract_z
Si Si1 0.535270 0.888457 0.661004
Si Si2 0.316107 0.165302 0.122091
Si Si3 0.406309 0.664176 0.339902
Si Si4 0.663222 0.387930 0.098737
O O1 0.500000 0.875023 0.500000
O O2 0.590056 0.785945 0.622483
O O3 0.583762 0.000000 0.586925
O O4 0.418536 0.887266 0.993599
O O5 0.214434 0.144734 0.466603
O O6 0.273788 0.124225 0.992332
O O7 0.345200 0.284936 0.016686
O O8 0.413105 0.616591 0.549185
O O9 0.500000 0.634569 0.000000
O O10 0.655751 0.500000 0.017557
#
# Coordination Sequence:
#
# PCOD9213152 Si02
#       4
#     8   8   8   8
#     4  11  20  36  63  85 109 153 200 234 279 340
#     4   9  19  36  57  85 111 151 195 236 274 336
#     4  10  22  37  55  88 124 147 183 243 289 339
#     4   9  17  35  58  80 113 154 188 228 285 337
#
# _framework density 28.853380999999999
#
# number of rings (size 3 to 8) (size 9 to 14) (size 15 to 20)
#    1.500    0.750    2.500    0.750    0.000    5.000 
#    0.000    2.500    0.000    0.000    0.000    0.000 
#    0.000    0.000    0.000    0.000    0.000    0.000 
#
# Total GULP energy -89540.588768 kJ/mol
# GULP energy per Si atom -5596.286798 kJ/mol
# Density = 2.878771 g / cm^3
# Si number density = 28.853381 Si / 1000 Ang^3
#
#
#
# Elastic Constant Matrix: (Units=GPa)
#
#
# Indices 1 2 3 4 5 6 
#
# 1 46.5442 -6.7108 5.3037 0.0000 -18.6964 0.0000
# 2 -6.7108 198.5967 24.1482 0.0000 -4.6110 0.0000
# 3 5.3037 24.1482 189.0673 0.0000 -16.4787 0.0000
# 4 0.0000 0.0000 0.0000 25.6612 0.0000 5.5549
# 5 -18.6964 -4.6110 -16.4787 0.0000 51.8668 0.0000
# 6 0.0000 0.0000 0.0000 5.5549 0.0000 24.2063
#
#
#
# Elastic Compliance Matrix: (Units=1/GPa)
#
#
# Indices 1 2 3 4 5 6 
#
# 1 0.025348 0.001076 -0.000045 0.000000 0.009219 0.000000
# 2 0.001076 0.005164 -0.000633 0.000000 0.000646 0.000000
# 3 -0.000045 -0.000633 0.005518 0.000000 0.001681 0.000000
# 4 0.000000 0.000000 0.000000 0.041006 0.000000 -0.009410
# 5 0.009219 0.000646 0.001681 0.000000 0.023194 0.000000
# 6 0.000000 0.000000 0.000000 -0.009410 0.000000 0.043471
#
#
# Mechanical properties :
#
#
# Convention : Reuss Voigt Hill
#
# Bulk Modulus (GPa) = 27.15551 53.29893 40.22722
# Shear Modulus (GPa) = 32.22033 47.77801 39.99917
#
# Velocity S-wave (km/s) = 3.34532 4.07368 3.72733
# Velocity P-wave (km/s) = 4.93493 6.37486 5.70054
#
# Compressibility (1/GPa) = 0.03682494
#
# Stress axis : x y z
#
# Youngs Moduli (GPa) = 39.45043 193.65940 181.23309
#
# Poissons Ratio (x) = -0.20839 0.00816
# Poissons Ratio (y) = -0.04245 0.11480
# Poissons Ratio (z) = 0.00178 0.12267
#
# Static dielectric constant tensor:
#      x y z
#    x 2.282100 0.000000 0.051900 
#    y 0.000000 2.120480 0.000000 
#    z 0.051900 0.000000 2.478700 
# 
# From -- ./inp_files/70567.got.cif
#   From: 2010.05.17/outbox.cif.g08.bks.cpg/sg12_36_cif.got.tgz:70567.got - 2010.06.03 13:09:07.
