data_PCOD9213596
_publ_section_title
;
Structure prediction by ZEFSAII (Michael W. Deem and Ramdas Pophale) SiO2 
 PCOD9213596
Probable space group: C 2/M
;
_chemical_formula_sum "Si O2"
_cell_formula_units_Z 40
_cell_length_a 13.612247
_cell_length_b 14.334026
_cell_length_c 14.296234
_cell_angle_alpha 90.000000
_cell_angle_beta 138.546220
_cell_angle_gamma 90.000000
_cell_volume 1846.664147
_symmetry_space_group_name_H-M "C 2/M"
_symmetry_group_IT_number 12
_symmetry_cell_setting 'monoclinic'
loop_
_space_group_symop_operation_xyz
x,y,z
-x,y,-z
-x,-y,-z
x,-y,z
1/2+x,1/2+y,z
1/2-x,1/2+y,-z
1/2-x,1/2-y,-z
1/2+x,1/2-y,z
loop_
_atom_site_type_symbol
_atom_site_label
_atom_site_fract_x
_atom_site_fract_y
_atom_site_fract_z
Si Si1 0.847723 0.286574 0.930239
Si Si2 0.584777 0.109521 0.465210
Si Si3 0.607660 0.395110 0.653302
Si Si4 0.071545 0.698009 0.822775
Si Si5 0.061683 0.896160 0.270599
O O1 0.757232 0.342458 0.786724
O O2 0.727039 0.213489 0.880940
O O3 0.890683 0.350489 0.051500
O O4 0.000000 0.248274 0.000000
O O5 0.500000 0.139789 0.500000
O O6 0.535612 0.158525 0.333409
O O7 0.761592 0.117685 0.603818
O O8 0.549088 0.000000 0.428008
O O9 0.500000 0.350528 0.500000
O O10 0.644747 0.500000 0.647808
O O11 0.507317 0.400612 0.674495
O O12 0.011876 0.799534 0.814178
O O13 0.030825 0.000000 0.206284
#
# Coordination Sequence:
#
# PCOD9213596 Si02
#       5
#     8   8   8   8   8
#     4  10  23  38  56  88 123 157 207 250 305 372
#     4  10  22  38  61  93 123 160 212 256 298 361
#     4   9  19  36  59  87 119 158 200 247 309 369
#     4  10  22  39  60  86 122 167 203 250 316 361
#     4   9  19  37  61  89 121 155 203 255 305 367
#
# _framework density 21.660678000000001
#
# number of rings (size 3 to 8) (size 9 to 14) (size 15 to 20)
#    0.000    2.400    0.000    0.600    5.600    4.400 
#    0.000    3.000    0.000    1.200    0.000    0.000 
#    0.000    0.000    0.000    0.000    0.000    0.000 
#
# Total GULP energy -111430.181026 kJ/mol
# GULP energy per Si atom -5571.509051 kJ/mol
# Density = 2.161138 g / cm^3
# Si number density = 21.660678 Si / 1000 Ang^3
#
#
#
# Elastic Constant Matrix: (Units=GPa)
#
#
# Indices 1 2 3 4 5 6 
#
# 1 61.8061 12.3330 11.4504 0.0000 24.5932 0.0000
# 2 12.3330 77.7888 41.7693 0.0000 3.5954 0.0000
# 3 11.4504 41.7693 106.0148 0.0001 -2.5311 0.0000
# 4 0.0000 0.0000 0.0001 76.0639 0.0001 -12.6512
# 5 24.5932 3.5954 -2.5311 0.0001 39.4311 0.0000
# 6 0.0000 0.0000 0.0000 -12.6512 0.0000 10.4678
#
#
#
# Elastic Compliance Matrix: (Units=1/GPa)
#
#
# Indices 1 2 3 4 5 6 
#
# 1 0.022489 -0.001820 -0.002046 0.000000 -0.013992 0.000000
# 2 -0.001820 0.016596 -0.006361 0.000000 -0.000786 0.000000
# 3 -0.002046 -0.006361 0.012223 0.000000 0.002641 0.000000
# 4 0.000000 0.000000 0.000000 0.016454 0.000000 0.019886
# 5 -0.013992 -0.000786 0.002641 0.000000 0.034329 0.000000
# 6 0.000000 0.000000 0.000000 0.019886 0.000000 0.119565
#
#
# Mechanical properties :
#
#
# Convention : Reuss Voigt Hill
#
# Bulk Modulus (GPa) = 32.41074 41.85723 37.13398
# Shear Modulus (GPa) = 19.81022 37.19635 28.50329
#
# Velocity S-wave (km/s) = 3.02747 4.14844 3.63147
# Velocity P-wave (km/s) = 5.21691 6.50478 5.89611
#
# Compressibility (1/GPa) = 0.03085397
#
# Stress axis : x y z
#
# Youngs Moduli (GPa) = 44.46527 60.25641 81.81439
#
# Poissons Ratio (x) = 0.10969 0.16738
# Poissons Ratio (y) = 0.08094 0.52041
# Poissons Ratio (z) = 0.09097 0.38328
#
# Static dielectric constant tensor:
#      x y z
#    x 1.793540 0.000000 -0.054880 
#    y 0.000000 1.877570 0.000000 
#    z -0.054880 0.000000 1.837890 
# 
# From -- ./inp_files/75519.got.cif
#   From: 2010.05.17/outbox.cif.g08.bks.cpg/sg12_38_cif.got.tgz:75519.got - 2010.06.03 13:09:07.
