data_PCOD9213872
_publ_section_title
;
Structure prediction by ZEFSAII (Michael W. Deem and Ramdas Pophale) SiO2 
 PCOD9213872
Probable space group: C 2/M
;
_chemical_formula_sum "Si O2"
_cell_formula_units_Z 48
_cell_length_a 27.610481
_cell_length_b 9.058332
_cell_length_c 20.781004
_cell_angle_alpha 90.000000
_cell_angle_beta 151.229885
_cell_angle_gamma 90.000000
_cell_volume 2501.505529
_symmetry_space_group_name_H-M "C 2/M"
_symmetry_group_IT_number 12
_symmetry_cell_setting 'monoclinic'
loop_
_space_group_symop_operation_xyz
x,y,z
-x,y,-z
-x,-y,-z
x,-y,z
1/2+x,1/2+y,z
1/2-x,1/2+y,-z
1/2-x,1/2-y,-z
1/2+x,1/2-y,z
loop_
_atom_site_type_symbol
_atom_site_label
_atom_site_fract_x
_atom_site_fract_y
_atom_site_fract_z
Si Si1 0.222103 0.324615 0.145156
Si Si2 0.752256 0.323386 0.572883
Si Si3 0.472970 0.328582 0.640437
Si Si4 0.576356 0.163861 0.646915
Si Si5 0.666913 0.673744 0.950433
Si Si6 0.386275 0.820378 0.849484
O O1 0.208882 0.500000 0.124048
O O2 0.337180 0.278490 0.269953
O O3 0.182189 0.278697 0.168845
O O4 0.169657 0.245181 0.023972
O O5 0.765390 0.500000 0.580139
O O6 0.750000 0.250000 0.500000
O O7 0.641481 0.298723 0.473784
O O8 0.836071 0.271868 0.723147
O O9 0.478477 0.500000 0.624824
O O10 0.513750 0.220128 0.634161
O O11 0.554284 0.311500 0.791828
O O12 0.500000 0.155728 0.500000
O O13 0.619569 0.000000 0.708732
O O14 0.690091 0.500000 0.979017
O O15 0.750000 0.750000 0.000000
O O16 0.387381 0.000000 0.847784
O O17 0.500000 0.772934 0.000000
#
# Coordination Sequence:
#
# PCOD9213872 Si02
#       6
#     8   8   8   8   8   8
#     4  11  22  37  61  88 118 158 200 246 303 362
#     4  10  22  41  64  90 120 157 203 253 304 363
#     4  10  22  39  59  84 118 159 200 243 299 364
#     4  11  23  37  57  86 118 153 195 247 304 362
#     4  11  22  37  58  88 124 159 200 247 299 360
#     4   9  20  39  62  89 119 156 203 250 298 358
#
# _framework density 19.188444
#
# number of rings (size 3 to 8) (size 9 to 14) (size 15 to 20)
#    0.000    1.667    1.667    2.500    2.333    4.000 
#    0.000    1.667    0.000    2.500    0.000    0.000 
#    0.000    0.000    0.000    0.000    0.000    0.000 
#
# Total GULP energy -133938.845876 kJ/mol
# GULP energy per Si atom -5580.785245 kJ/mol
# Density = 1.914477 g / cm^3
# Si number density = 19.188444 Si / 1000 Ang^3
#
#
#
# Elastic Constant Matrix: (Units=GPa)
#
#
# Indices 1 2 3 4 5 6 
#
# 1 112.3694 44.5350 52.4401 0.0000 -24.6784 0.0000
# 2 44.5350 48.1651 39.5670 0.0000 -10.4240 0.0000
# 3 52.4401 39.5670 142.6501 0.0000 -23.4018 0.0000
# 4 0.0000 0.0000 0.0000 29.3897 0.0000 -7.5229
# 5 -24.6784 -10.4240 -23.4018 0.0000 33.3097 0.0000
# 6 0.0000 0.0000 0.0000 -7.5229 0.0000 26.1023
#
#
#
# Elastic Compliance Matrix: (Units=1/GPa)
#
#
# Indices 1 2 3 4 5 6 
#
# 1 0.015828 -0.012020 -0.001331 0.000000 0.007030 0.000000
# 2 -0.012020 0.036402 -0.005957 0.000000 -0.001699 0.000000
# 3 -0.001331 -0.005957 0.009815 0.000000 0.004045 0.000000
# 4 0.000000 0.000000 0.000000 0.036736 0.000000 0.010587
# 5 0.007030 -0.001699 0.004045 0.000000 0.037540 0.000000
# 6 0.000000 0.000000 0.000000 0.010587 0.000000 0.041362
#
#
# Mechanical properties :
#
#
# Convention : Reuss Voigt Hill
#
# Bulk Modulus (GPa) = 42.68212 64.02989 53.35600
# Shear Modulus (GPa) = 22.31043 28.86984 25.59013
#
# Velocity S-wave (km/s) = 3.41354 3.88305 3.65584
# Velocity P-wave (km/s) = 6.15047 7.31748 6.75921
#
# Compressibility (1/GPa) = 0.02342902
#
# Stress axis : x y z
#
# Youngs Moduli (GPa) = 63.17740 27.47094 101.87999
#
# Poissons Ratio (x) = 0.33021 0.13564
# Poissons Ratio (y) = 0.75942 0.60687
# Poissons Ratio (z) = 0.08411 0.16364
#
# Static dielectric constant tensor:
#      x y z
#    x 1.629010 0.000000 -0.021510 
#    y 0.000000 1.664330 0.000000 
#    z -0.021510 0.000000 1.706900 
# 
# From -- ./inp_files/327357.got.cif
#   From: 2010.05.17/outbox.cif.g08.bks.cpg/sg12_164_cif.got.tgz:327357.got - 2010.06.03 13:09:07.
