data_PCOD9213956
_publ_section_title
;
Structure prediction by ZEFSAII (Michael W. Deem and Ramdas Pophale) SiO2 
 PCOD9213956
Probable space group: C 2/M
;
_chemical_formula_sum "Si O2"
_cell_formula_units_Z 48
_cell_length_a 20.806635
_cell_length_b 14.383219
_cell_length_c 11.189930
_cell_angle_alpha 90.000000
_cell_angle_beta 142.329597
_cell_angle_gamma 90.000000
_cell_volume 2046.494387
_symmetry_space_group_name_H-M "C 2/M"
_symmetry_group_IT_number 12
_symmetry_cell_setting 'monoclinic'
loop_
_space_group_symop_operation_xyz
x,y,z
-x,y,-z
-x,-y,-z
x,-y,z
1/2+x,1/2+y,z
1/2-x,1/2+y,-z
1/2-x,1/2-y,-z
1/2+x,1/2-y,z
loop_
_atom_site_type_symbol
_atom_site_label
_atom_site_fract_x
_atom_site_fract_y
_atom_site_fract_z
Si Si1 0.126199 0.108568 0.187850
Si Si2 0.871820 0.299670 0.132382
Si Si3 0.021020 0.100162 0.671823
Si Si4 0.906494 0.389426 0.944510
Si Si5 0.214205 0.309640 0.757646
Si Si6 0.319313 0.676067 0.484190
O O1 0.188959 0.134616 0.158974
O O2 0.171065 0.173220 0.359375
O O3 0.147060 0.000000 0.244094
O O4 0.000000 0.120815 0.000000
O O5 0.921869 0.197334 0.218615
O O6 0.144265 0.349378 0.763057
O O7 0.927272 0.358197 0.110900
O O8 0.761319 0.278101 0.901574
O O9 0.909995 0.105381 0.575658
O O10 0.000000 0.099784 0.500000
O O11 0.072921 0.000000 0.779026
O O12 0.905099 0.500000 0.937966
O O13 0.795839 0.355306 0.727520
O O14 0.000000 0.352037 0.000000
O O15 0.154750 0.268282 0.555597
#
# Coordination Sequence:
#
# PCOD9213956 Si02
#       6
#     8   8   8   8   8   8
#     4  11  24  41  64  98 137 176 225 285 350 412
#     4  10  22  41  61  94 133 170 223 277 332 406
#     4  11  22  38  64  96 130 170 218 280 345 410
#     4  10  23  44  70  97 131 180 234 282 332 403
#     4  10  22  39  60  90 131 175 216 270 335 399
#     4  11  22  42  66  94 130 173 226 278 334 414
#
# _framework density 23.454744000000002
#
# number of rings (size 3 to 8) (size 9 to 14) (size 15 to 20)
#    0.000    1.500    1.667    3.000    0.000    9.333 
#    0.000    0.000    0.000    1.000    0.000    0.000 
#    0.000    0.000    0.000    0.000    0.000    0.000 
#
# Total GULP energy -133968.561546 kJ/mol
# GULP energy per Si atom -5582.023398 kJ/mol
# Density = 2.340136 g / cm^3
# Si number density = 23.454744 Si / 1000 Ang^3
#
#
#
# Elastic Constant Matrix: (Units=GPa)
#
#
# Indices 1 2 3 4 5 6 
#
# 1 219.5795 43.5133 59.8366 0.0000 -24.4412 0.0000
# 2 43.5133 71.0750 35.7975 0.0000 -3.3163 0.0000
# 3 59.8366 35.7975 95.8723 0.0000 -11.0199 0.0000
# 4 0.0000 0.0000 0.0000 44.1896 0.0000 -22.6180
# 5 -24.4412 -3.3163 -11.0199 0.0000 42.2568 0.0000
# 6 0.0000 0.0000 0.0000 -22.6180 0.0000 47.3417
#
#
#
# Elastic Compliance Matrix: (Units=1/GPa)
#
#
# Indices 1 2 3 4 5 6 
#
# 1 0.005999 -0.002237 -0.002609 0.000000 0.002614 0.000000
# 2 -0.002237 0.018167 -0.005538 0.000000 -0.001312 0.000000
# 3 -0.002609 -0.005538 0.014333 0.000000 0.001794 0.000000
# 4 0.000000 0.000000 0.000000 0.029955 0.000000 0.014311
# 5 0.002614 -0.001312 0.001794 0.000000 0.025542 0.000000
# 6 0.000000 0.000000 0.000000 0.014311 0.000000 0.027960
#
#
# Mechanical properties :
#
#
# Convention : Reuss Voigt Hill
#
# Bulk Modulus (GPa) = 56.39557 73.86907 65.13232
# Shear Modulus (GPa) = 33.63963 43.24959 38.44461
#
# Velocity S-wave (km/s) = 3.79124 4.29879 4.05297
# Velocity P-wave (km/s) = 6.57733 7.49681 7.05207
#
# Compressibility (1/GPa) = 0.01773189
#
# Stress axis : x y z
#
# Youngs Moduli (GPa) = 166.68630 55.04406 69.77055
#
# Poissons Ratio (x) = 0.12314 0.18200
# Poissons Ratio (y) = 0.37289 0.38639
# Poissons Ratio (z) = 0.43481 0.30484
#
# Static dielectric constant tensor:
#      x y z
#    x 2.065770 0.000000 0.021250 
#    y 0.000000 1.878930 0.000000 
#    z 0.021250 0.000000 1.898970 
# 
# From -- ./inp_files/177410.got.cif
#   From: 2010.05.17/outbox.cif.g08.bks.cpg/sg12_89_cif.got.tgz:177410.got - 2010.06.03 13:09:07.
