data_PCOD9213025
_publ_section_title
;
Structure prediction by ZEFSAII (Michael W. Deem and Ramdas Pophale) SiO2 
 PCOD9213025
Probable space group: C 2/M
;
_chemical_formula_sum "Si O2"
_cell_formula_units_Z 64
_cell_length_a 30.820642
_cell_length_b 17.449410
_cell_length_c 10.302671
_cell_angle_alpha 90.000000
_cell_angle_beta 145.666788
_cell_angle_gamma 90.000000
_cell_volume 3125.036303
_symmetry_space_group_name_H-M "C 2/M"
_symmetry_group_IT_number 12
_symmetry_cell_setting 'monoclinic'
loop_
_space_group_symop_operation_xyz
x,y,z
-x,y,-z
-x,-y,-z
x,-y,z
1/2+x,1/2+y,z
1/2-x,1/2+y,-z
1/2-x,1/2-y,-z
1/2+x,1/2-y,z
loop_
_atom_site_type_symbol
_atom_site_label
_atom_site_fract_x
_atom_site_fract_y
_atom_site_fract_z
Si Si1 0.002522 0.586195 0.200723
Si Si2 0.687094 0.329746 0.244707
Si Si3 0.735805 0.322051 0.642448
Si Si4 0.623689 0.915587 0.907103
Si Si5 0.343420 0.875843 0.299051
Si Si6 0.169326 0.912789 0.933146
Si Si7 0.122449 0.798517 0.595284
Si Si8 0.527780 0.253124 0.929408
O O1 0.987379 0.500000 0.114772
O O2 0.959533 0.591635 0.233858
O O3 0.967848 0.660886 0.047185
O O4 0.093487 0.600402 0.438646
O O5 0.715621 0.360447 0.454464
O O6 0.750799 0.268454 0.352377
O O7 0.667671 0.385860 0.078675
O O8 0.609491 0.284743 0.089418
O O9 0.671851 0.331522 0.596077
O O10 0.816294 0.354230 0.891703
O O11 0.624303 0.907834 0.755438
O O12 0.653231 0.000000 0.016060
O O13 0.259259 0.907582 0.116694
O O14 0.340192 0.783874 0.279671
O O15 0.142059 0.000000 0.851086
O O16 0.126875 0.854583 0.729510
O O17 0.037001 0.777670 0.334665
O O18 0.500000 0.283633 0.000000
#
# Coordination Sequence:
#
# PCOD9213025 Si02
#       8
#     8   8   8   8   8   8   8   8
#     4  10  22  36  56  94 138 170 202 249 308 377
#     4  11  24  42  64  91 127 163 212 264 309 368
#     4  11  21  39  65  91 124 168 211 258 299 370
#     4  11  21  35  58  91 131 169 206 251 305 373
#     4  11  21  37  62  93 130 169 206 250 308 376
#     4  12  25  42  66  96 127 162 210 270 326 368
#     4  11  23  40  68  96 124 163 213 258 309 376
#     4  11  23  42  67  91 121 168 216 254 315 381
#
# _framework density 20.479762999999998
#
# number of rings (size 3 to 8) (size 9 to 14) (size 15 to 20)
#    0.000    1.000    5.000    2.625    0.000    2.250 
#    0.000    1.250    0.000    0.750    0.000    0.000 
#    0.000    0.000    0.000    0.000    0.000    0.000 
#
# Total GULP energy -178733.667625 kJ/mol
# GULP energy per Si atom -5585.427113 kJ/mol
# Density = 2.043315 g / cm^3
# Si number density = 20.479763 Si / 1000 Ang^3
#
#
#
# Elastic Constant Matrix: (Units=GPa)
#
#
# Indices 1 2 3 4 5 6 
#
# 1 70.8849 13.3985 12.4728 0.0000 -12.8428 0.0000
# 2 13.3985 83.5691 14.5727 0.0000 -14.9425 0.0000
# 3 12.4728 14.5727 55.7327 0.0000 -1.1600 0.0000
# 4 0.0000 0.0000 0.0000 -1.9443 0.0000 -0.0917
# 5 -12.8428 -14.9425 -1.1600 0.0000 32.7362 0.0000
# 6 0.0000 0.0000 0.0000 -0.0917 0.0000 15.1916
#
#
#
# Elastic Compliance Matrix: (Units=1/GPa)
#
#
# Indices 1 2 3 4 5 6 
#
# 1 0.015879 -0.000977 -0.003180 0.000000 0.005671 0.000000
# 2 -0.000977 0.013720 -0.003249 0.000000 0.005764 0.000000
# 3 -0.003180 -0.003249 0.019461 0.000000 -0.002041 0.000000
# 4 0.000000 0.000000 0.000000 -0.514181 0.000000 -0.003103
# 5 0.005671 0.005764 -0.002041 0.000000 0.035331 0.000000
# 6 0.000000 0.000000 0.000000 -0.003103 0.000000 0.065807
#
#
# Mechanical properties :
#
#
# Convention : Reuss Voigt Hill
#
# Bulk Modulus (GPa) = 29.19867 32.34164 30.77016
# Shear Modulus (GPa) = -14.80365 20.51289 2.85462
#
# Velocity S-wave (km/s) = -2.69149 3.16827 1.18190
# Velocity P-wave (km/s) = 2.15162 5.40464 4.11337
#
# Compressibility (1/GPa) = 0.03424814
#
# Stress axis : x y z
#
# Youngs Moduli (GPa) = 62.97587 72.88644 51.38361
#
# Poissons Ratio (x) = 0.07124 0.16341
# Poissons Ratio (y) = 0.06155 0.16693
# Poissons Ratio (z) = 0.20027 0.23679
#
# Static dielectric constant tensor:
#      x y z
#    x 1.726600 0.000000 -0.028940 
#    y 0.000000 1.740640 0.000000 
#    z -0.028940 0.000000 1.731100 
# 
# From -- ./inp_files/112903.got.cif
#   From: 2010.05.17/outbox.cif.g08.bks.cpg/sg12_57_cif.got.tgz:112903.got - 2010.06.03 13:09:07.
