data_PCOD9213136
_publ_section_title
;
Structure prediction by ZEFSAII (Michael W. Deem and Ramdas Pophale) SiO2 
 PCOD9213136
Probable space group: C 2/M
;
_chemical_formula_sum "Si O2"
_cell_formula_units_Z 36
_cell_length_a 21.317291
_cell_length_b 9.104988
_cell_length_c 11.925632
_cell_angle_alpha 90.000000
_cell_angle_beta 131.212702
_cell_angle_gamma 90.000000
_cell_volume 1741.269057
_symmetry_space_group_name_H-M "C 2/M"
_symmetry_group_IT_number 12
_symmetry_cell_setting 'monoclinic'
loop_
_space_group_symop_operation_xyz
x,y,z
-x,y,-z
-x,-y,-z
x,-y,z
1/2+x,1/2+y,z
1/2-x,1/2+y,-z
1/2-x,1/2-y,-z
1/2+x,1/2-y,z
loop_
_atom_site_type_symbol
_atom_site_label
_atom_site_fract_x
_atom_site_fract_y
_atom_site_fract_z
Si Si1 0.823365 0.746769 0.291878
Si Si2 0.750871 0.000000 0.056498
Si Si3 0.565484 0.000000 0.918490
Si Si4 0.698248 0.500000 0.140657
Si Si5 0.067748 0.000000 0.479400
Si Si6 0.000000 0.253965 0.000000
Si Si7 0.501115 0.500000 0.151526
Si Si8 0.938158 0.500000 0.324279
O O1 0.785455 0.858720 0.158766
O O2 0.747606 0.642947 0.247906
O O3 0.875105 0.852896 0.437499
O O4 0.884443 0.644434 0.290801
O O5 0.653761 0.000000 0.963919
O O6 0.774952 0.000000 0.957318
O O7 0.554135 0.861102 0.985791
O O8 0.514607 0.000000 0.740885
O O9 0.597267 0.500000 0.004278
O O10 0.000000 0.000000 0.500000
O O11 0.018687 0.000000 0.303680
O O12 0.960357 0.144075 0.861911
O O13 0.000000 0.500000 0.500000
#
# Coordination Sequence:
#
# PCOD9213136 Si02
#       8
#     8   4   4   4   4   4   4   4
#     4  10  22  37  55 103 130 161 201 250 370 374
#     4  11  20  35  66  93 128 163 206 276 329 376
#     4  11  23  42  64  95 133 164 226 258 313 396
#     4  11  21  36  67  97 132 164 207 282 327 385
#     4  11  24  38  65  98 137 171 201 278 340 387
#     4  10  26  42  62  94 126 188 212 268 302 368
#     4  11  24  45  70  95 130 165 240 262 310 392
#     4  11  24  36  62  98 136 168 200 270 340 392
#
# _framework density 20.674575999999998
#
# number of rings (size 3 to 8) (size 9 to 14) (size 15 to 20)
#    0.000    1.333    2.222    4.000    9.333    0.000 
#    0.000    0.000    0.000   21.333    5.778    0.000 
#    0.000    0.000    0.000    0.000    0.000    0.000 
#
# Total GULP energy -100282.120202 kJ/mol
# GULP energy per Si atom -5571.228900 kJ/mol
# Density = 2.062752 g / cm^3
# Si number density = 20.674576 Si / 1000 Ang^3
#
#
#
# Elastic Constant Matrix: (Units=GPa)
#
#
# Indices 1 2 3 4 5 6 
#
# 1 76.7814 20.2384 42.8858 0.0000 -18.0227 0.0000
# 2 20.2384 146.9298 42.1986 0.0000 -3.7966 0.0000
# 3 42.8858 42.1986 106.8032 0.0000 -11.1049 0.0000
# 4 0.0000 0.0000 0.0000 15.5041 0.0000 2.5631
# 5 -18.0227 -3.7966 -11.1049 0.0000 32.7555 0.0000
# 6 0.0000 0.0000 0.0000 2.5631 0.0000 23.6071
#
#
#
# Elastic Compliance Matrix: (Units=1/GPa)
#
#
# Indices 1 2 3 4 5 6 
#
# 1 0.018642 -0.000508 -0.006452 0.000000 0.008011 0.000000
# 2 -0.000508 0.007692 -0.002873 0.000000 -0.000362 0.000000
# 3 -0.006452 -0.002873 0.013148 0.000000 0.000575 0.000000
# 4 0.000000 0.000000 0.000000 0.065678 0.000000 -0.007131
# 5 0.008011 -0.000362 0.000575 0.000000 0.035090 0.000000
# 6 0.000000 0.000000 0.000000 -0.007131 0.000000 0.043134
#
#
# Mechanical properties :
#
#
# Convention : Reuss Voigt Hill
#
# Bulk Modulus (GPa) = 50.46122 60.12889 55.29505
# Shear Modulus (GPa) = 23.84875 29.38612 26.61743
#
# Velocity S-wave (km/s) = 3.40005 3.77419 3.59199
# Velocity P-wave (km/s) = 6.31460 6.93825 6.63376
#
# Compressibility (1/GPa) = 0.01981720
#
# Stress axis : x y z
#
# Youngs Moduli (GPa) = 53.64269 130.01165 76.05431
#
# Poissons Ratio (x) = 0.06602 0.49069
# Poissons Ratio (y) = 0.02724 0.21848
# Poissons Ratio (z) = 0.34610 0.37349
#
# Static dielectric constant tensor:
#      x y z
#    x 1.759320 0.000000 0.110760 
#    y 0.000000 1.723800 0.000000 
#    z 0.110760 0.000000 2.090610 
# 
# From -- ./inp_files/172701.got.cif
#   From: 2010.05.17/outbox.cif.g08.bks.cpg/sg12_87_cif.got.tgz:172701.got - 2010.06.03 13:09:07.
