data_PCOD9213023
_publ_section_title
;
Structure prediction by ZEFSAII (Michael W. Deem and Ramdas Pophale) SiO2 
 PCOD9213023
Probable space group: C 2/M
;
_chemical_formula_sum "Si O2"
_cell_formula_units_Z 36
_cell_length_a 4.909572
_cell_length_b 23.091415
_cell_length_c 15.612060
_cell_angle_alpha 90.000000
_cell_angle_beta 64.181179
_cell_angle_gamma 90.000000
_cell_volume 1593.241841
_symmetry_space_group_name_H-M "C 2/M"
_symmetry_group_IT_number 12
_symmetry_cell_setting 'monoclinic'
loop_
_space_group_symop_operation_xyz
x,y,z
-x,y,-z
-x,-y,-z
x,-y,z
1/2+x,1/2+y,z
1/2-x,1/2+y,-z
1/2-x,1/2-y,-z
1/2+x,1/2-y,z
loop_
_atom_site_type_symbol
_atom_site_label
_atom_site_fract_x
_atom_site_fract_y
_atom_site_fract_z
Si Si1 0.000000 0.328057 0.000000
Si Si2 0.094365 0.895850 0.713908
Si Si3 0.329328 0.215886 0.202443
Si Si4 0.237392 0.566333 0.602033
Si Si5 0.590209 0.562483 0.086073
O O1 0.999046 0.291906 0.087236
O O2 0.744129 0.375060 0.056466
O O3 0.440534 0.893750 0.635872
O O4 0.888229 0.838086 0.749158
O O5 0.894867 0.931756 0.673535
O O6 0.124099 0.926152 0.803545
O O7 0.603774 0.229312 0.228005
O O8 0.500000 0.583607 0.500000
O O9 0.144120 0.500000 0.595508
O O10 0.741944 0.500000 0.088391
O O11 0.500000 0.555281 0.000000
#
# Coordination Sequence:
#
# PCOD9213023 Si02
#       5
#     4   8   8   8   8
#     4  10  23  34  60  82 124 164 221 258 310 356
#     4  11  24  41  66  93 130 170 211 258 317 373
#     4  11  24  41  63  87 122 167 219 270 311 356
#     4  11  23  42  69 100 129 161 204 257 318 385
#     4  10  22  36  56  89 134 175 207 244 304 388
#
# _framework density 22.595438000000001
#
# number of rings (size 3 to 8) (size 9 to 14) (size 15 to 20)
#    0.000    1.333    0.000    5.000   12.444    1.778 
#    0.000    0.000    0.000   13.333    0.000    0.000 
#    0.000    0.000    0.000    0.000    0.000    0.000 
#
# Total GULP energy -100204.973996 kJ/mol
# GULP energy per Si atom -5566.943000 kJ/mol
# Density = 2.254401 g / cm^3
# Si number density = 22.595438 Si / 1000 Ang^3
#
#
#
# Elastic Constant Matrix: (Units=GPa)
#
#
# Indices 1 2 3 4 5 6 
#
# 1 69.2915 12.5003 19.2339 0.0000 -9.9629 0.0000
# 2 12.5003 62.1690 23.5652 0.0000 -11.4994 0.0000
# 3 19.2339 23.5652 84.0980 0.0000 -22.4637 0.0000
# 4 0.0000 0.0000 0.0000 27.9437 0.0000 -2.0435
# 5 -9.9629 -11.4994 -22.4637 0.0000 36.3946 0.0000
# 6 0.0000 0.0000 0.0000 -2.0435 0.0000 24.6602
#
#
#
# Elastic Compliance Matrix: (Units=1/GPa)
#
#
# Indices 1 2 3 4 5 6 
#
# 1 0.015772 -0.001813 -0.002513 0.000000 0.002193 0.000000
# 2 -0.001813 0.018498 -0.004000 0.000000 0.002880 0.000000
# 3 -0.002513 -0.004000 0.015644 0.000000 0.007704 0.000000
# 4 0.000000 0.000000 0.000000 0.036004 0.000000 0.002984
# 5 0.002193 0.002880 0.007704 0.000000 0.033742 0.000000
# 6 0.000000 0.000000 0.000000 0.002984 0.000000 0.040798
#
#
# Mechanical properties :
#
#
# Convention : Reuss Voigt Hill
#
# Bulk Modulus (GPa) = 30.06325 36.23971 33.15148
# Shear Modulus (GPa) = 26.56763 28.48364 27.52564
#
# Velocity S-wave (km/s) = 3.43271 3.55433 3.49405
# Velocity P-wave (km/s) = 5.38936 5.73740 5.56610
#
# Compressibility (1/GPa) = 0.03326321
#
# Stress axis : x y z
#
# Youngs Moduli (GPa) = 63.40414 54.05858 63.92081
#
# Poissons Ratio (x) = 0.09800 0.16065
# Poissons Ratio (y) = 0.11494 0.25566
# Poissons Ratio (z) = 0.15935 0.21621
#
# Static dielectric constant tensor:
#      x y z
#    x 1.808600 0.000000 0.015830 
#    y 0.000000 1.895840 0.000000 
#    z 0.015830 0.000000 1.969960 
# 
# From -- ./inp_files/191434.got.cif
#   From: 2010.05.17/outbox.cif.g08.bks.cpg/sg12_96_cif.got.tgz:191434.got - 2010.06.03 13:09:07.
