data_PCOD9213367
_publ_section_title
;
Structure prediction by ZEFSAII (Michael W. Deem and Ramdas Pophale) SiO2 
 PCOD9213367
Probable space group: C 2/M
;
_chemical_formula_sum "Si O2"
_cell_formula_units_Z 56
_cell_length_a 19.647264
_cell_length_b 18.108701
_cell_length_c 9.227946
_cell_angle_alpha 90.000000
_cell_angle_beta 56.424329
_cell_angle_gamma 90.000000
_cell_volume 2735.399897
_symmetry_space_group_name_H-M "C 2/M"
_symmetry_group_IT_number 12
_symmetry_cell_setting 'monoclinic'
loop_
_space_group_symop_operation_xyz
x,y,z
-x,y,-z
-x,-y,-z
x,-y,z
1/2+x,1/2+y,z
1/2-x,1/2+y,-z
1/2-x,1/2-y,-z
1/2+x,1/2-y,z
loop_
_atom_site_type_symbol
_atom_site_label
_atom_site_fract_x
_atom_site_fract_y
_atom_site_fract_z
Si Si1 0.998128 0.877117 0.828829
Si Si2 0.697723 0.298278 0.344239
Si Si3 0.260717 0.137429 0.768336
Si Si4 0.316994 0.415610 0.426792
Si Si5 0.435226 0.080869 0.446761
Si Si6 0.837835 0.082268 0.853352
Si Si7 0.969734 0.733978 0.366459
O O1 0.085265 0.906316 0.666035
O O2 0.987609 0.792291 0.788085
O O3 0.921895 0.916880 0.844546
O O4 0.000000 0.883975 0.000000
O O5 0.744513 0.227097 0.226769
O O6 0.733596 0.356627 0.417177
O O7 0.662381 0.352517 0.263468
O O8 0.623673 0.260107 0.516990
O O9 0.200334 0.106164 0.717792
O O10 0.350072 0.108656 0.616535
O O11 0.234271 0.103071 0.951106
O O12 0.293720 0.500000 0.480618
O O13 0.500000 0.074077 0.500000
O O14 0.469979 0.149559 0.314669
O O15 0.424745 0.000000 0.391439
O O16 0.826593 0.000000 0.804306
O O17 0.000000 0.737757 0.500000
#
# Coordination Sequence:
#
# PCOD9213367 Si02
#       7
#     8   8   8   8   8   8   8
#     4  11  22  36  56  85 123 157 190 226 279 342
#     4  10  22  38  56  82 116 155 192 235 285 336
#     4  11  22  38  60  83 115 153 195 235 287 349
#     4  11  22  37  59  88 120 153 193 234 281 342
#     4   9  18  34  59  84 106 139 193 251 291 326
#     4  12  23  37  59  87 120 154 191 236 286 340
#     4   9  17  34  56  79 109 148 191 231 273 337
#
# _framework density 20.472327
#
# number of rings (size 3 to 8) (size 9 to 14) (size 15 to 20)
#    0.000    1.571    2.857    3.000    0.000    0.571 
#    0.000    2.143    0.000    0.429    0.000    0.000 
#    0.000    0.000    0.000    0.000    0.000    0.000 
#
# Total GULP energy -156110.201695 kJ/mol
# GULP energy per Si atom -5575.364346 kJ/mol
# Density = 2.042573 g / cm^3
# Si number density = 20.472327 Si / 1000 Ang^3
#
#
#
# Elastic Constant Matrix: (Units=GPa)
#
#
# Indices 1 2 3 4 5 6 
#
# 1 28.2697 12.1000 2.7899 0.0000 -2.9531 0.0000
# 2 12.1000 194.3928 8.6312 0.0000 4.0908 0.0000
# 3 2.7899 8.6312 16.7889 0.0000 8.0246 0.0000
# 4 0.0000 0.0000 0.0000 -2.3465 0.0000 -1.6173
# 5 -2.9531 4.0908 8.0246 0.0000 25.9664 0.0000
# 6 0.0000 0.0000 0.0000 -1.6173 0.0000 21.8348
#
#
#
# Elastic Compliance Matrix: (Units=1/GPa)
#
#
# Indices 1 2 3 4 5 6 
#
# 1 0.037911 -0.002127 -0.008715 0.000000 0.007340 0.000000
# 2 -0.002127 0.005384 -0.002221 0.000000 -0.000404 0.000000
# 3 -0.008715 -0.002221 0.073285 0.000000 -0.023289 0.000000
# 4 0.000000 0.000000 0.000000 -0.405473 0.000000 -0.030034
# 5 0.007340 -0.000404 -0.023289 0.000000 0.046607 0.000000
# 6 0.000000 0.000000 0.000000 -0.030034 0.000000 0.043574
#
#
# Mechanical properties :
#
#
# Convention : Reuss Voigt Hill
#
# Bulk Modulus (GPa) = 11.05544 31.83264 21.44404
# Shear Modulus (GPa) = -35.10366 23.48628 -5.80869
#
# Velocity S-wave (km/s) = -4.14537 3.39074 -1.68627
# Velocity P-wave (km/s) = 4.18333 5.55989 2.58961
#
# Compressibility (1/GPa) = 0.09045319
#
# Stress axis : x y z
#
# Youngs Moduli (GPa) = 26.37762 185.74375 13.64536
#
# Poissons Ratio (x) = 0.39513 0.11891
# Poissons Ratio (y) = 0.05611 0.03031
# Poissons Ratio (z) = 0.22987 0.41260
#
# Static dielectric constant tensor:
#      x y z
#    x 1.754150 0.000000 -0.003090 
#    y 0.000000 1.804400 0.000000 
#    z -0.003090 0.000000 1.722730 
# 
# From -- ./inp_files/75995.got.cif
#   From: 2010.05.17/outbox.cif.g08.bks.cpg/sg12_38_cif.got.tgz:75995.got - 2010.06.03 13:09:07.
