data_PCOD9213081
_publ_section_title
;
Structure prediction by ZEFSAII (Michael W. Deem and Ramdas Pophale) SiO2 
 PCOD9213081
Probable space group: C 2/M
;
_chemical_formula_sum "Si O2"
_cell_formula_units_Z 56
_cell_length_a 14.099700
_cell_length_b 26.323153
_cell_length_c 9.338995
_cell_angle_alpha 90.000000
_cell_angle_beta 120.510334
_cell_angle_gamma 90.000000
_cell_volume 2986.222491
_symmetry_space_group_name_H-M "C 2/M"
_symmetry_group_IT_number 12
_symmetry_cell_setting 'monoclinic'
loop_
_space_group_symop_operation_xyz
x,y,z
-x,y,-z
-x,-y,-z
x,-y,z
1/2+x,1/2+y,z
1/2-x,1/2+y,-z
1/2-x,1/2-y,-z
1/2+x,1/2-y,z
loop_
_atom_site_type_symbol
_atom_site_label
_atom_site_fract_x
_atom_site_fract_y
_atom_site_fract_z
Si Si1 0.758049 0.722920 0.353249
Si Si2 0.399885 0.136918 0.536937
Si Si3 0.736588 0.439797 0.527902
Si Si4 0.152667 0.774191 0.830146
Si Si5 0.955447 0.720678 0.822127
Si Si6 0.392464 0.619674 0.323496
Si Si7 0.519875 0.560178 0.176735
O O1 0.750000 0.750000 0.500000
O O2 0.790843 0.664644 0.387663
O O3 0.851279 0.746505 0.326036
O O4 0.644924 0.743674 0.203858
O O5 0.500000 0.131578 0.500000
O O6 0.351230 0.085415 0.566195
O O7 0.431991 0.177247 0.686603
O O8 0.745843 0.500000 0.563791
O O9 0.687561 0.410000 0.628542
O O10 0.643618 0.433391 0.332577
O O11 0.165107 0.832728 0.797402
O O12 0.040141 0.760550 0.820548
O O13 0.250000 0.750000 0.000000
O O14 0.000000 0.695160 0.000000
O O15 0.500000 0.636390 0.500000
O O16 0.440605 0.585014 0.233897
O O17 0.497568 0.500000 0.157571
O O18 0.500000 0.579890 0.000000
#
# Coordination Sequence:
#
# PCOD9213081 Si02
#       7
#     8   8   8   8   8   8   8
#     4  10  22  37  57  81 117 158 202 234 292 358
#     4  11  23  40  62  85 117 162 205 259 307 358
#     4  10  22  41  65  91 118 159 211 256 307 371
#     4  12  24  37  55  91 124 161 199 244 294 363
#     4  11  23  39  59  85 126 165 200 247 298 365
#     4  10  22  36  62  89 126 164 204 241 305 372
#     4   9  19  38  63  94 127 154 195 259 318 361
#
# _framework density 18.752790000000001
#
# number of rings (size 3 to 8) (size 9 to 14) (size 15 to 20)
#    0.000    1.571    2.857    2.143    8.000    3.714 
#    0.000    0.000    0.000    0.429    0.000    0.000 
#    0.000    0.000    0.000    0.000    0.000    0.000 
#
# Total GULP energy -156009.860708 kJ/mol
# GULP energy per Si atom -5571.780740 kJ/mol
# Density = 1.871011 g / cm^3
# Si number density = 18.752790 Si / 1000 Ang^3
#
#
#
# Elastic Constant Matrix: (Units=GPa)
#
#
# Indices 1 2 3 4 5 6 
#
# 1 103.8027 52.3190 43.3128 0.0000 -16.8188 0.0000
# 2 52.3190 117.1700 41.8654 0.0000 -0.5095 0.0000
# 3 43.3128 41.8654 90.0223 0.0000 -19.1896 0.0000
# 4 0.0000 0.0000 0.0000 9.2603 0.0000 9.5181
# 5 -16.8188 -0.5095 -19.1896 0.0000 26.2560 0.0000
# 6 0.0000 0.0000 0.0000 9.5181 0.0000 21.2430
#
#
#
# Elastic Compliance Matrix: (Units=1/GPa)
#
#
# Indices 1 2 3 4 5 6 
#
# 1 0.014845 -0.005507 -0.003053 0.000000 0.007171 0.000000
# 2 -0.005507 0.012624 -0.004645 0.000000 -0.006677 0.000000
# 3 -0.003053 -0.004645 0.016940 0.000000 0.010336 0.000000
# 4 0.000000 0.000000 0.000000 0.200175 0.000000 -0.089690
# 5 0.007171 -0.006677 0.010336 0.000000 0.050104 0.000000
# 6 0.000000 0.000000 0.000000 -0.089690 0.000000 0.087261
#
#
# Mechanical properties :
#
#
# Convention : Reuss Voigt Hill
#
# Bulk Modulus (GPa) = 55.55302 65.10995 60.33149
# Shear Modulus (GPa) = 12.06686 22.91838 17.49262
#
# Velocity S-wave (km/s) = 2.53942 3.49969 3.05749
# Velocity P-wave (km/s) = 6.18760 7.15024 6.68627
#
# Compressibility (1/GPa) = 0.01800082
#
# Stress axis : x y z
#
# Youngs Moduli (GPa) = 67.36343 79.21430 59.03028
#
# Poissons Ratio (x) = 0.43620 0.18021
# Poissons Ratio (y) = 0.37094 0.27418
# Poissons Ratio (z) = 0.20565 0.36793
#
# Static dielectric constant tensor:
#      x y z
#    x 1.625440 0.000000 0.037240 
#    y 0.000000 1.107980 0.000000 
#    z 0.037240 0.000000 1.733780 
# 
# From -- ./inp_files/65946.got.cif
#   From: 2010.05.17/outbox.cif.g08.bks.cpg/sg12_33_cif.got.tgz:65946.got - 2010.06.03 13:09:07.
