data_PCOD9213294
_publ_section_title
;
Structure prediction by ZEFSAII (Michael W. Deem and Ramdas Pophale) SiO2 
 PCOD9213294
Probable space group: C 2/M
;
_chemical_formula_sum "Si O2"
_cell_formula_units_Z 50
_cell_length_a 9.279771
_cell_length_b 14.492358
_cell_length_c 14.822447
_cell_angle_alpha 90.000000
_cell_angle_beta 90.513023
_cell_angle_gamma 90.000000
_cell_volume 1993.328193
_symmetry_space_group_name_H-M "C 2/M"
_symmetry_group_IT_number 12
_symmetry_cell_setting 'monoclinic'
loop_
_space_group_symop_operation_xyz
x,y,z
-x,y,-z
-x,-y,-z
x,-y,z
1/2+x,1/2+y,z
1/2-x,1/2+y,-z
1/2-x,1/2-y,-z
1/2+x,1/2-y,z
loop_
_atom_site_type_symbol
_atom_site_label
_atom_site_fract_x
_atom_site_fract_y
_atom_site_fract_z
Si Si1 0.664536 0.500000 0.087230
Si Si2 0.144817 0.835778 0.210033
Si Si3 0.263193 0.361939 0.506798
Si Si4 0.411729 0.129087 0.833450
Si Si5 0.000000 0.500000 0.000000
Si Si6 0.529226 0.636339 0.633864
Si Si7 0.678950 0.500000 0.886917
Si Si8 0.581510 0.846105 0.662073
O O1 0.702731 0.406900 0.137994
O O2 0.489052 0.500000 0.091486
O O3 0.743367 0.500000 0.991170
O O4 0.093279 0.740321 0.166689
O O5 0.018825 0.887036 0.265959
O O6 0.272646 0.820179 0.282353
O O7 0.250000 0.250000 0.500000
O O8 0.316251 0.389986 0.406971
O O9 0.400177 0.392435 0.567465
O O10 0.129661 0.392182 0.568335
O O11 0.482683 0.106510 0.736397
O O12 0.489629 0.081064 0.917779
O O13 0.250278 0.088164 0.840469
O O14 0.515923 0.747858 0.634591
#
# Coordination Sequence:
#
# PCOD9213294 Si02
#       8
#     4   8   8   8   2   8   4   8
#     4  11  26  45  64  90 123 166 208 263 319 381
#     4  10  22  37  63  93 127 163 213 257 313 374
#     4   8  13  26  51  85 131 161 204 254 296 369
#     4  10  23  40  64  90 123 163 204 263 316 377
#     4  10  24  42  60  90 118 162 210 256 326 374
#     4   8  15  29  51  89 128 164 204 249 309 359
#     4  10  26  45  61  85 119 159 212 256 330 377
#     4   9  18  32  57  91 124 162 210 253 310 371
#
# _framework density 25.083674999999999
#
# number of rings (size 3 to 8) (size 9 to 14) (size 15 to 20)
#    0.000    2.720    0.000    0.000    8.960    2.560 
#    0.000    0.000    0.000    9.600    0.000    1.120 
#    0.000    0.000    0.000    0.000    0.000    0.000 
#
# Total GULP energy -139249.932204 kJ/mol
# GULP energy per Si atom -5569.997288 kJ/mol
# Density = 2.502658 g / cm^3
# Si number density = 25.083675 Si / 1000 Ang^3
#
#
#
# Elastic Constant Matrix: (Units=GPa)
#
#
# Indices 1 2 3 4 5 6 
#
# 1 88.8483 15.6825 74.3659 0.0000 -13.6229 0.0000
# 2 15.6825 136.4351 51.8753 0.0000 -5.1179 0.0000
# 3 74.3659 51.8753 193.0750 0.0000 -56.1396 0.0000
# 4 0.0000 0.0000 0.0000 118.7470 0.0000 13.1525
# 5 -13.6229 -5.1179 -56.1396 0.0000 62.7088 0.0000
# 6 0.0000 0.0000 0.0000 13.1525 0.0000 9.1544
#
#
#
# Elastic Compliance Matrix: (Units=1/GPa)
#
#
# Indices 1 2 3 4 5 6 
#
# 1 0.017087 0.000854 -0.007721 0.000000 -0.003131 0.000000
# 2 0.000854 0.008351 -0.003137 0.000000 -0.001942 0.000000
# 3 -0.007721 -0.003137 0.011402 0.000000 0.008274 0.000000
# 4 0.000000 0.000000 0.000000 0.010015 0.000000 -0.014389
# 5 -0.003131 -0.001942 0.008274 0.000000 0.022516 0.000000
# 6 0.000000 0.000000 0.000000 -0.014389 0.000000 0.129910
#
#
# Mechanical properties :
#
#
# Convention : Reuss Voigt Hill
#
# Bulk Modulus (GPa) = 59.41130 78.02287 68.71709
# Shear Modulus (GPa) = 22.23213 56.55101 39.39157
#
# Velocity S-wave (km/s) = 2.98034 4.75330 3.96713
# Velocity P-wave (km/s) = 5.96489 7.82929 6.95980
#
# Compressibility (1/GPa) = 0.01683181
#
# Stress axis : x y z
#
# Youngs Moduli (GPa) = 58.52446 119.74080 87.70362
#
# Poissons Ratio (x) = -0.10229 0.67716
# Poissons Ratio (y) = -0.04999 0.27516
# Poissons Ratio (z) = 0.45187 0.37568
#
# Static dielectric constant tensor:
#      x y z
#    x 1.473780 0.000000 -0.113580 
#    y 0.000000 1.929810 0.000000 
#    z -0.113580 0.000000 2.003220 
# 
# From -- ./inp_files/204961.got.cif
#   From: 2010.05.17/outbox.cif.g08.bks.cpg/sg12_103_cif.got.tgz:204961.got - 2010.06.03 13:09:07.
