data_PCOD9213863
_publ_section_title
;
Structure prediction by ZEFSAII (Michael W. Deem and Ramdas Pophale) SiO2 
 PCOD9213863
Probable space group: C 2/M
;
_chemical_formula_sum "Si O2"
_cell_formula_units_Z 40
_cell_length_a 22.804235
_cell_length_b 7.454208
_cell_length_c 29.614483
_cell_angle_alpha 90.000000
_cell_angle_beta 161.144736
_cell_angle_gamma 90.000000
_cell_volume 1626.911013
_symmetry_space_group_name_H-M "C 2/M"
_symmetry_group_IT_number 12
_symmetry_cell_setting 'monoclinic'
loop_
_space_group_symop_operation_xyz
x,y,z
-x,y,-z
-x,-y,-z
x,-y,z
1/2+x,1/2+y,z
1/2-x,1/2+y,-z
1/2-x,1/2-y,-z
1/2+x,1/2-y,z
loop_
_atom_site_type_symbol
_atom_site_label
_atom_site_fract_x
_atom_site_fract_y
_atom_site_fract_z
Si Si1 0.649647 0.719618 0.821002
Si Si2 0.920940 0.712296 0.091717
Si Si3 0.528831 0.213296 0.571068
Si Si4 0.803094 0.284553 0.841725
Si Si5 0.177338 0.795210 0.355925
O O1 0.648171 0.500000 0.822550
O O2 0.664915 0.774985 0.780463
O O3 0.472984 0.784622 0.719718
O O4 0.836380 0.773613 0.982670
O O5 0.956244 0.500000 0.114759
O O6 0.087468 0.795923 0.240181
O O7 0.750000 0.750000 0.000000
O O8 0.500000 0.286755 0.500000
O O9 0.724662 0.238369 0.735828
O O10 0.373894 0.288684 0.491699
O O11 0.496562 0.000000 0.545227
O O12 0.811212 0.500000 0.848975
O O13 0.000000 0.217524 0.000000
O O14 0.200594 0.000000 0.388277
#
# Coordination Sequence:
#
# PCOD9213863 Si02
#       5
#     8   8   8   8   8
#     4   8  16  32  53  79 110 142 178 227 278 324
#     4   9  16  28  50  80 114 146 180 222 274 330
#     4  10  23  41  58  81 114 151 188 232 287 340
#     4  10  22  39  59  83 112 147 187 232 282 337
#     4   9  18  34  55  78 110 147 184 231 280 327
#
# _framework density 24.586471
#
# number of rings (size 3 to 8) (size 9 to 14) (size 15 to 20)
#    0.000    2.800    0.000    1.800    2.800    2.400 
#    0.000    5.000    0.000    0.000    0.000    0.000 
#    0.000    0.000    0.000    0.000    0.000    0.000 
#
# Total GULP energy -111644.152571 kJ/mol
# GULP energy per Si atom -5582.207629 kJ/mol
# Density = 2.453051 g / cm^3
# Si number density = 24.586471 Si / 1000 Ang^3
#
#
#
# Elastic Constant Matrix: (Units=GPa)
#
#
# Indices 1 2 3 4 5 6 
#
# 1 117.0790 1.4559 61.6714 0.0010 -12.4038 0.0017
# 2 1.4559 78.3473 -9.6109 0.0060 7.4508 0.0040
# 3 61.6714 -9.6109 144.7413 0.0742 -3.4209 0.0128
# 4 0.0010 0.0060 0.0742 16.0804 -0.0066 -9.1928
# 5 -12.4038 7.4508 -3.4209 -0.0066 40.2110 -0.0006
# 6 0.0017 0.0040 0.0128 -9.1928 -0.0006 -0.1797
#
#
#
# Elastic Compliance Matrix: (Units=1/GPa)
#
#
# Indices 1 2 3 4 5 6 
#
# 1 0.011484 -0.001130 -0.004889 -0.000004 0.003336 -0.000049
# 2 -0.001130 0.013199 0.001295 0.000007 -0.002684 0.000033
# 3 -0.004889 0.001295 0.009055 0.000011 -0.000978 0.000092
# 4 -0.000004 0.000007 0.000011 0.002056 -0.000003 -0.105184
# 5 0.003336 -0.002684 -0.000978 -0.000003 0.026312 -0.000033
# 6 -0.000049 0.000033 0.000092 -0.105184 -0.000033 -0.183991
#
#
# Mechanical properties :
#
#
# Convention : Reuss Voigt Hill
#
# Bulk Modulus (GPa) = 41.17343 49.68895 45.43119
# Shear Modulus (GPa) = -47.92087 30.33243 -8.79422
#
# Velocity S-wave (km/s) = -4.41962 3.51622 -1.89331
# Velocity P-wave (km/s) = 3.04325 6.06126 3.70658
#
# Compressibility (1/GPa) = 0.02428751
#
# Stress axis : x y z
#
# Youngs Moduli (GPa) = 87.07587 75.76468 110.43617
#
# Poissons Ratio (x) = 0.08565 0.53997
# Poissons Ratio (y) = 0.09844 -0.14297
# Poissons Ratio (z) = 0.42575 -0.09809
#
# Static dielectric constant tensor:
#      x y z
#    x 1.975970 -0.000020 0.005270 
#    y -0.000020 1.968480 -0.000020 
#    z 0.005270 -0.000020 1.960500 
# 
# From -- ./inp_files/381956.got.cif
#   From: 2010.05.17/outbox.cif.g08.bks.cpg/sg12_191_cif.got.tgz:381956.got - 2010.06.03 13:09:07.
