data_PCOD9213438
_publ_section_title
;
Structure prediction by ZEFSAII (Michael W. Deem and Ramdas Pophale) SiO2 
 PCOD9213438
Probable space group: C 2/M
;
_chemical_formula_sum "Si O2"
_cell_formula_units_Z 48
_cell_length_a 13.421599
_cell_length_b 23.398906
_cell_length_c 8.790105
_cell_angle_alpha 90.000000
_cell_angle_beta 73.048203
_cell_angle_gamma 90.000000
_cell_volume 2640.594582
_symmetry_space_group_name_H-M "C 2/M"
_symmetry_group_IT_number 12
_symmetry_cell_setting 'monoclinic'
loop_
_space_group_symop_operation_xyz
x,y,z
-x,y,-z
-x,-y,-z
x,-y,z
1/2+x,1/2+y,z
1/2-x,1/2+y,-z
1/2-x,1/2-y,-z
1/2+x,1/2-y,z
loop_
_atom_site_type_symbol
_atom_site_label
_atom_site_fract_x
_atom_site_fract_y
_atom_site_fract_z
Si Si1 0.229890 0.672009 0.352275
Si Si2 0.387692 0.933088 0.475658
Si Si3 0.229549 0.331254 0.985799
Si Si4 0.615314 0.933145 0.885760
Si Si5 0.080508 0.235800 0.579959
Si Si6 0.072459 0.764214 0.094199
O O1 0.197091 0.609097 0.417835
O O2 0.233494 0.671859 0.167832
O O3 0.143753 0.715531 0.460898
O O4 0.337351 0.693965 0.377302
O O5 0.500000 0.919259 0.500000
O O6 0.388614 0.924675 0.293772
O O7 0.367569 0.000000 0.515825
O O8 0.138939 0.285973 0.985821
O O9 0.196456 0.391299 0.931210
O O10 0.340190 0.307000 0.879979
O O11 0.637856 0.000000 0.906152
O O12 0.500000 0.920737 0.000000
O O13 0.000000 0.206539 0.500000
O O14 0.004772 0.260142 0.744449
O O15 0.000000 0.793044 0.000000
#
# Coordination Sequence:
#
# PCOD9213438 Si02
#       6
#     8   8   8   8   8   8
#     4  11  23  36  58  87 114 152 192 231 285 339
#     4  10  22  38  59  85 115 148 187 236 286 335
#     4  11  23  36  59  86 115 154 190 232 282 339
#     4  10  22  38  58  85 114 149 189 234 286 336
#     4  11  23  38  56  84 119 151 188 234 283 340
#     4  11  23  38  55  85 119 150 188 231 281 339
#
# _framework density 18.177723
#
# number of rings (size 3 to 8) (size 9 to 14) (size 15 to 20)
#    0.000    1.333    3.333    2.000    7.000    2.000 
#    0.000    0.000    0.000    2.000    0.000    0.000 
#    0.000    0.000    0.000    0.000    0.000    0.000 
#
# Total GULP energy -134019.645904 kJ/mol
# GULP energy per Si atom -5584.151913 kJ/mol
# Density = 1.813635 g / cm^3
# Si number density = 18.177723 Si / 1000 Ang^3
#
#
#
# Elastic Constant Matrix: (Units=GPa)
#
#
# Indices 1 2 3 4 5 6 
#
# 1 124.7457 49.5281 40.2489 0.0000 9.9522 0.0000
# 2 49.5281 74.5390 26.5315 0.0000 11.8703 0.0000
# 3 40.2489 26.5315 68.3109 0.0000 6.0098 0.0000
# 4 0.0000 0.0000 0.0000 28.2913 0.0000 6.1972
# 5 9.9522 11.8703 6.0098 0.0000 29.7692 0.0000
# 6 0.0000 0.0000 0.0000 6.1972 0.0000 23.8781
#
#
#
# Elastic Compliance Matrix: (Units=1/GPa)
#
#
# Indices 1 2 3 4 5 6 
#
# 1 0.012037 -0.006263 -0.004607 0.000000 -0.000597 0.000000
# 2 -0.006263 0.019619 -0.003488 0.000000 -0.005025 0.000000
# 3 -0.004607 -0.003488 0.018784 0.000000 -0.000861 0.000000
# 4 0.000000 0.000000 0.000000 0.037477 0.000000 -0.009727
# 5 -0.000597 -0.005025 -0.000861 0.000000 0.035969 0.000000
# 6 0.000000 0.000000 0.000000 -0.009727 0.000000 0.044404
#
#
# Mechanical properties :
#
#
# Convention : Reuss Voigt Hill
#
# Bulk Modulus (GPa) = 46.03194 55.57919 50.80556
# Shear Modulus (GPa) = 24.48017 26.47352 25.47684
#
# Velocity S-wave (km/s) = 3.67374 3.82038 3.74778
# Velocity P-wave (km/s) = 6.58585 7.07830 6.83651
#
# Compressibility (1/GPa) = 0.02172405
#
# Stress axis : x y z
#
# Youngs Moduli (GPa) = 83.07642 50.97089 53.23740
#
# Poissons Ratio (x) = 0.31924 0.24527
# Poissons Ratio (y) = 0.52033 0.18567
# Poissons Ratio (z) = 0.38275 0.17776
#
# Static dielectric constant tensor:
#      x y z
#    x 1.625200 0.000000 0.011860 
#    y 0.000000 1.605500 0.000000 
#    z 0.011860 0.000000 1.673060 
# 
# From -- ./inp_files/50606.got.cif
#   From: 2010.05.17/outbox.cif.g08.bks.cpg/sg12_26_cif.got.tgz:50606.got - 2010.06.03 13:09:07.
