data_PCOD9213683
_publ_section_title
;
Structure prediction by ZEFSAII (Michael W. Deem and Ramdas Pophale) SiO2 
 PCOD9213683
Probable space group: C 2/M
;
_chemical_formula_sum "Si O2"
_cell_formula_units_Z 42
_cell_length_a 11.073810
_cell_length_b 21.461804
_cell_length_c 9.248239
_cell_angle_alpha 90.000000
_cell_angle_beta 70.700259
_cell_angle_gamma 90.000000
_cell_volume 2074.452214
_symmetry_space_group_name_H-M "C 2/M"
_symmetry_group_IT_number 12
_symmetry_cell_setting 'monoclinic'
loop_
_space_group_symop_operation_xyz
x,y,z
-x,y,-z
-x,-y,-z
x,-y,z
1/2+x,1/2+y,z
1/2-x,1/2+y,-z
1/2-x,1/2-y,-z
1/2+x,1/2-y,z
loop_
_atom_site_type_symbol
_atom_site_label
_atom_site_fract_x
_atom_site_fract_y
_atom_site_fract_z
Si Si1 0.495451 0.428879 0.826574
Si Si2 0.246971 0.857856 0.732964
Si Si3 0.881421 0.732587 0.134493
Si Si4 0.116127 0.712605 0.543313
Si Si5 0.210008 0.394273 0.967585
Si Si6 0.000000 0.500000 0.000000
O O1 0.514230 0.500000 0.770466
O O2 0.612225 0.385566 0.730590
O O3 0.352612 0.406317 0.850827
O O4 0.500000 0.428472 0.000000
O O5 0.218145 0.788177 0.802852
O O6 0.346926 0.848768 0.563691
O O7 0.288656 0.896587 0.856987
O O8 0.924253 0.706935 0.274519
O O9 0.829887 0.674282 0.066783
O O10 0.000000 0.760621 0.000000
O O11 0.250000 0.750000 0.500000
O O12 0.000000 0.743417 0.500000
O O13 0.111539 0.445446 0.952488
#
# Coordination Sequence:
#
# PCOD9213683 Si02
#       6
#     8   8   8   8   8   2
#     4   9  18  35  60  88 117 160 204 254 303 371
#     4  10  22  38  64  91 123 157 208 262 318 371
#     4  11  21  37  63  94 123 159 203 262 316 373
#     4  10  23  40  60  90 130 167 203 257 327 379
#     4  11  21  37  61  90 128 162 214 250 310 374
#     4  12  24  36  58  94 130 176 204 260 310 364
#
# _framework density 20.246309
#
# number of rings (size 3 to 8) (size 9 to 14) (size 15 to 20)
#    0.000    1.714    1.905    3.429    1.333    7.619 
#    0.000    0.000    2.095    2.857    0.000    0.000 
#    0.000    0.000    0.000    0.000    0.000    0.000 
#
# Total GULP energy -116914.538615 kJ/mol
# GULP energy per Si atom -5567.358982 kJ/mol
# Density = 2.020023 g / cm^3
# Si number density = 20.246309 Si / 1000 Ang^3
#
#
#
# Elastic Constant Matrix: (Units=GPa)
#
#
# Indices 1 2 3 4 5 6 
#
# 1 111.3067 13.8829 15.7517 0.0000 -2.8594 0.0000
# 2 13.8829 64.7030 -11.4728 0.0000 -6.9699 0.0000
# 3 15.7517 -11.4728 90.7780 0.0000 -4.6331 0.0000
# 4 0.0000 0.0000 0.0000 -7.2198 0.0000 6.4989
# 5 -2.8594 -6.9699 -4.6331 0.0000 22.3884 0.0000
# 6 0.0000 0.0000 0.0000 6.4989 0.0000 -28.1922
#
#
#
# Elastic Compliance Matrix: (Units=1/GPa)
#
#
# Indices 1 2 3 4 5 6 
#
# 1 0.009561 -0.002391 -0.001958 0.000000 0.000072 0.000000
# 2 -0.002391 0.017079 0.002859 0.000000 0.005603 0.000000
# 3 -0.001958 0.002859 0.011875 0.000000 0.003098 0.000000
# 4 0.000000 0.000000 0.000000 -0.174775 0.000000 -0.040289
# 5 0.000072 0.005603 0.003098 0.000000 0.047061 0.000000
# 6 0.000000 0.000000 0.000000 -0.040289 0.000000 -0.044758
#
#
# Mechanical properties :
#
#
# Convention : Reuss Voigt Hill
#
# Bulk Modulus (GPa) = 28.13979 33.67902 30.90941
# Shear Modulus (GPa) = -41.96947 13.97035 -13.99956
#
# Velocity S-wave (km/s) = -4.55790 2.62967 -2.63242
# Velocity P-wave (km/s) = 3.71084 5.08832 2.46177
#
# Compressibility (1/GPa) = 0.03553687
#
# Stress axis : x y z
#
# Youngs Moduli (GPa) = 104.58869 58.55202 84.21038
#
# Poissons Ratio (x) = 0.13999 0.16485
# Poissons Ratio (y) = 0.25006 -0.24078
# Poissons Ratio (z) = 0.20474 -0.16742
#
# Static dielectric constant tensor:
#      x y z
#    x 1.776700 0.000000 0.002390 
#    y 0.000000 1.697470 0.000000 
#    z 0.002390 0.000000 1.776870 
# 
# From -- ./inp_files/49180.got.cif
#   From: 2010.05.17/outbox.cif.g08.bks.cpg/sg12_25_cif.got.tgz:49180.got - 2010.06.03 13:09:07.
