data_PCOD9213617
_publ_section_title
;
Structure prediction by ZEFSAII (Michael W. Deem and Ramdas Pophale) SiO2 
 PCOD9213617
Probable space group: C 2/M
;
_chemical_formula_sum "Si O2"
_cell_formula_units_Z 32
_cell_length_a 29.694135
_cell_length_b 10.613462
_cell_length_c 15.244537
_cell_angle_alpha 90.000000
_cell_angle_beta 18.575824
_cell_angle_gamma 90.000000
_cell_volume 1530.496601
_symmetry_space_group_name_H-M "C 2/M"
_symmetry_group_IT_number 12
_symmetry_cell_setting 'monoclinic'
loop_
_space_group_symop_operation_xyz
x,y,z
-x,y,-z
-x,-y,-z
x,-y,z
1/2+x,1/2+y,z
1/2-x,1/2+y,-z
1/2-x,1/2-y,-z
1/2+x,1/2-y,z
loop_
_atom_site_type_symbol
_atom_site_label
_atom_site_fract_x
_atom_site_fract_y
_atom_site_fract_z
Si Si1 0.362661 0.357309 0.814347
Si Si2 0.641204 0.144655 0.537034
Si Si3 0.892760 0.208256 0.958656
Si Si4 0.593764 0.637437 0.739957
O O1 0.500000 0.342131 0.500000
O O2 0.307564 0.500000 0.902560
O O3 0.250000 0.250000 0.000000
O O4 0.402150 0.341145 0.843435
O O5 0.733838 0.201570 0.286951
O O6 0.672207 0.234888 0.563354
O O7 0.676331 0.000000 0.487179
O O8 0.476349 0.160145 0.815407
O O9 0.983150 0.130438 0.862781
O O10 0.666976 0.500000 0.609663
O O11 0.500000 0.655247 0.000000
#
# Coordination Sequence:
#
# PCOD9213617 Si02
#       4
#     8   8   8   8
#     4  11  24  41  64  91 122 160 203 251 304 360
#     4  10  22  38  62  89 121 162 202 247 299 355
#     4  10  22  41  62  87 126 160 197 251 304 355
#     4   9  20  38  62  90 122 161 201 245 301 360
#
# _framework density 20.908245999999998
#
# number of rings (size 3 to 8) (size 9 to 14) (size 15 to 20)
#    1.500    0.500    0.000    3.750    0.000    4.000 
#    0.000    0.000    0.000    0.000    0.000    0.000 
#    0.000    0.000    0.000    0.000    0.000    0.000 
#
# Total GULP energy -89083.907586 kJ/mol
# GULP energy per Si atom -5567.744224 kJ/mol
# Density = 2.086066 g / cm^3
# Si number density = 20.908246 Si / 1000 Ang^3
#
#
#
# Elastic Constant Matrix: (Units=GPa)
#
#
# Indices 1 2 3 4 5 6 
#
# 1 129.0711 40.0796 42.9501 0.0000 34.4776 0.0000
# 2 40.0796 136.7754 78.8235 0.0000 9.1533 0.0000
# 3 42.9501 78.8235 85.1915 0.0000 26.3639 0.0000
# 4 0.0000 0.0000 0.0000 23.9830 0.0000 -9.2156
# 5 34.4776 9.1533 26.3639 0.0000 41.3887 0.0000
# 6 0.0000 0.0000 0.0000 -9.2156 0.0000 -8.3276
#
#
#
# Elastic Compliance Matrix: (Units=1/GPa)
#
#
# Indices 1 2 3 4 5 6 
#
# 1 0.010854 -0.001920 -0.001282 0.000000 -0.007801 0.000000
# 2 -0.001920 0.017928 -0.018544 0.000000 0.009446 0.000000
# 3 -0.001282 -0.018544 0.034803 0.000000 -0.017000 0.000000
# 4 0.000000 0.000000 0.000000 0.029256 0.000000 -0.032375
# 5 -0.007801 0.009446 -0.017000 0.000000 0.039399 0.000000
# 6 0.000000 0.000000 0.000000 -0.032375 0.000000 -0.084255
#
#
# Mechanical properties :
#
#
# Convention : Reuss Voigt Hill
#
# Bulk Modulus (GPa) = 49.76419 74.97160 62.36790
# Shear Modulus (GPa) = 50.93016 24.02116 37.47566
#
# Velocity S-wave (km/s) = 4.94083 3.39320 4.23825
# Velocity P-wave (km/s) = 7.51012 7.16149 7.33788
#
# Compressibility (1/GPa) = 0.02009477
#
# Stress axis : x y z
#
# Youngs Moduli (GPa) = 92.13142 55.77781 28.73325
#
# Poissons Ratio (x) = 0.10708 0.03683
# Poissons Ratio (y) = 0.17688 0.53282
# Poissons Ratio (z) = 0.11810 1.03432
#
# Static dielectric constant tensor:
#      x y z
#    x 1.758220 0.000000 -0.046840 
#    y 0.000000 1.797350 0.000000 
#    z -0.046840 0.000000 1.786320 
# 
# From -- ./inp_files/250447.got.cif
#   From: 2010.05.17/outbox.cif.g08.bks.cpg/sg12_126_cif.got.tgz:250447.got - 2010.06.03 13:09:07.
