data_PCOD9213784
_publ_section_title
;
Structure prediction by ZEFSAII (Michael W. Deem and Ramdas Pophale) SiO2 
 PCOD9213784
Probable space group: C 2/M
;
_chemical_formula_sum "Si O2"
_cell_formula_units_Z 56
_cell_length_a 9.847849
_cell_length_b 23.343830
_cell_length_c 19.607445
_cell_angle_alpha 90.000000
_cell_angle_beta 136.848638
_cell_angle_gamma 90.000000
_cell_volume 3082.796870
_symmetry_space_group_name_H-M "C 2/M"
_symmetry_group_IT_number 12
_symmetry_cell_setting 'monoclinic'
loop_
_space_group_symop_operation_xyz
x,y,z
-x,y,-z
-x,-y,-z
x,-y,z
1/2+x,1/2+y,z
1/2-x,1/2+y,-z
1/2-x,1/2-y,-z
1/2+x,1/2-y,z
loop_
_atom_site_type_symbol
_atom_site_label
_atom_site_fract_x
_atom_site_fract_y
_atom_site_fract_z
Si Si1 0.334772 0.132409 0.386735
Si Si2 0.234058 0.067651 0.100349
Si Si3 0.099478 0.859648 0.608552
Si Si4 0.527680 0.147899 0.715055
Si Si5 0.968718 0.932598 0.298470
Si Si6 0.537986 0.069211 0.090405
Si Si7 0.113827 0.768122 0.384741
O O1 0.500000 0.111187 0.500000
O O2 0.434795 0.134856 0.350232
O O3 0.141909 0.092757 0.315955
O O4 0.251947 0.192787 0.386504
O O5 0.301858 0.115192 0.180260
O O6 0.362414 0.080922 0.079394
O O7 0.276319 0.000000 0.134873
O O8 0.000000 0.071252 0.000000
O O9 0.324518 0.874801 0.673893
O O10 0.000000 0.846324 0.500000
O O11 0.997738 0.911367 0.612008
O O12 0.058166 0.806864 0.644276
O O13 0.482394 0.216282 0.693191
O O14 0.751491 0.910751 0.196246
O O15 0.969404 0.000000 0.295011
O O16 0.549867 0.000000 0.090806
O O17 0.500000 0.090847 0.000000
O O18 0.250000 0.750000 0.500000
#
# Coordination Sequence:
#
# PCOD9213784 Si02
#       7
#     8   8   8   8   8   8   8
#     4  11  23  38  57  91 124 166 212 253 302 364
#     4  10  23  42  64  93 124 157 204 260 316 372
#     4  11  21  36  60  89 120 166 207 250 303 365
#     4  12  22  35  64  93 123 157 208 263 308 362
#     4  10  22  39  56  84 126 163 205 250 305 372
#     4   9  18  36  62  85 109 150 200 247 299 366
#     4  11  21  38  62  86 123 161 213 258 298 367
#
# _framework density 18.165322
#
# number of rings (size 3 to 8) (size 9 to 14) (size 15 to 20)
#    0.000    1.429    4.286    1.714    2.000    1.143 
#    0.000    1.429    0.000    6.857    0.000    0.000 
#    0.000    0.000    0.000    0.000    0.000    0.000 
#
# Total GULP energy -156051.319160 kJ/mol
# GULP energy per Si atom -5573.261399 kJ/mol
# Density = 1.812398 g / cm^3
# Si number density = 18.165322 Si / 1000 Ang^3
#
#
#
# Elastic Constant Matrix: (Units=GPa)
#
#
# Indices 1 2 3 4 5 6 
#
# 1 104.4448 12.3712 23.4080 0.0000 5.7245 0.0000
# 2 12.3712 62.6753 32.8012 0.0000 1.2424 0.0000
# 3 23.4080 32.8012 59.4987 0.0000 -1.6346 0.0000
# 4 0.0000 0.0000 0.0000 26.3980 0.0000 2.7761
# 5 5.7245 1.2424 -1.6346 0.0000 34.1875 0.0000
# 6 0.0000 0.0000 0.0000 2.7761 0.0000 22.5111
#
#
#
# Elastic Compliance Matrix: (Units=1/GPa)
#
#
# Indices 1 2 3 4 5 6 
#
# 1 0.010635 0.000223 -0.004362 0.000000 -0.001997 0.000000
# 2 0.000223 0.022498 -0.012531 0.000000 -0.001454 0.000000
# 3 -0.004362 -0.012531 0.025497 0.000000 0.002405 0.000000
# 4 0.000000 0.000000 0.000000 0.038379 0.000000 -0.004733
# 5 -0.001997 -0.001454 0.002405 0.000000 0.029753 0.000000
# 6 0.000000 0.000000 0.000000 -0.004733 0.000000 0.045006
#
#
# Mechanical properties :
#
#
# Convention : Reuss Voigt Hill
#
# Bulk Modulus (GPa) = 39.53909 40.41994 39.97951
# Shear Modulus (GPa) = 23.41500 27.15521 25.28511
#
# Velocity S-wave (km/s) = 3.59415 3.87058 3.73492
# Velocity P-wave (km/s) = 6.24799 6.50189 6.37621
#
# Compressibility (1/GPa) = 0.02529142
#
# Stress axis : x y z
#
# Youngs Moduli (GPa) = 94.02848 44.44840 39.21977
#
# Poissons Ratio (x) = -0.00992 0.17108
# Poissons Ratio (y) = -0.02099 0.49145
# Poissons Ratio (z) = 0.41015 0.55697
#
# Static dielectric constant tensor:
#      x y z
#    x 1.621210 0.000000 0.010490 
#    y 0.000000 1.670850 0.000000 
#    z 0.010490 0.000000 1.638930 
# 
# From -- ./inp_files/198533.got.cif
#   From: 2010.05.17/outbox.cif.g08.bks.cpg/sg12_100_cif.got.tgz:198533.got - 2010.06.03 13:09:07.
