data_PCOD9213665
_publ_section_title
;
Structure prediction by ZEFSAII (Michael W. Deem and Ramdas Pophale) SiO2 
 PCOD9213665
Probable space group: C 2/M
;
_chemical_formula_sum "Si O2"
_cell_formula_units_Z 56
_cell_length_a 9.025358
_cell_length_b 27.243157
_cell_length_c 13.117939
_cell_angle_alpha 90.000000
_cell_angle_beta 70.110005
_cell_angle_gamma 90.000000
_cell_volume 3033.024198
_symmetry_space_group_name_H-M "C 2/M"
_symmetry_group_IT_number 12
_symmetry_cell_setting 'monoclinic'
loop_
_space_group_symop_operation_xyz
x,y,z
-x,y,-z
-x,-y,-z
x,-y,z
1/2+x,1/2+y,z
1/2-x,1/2+y,-z
1/2-x,1/2-y,-z
1/2+x,1/2-y,z
loop_
_atom_site_type_symbol
_atom_site_label
_atom_site_fract_x
_atom_site_fract_y
_atom_site_fract_z
Si Si1 0.923668 0.553447 0.407344
Si Si2 0.439952 0.442579 0.785725
Si Si3 0.333951 0.057943 0.983063
Si Si4 0.756548 0.724486 0.386732
Si Si5 0.210624 0.410960 0.228339
Si Si6 0.357860 0.382709 0.604905
Si Si7 0.576265 0.814676 0.366512
O O1 0.843794 0.500000 0.424884
O O2 0.802229 0.595372 0.404821
O O3 0.000000 0.561026 0.500000
O O4 0.069735 0.553605 0.296579
O O5 0.436800 0.500000 0.754195
O O6 0.616510 0.429243 0.780350
O O7 0.387526 0.406665 0.707297
O O8 0.312229 0.436973 0.905528
O O9 0.304061 0.090514 0.890129
O O10 0.339439 0.000000 0.951819
O O11 0.500000 0.069046 0.000000
O O12 0.750000 0.750000 0.500000
O O13 0.649522 0.676407 0.396333
O O14 0.697408 0.769618 0.334988
O O15 0.930053 0.703115 0.332846
O O16 0.163266 0.361907 0.301599
O O17 0.500000 0.398883 0.500000
O O18 0.500000 0.821440 0.500000
#
# Coordination Sequence:
#
# PCOD9213665 Si02
#       7
#     8   8   8   8   8   8   8
#     4  11  23  37  55  85 128 167 201 248 309 373
#     4  11  25  40  61  94 130 167 210 254 305 372
#     4  10  22  42  65  90 122 164 214 259 303 365
#     4  10  22  39  60  90 122 161 206 263 304 365
#     4  12  22  38  65  91 122 165 208 258 310 370
#     4  12  24  38  61  89 126 166 208 256 309 373
#     4  10  22  38  63  94 126 160 208 256 317 370
#
# _framework density 18.463419999999999
#
# number of rings (size 3 to 8) (size 9 to 14) (size 15 to 20)
#    0.000    1.143    1.429    5.571    8.000    4.571 
#    0.000    0.000    0.000    0.857    0.000    0.000 
#    0.000    0.000    0.000    0.000    0.000    0.000 
#
# Total GULP energy -156275.771223 kJ/mol
# GULP energy per Si atom -5581.277544 kJ/mol
# Density = 1.842140 g / cm^3
# Si number density = 18.463420 Si / 1000 Ang^3
#
#
#
# Elastic Constant Matrix: (Units=GPa)
#
#
# Indices 1 2 3 4 5 6 
#
# 1 90.8120 38.1187 34.8344 0.0000 -7.4239 0.0000
# 2 38.1187 142.1646 44.7737 0.0000 4.6544 0.0000
# 3 34.8344 44.7737 94.0693 0.0000 1.0153 0.0000
# 4 0.0000 0.0000 0.0000 15.6483 0.0000 5.6240
# 5 -7.4239 4.6544 1.0153 0.0000 28.5155 0.0000
# 6 0.0000 0.0000 0.0000 5.6240 0.0000 45.8586
#
#
#
# Elastic Compliance Matrix: (Units=1/GPa)
#
#
# Indices 1 2 3 4 5 6 
#
# 1 0.013986 -0.002638 -0.003969 0.000000 0.004213 0.000000
# 2 -0.002638 0.008814 -0.003197 0.000000 -0.002012 0.000000
# 3 -0.003969 -0.003197 0.013632 0.000000 -0.000997 0.000000
# 4 0.000000 0.000000 0.000000 0.066851 0.000000 -0.008199
# 5 0.004213 -0.002012 -0.000997 0.000000 0.036529 0.000000
# 6 0.000000 0.000000 0.000000 -0.008199 0.000000 0.022812
#
#
# Mechanical properties :
#
#
# Convention : Reuss Voigt Hill
#
# Bulk Modulus (GPa) = 59.43433 62.49994 60.96713
# Shear Modulus (GPa) = 26.61840 31.95909 29.28874
#
# Velocity S-wave (km/s) = 3.80107 4.16497 3.98717
# Velocity P-wave (km/s) = 7.17805 7.55338 7.36810
#
# Compressibility (1/GPa) = 0.01682529
#
# Stress axis : x y z
#
# Youngs Moduli (GPa) = 71.50046 113.45549 73.35455
#
# Poissons Ratio (x) = 0.29930 0.29114
# Poissons Ratio (y) = 0.18862 0.23448
# Poissons Ratio (z) = 0.28378 0.36267
#
# Static dielectric constant tensor:
#      x y z
#    x 1.683290 0.000000 0.009100 
#    y 0.000000 1.652340 0.000000 
#    z 0.009100 0.000000 1.652790 
# 
# From -- ./inp_files/124210.got.cif
#   From: 2010.05.17/outbox.cif.g08.bks.cpg/sg12_63_cif.got.tgz:124210.got - 2010.06.03 13:09:07.
