data_PCOD9213109
_publ_section_title
;
Structure prediction by ZEFSAII (Michael W. Deem and Ramdas Pophale) SiO2 
 PCOD9213109
Probable space group: C 2/M
;
_chemical_formula_sum "Si O2"
_cell_formula_units_Z 64
_cell_length_a 31.390663
_cell_length_b 7.283248
_cell_length_c 12.216226
_cell_angle_alpha 90.000000
_cell_angle_beta 87.278624
_cell_angle_gamma 90.000000
_cell_volume 2789.796885
_symmetry_space_group_name_H-M "C 2/M"
_symmetry_group_IT_number 12
_symmetry_cell_setting 'monoclinic'
loop_
_space_group_symop_operation_xyz
x,y,z
-x,y,-z
-x,-y,-z
x,-y,z
1/2+x,1/2+y,z
1/2-x,1/2+y,-z
1/2-x,1/2-y,-z
1/2+x,1/2-y,z
loop_
_atom_site_type_symbol
_atom_site_label
_atom_site_fract_x
_atom_site_fract_y
_atom_site_fract_z
Si Si1 0.883544 0.276289 0.487240
Si Si2 0.708831 0.219541 0.582166
Si Si3 0.961779 0.723773 0.326858
Si Si4 0.901722 0.276991 0.896299
Si Si5 0.055927 0.276536 0.328558
Si Si6 0.192548 0.277047 0.069472
Si Si7 0.779954 0.289803 0.171316
Si Si8 0.959593 0.276654 0.076997
O O1 0.882088 0.500000 0.488205
O O2 0.835742 0.214133 0.465435
O O3 0.919256 0.219418 0.394607
O O4 0.905458 0.218951 0.598211
O O5 0.750000 0.250000 0.500000
O O6 0.713895 0.288176 0.707405
O O7 0.705406 0.000000 0.590804
O O8 0.961642 0.500000 0.330633
O O9 0.960147 0.783374 0.201250
O O10 0.008160 0.780787 0.366732
O O11 0.902186 0.500000 0.895288
O O12 0.933239 0.219716 0.796072
O O13 0.853513 0.220344 0.883103
O O14 0.918519 0.220882 0.012640
O O15 0.055411 0.500000 0.331337
O O16 0.195056 0.500000 0.067692
O O17 0.230292 0.212782 0.143365
O O18 0.198974 0.212489 0.942810
O O19 0.795436 0.500000 0.175069
O O20 0.960878 0.500000 0.080683
O O21 0.000000 0.219542 0.000000
#
# Coordination Sequence:
#
# PCOD9213109 Si02
#       8
#     8   8   8   8   8   8   8   8
#     4   9  18  28  41  60  85 122 160 193 234 283
#     4  10  22  37  52  71  98 131 167 208 249 291
#     4   9  15  23  37  56  85 122 153 186 231 282
#     4   9  16  23  37  61  88 119 153 187 224 278
#     4   9  15  24  36  57  88 120 156 190 225 278
#     4   9  18  31  51  74  96 126 160 197 243 294
#     4   9  19  35  50  69  97 125 160 205 248 288
#     4   9  14  21  32  52  84 120 149 175 220 278
#
# _framework density 22.940736999999999
#
# number of rings (size 3 to 8) (size 9 to 14) (size 15 to 20)
#    0.000    2.875    1.250    0.375    3.500    2.000 
#    0.000    0.000    0.000    0.000    0.000    0.000 
#    0.000    3.500    0.000    0.250    0.000    0.125 
#
# Total GULP energy -178620.057954 kJ/mol
# GULP energy per Si atom -5581.876811 kJ/mol
# Density = 2.288852 g / cm^3
# Si number density = 22.940737 Si / 1000 Ang^3
#
#
#
# Elastic Constant Matrix: (Units=GPa)
#
#
# Indices 1 2 3 4 5 6 
#
# 1 165.0491 -4.2716 62.1702 0.0000 7.5800 0.0000
# 2 -4.2716 97.2793 -0.4215 0.0000 1.3877 0.0000
# 3 62.1702 -0.4215 127.5431 0.0000 26.3569 0.0000
# 4 0.0000 0.0000 0.0000 -8.5415 0.0000 0.2302
# 5 7.5800 1.3877 26.3569 0.0000 27.4168 0.0000
# 6 0.0000 0.0000 0.0000 0.2302 0.0000 -10.6342
#
#
#
# Elastic Compliance Matrix: (Units=1/GPa)
#
#
# Indices 1 2 3 4 5 6 
#
# 1 0.007500 0.000287 -0.004022 0.000000 0.001779 0.000000
# 2 0.000287 0.010301 0.000023 0.000000 -0.000623 0.000000
# 3 -0.004022 0.000023 0.011945 0.000000 -0.010372 0.000000
# 4 0.000000 0.000000 0.000000 -0.117143 0.000000 -0.002535
# 5 0.001779 -0.000623 -0.010372 0.000000 0.045985 0.000000
# 6 0.000000 0.000000 0.000000 -0.002535 0.000000 -0.094091
#
#
# Mechanical properties :
#
#
# Convention : Reuss Voigt Hill
#
# Bulk Modulus (GPa) = 44.80278 56.09175 50.44726
# Shear Modulus (GPa) = -41.44603 23.80784 -8.81909
#
# Velocity S-wave (km/s) = -4.25509 3.22498 -1.96281
# Velocity P-wave (km/s) = 2.13749 6.19444 4.11110
#
# Compressibility (1/GPa) = 0.02232004
#
# Stress axis : x y z
#
# Youngs Moduli (GPa) = 133.33982 97.07565 83.71998
#
# Poissons Ratio (x) = -0.02781 0.33675
# Poissons Ratio (y) = -0.03820 -0.00193
# Poissons Ratio (z) = 0.53633 -0.00224
#
# Static dielectric constant tensor:
#      x y z
#    x 1.816700 0.000000 0.005420 
#    y 0.000000 2.209590 0.000000 
#    z 0.005420 0.000000 1.828100 
# 
# From -- ./inp_files/182071.got.cif
#   From: 2010.05.17/outbox.cif.g08.bks.cpg/sg12_92_cif.got.tgz:182071.got - 2010.06.03 13:09:07.
