data_PCOD9213287
_publ_section_title
;
Structure prediction by ZEFSAII (Michael W. Deem and Ramdas Pophale) SiO2 
 PCOD9213287
Probable space group: C 2/M
;
_chemical_formula_sum "Si O2"
_cell_formula_units_Z 64
_cell_length_a 14.552908
_cell_length_b 21.515101
_cell_length_c 14.281892
_cell_angle_alpha 90.000000
_cell_angle_beta 142.589804
_cell_angle_gamma 90.000000
_cell_volume 2716.673805
_symmetry_space_group_name_H-M "C 2/M"
_symmetry_group_IT_number 12
_symmetry_cell_setting 'monoclinic'
loop_
_space_group_symop_operation_xyz
x,y,z
-x,y,-z
-x,-y,-z
x,-y,z
1/2+x,1/2+y,z
1/2-x,1/2+y,-z
1/2-x,1/2-y,-z
1/2+x,1/2-y,z
loop_
_atom_site_type_symbol
_atom_site_label
_atom_site_fract_x
_atom_site_fract_y
_atom_site_fract_z
Si Si1 0.395421 0.399375 0.627293
Si Si2 0.167459 0.883492 0.622207
Si Si3 0.349454 0.074440 0.160094
Si Si4 0.260411 0.430291 0.125453
Si Si5 0.390940 0.114719 0.498921
Si Si6 0.737710 0.246074 0.657119
Si Si7 0.715377 0.693828 0.106919
Si Si8 0.986450 0.235228 0.231571
O O1 0.299024 0.408508 0.454155
O O2 0.560285 0.431140 0.757574
O O3 0.280267 0.410135 0.620334
O O4 0.450937 0.327485 0.671112
O O5 0.259424 0.899308 0.789838
O O6 0.156724 0.809405 0.615052
O O7 0.000000 0.910802 0.500000
O O8 0.509656 0.092436 0.333275
O O9 0.233620 0.119321 0.122140
O O10 0.323251 0.000000 0.144533
O O11 0.327755 0.096672 0.034979
O O12 0.206705 0.500000 0.092787
O O13 0.500000 0.095792 0.500000
O O14 0.360929 0.188796 0.461734
O O15 0.813487 0.219058 0.813035
O O16 0.864057 0.267523 0.685401
O O17 0.874578 0.725076 0.204108
O O18 0.603797 0.714087 0.934491
#
# Coordination Sequence:
#
# PCOD9213287 Si02
#       8
#     8   8   8   8   8   8   8   8
#     4  10  22  40  65 100 133 169 220 270 325 398
#     4  10  22  37  63 101 136 165 214 267 332 397
#     4  11  25  44  69  94 128 178 227 270 326 390
#     4  10  22  46  71  94 129 175 224 275 326 389
#     4  11  24  42  65  96 132 177 216 271 332 385
#     4  11  23  38  62 101 136 170 216 269 330 403
#     4  11  21  41  66  93 134 175 214 278 333 382
#     4  10  23  37  66  99 132 172 218 267 336 398
#
# _framework density 23.558219000000001
#
# number of rings (size 3 to 8) (size 9 to 14) (size 15 to 20)
#    0.000    1.500    2.500    2.250    5.250    4.000 
#    0.000    1.250    0.000    4.500    0.000    0.000 
#    0.000    0.000    0.000    0.000    0.000    0.000 
#
# Total GULP energy -178604.732579 kJ/mol
# GULP energy per Si atom -5581.397893 kJ/mol
# Density = 2.350460 g / cm^3
# Si number density = 23.558219 Si / 1000 Ang^3
#
#
#
# Elastic Constant Matrix: (Units=GPa)
#
#
# Indices 1 2 3 4 5 6 
#
# 1 115.4199 14.2392 26.1305 0.0000 -7.8253 0.0000
# 2 14.2392 41.6758 2.6340 0.0000 -4.3575 0.0000
# 3 26.1305 2.6340 121.5413 0.0000 -30.6191 0.0000
# 4 0.0000 0.0000 0.0000 -4.8025 0.0000 35.7639
# 5 -7.8253 -4.3575 -30.6191 0.0000 31.0279 0.0000
# 6 0.0000 0.0000 0.0000 35.7639 0.0000 -69.8810
#
#
#
# Elastic Compliance Matrix: (Units=1/GPa)
#
#
# Indices 1 2 3 4 5 6 
#
# 1 0.009496 -0.003119 -0.001971 0.000000 0.000012 0.000000
# 2 -0.003119 0.025395 0.001092 0.000000 0.003857 0.000000
# 3 -0.001971 0.001092 0.011367 0.000000 0.010874 0.000000
# 4 0.000000 0.000000 0.000000 0.074069 0.000000 0.037907
# 5 0.000012 0.003857 0.010874 0.000000 0.043504 0.000000
# 6 0.000000 0.000000 0.000000 0.037907 0.000000 0.005090
#
#
# Mechanical properties :
#
#
# Convention : Reuss Voigt Hill
#
# Bulk Modulus (GPa) = 26.13547 40.51604 33.32576
# Shear Modulus (GPa) = 26.36152 6.97777 16.66965
#
# Velocity S-wave (km/s) = 3.34877 1.72289 2.66295
# Velocity P-wave (km/s) = 5.10592 4.60363 4.86127
#
# Compressibility (1/GPa) = 0.03826217
#
# Stress axis : x y z
#
# Youngs Moduli (GPa) = 105.31003 39.37851 87.97376
#
# Poissons Ratio (x) = 0.12280 0.17339
# Poissons Ratio (y) = 0.32842 -0.09606
# Poissons Ratio (z) = 0.20756 -0.04300
#
# Static dielectric constant tensor:
#      x y z
#    x 1.928560 0.000000 -0.034250 
#    y 0.000000 1.878630 0.000000 
#    z -0.034250 0.000000 1.939930 
# 
# From -- ./inp_files/218508.got.cif
#   From: 2010.05.17/outbox.cif.g08.bks.cpg/sg12_110_cif.got.tgz:218508.got - 2010.06.03 13:09:07.
