data_PCOD9213472
_publ_section_title
;
Structure prediction by ZEFSAII (Michael W. Deem and Ramdas Pophale) SiO2 
 PCOD9213472
Probable space group: C 2/M
;
_chemical_formula_sum "Si O2"
_cell_formula_units_Z 34
_cell_length_a 17.416724
_cell_length_b 9.409678
_cell_length_c 15.917585
_cell_angle_alpha 90.000000
_cell_angle_beta 35.403199
_cell_angle_gamma 90.000000
_cell_volume 1511.269582
_symmetry_space_group_name_H-M "C 2/M"
_symmetry_group_IT_number 12
_symmetry_cell_setting 'monoclinic'
loop_
_space_group_symop_operation_xyz
x,y,z
-x,y,-z
-x,-y,-z
x,-y,z
1/2+x,1/2+y,z
1/2-x,1/2+y,-z
1/2-x,1/2-y,-z
1/2+x,1/2-y,z
loop_
_atom_site_type_symbol
_atom_site_label
_atom_site_fract_x
_atom_site_fract_y
_atom_site_fract_z
Si Si1 0.116196 0.000000 0.485277
Si Si2 0.078980 0.500000 0.113473
Si Si3 0.500000 0.500000 0.000000
Si Si4 0.957507 0.500000 0.664605
Si Si5 0.478261 0.694960 0.182933
Si Si6 0.128617 0.000000 0.171900
Si Si7 0.000000 0.746350 0.500000
Si Si8 0.239856 0.000000 0.548791
O O1 0.972826 0.000000 0.660613
O O2 0.110196 0.146110 0.438738
O O3 0.221118 0.000000 0.466025
O O4 0.996265 0.361083 0.166528
O O5 0.115024 0.500000 0.181555
O O6 0.219010 0.500000 0.941179
O O7 0.497334 0.622132 0.076633
O O8 0.938218 0.359901 0.624832
O O9 0.112038 0.500000 0.551937
O O10 0.588023 0.633831 0.150259
O O11 0.340447 0.635401 0.343535
#
# Coordination Sequence:
#
# PCOD9213472 Si02
#       8
#     4   4   2   4   8   4   4   4
#     4   9  19  41  64  84 121 160 207 249 303 370
#     4  12  22  35  62  94 118 153 207 247 288 373
#     4   8  18  42  54  76 120 152 188 240 300 350
#     4  11  23  40  59  93 125 158 207 255 304 360
#     4   9  20  38  61  86 115 162 199 245 301 350
#     4   9  19  39  60  88 116 162 193 238 309 364
#     4  10  22  38  58  94 124 154 200 262 312 344
#     4   9  20  42  64  78 119 174 208 240 303 375
#
# _framework density 22.497641000000002
#
# number of rings (size 3 to 8) (size 9 to 14) (size 15 to 20)
#    0.000    2.824    0.000    3.529    0.000    4.235 
#   25.412    1.176    0.000    0.000    0.000    0.000 
#    0.000    0.000    0.000    0.000    0.000    0.000 
#
# Total GULP energy -94808.802249 kJ/mol
# GULP energy per Si atom -5576.988368 kJ/mol
# Density = 2.244644 g / cm^3
# Si number density = 22.497641 Si / 1000 Ang^3
#
#
#
# Elastic Constant Matrix: (Units=GPa)
#
#
# Indices 1 2 3 4 5 6 
#
# 1 96.1335 58.7392 32.7457 0.0000 25.0601 0.0000
# 2 58.7392 213.3904 29.5263 0.0000 10.7021 0.0000
# 3 32.7457 29.5263 63.3430 0.0000 -11.4607 0.0000
# 4 0.0000 0.0000 0.0000 0.2174 0.0000 -8.6806
# 5 25.0601 10.7021 -11.4607 0.0000 43.3905 0.0000
# 6 0.0000 0.0000 0.0000 -8.6806 0.0000 3.1640
#
#
#
# Elastic Compliance Matrix: (Units=1/GPa)
#
#
# Indices 1 2 3 4 5 6 
#
# 1 0.019663 -0.003197 -0.011118 0.000000 -0.013505 0.000000
# 2 -0.003197 0.005690 -0.000966 0.000000 0.000188 0.000000
# 3 -0.011118 -0.000966 0.024354 0.000000 0.013092 0.000000
# 4 0.000000 0.000000 0.000000 -0.042375 0.000000 -0.116260
# 5 -0.013505 0.000188 0.013092 0.000000 0.034258 0.000000
# 6 0.000000 0.000000 0.000000 -0.116260 0.000000 -0.002911
#
#
# Mechanical properties :
#
#
# Convention : Reuss Voigt Hill
#
# Bulk Modulus (GPa) = 52.23221 68.32103 60.27662
# Shear Modulus (GPa) = 66.11809 26.14476 46.13142
#
# Velocity S-wave (km/s) = 5.42703 3.41267 4.53316
# Velocity P-wave (km/s) = 7.90806 6.77956 7.36546
#
# Compressibility (1/GPa) = 0.01914527
#
# Stress axis : x y z
#
# Youngs Moduli (GPa) = 50.85667 175.73220 41.06143
#
# Poissons Ratio (x) = 0.56180 0.45653
# Poissons Ratio (y) = 0.16258 0.03966
# Poissons Ratio (z) = 0.56544 0.16974
#
# Static dielectric constant tensor:
#      x y z
#    x 1.818560 0.000000 0.021930 
#    y 0.000000 1.843290 0.000000 
#    z 0.021930 0.000000 1.834450 
# 
# From -- ./inp_files/282020.got.cif
#   From: 2010.05.17/outbox.cif.g08.bks.cpg/sg12_142_cif.got.tgz:282020.got - 2010.06.03 13:09:07.
