data_PCOD9213042
_publ_section_title
;
Structure prediction by ZEFSAII (Michael W. Deem and Ramdas Pophale) SiO2 
 PCOD9213042
Probable space group: C 2/M
;
_chemical_formula_sum "Si O2"
_cell_formula_units_Z 42
_cell_length_a 20.463501
_cell_length_b 11.978337
_cell_length_c 20.800488
_cell_angle_alpha 90.000000
_cell_angle_beta 154.851660
_cell_angle_gamma 90.000000
_cell_volume 2166.713090
_symmetry_space_group_name_H-M "C 2/M"
_symmetry_group_IT_number 12
_symmetry_cell_setting 'monoclinic'
loop_
_space_group_symop_operation_xyz
x,y,z
-x,y,-z
-x,-y,-z
x,-y,z
1/2+x,1/2+y,z
1/2-x,1/2+y,-z
1/2-x,1/2-y,-z
1/2+x,1/2-y,z
loop_
_atom_site_type_symbol
_atom_site_label
_atom_site_fract_x
_atom_site_fract_y
_atom_site_fract_z
Si Si1 0.650068 0.776676 0.004927
Si Si2 0.347277 0.873985 0.782968
Si Si3 0.000000 0.500000 0.500000
Si Si4 0.409424 0.370680 0.545329
Si Si5 0.664915 0.789156 0.713938
Si Si6 0.556098 0.370796 0.804800
O O1 0.526014 0.850884 0.931374
O O2 0.562136 0.705944 0.872511
O O3 0.737637 0.697786 0.133704
O O4 0.781898 0.849262 0.087626
O O5 0.257707 0.865168 0.635049
O O6 0.271440 0.781766 0.760746
O O7 0.320993 0.000000 0.783973
O O8 0.897507 0.401388 0.372711
O O9 0.462445 0.500000 0.586066
O O10 0.521043 0.289702 0.605190
O O11 0.427500 0.342795 0.636703
O O12 0.540535 0.500000 0.808705
#
# Coordination Sequence:
#
# PCOD9213042 Si02
#       6
#     8   8   2   8   8   8
#     4  10  22  36  58  88 115 149 198 244 292 346
#     4  11  21  37  62  93 119 146 191 249 300 339
#     4  12  24  40  60  80 124 168 198 226 276 370
#     4   9  18  36  63  85 114 149 195 242 287 345
#     4  11  22  39  58  85 118 158 197 235 289 348
#     4   9  19  38  57  80 114 157 195 238 290 345
#
# _framework density 19.384201000000001
#
# number of rings (size 3 to 8) (size 9 to 14) (size 15 to 20)
#    0.000    1.905    1.905    1.714    1.333    5.333 
#    1.714    0.952    0.000    0.000    0.000    0.000 
#    0.000    0.000    0.000    0.000    0.000    0.000 
#
# Total GULP energy -116937.395588 kJ/mol
# GULP energy per Si atom -5568.447409 kJ/mol
# Density = 1.934008 g / cm^3
# Si number density = 19.384201 Si / 1000 Ang^3
#
#
#
# Elastic Constant Matrix: (Units=GPa)
#
#
# Indices 1 2 3 4 5 6 
#
# 1 39.6028 34.5630 22.4533 -0.0002 -15.5659 0.0000
# 2 34.5630 108.2744 30.5136 -0.0001 -10.6451 0.0000
# 3 22.4533 30.5136 69.0210 -0.0003 -13.2124 -0.0001
# 4 -0.0002 -0.0001 -0.0003 26.9037 0.0001 -7.5322
# 5 -15.5659 -10.6451 -13.2124 0.0001 23.4003 0.0001
# 6 0.0000 0.0000 -0.0001 -7.5322 0.0001 9.3596
#
#
#
# Elastic Compliance Matrix: (Units=1/GPa)
#
#
# Indices 1 2 3 4 5 6 
#
# 1 0.047554 -0.011190 -0.006102 0.000000 0.023098 0.000000
# 2 -0.011190 0.013308 -0.002813 0.000000 -0.002978 0.000000
# 3 -0.006102 -0.002813 0.018718 0.000000 0.005230 0.000000
# 4 0.000000 0.000000 0.000000 0.047980 0.000000 0.038613
# 5 0.023098 -0.002978 0.005230 0.000000 0.059698 -0.000001
# 6 0.000000 0.000000 0.000000 0.038613 -0.000001 0.137917
#
#
# Mechanical properties :
#
#
# Convention : Reuss Voigt Hill
#
# Bulk Modulus (GPa) = 25.39916 43.55089 34.47503
# Shear Modulus (GPa) = 13.20979 20.55728 16.88354
#
# Velocity S-wave (km/s) = 2.61333 3.26009 2.95446
# Velocity P-wave (km/s) = 4.71566 6.05697 5.42791
#
# Compressibility (1/GPa) = 0.03937138
#
# Stress axis : x y z
#
# Youngs Moduli (GPa) = 21.02854 75.14401 53.42420
#
# Poissons Ratio (x) = 0.84084 0.32597
# Poissons Ratio (y) = 0.23530 0.15029
# Poissons Ratio (z) = 0.12831 0.21139
#
# Static dielectric constant tensor:
#      x y z
#    x 1.679430 0.000000 -0.043080 
#    y 0.000000 1.635090 0.000000 
#    z -0.043080 0.000000 1.701420 
# 
# From -- ./inp_files/84259.got.cif
#   From: 2010.05.17/outbox.cif.g08.bks.cpg/sg12_43_cif.got.tgz:84259.got - 2010.06.03 13:09:07.
