data_PCOD9213988
_publ_section_title
;
Structure prediction by ZEFSAII (Michael W. Deem and Ramdas Pophale) SiO2 
 PCOD9213988
Probable space group: C 2/M
;
_chemical_formula_sum "Si O2"
_cell_formula_units_Z 60
_cell_length_a 8.705465
_cell_length_b 19.679792
_cell_length_c 19.342355
_cell_angle_alpha 90.000000
_cell_angle_beta 116.931759
_cell_angle_gamma 90.000000
_cell_volume 2954.376770
_symmetry_space_group_name_H-M "C 2/M"
_symmetry_group_IT_number 12
_symmetry_cell_setting 'monoclinic'
loop_
_space_group_symop_operation_xyz
x,y,z
-x,y,-z
-x,-y,-z
x,-y,z
1/2+x,1/2+y,z
1/2-x,1/2+y,-z
1/2-x,1/2-y,-z
1/2+x,1/2-y,z
loop_
_atom_site_type_symbol
_atom_site_label
_atom_site_fract_x
_atom_site_fract_y
_atom_site_fract_z
Si Si1 0.000000 0.866673 0.000000
Si Si2 0.144465 0.577282 0.878981
Si Si3 0.539294 0.687073 0.858917
Si Si4 0.298881 0.417451 0.460724
Si Si5 0.736734 0.420899 0.398936
Si Si6 0.183719 0.920816 0.688401
Si Si7 0.359064 0.823077 0.834045
Si Si8 0.768735 0.081401 0.753534
O O1 0.164058 0.911947 0.053490
O O2 0.960969 0.821984 0.059089
O O3 0.089243 0.500000 0.878189
O O4 0.150817 0.591845 0.797298
O O5 0.020159 0.631149 0.888714
O O6 0.429974 0.753362 0.817371
O O7 0.729515 0.693644 0.868841
O O8 0.443053 0.621780 0.806918
O O9 0.500000 0.396720 0.500000
O O10 0.297323 0.500000 0.464696
O O11 0.214798 0.392093 0.515257
O O12 0.238497 0.402072 0.371120
O O13 0.790551 0.500000 0.410729
O O14 0.526109 0.418396 0.355464
O O15 0.794812 0.394998 0.335352
O O16 0.256006 0.869296 0.758727
O O17 0.227323 0.000000 0.711520
O O18 0.799983 0.000000 0.755735
#
# Coordination Sequence:
#
# PCOD9213988 Si02
#       8
#     4   8   8   8   8   8   8   8
#     4  10  23  46  66  84 113 140 174 228 283 342
#     4  10  22  39  61  88 115 146 182 226 281 336
#     4  11  24  39  60  84 111 149 187 228 278 337
#     4   7  11  20  41  79 118 145 180 226 276 323
#     4   8  12  23  49  84 115 147 184 227 277 330
#     4   9  16  29  52  85 118 147 185 235 277 323
#     4  12  24  39  58  83 114 150 190 231 275 331
#     4   9  17  33  57  85 115 146 185 233 280 331
#
# _framework density 20.308852999999999
#
# number of rings (size 3 to 8) (size 9 to 14) (size 15 to 20)
#    0.000    2.533    1.333    3.800    0.000    3.733 
#    0.000    0.667    0.000    1.600    0.000    4.667 
#    0.000    0.000    0.000    0.000    0.000    0.000 
#
# Total GULP energy -167267.024507 kJ/mol
# GULP energy per Si atom -5575.567484 kJ/mol
# Density = 2.026263 g / cm^3
# Si number density = 20.308853 Si / 1000 Ang^3
#
#
#
# Elastic Constant Matrix: (Units=GPa)
#
#
# Indices 1 2 3 4 5 6 
#
# 1 71.5455 31.4991 9.1424 0.0000 -14.6658 0.0000
# 2 31.4991 54.0925 20.0688 0.0000 -8.0978 0.0000
# 3 9.1424 20.0688 97.2196 0.0000 -21.9688 0.0000
# 4 0.0000 0.0000 0.0000 1.1528 0.0000 9.5299
# 5 -14.6658 -8.0978 -21.9688 0.0000 21.6818 0.0000
# 6 0.0000 0.0000 0.0000 9.5299 0.0000 18.3264
#
#
#
# Elastic Compliance Matrix: (Units=1/GPa)
#
#
# Indices 1 2 3 4 5 6 
#
# 1 0.021529 -0.011785 0.003507 0.000000 0.013714 0.000000
# 2 -0.011785 0.026780 -0.005137 0.000000 -0.003175 0.000000
# 3 0.003507 -0.005137 0.014421 0.000000 0.015065 0.000000
# 4 0.000000 0.000000 0.000000 -0.262962 0.000000 0.136743
# 5 0.013714 -0.003175 0.015065 0.000000 0.069477 0.000000
# 6 0.000000 0.000000 0.000000 0.136743 0.000000 -0.016542
#
#
# Mechanical properties :
#
#
# Convention : Reuss Voigt Hill
#
# Bulk Modulus (GPa) = 27.85500 38.25314 33.05407
# Shear Modulus (GPa) = -46.08245 19.04204 -13.52020
#
# Velocity S-wave (km/s) = -4.76866 3.06538 -2.58297
# Velocity P-wave (km/s) = 4.07120 5.60405 2.72312
#
# Compressibility (1/GPa) = 0.03590020
#
# Stress axis : x y z
#
# Youngs Moduli (GPa) = 46.44993 37.34140 69.34328
#
# Poissons Ratio (x) = 0.44005 -0.24320
# Poissons Ratio (y) = 0.54739 0.35623
# Poissons Ratio (z) = -0.16291 0.19183
#
# Static dielectric constant tensor:
#      x y z
#    x 1.766420 0.000000 -0.013740 
#    y 0.000000 1.673950 0.000000 
#    z -0.013740 0.000000 1.779860 
# 
# From -- ./inp_files/300830.got.cif
#   From: 2010.05.17/outbox.cif.g08.bks.cpg/sg12_151_cif.got.tgz:300830.got - 2010.06.03 13:09:07.
