data_PCOD9213853
_publ_section_title
;
Structure prediction by ZEFSAII (Michael W. Deem and Ramdas Pophale) SiO2 
 PCOD9213853
Probable space group: C 2/M
;
_chemical_formula_sum "Si O2"
_cell_formula_units_Z 56
_cell_length_a 21.511691
_cell_length_b 18.014145
_cell_length_c 17.995150
_cell_angle_alpha 90.000000
_cell_angle_beta 23.070650
_cell_angle_gamma 90.000000
_cell_volume 2732.631876
_symmetry_space_group_name_H-M "C 2/M"
_symmetry_group_IT_number 12
_symmetry_cell_setting 'monoclinic'
loop_
_space_group_symop_operation_xyz
x,y,z
-x,y,-z
-x,-y,-z
x,-y,z
1/2+x,1/2+y,z
1/2-x,1/2+y,-z
1/2-x,1/2-y,-z
1/2+x,1/2-y,z
loop_
_atom_site_type_symbol
_atom_site_label
_atom_site_fract_x
_atom_site_fract_y
_atom_site_fract_z
Si Si1 0.634485 0.294553 0.291821
Si Si2 0.398095 0.911525 0.037563
Si Si3 0.828560 0.085462 0.177064
Si Si4 0.938695 0.414346 0.421547
Si Si5 0.969926 0.805049 0.311557
Si Si6 0.376742 0.852353 0.339452
Si Si7 0.274019 0.353065 0.084868
O O1 0.500000 0.276691 0.500000
O O2 0.736144 0.364717 0.208193
O O3 0.551778 0.304117 0.302132
O O4 0.754119 0.225854 0.148034
O O5 0.369063 0.000000 0.067911
O O6 0.500000 0.894677 0.000000
O O7 0.503309 0.886645 0.851427
O O8 0.681218 0.118090 0.384850
O O9 0.799134 0.088387 0.122416
O O10 0.839207 0.000000 0.191999
O O11 0.000000 0.122035 0.000000
O O12 0.971374 0.500000 0.403677
O O13 0.857405 0.405887 0.431406
O O14 0.104825 0.372156 0.235653
O O15 0.794132 0.838470 0.508895
O O16 0.942392 0.724690 0.302742
O O17 0.087128 0.848895 0.127411
#
# Coordination Sequence:
#
# PCOD9213853 Si02
#       7
#     8   8   8   8   8   8   8
#     4  12  24  42  67  97 128 166 216 269 329 385
#     4  11  25  46  68  93 128 172 222 275 329 385
#     4  10  22  39  58  89 130 168 208 254 306 378
#     4  11  22  38  63  92 129 172 208 252 317 387
#     4  11  24  41  65  95 132 159 211 273 321 376
#     4  11  22  43  65  93 126 168 210 265 323 386
#     4  12  22  39  62  94 129 167 207 261 314 384
#
# _framework density 20.493062999999999
#
# number of rings (size 3 to 8) (size 9 to 14) (size 15 to 20)
#    0.000    0.857    2.857    5.143    0.000    2.000 
#    0.000    4.286    0.000    0.000    0.000    0.000 
#    0.000    0.000    0.000    0.000    0.000    0.000 
#
# Total GULP energy -156444.574032 kJ/mol
# GULP energy per Si atom -5587.306215 kJ/mol
# Density = 2.044642 g / cm^3
# Si number density = 20.493063 Si / 1000 Ang^3
#
#
#
# Elastic Constant Matrix: (Units=GPa)
#
#
# Indices 1 2 3 4 5 6 
#
# 1 92.0666 8.9975 9.9587 -0.0012 -1.0274 0.0005
# 2 8.9975 52.3150 5.7430 -0.0039 -15.3337 0.0041
# 3 9.9587 5.7430 72.9438 -0.0054 2.3195 0.0052
# 4 -0.0012 -0.0039 -0.0054 11.8174 0.0011 -5.8731
# 5 -1.0274 -15.3337 2.3195 0.0011 44.1538 -0.0009
# 6 0.0005 0.0041 0.0052 -5.8731 -0.0009 29.0088
#
#
#
# Elastic Compliance Matrix: (Units=1/GPa)
#
#
# Indices 1 2 3 4 5 6 
#
# 1 0.011189 -0.001866 -0.001371 0.000000 -0.000316 0.000000
# 2 -0.001866 0.021863 -0.001709 0.000005 0.007639 -0.000002
# 3 -0.001371 -0.001709 0.014074 0.000005 -0.001365 -0.000001
# 4 0.000000 0.000005 0.000005 0.094088 -0.000001 0.019049
# 5 -0.000316 0.007639 -0.001365 -0.000001 0.025365 0.000000
# 6 0.000000 -0.000002 -0.000001 0.019049 0.000000 0.038329
#
#
# Mechanical properties :
#
#
# Convention : Reuss Voigt Hill
#
# Bulk Modulus (GPa) = 26.85793 29.63596 28.24694
# Shear Modulus (GPa) = 22.00587 29.83774 25.92181
#
# Velocity S-wave (km/s) = 3.28048 3.81989 3.56041
# Velocity P-wave (km/s) = 5.24242 5.82651 5.54217
#
# Compressibility (1/GPa) = 0.03723296
#
# Stress axis : x y z
#
# Youngs Moduli (GPa) = 89.37477 45.74026 71.05159
#
# Poissons Ratio (x) = 0.08537 0.09738
# Poissons Ratio (y) = 0.16681 0.12145
# Poissons Ratio (z) = 0.12250 0.07819
#
# Static dielectric constant tensor:
#      x y z
#    x 1.792490 0.000000 -0.039290 
#    y 0.000000 1.767290 0.000000 
#    z -0.039290 0.000000 1.717620 
# 
# From -- ./inp_files/285998.got.cif
#   From: 2010.05.17/outbox.cif.g08.bks.cpg/sg12_143_cif.got.tgz:285998.got - 2010.06.03 13:09:07.
