data_PCOD9213800
_publ_section_title
;
Structure prediction by ZEFSAII (Michael W. Deem and Ramdas Pophale) SiO2 
 PCOD9213800
Probable space group: C 2/M
;
_chemical_formula_sum "Si O2"
_cell_formula_units_Z 56
_cell_length_a 10.786559
_cell_length_b 13.745193
_cell_length_c 23.875138
_cell_angle_alpha 90.000000
_cell_angle_beta 58.120341
_cell_angle_gamma 90.000000
_cell_volume 3005.860319
_symmetry_space_group_name_H-M "C 2/M"
_symmetry_group_IT_number 12
_symmetry_cell_setting 'monoclinic'
loop_
_space_group_symop_operation_xyz
x,y,z
-x,y,-z
-x,-y,-z
x,-y,z
1/2+x,1/2+y,z
1/2-x,1/2+y,-z
1/2-x,1/2-y,-z
1/2+x,1/2-y,z
loop_
_atom_site_type_symbol
_atom_site_label
_atom_site_fract_x
_atom_site_fract_y
_atom_site_fract_z
Si Si1 0.687626 0.387591 0.862517
Si Si2 0.100345 0.890269 0.343823
Si Si3 0.648636 0.111470 0.622570
Si Si4 0.418394 0.242918 0.742694
Si Si5 0.121449 0.881394 0.515076
Si Si6 0.829327 0.731159 0.040583
Si Si7 0.421406 0.386802 0.841256
O O1 0.725593 0.500000 0.860835
O O2 0.808622 0.332075 0.797334
O O3 0.675065 0.331769 0.923831
O O4 0.537156 0.380569 0.864077
O O5 0.214734 0.893423 0.367281
O O6 0.153547 0.815723 0.284856
O O7 0.944173 0.860369 0.408225
O O8 0.087280 0.000000 0.324542
O O9 0.534929 0.181383 0.679641
O O10 0.719756 0.146161 0.546571
O O11 0.592974 0.000000 0.629488
O O12 0.472625 0.315469 0.778920
O O13 0.000000 0.844088 0.500000
O O14 0.120408 0.000000 0.511896
O O15 0.731668 0.654426 0.098861
O O16 0.750000 0.750000 0.000000
O O17 0.000000 0.701288 0.000000
O O18 0.411303 0.500000 0.826466
#
# Coordination Sequence:
#
# PCOD9213800 Si02
#       7
#     8   8   8   8   8   8   8
#     4  10  22  39  58  80 113 154 184 212 267 335
#     4   9  17  30  48  70 100 136 175 225 285 331
#     4   9  17  30  48  70  99 135 178 228 277 327
#     4  11  20  31  52  78 105 138 185 232 266 315
#     4   7  12  25  44  66  94 131 173 220 278 337
#     4  11  22  40  67  94 116 141 181 226 266 317
#     4  10  22  39  57  80 115 151 182 219 269 327
#
# _framework density 18.630275000000001
#
# number of rings (size 3 to 8) (size 9 to 14) (size 15 to 20)
#    0.000    2.429    1.429    3.429    0.000    1.714 
#    0.000    0.000    0.000    0.000    0.000    0.000 
#    0.000   18.286    0.000    0.000    0.000    0.000 
#
# Total GULP energy -155965.889808 kJ/mol
# GULP energy per Si atom -5570.210350 kJ/mol
# Density = 1.858787 g / cm^3
# Si number density = 18.630275 Si / 1000 Ang^3
#
#
#
# Elastic Constant Matrix: (Units=GPa)
#
#
# Indices 1 2 3 4 5 6 
#
# 1 36.8007 20.9355 4.3446 0.0000 -3.2007 0.0000
# 2 20.9355 111.9869 31.2529 0.0000 -8.7603 0.0000
# 3 4.3446 31.2529 54.0924 0.0000 -13.1838 0.0000
# 4 0.0000 0.0000 0.0000 25.8690 0.0000 3.5252
# 5 -3.2007 -8.7603 -13.1838 0.0000 26.0529 0.0000
# 6 0.0000 0.0000 0.0000 3.5252 0.0000 19.5997
#
#
#
# Elastic Compliance Matrix: (Units=1/GPa)
#
#
# Indices 1 2 3 4 5 6 
#
# 1 0.030603 -0.005972 0.001619 0.000000 0.002571 0.000000
# 2 -0.005972 0.011818 -0.006341 0.000000 0.000031 0.000000
# 3 0.001619 -0.006341 0.024581 0.000000 0.010506 0.000000
# 4 0.000000 0.000000 0.000000 0.039628 0.000000 -0.007127
# 5 0.002571 0.000031 0.010506 0.000000 0.044026 0.000000
# 6 0.000000 0.000000 0.000000 -0.007127 0.000000 0.052303
#
#
# Mechanical properties :
#
#
# Convention : Reuss Voigt Hill
#
# Bulk Modulus (GPa) = 21.92271 35.10510 28.51391
# Shear Modulus (GPa) = 20.87238 24.06079 22.46659
#
# Velocity S-wave (km/s) = 3.35079 3.59763 3.47640
# Velocity P-wave (km/s) = 5.17332 6.01175 5.60822
#
# Compressibility (1/GPa) = 0.04561479
#
# Stress axis : x y z
#
# Youngs Moduli (GPa) = 32.67638 84.61630 40.68198
#
# Poissons Ratio (x) = 0.50531 -0.06586
# Poissons Ratio (y) = 0.19514 0.25796
# Poissons Ratio (z) = -0.05290 0.53653
#
# Static dielectric constant tensor:
#      x y z
#    x 1.637410 0.000000 -0.008100 
#    y 0.000000 1.642410 0.000000 
#    z -0.008100 0.000000 1.682290 
# 
# From -- ./inp_files/357755.got.cif
#   From: 2010.05.17/outbox.cif.g08.bks.cpg/sg12_179_cif.got.tgz:357755.got - 2010.06.03 13:09:07.
