data_PCOD9213480
_publ_section_title
;
Structure prediction by ZEFSAII (Michael W. Deem and Ramdas Pophale) SiO2 
 PCOD9213480
Probable space group: C 2/M
;
_chemical_formula_sum "Si O2"
_cell_formula_units_Z 48
_cell_length_a 28.770528
_cell_length_b 9.229530
_cell_length_c 13.690477
_cell_angle_alpha 90.000000
_cell_angle_beta 142.392843
_cell_angle_gamma 90.000000
_cell_volume 2218.449802
_symmetry_space_group_name_H-M "C 2/M"
_symmetry_group_IT_number 12
_symmetry_cell_setting 'monoclinic'
loop_
_space_group_symop_operation_xyz
x,y,z
-x,y,-z
-x,-y,-z
x,-y,z
1/2+x,1/2+y,z
1/2-x,1/2+y,-z
1/2-x,1/2-y,-z
1/2+x,1/2-y,z
loop_
_atom_site_type_symbol
_atom_site_label
_atom_site_fract_x
_atom_site_fract_y
_atom_site_fract_z
Si Si1 0.484221 0.841870 0.841276
Si Si2 0.614369 0.168580 0.658560
Si Si3 0.310763 0.173331 0.530941
Si Si4 0.766250 0.173584 0.257444
Si Si5 0.974229 0.265456 0.301347
Si Si6 0.612332 0.657756 0.011905
O O1 0.396403 0.810346 0.714368
O O2 0.493644 0.850016 0.738869
O O3 0.507111 0.000000 0.914763
O O4 0.545060 0.718927 0.968526
O O5 0.692482 0.250047 0.765709
O O6 0.585177 0.167018 0.721221
O O7 0.549553 0.258176 0.491233
O O8 0.616228 0.000000 0.628650
O O9 0.250000 0.250000 0.500000
O O10 0.305060 0.254622 0.417625
O O11 0.297177 0.000000 0.498984
O O12 0.679043 0.225322 0.117654
O O13 0.772969 0.000000 0.267508
O O14 0.926410 0.149415 0.160044
O O15 0.640648 0.500000 0.088725
#
# Coordination Sequence:
#
# PCOD9213480 Si02
#       6
#     8   8   8   8   8   8
#     4   9  18  37  62  86 116 155 192 236 291 350
#     4  11  20  35  61  88 120 160 203 244 291 349
#     4  11  23  42  68  93 121 151 192 241 296 356
#     4  12  25  39  59  87 122 158 199 247 295 348
#     4   9  20  34  62  87 118 158 204 239 291 351
#     4  10  22  38  59  84 120 161 199 245 297 347
#
# _framework density 21.636731000000001
#
# number of rings (size 3 to 8) (size 9 to 14) (size 15 to 20)
#    1.000    0.667    1.667    4.500    0.000    4.667 
#    0.000    2.500    0.000    5.000    0.000    0.000 
#    0.000    0.000    0.000    0.000    0.000    0.000 
#
# Total GULP energy -133658.221165 kJ/mol
# GULP energy per Si atom -5569.092549 kJ/mol
# Density = 2.158748 g / cm^3
# Si number density = 21.636731 Si / 1000 Ang^3
#
#
#
# Elastic Constant Matrix: (Units=GPa)
#
#
# Indices 1 2 3 4 5 6 
#
# 1 129.9893 43.1259 17.8416 0.0000 17.0159 0.0000
# 2 43.1259 120.4753 42.1710 0.0000 21.6623 0.0000
# 3 17.8416 42.1710 46.7996 0.0000 7.3427 0.0000
# 4 0.0000 0.0000 0.0000 29.3025 0.0000 2.7537
# 5 17.0159 21.6623 7.3427 0.0000 42.5241 0.0000
# 6 0.0000 0.0000 0.0000 2.7537 0.0000 2.0515
#
#
#
# Elastic Compliance Matrix: (Units=1/GPa)
#
#
# Indices 1 2 3 4 5 6 
#
# 1 0.008922 -0.002535 -0.000781 0.000000 -0.002144 0.000000
# 2 -0.002535 0.013707 -0.010739 0.000000 -0.004114 0.000000
# 3 -0.000781 -0.010739 0.031283 0.000000 0.000382 0.000000
# 4 0.000000 0.000000 0.000000 0.039053 0.000000 -0.052419
# 5 -0.002144 -0.004114 0.000382 0.000000 0.026404 0.000000
# 6 0.000000 0.000000 0.000000 -0.052419 0.000000 0.557798
#
#
# Mechanical properties :
#
#
# Convention : Reuss Voigt Hill
#
# Bulk Modulus (GPa) = 38.75779 55.94904 47.35342
# Shear Modulus (GPa) = 7.00403 27.71734 17.36068
#
# Velocity S-wave (km/s) = 1.80115 3.58303 2.83569
# Velocity P-wave (km/s) = 4.71989 6.55988 5.71443
#
# Compressibility (1/GPa) = 0.02580126
#
# Stress axis : x y z
#
# Youngs Moduli (GPa) = 112.08594 72.95707 31.96669
#
# Poissons Ratio (x) = 0.18494 0.02496
# Poissons Ratio (y) = 0.28413 0.34330
# Poissons Ratio (z) = 0.08751 0.78350
#
# Static dielectric constant tensor:
#      x y z
#    x 1.811870 0.000000 -0.021890 
#    y 0.000000 1.755200 0.000000 
#    z -0.021890 0.000000 1.827230 
# 
# From -- ./inp_files/249380.got.cif
#   From: 2010.05.17/outbox.cif.g08.bks.cpg/sg12_125_cif.got.tgz:249380.got - 2010.06.03 13:09:07.
