data_PCOD9213673
_publ_section_title
;
Structure prediction by ZEFSAII (Michael W. Deem and Ramdas Pophale) SiO2 
 PCOD9213673
Probable space group: C 2/M
;
_chemical_formula_sum "Si O2"
_cell_formula_units_Z 56
_cell_length_a 9.944762
_cell_length_b 21.873423
_cell_length_c 20.537655
_cell_angle_alpha 90.000000
_cell_angle_beta 137.009740
_cell_angle_gamma 90.000000
_cell_volume 3046.254234
_symmetry_space_group_name_H-M "C 2/M"
_symmetry_group_IT_number 12
_symmetry_cell_setting 'monoclinic'
loop_
_space_group_symop_operation_xyz
x,y,z
-x,y,-z
-x,-y,-z
x,-y,z
1/2+x,1/2+y,z
1/2-x,1/2+y,-z
1/2-x,1/2-y,-z
1/2+x,1/2-y,z
loop_
_atom_site_type_symbol
_atom_site_label
_atom_site_fract_x
_atom_site_fract_y
_atom_site_fract_z
Si Si1 0.523036 0.627873 0.672037
Si Si2 0.941146 0.193155 0.775974
Si Si3 0.175898 0.310387 0.011139
Si Si4 0.175437 0.000000 0.387686
Si Si5 0.677122 0.693406 0.515796
Si Si6 0.999872 0.500000 0.388729
Si Si7 0.438214 0.871549 0.295230
Si Si8 0.027420 0.660292 0.187763
O O1 0.462913 0.674699 0.708307
O O2 0.454327 0.560379 0.665719
O O3 0.410453 0.645382 0.566326
O O4 0.754690 0.633365 0.741977
O O5 0.743284 0.163395 0.734727
O O6 0.946355 0.266453 0.789002
O O7 0.134068 0.166988 0.881760
O O8 0.250000 0.250000 0.000000
O O9 0.000000 0.297170 0.000000
O O10 0.086770 0.349424 0.920519
O O11 0.337595 0.000000 0.388355
O O12 0.292649 0.000000 0.498380
O O13 0.500000 0.712490 0.500000
O O14 0.750000 0.750000 0.500000
O O15 0.860253 0.664869 0.618511
O O16 0.967948 0.439079 0.334902
O O17 0.415242 0.868425 0.209389
#
# Coordination Sequence:
#
# PCOD9213673 Si02
#       8
#     8   8   8   4   8   4   8   8
#     4  12  23  41  64  91 126 171 212 259 312 379
#     4  11  23  40  67  96 132 166 207 262 324 390
#     4  10  22  38  63  96 133 167 206 258 321 393
#     4  11  24  43  65  86 124 175 228 257 310 373
#     4  12  26  40  59  95 133 167 204 260 325 383
#     4  11  24  45  61  88 125 174 228 259 307 376
#     4  12  25  41  64  92 129 171 213 266 311 381
#     4  11  23  40  63  99 131 161 209 260 331 377
#
# _framework density 18.383233000000001
#
# number of rings (size 3 to 8) (size 9 to 14) (size 15 to 20)
#    0.000    0.714    5.714    2.571    8.000    0.571 
#    0.000    1.429    0.000    5.143    0.000    0.000 
#    0.000    0.000    0.000    0.000    0.000    0.000 
#
# Total GULP energy -156456.542635 kJ/mol
# GULP energy per Si atom -5587.733666 kJ/mol
# Density = 1.834139 g / cm^3
# Si number density = 18.383233 Si / 1000 Ang^3
#
#
#
# Elastic Constant Matrix: (Units=GPa)
#
#
# Indices 1 2 3 4 5 6 
#
# 1 123.2822 19.9302 26.4418 0.0000 -5.6982 0.0000
# 2 19.9302 86.7300 9.0055 0.0000 1.4237 0.0000
# 3 26.4418 9.0055 94.0020 0.0001 -1.9849 0.0001
# 4 0.0000 0.0000 0.0001 5.9615 0.0000 -2.5843
# 5 -5.6982 1.4237 -1.9849 0.0000 36.7302 0.0000
# 6 0.0000 0.0000 0.0001 -2.5843 0.0000 24.9878
#
#
#
# Elastic Compliance Matrix: (Units=1/GPa)
#
#
# Indices 1 2 3 4 5 6 
#
# 1 0.008968 -0.001842 -0.002318 0.000000 0.001337 0.000000
# 2 -0.001842 0.012034 -0.000651 0.000000 -0.000787 0.000000
# 3 -0.002318 -0.000651 0.011358 0.000000 0.000279 0.000000
# 4 0.000000 0.000000 0.000000 0.175615 0.000000 0.018163
# 5 0.001337 -0.000787 0.000279 0.000000 0.027479 0.000000
# 6 0.000000 0.000000 0.000000 0.018163 0.000000 0.041898
#
#
# Mechanical properties :
#
#
# Convention : Reuss Voigt Hill
#
# Bulk Modulus (GPa) = 43.97979 46.08548 45.03263
# Shear Modulus (GPa) = 16.97479 30.11168 23.54323
#
# Velocity S-wave (km/s) = 3.04202 4.05161 3.58256
# Velocity P-wave (km/s) = 6.02614 6.85646 6.45467
#
# Compressibility (1/GPa) = 0.02273772
#
# Stress axis : x y z
#
# Youngs Moduli (GPa) = 111.50440 83.09857 88.04063
#
# Poissons Ratio (x) = 0.15308 0.20407
# Poissons Ratio (y) = 0.20541 0.05734
# Poissons Ratio (z) = 0.25846 0.05412
#
# Static dielectric constant tensor:
#      x y z
#    x 1.618740 0.000000 -0.015460 
#    y 0.000000 1.474780 0.000000 
#    z -0.015460 0.000000 1.677410 
# 
# From -- ./inp_files/302170.got.cif
#   From: 2010.05.17/outbox.cif.g08.bks.cpg/sg12_152_cif.got.tgz:302170.got - 2010.06.03 13:09:07.
