data_PCOD9213079
_publ_section_title
;
Structure prediction by ZEFSAII (Michael W. Deem and Ramdas Pophale) SiO2 
 PCOD9213079
Probable space group: C 2/M
;
_chemical_formula_sum "Si O2"
_cell_formula_units_Z 56
_cell_length_a 9.353956
_cell_length_b 14.244314
_cell_length_c 22.995063
_cell_angle_alpha 90.000000
_cell_angle_beta 125.981985
_cell_angle_gamma 90.000000
_cell_volume 2479.295472
_symmetry_space_group_name_H-M "C 2/M"
_symmetry_group_IT_number 12
_symmetry_cell_setting 'monoclinic'
loop_
_space_group_symop_operation_xyz
x,y,z
-x,y,-z
-x,-y,-z
x,-y,z
1/2+x,1/2+y,z
1/2-x,1/2+y,-z
1/2-x,1/2-y,-z
1/2+x,1/2-y,z
loop_
_atom_site_type_symbol
_atom_site_label
_atom_site_fract_x
_atom_site_fract_y
_atom_site_fract_z
Si Si1 0.037001 0.100929 0.741052
Si Si2 0.149343 0.113772 0.585068
Si Si3 0.637435 0.897234 0.764716
Si Si4 0.050561 0.354482 0.166929
Si Si5 0.340585 0.850359 0.007809
Si Si6 0.017226 0.254116 0.355120
Si Si7 0.998377 0.865016 0.137109
O O1 0.243765 0.128172 0.794549
O O2 0.928528 0.177792 0.680402
O O3 0.983147 0.094508 0.794537
O O4 0.020369 0.000000 0.707958
O O5 0.068401 0.185711 0.615671
O O6 0.321075 0.170699 0.599853
O O7 0.000000 0.110513 0.500000
O O8 0.183629 0.000000 0.608303
O O9 0.485173 0.885319 0.775987
O O10 0.625662 0.818070 0.713085
O O11 0.813853 0.887548 0.846131
O O12 0.625344 0.000000 0.735660
O O13 0.928535 0.395071 0.086020
O O14 0.000068 0.245817 0.148845
O O15 0.500000 0.838152 0.000000
O O16 0.250000 0.750000 0.000000
O O17 0.174641 0.898499 0.936943
#
# Coordination Sequence:
#
# PCOD9213079 Si02
#       7
#     8   8   8   8   8   8   8
#     4  12  23  39  65  96 129 174 229 282 343 418
#     4  11  26  49  79 115 149 189 240 282 334 420
#     4  12  25  41  65  98 133 175 228 283 349 420
#     4  11  21  41  62  89 127 172 229 295 357 417
#     4  10  22  36  62  86 118 172 232 285 360 426
#     4  12  23  46  74 105 150 190 227 285 357 407
#     4  11  21  40  59  89 127 169 224 292 351 422
#
# _framework density 22.587062
#
# number of rings (size 3 to 8) (size 9 to 14) (size 15 to 20)
#    0.000    0.714    4.286    3.857    6.000    0.000 
#    0.000    6.429    0.000    5.143    0.000    0.000 
#    0.000    0.000    0.000    0.000    0.000    0.000 
#
# Total GULP energy -156080.150632 kJ/mol
# GULP energy per Si atom -5574.291094 kJ/mol
# Density = 2.253565 g / cm^3
# Si number density = 22.587062 Si / 1000 Ang^3
#
#
#
# Elastic Constant Matrix: (Units=GPa)
#
#
# Indices 1 2 3 4 5 6 
#
# 1 88.1755 25.6423 25.7684 0.0000 8.1127 0.0000
# 2 25.6423 200.8768 41.1219 0.0000 0.9808 0.0000
# 3 25.7684 41.1219 83.0915 0.0000 14.4105 0.0000
# 4 0.0000 0.0000 0.0000 -38.6084 0.0000 -16.6051
# 5 8.1127 0.9808 14.4105 0.0000 41.6541 0.0000
# 6 0.0000 0.0000 0.0000 -16.6051 0.0000 50.7429
#
#
#
# Elastic Compliance Matrix: (Units=1/GPa)
#
#
# Indices 1 2 3 4 5 6 
#
# 1 0.012685 -0.000951 -0.003232 0.000000 -0.001330 0.000000
# 2 -0.000951 0.005640 -0.002666 0.000000 0.000975 0.000000
# 3 -0.003232 -0.002666 0.015145 0.000000 -0.004547 0.000000
# 4 0.000000 0.000000 0.000000 -0.022705 0.000000 -0.007430
# 5 -0.001330 0.000975 -0.004547 0.000000 0.025816 0.000000
# 6 0.000000 0.000000 0.000000 -0.007430 0.000000 0.017276
#
#
# Mechanical properties :
#
#
# Convention : Reuss Voigt Hill
#
# Bulk Modulus (GPa) = 50.57611 61.91213 56.24412
# Shear Modulus (GPa) = 67.43474 29.39848 48.41661
#
# Velocity S-wave (km/s) = 5.46994 3.61163 4.63488
# Velocity P-wave (km/s) = 7.89519 6.69789 7.32106
#
# Compressibility (1/GPa) = 0.01977218
#
# Stress axis : x y z
#
# Youngs Moduli (GPa) = 78.83590 177.28967 66.02759
#
# Poissons Ratio (x) = 0.16860 0.21343
# Poissons Ratio (y) = 0.07497 0.17600
# Poissons Ratio (z) = 0.25483 0.47258
#
# Static dielectric constant tensor:
#      x y z
#    x 1.837830 0.000000 0.010710 
#    y 0.000000 1.895720 0.000000 
#    z 0.010710 0.000000 1.865370 
# 
# From -- ./inp_files/333013.got.cif
#   From: 2010.05.17/outbox.cif.g08.bks.cpg/sg12_167_cif.got.tgz:333013.got - 2010.06.03 13:09:07.
