data_PCOD9213873
_publ_section_title
;
Structure prediction by ZEFSAII (Michael W. Deem and Ramdas Pophale) SiO2 
 PCOD9213873
Probable space group: C 2/M
;
_chemical_formula_sum "Si O2"
_cell_formula_units_Z 32
_cell_length_a 9.282397
_cell_length_b 10.964706
_cell_length_c 18.797870
_cell_angle_alpha 90.000000
_cell_angle_beta 133.877208
_cell_angle_gamma 90.000000
_cell_volume 1379.103147
_symmetry_space_group_name_H-M "C 2/M"
_symmetry_group_IT_number 12
_symmetry_cell_setting 'monoclinic'
loop_
_space_group_symop_operation_xyz
x,y,z
-x,y,-z
-x,-y,-z
x,-y,z
1/2+x,1/2+y,z
1/2-x,1/2+y,-z
1/2-x,1/2-y,-z
1/2+x,1/2-y,z
loop_
_atom_site_type_symbol
_atom_site_label
_atom_site_fract_x
_atom_site_fract_y
_atom_site_fract_z
Si Si1 0.417858 0.867844 0.192261
Si Si2 0.638075 0.863165 0.117114
Si Si3 0.201642 0.862786 0.429414
Si Si4 0.845425 0.823191 0.386339
O O1 0.500393 0.855591 0.140185
O O2 0.284329 0.752243 0.164361
O O3 0.621354 0.870600 0.308677
O O4 0.316024 0.000000 0.165351
O O5 0.731446 0.000000 0.148250
O O6 0.500000 0.855557 0.000000
O O7 0.250000 0.750000 0.500000
O O8 0.304839 0.818658 0.391916
O O9 0.960979 0.856718 0.354041
O O10 0.263079 0.000000 0.468202
O O11 0.000000 0.869647 0.500000
#
# Coordination Sequence:
#
# PCOD9213873 Si02
#       4
#     8   8   8   8
#     4  11  23  39  63  94 124 161 210 256 306 373
#     4  10  23  44  67  92 124 159 200 259 324 379
#     4  10  22  39  59  84 118 163 213 260 305 356
#     4  10  22  39  60  86 126 169 206 250 301 358
#
# _framework density 23.203486999999999
#
# number of rings (size 3 to 8) (size 9 to 14) (size 15 to 20)
#    0.000    1.750    0.000    3.000    0.000   18.000 
#    0.000    2.500    0.000    0.000    0.000    0.000 
#    0.000    0.000    0.000    0.000    0.000    0.000 
#
# Total GULP energy -89181.817697 kJ/mol
# GULP energy per Si atom -5573.863606 kJ/mol
# Density = 2.315067 g / cm^3
# Si number density = 23.203487 Si / 1000 Ang^3
#
#
#
# Elastic Constant Matrix: (Units=GPa)
#
#
# Indices 1 2 3 4 5 6 
#
# 1 59.3633 65.6699 13.7056 0.0000 1.0803 0.0000
# 2 65.6699 262.7676 53.5349 0.0000 14.3538 0.0000
# 3 13.7056 53.5349 92.1420 0.0000 -11.5520 0.0000
# 4 0.0000 0.0000 0.0000 14.7402 0.0000 -4.2470
# 5 1.0803 14.3538 -11.5520 0.0000 31.0348 0.0000
# 6 0.0000 0.0000 0.0000 -4.2470 0.0000 23.8199
#
#
#
# Elastic Compliance Matrix: (Units=1/GPa)
#
#
# Indices 1 2 3 4 5 6 
#
# 1 0.023401 -0.006017 0.000275 0.000000 0.002071 0.000000
# 2 -0.006017 0.006163 -0.003164 0.000000 -0.003819 0.000000
# 3 0.000275 -0.003164 0.013461 0.000000 0.006464 0.000000
# 4 0.000000 0.000000 0.000000 0.071515 0.000000 0.012751
# 5 0.002071 -0.003819 0.006464 0.000000 0.036322 0.000000
# 6 0.000000 0.000000 0.000000 0.012751 0.000000 0.044255
#
#
# Mechanical properties :
#
#
# Convention : Reuss Voigt Hill
#
# Bulk Modulus (GPa) = 39.66498 75.56596 57.61547
# Shear Modulus (GPa) = 22.59025 32.67649 27.63337
#
# Velocity S-wave (km/s) = 3.12360 3.75675 3.45471
# Velocity P-wave (km/s) = 5.49005 7.17321 6.38731
#
# Compressibility (1/GPa) = 0.02521115
#
# Stress axis : x y z
#
# Youngs Moduli (GPa) = 42.73329 162.26461 74.28967
#
# Poissons Ratio (x) = 0.97642 -0.02043
# Poissons Ratio (y) = 0.25714 0.23507
# Poissons Ratio (z) = -0.01175 0.51345
#
# Static dielectric constant tensor:
#      x y z
#    x 1.999440 0.000000 -0.034860 
#    y 0.000000 1.905220 0.000000 
#    z -0.034860 0.000000 1.975250 
# 
# From -- ./inp_files/334690.got.cif
#   From: 2010.05.17/outbox.cif.g08.bks.cpg/sg12_168_cif.got.tgz:334690.got - 2010.06.03 13:09:07.
