data_PCOD9213946
_publ_section_title
;
Structure prediction by ZEFSAII (Michael W. Deem and Ramdas Pophale) SiO2 
 PCOD9213946
Probable space group: C 2/M
;
_chemical_formula_sum "Si O2"
_cell_formula_units_Z 56
_cell_length_a 24.260490
_cell_length_b 8.803872
_cell_length_c 15.932562
_cell_angle_alpha 90.000000
_cell_angle_beta 124.262172
_cell_angle_gamma 90.000000
_cell_volume 2812.458267
_symmetry_space_group_name_H-M "C 2/M"
_symmetry_group_IT_number 12
_symmetry_cell_setting 'monoclinic'
loop_
_space_group_symop_operation_xyz
x,y,z
-x,y,-z
-x,-y,-z
x,-y,z
1/2+x,1/2+y,z
1/2-x,1/2+y,-z
1/2-x,1/2-y,-z
1/2+x,1/2-y,z
loop_
_atom_site_type_symbol
_atom_site_label
_atom_site_fract_x
_atom_site_fract_y
_atom_site_fract_z
Si Si1 0.954132 0.682397 0.382844
Si Si2 0.456206 0.682840 0.204201
Si Si3 0.679269 0.181445 0.638964
Si Si4 0.315663 0.180546 0.823899
Si Si5 0.313822 0.317457 0.007888
Si Si6 0.321436 0.680079 0.537466
Si Si7 0.414923 0.680541 0.779640
O O1 0.960257 0.500000 0.382191
O O2 0.972471 0.753600 0.309830
O O3 0.877681 0.718290 0.342048
O O4 0.000000 0.733281 0.500000
O O5 0.459410 0.500000 0.211126
O O6 0.381916 0.727623 0.113546
O O7 0.510814 0.730202 0.182002
O O8 0.749059 0.259799 0.720352
O O9 0.655454 0.238547 0.527661
O O10 0.688556 0.000000 0.644709
O O11 0.379049 0.232006 0.823627
O O12 0.312966 0.000000 0.828745
O O13 0.316806 0.256306 0.916031
O O14 0.309632 0.500000 0.003425
O O15 0.250000 0.250000 0.000000
O O16 0.314840 0.500000 0.516963
O O17 0.250000 0.750000 0.500000
O O18 0.370907 0.701979 0.657744
O O19 0.414901 0.500000 0.799136
#
# Coordination Sequence:
#
# PCOD9213946 Si02
#       7
#     8   8   8   8   8   8   8
#     4  10  22  39  60  89 124 162 200 246 303 359
#     4  10  23  42  65  91 120 160 204 250 303 362
#     4  11  22  37  59  87 123 163 205 255 309 362
#     4  12  25  40  62  91 121 158 206 253 305 365
#     4  11  24  44  68  93 123 157 201 254 307 363
#     4  11  21  34  57  87 123 163 205 249 302 362
#     4  10  22  41  62  88 124 163 203 249 306 364
#
# _framework density 19.911405999999999
#
# number of rings (size 3 to 8) (size 9 to 14) (size 15 to 20)
#    0.000    1.286    1.429    4.286    0.000    6.571 
#    0.000    2.857    0.000    0.000    0.000    0.000 
#    0.000    0.000    0.000    0.000    0.000    0.000 
#
# Total GULP energy -156629.932517 kJ/mol
# GULP energy per Si atom -5593.926161 kJ/mol
# Density = 1.986609 g / cm^3
# Si number density = 19.911406 Si / 1000 Ang^3
#
#
#
# Elastic Constant Matrix: (Units=GPa)
#
#
# Indices 1 2 3 4 5 6 
#
# 1 154.5775 46.9798 54.3125 0.0000 -1.5091 0.0000
# 2 46.9798 52.1941 35.3681 0.0000 2.0752 0.0000
# 3 54.3125 35.3681 87.6698 0.0000 -9.5576 0.0000
# 4 0.0000 0.0000 0.0000 32.2093 0.0000 -8.3531
# 5 -1.5091 2.0752 -9.5576 0.0000 36.6530 0.0000
# 6 0.0000 0.0000 0.0000 -8.3531 0.0000 27.4475
#
#
#
# Elastic Compliance Matrix: (Units=1/GPa)
#
#
# Indices 1 2 3 4 5 6 
#
# 1 0.009583 -0.006313 -0.003405 0.000000 -0.000136 0.000000
# 2 -0.006313 0.031231 -0.009170 0.000000 -0.004419 0.000000
# 3 -0.003405 -0.009170 0.017761 0.000000 0.005010 0.000000
# 4 0.000000 0.000000 0.000000 0.033707 0.000000 0.010258
# 5 -0.000136 -0.004419 0.005010 0.000000 0.028834 0.000000
# 6 0.000000 0.000000 0.000000 0.010258 0.000000 0.039555
#
#
# Mechanical properties :
#
#
# Convention : Reuss Voigt Hill
#
# Bulk Modulus (GPa) = 48.07775 63.08471 55.58123
# Shear Modulus (GPa) = 24.34499 29.78070 27.06284
#
# Velocity S-wave (km/s) = 3.50046 3.87157 3.69068
# Velocity P-wave (km/s) = 6.36678 7.19284 6.79238
#
# Compressibility (1/GPa) = 0.02079964
#
# Stress axis : x y z
#
# Youngs Moduli (GPa) = 104.35287 32.01916 56.30182
#
# Poissons Ratio (x) = 0.20214 0.19169
# Poissons Ratio (y) = 0.65878 0.51630
# Poissons Ratio (z) = 0.35529 0.29362
#
# Static dielectric constant tensor:
#      x y z
#    x 1.703560 0.000000 0.012460 
#    y 0.000000 1.665440 0.000000 
#    z 0.012460 0.000000 1.690450 
# 
# From -- ./inp_files/238979.got.cif
#   From: 2010.05.17/outbox.cif.g08.bks.cpg/sg12_120_cif.got.tgz:238979.got - 2010.06.03 13:09:07.
