data_PCOD9213935
_publ_section_title
;
Structure prediction by ZEFSAII (Michael W. Deem and Ramdas Pophale) SiO2 
 PCOD9213935
Probable space group: C 2/M
;
_chemical_formula_sum "Si O2"
_cell_formula_units_Z 42
_cell_length_a 9.256604
_cell_length_b 20.655835
_cell_length_c 12.106275
_cell_angle_alpha 90.000000
_cell_angle_beta 73.727375
_cell_angle_gamma 90.000000
_cell_volume 2222.023966
_symmetry_space_group_name_H-M "C 2/M"
_symmetry_group_IT_number 12
_symmetry_cell_setting 'monoclinic'
loop_
_space_group_symop_operation_xyz
x,y,z
-x,y,-z
-x,-y,-z
x,-y,z
1/2+x,1/2+y,z
1/2-x,1/2+y,-z
1/2-x,1/2-y,-z
1/2+x,1/2-y,z
loop_
_atom_site_type_symbol
_atom_site_label
_atom_site_fract_x
_atom_site_fract_y
_atom_site_fract_z
Si Si1 0.000000 0.000000 0.500000
Si Si2 0.110878 0.924759 0.078398
Si Si3 0.476899 0.392213 0.340108
Si Si4 0.176205 0.303946 0.936822
Si Si5 0.833489 0.347992 0.526398
Si Si6 0.205578 0.215335 0.334855
O O1 0.944836 0.943579 0.597805
O O2 0.013135 0.911131 0.208421
O O3 0.245022 0.872826 0.054336
O O4 0.159730 0.000000 0.065557
O O5 0.000000 0.912952 0.000000
O O6 0.301085 0.394102 0.406133
O O7 0.547273 0.322056 0.350706
O O8 0.210628 0.286434 0.800987
O O9 0.250000 0.250000 0.000000
O O10 0.000000 0.306198 0.000000
O O11 0.824981 0.286092 0.610115
O O12 0.796447 0.322662 0.411052
O O13 0.000000 0.376115 0.500000
#
# Coordination Sequence:
#
# PCOD9213935 Si02
#       6
#     2   8   8   8   8   8
#     4  12  20  40  64  84 118 168 216 234 302 380
#     4  10  23  43  67  89 122 171 215 256 311 377
#     4  11  22  40  65  88 122 167 204 250 305 377
#     4  11  26  40  62  95 126 165 206 265 316 370
#     4  11  22  35  61  93 123 154 200 260 308 361
#     4  10  22  39  60  88 123 161 201 247 314 371
#
# _framework density 18.901686000000002
#
# number of rings (size 3 to 8) (size 9 to 14) (size 15 to 20)
#    0.000    1.333    2.857    2.857   10.667    0.381 
#    0.000    0.476    0.000    0.000    0.000    0.000 
#    0.000    0.000    0.000    0.000    0.000    0.000 
#
# Total GULP energy -117050.050593 kJ/mol
# GULP energy per Si atom -5573.811933 kJ/mol
# Density = 1.885866 g / cm^3
# Si number density = 18.901686 Si / 1000 Ang^3
#
#
#
# Elastic Constant Matrix: (Units=GPa)
#
#
# Indices 1 2 3 4 5 6 
#
# 1 120.9108 35.9514 59.5825 0.0000 -22.0166 0.0000
# 2 35.9514 80.5072 41.0673 0.0000 1.4535 0.0000
# 3 59.5825 41.0673 150.0968 0.0000 7.8369 0.0000
# 4 0.0000 0.0000 0.0000 26.1943 0.0000 2.0337
# 5 -22.0166 1.4535 7.8369 0.0000 35.9367 0.0000
# 6 0.0000 0.0000 0.0000 2.0337 0.0000 4.1897
#
#
#
# Elastic Compliance Matrix: (Units=1/GPa)
#
#
# Indices 1 2 3 4 5 6 
#
# 1 0.013480 -0.003729 -0.004825 0.000000 0.009461 0.000000
# 2 -0.003729 0.015471 -0.002630 0.000000 -0.002337 0.000000
# 3 -0.004825 -0.002630 0.009555 0.000000 -0.004933 0.000000
# 4 0.000000 0.000000 0.000000 0.039671 0.000000 -0.019256
# 5 0.009461 -0.002337 -0.004933 0.000000 0.034793 0.000000
# 6 0.000000 0.000000 0.000000 -0.019256 0.000000 0.248028
#
#
# Mechanical properties :
#
#
# Convention : Reuss Voigt Hill
#
# Bulk Modulus (GPa) = 61.97126 69.41301 65.69214
# Shear Modulus (GPa) = 12.86190 27.59172 20.22681
#
# Velocity S-wave (km/s) = 2.61140 3.82481 3.27480
# Velocity P-wave (km/s) = 6.47687 7.50390 7.00922
#
# Compressibility (1/GPa) = 0.01613651
#
# Stress axis : x y z
#
# Youngs Moduli (GPa) = 74.18604 64.63874 104.65962
#
# Poissons Ratio (x) = 0.24106 0.50493
# Poissons Ratio (y) = 0.27666 0.27530
# Poissons Ratio (z) = 0.35791 0.17003
#
# Static dielectric constant tensor:
#      x y z
#    x 1.659040 0.000000 -0.049490 
#    y 0.000000 1.811020 0.000000 
#    z -0.049490 0.000000 1.305290 
# 
# From -- ./inp_files/120634.got.cif
#   From: 2010.05.17/outbox.cif.g08.bks.cpg/sg12_61_cif.got.tgz:120634.got - 2010.06.03 13:09:07.
