data_PCOD9213717
_publ_section_title
;
Structure prediction by ZEFSAII (Michael W. Deem and Ramdas Pophale) SiO2 
 PCOD9213717
Probable space group: C 2/M
;
_chemical_formula_sum "Si O2"
_cell_formula_units_Z 30
_cell_length_a 11.008455
_cell_length_b 14.366581
_cell_length_c 8.818888
_cell_angle_alpha 90.000000
_cell_angle_beta 102.508527
_cell_angle_gamma 90.000000
_cell_volume 1361.635305
_symmetry_space_group_name_H-M "C 2/M"
_symmetry_group_IT_number 12
_symmetry_cell_setting 'monoclinic'
loop_
_space_group_symop_operation_xyz
x,y,z
-x,y,-z
-x,-y,-z
x,-y,z
1/2+x,1/2+y,z
1/2-x,1/2+y,-z
1/2-x,1/2-y,-z
1/2+x,1/2-y,z
loop_
_atom_site_type_symbol
_atom_site_label
_atom_site_fract_x
_atom_site_fract_y
_atom_site_fract_z
Si Si1 0.000000 0.000000 0.000000
Si Si2 0.665950 0.500000 0.351779
Si Si3 0.584937 0.000000 0.741779
Si Si4 0.922810 0.654782 0.824099
Si Si5 0.382947 0.295902 0.574287
Si Si6 0.242900 0.500000 0.097899
O O1 0.884769 0.000000 0.091634
O O2 0.100925 0.000000 0.169465
O O3 0.814190 0.500000 0.361341
O O4 0.630638 0.406266 0.427394
O O5 0.500175 0.908643 0.727287
O O6 0.656788 0.000000 0.923486
O O7 0.906477 0.755770 0.749275
O O8 0.800051 0.593557 0.825790
O O9 0.000000 0.661978 0.000000
O O10 0.500000 0.270545 0.500000
O O11 0.250000 0.250000 0.500000
#
# Coordination Sequence:
#
# PCOD9213717 Si02
#       6
#     2   4   4   8   8   4
#     4  10  22  38  66 104 138 170 214 284 358 384
#     4  11  25  43  65  96 144 173 223 281 352 394
#     4   8  16  40  64 100 123 170 225 281 321 395
#     4   9  19  40  73  96 129 175 240 275 323 403
#     4  12  28  46  66 100 140 184 228 277 347 412
#     4   8  17  35  65 102 132 166 215 289 334 386
#
# _framework density 22.032332
#
# number of rings (size 3 to 8) (size 9 to 14) (size 15 to 20)
#    0.000    2.133    0.000    3.600    5.600    2.133 
#    0.000   10.000    0.000    0.000    0.000    0.000 
#    0.000    0.000    0.000    0.000    0.000    0.000 
#
# Total GULP energy -83570.217673 kJ/mol
# GULP energy per Si atom -5571.347845 kJ/mol
# Density = 2.198219 g / cm^3
# Si number density = 22.032332 Si / 1000 Ang^3
#
#
#
# Elastic Constant Matrix: (Units=GPa)
#
#
# Indices 1 2 3 4 5 6 
#
# 1 196.1110 49.8183 32.7372 0.0000 -20.0673 0.0000
# 2 49.8183 142.7551 30.0236 0.0000 -5.7378 0.0000
# 3 32.7372 30.0236 56.8542 0.0000 -3.5634 0.0000
# 4 0.0000 0.0000 0.0000 2.5412 0.0000 36.9611
# 5 -20.0673 -5.7378 -3.5634 0.0000 25.2822 0.0000
# 6 0.0000 0.0000 0.0000 36.9611 0.0000 -117.9231
#
#
#
# Elastic Compliance Matrix: (Units=1/GPa)
#
#
# Indices 1 2 3 4 5 6 
#
# 1 0.006357 -0.001498 -0.002598 0.000000 0.004340 0.000000
# 2 -0.001498 0.008270 -0.003493 0.000000 0.000196 0.000000
# 3 -0.002598 -0.003493 0.020935 0.000000 0.000096 0.000000
# 4 0.000000 0.000000 0.000000 0.070791 0.000000 0.022188
# 5 0.004340 0.000196 0.000096 0.000000 0.043056 0.000000
# 6 0.000000 0.000000 0.000000 0.022188 0.000000 -0.001526
#
#
# Mechanical properties :
#
#
# Convention : Reuss Voigt Hill
#
# Bulk Modulus (GPa) = 49.05227 68.98650 59.01938
# Shear Modulus (GPa) = 29.43673 0.85615 15.14644
#
# Velocity S-wave (km/s) = 3.65919 0.62405 2.62480
# Velocity P-wave (km/s) = 6.33759 5.64789 6.00265
#
# Compressibility (1/GPa) = 0.02038642
#
# Stress axis : x y z
#
# Youngs Moduli (GPa) = 157.29786 120.91735 47.76697
#
# Poissons Ratio (x) = 0.18111 0.12408
# Poissons Ratio (y) = 0.23560 0.16683
# Poissons Ratio (z) = 0.40860 0.42231
#
# Static dielectric constant tensor:
#      x y z
#    x 1.802230 0.000000 0.002080 
#    y 0.000000 1.801080 0.000000 
#    z 0.002080 0.000000 1.836930 
# 
# From -- ./inp_files/44994.got.cif
#   From: 2010.05.17/outbox.cif.g08.bks.cpg/sg12_23_cif.got.tgz:44994.got - 2010.06.03 13:09:07.
