data_PCOD9213285
_publ_section_title
;
Structure prediction by ZEFSAII (Michael W. Deem and Ramdas Pophale) SiO2 
 PCOD9213285
Probable space group: C 2/M
;
_chemical_formula_sum "Si O2"
_cell_formula_units_Z 58
_cell_length_a 14.994711
_cell_length_b 23.237014
_cell_length_c 11.835135
_cell_angle_alpha 90.000000
_cell_angle_beta 144.834471
_cell_angle_gamma 90.000000
_cell_volume 2375.031223
_symmetry_space_group_name_H-M "C 2/M"
_symmetry_group_IT_number 12
_symmetry_cell_setting 'monoclinic'
loop_
_space_group_symop_operation_xyz
x,y,z
-x,y,-z
-x,-y,-z
x,-y,z
1/2+x,1/2+y,z
1/2-x,1/2+y,-z
1/2-x,1/2-y,-z
1/2+x,1/2-y,z
loop_
_atom_site_type_symbol
_atom_site_label
_atom_site_fract_x
_atom_site_fract_y
_atom_site_fract_z
Si Si1 0.715477 0.594911 0.134584
Si Si2 0.935239 0.063636 0.262125
Si Si3 0.785291 0.652780 0.864603
Si Si4 0.761554 0.881083 0.415240
Si Si5 0.916765 0.763537 0.614237
Si Si6 0.000000 0.000000 0.000000
Si Si7 0.998634 0.639038 0.309329
Si Si8 0.633581 0.274448 0.051289
O O1 0.686464 0.661655 0.135180
O O2 0.896528 0.597955 0.283847
O O3 0.619563 0.577656 0.922040
O O4 0.638241 0.550724 0.141083
O O5 0.855737 0.110761 0.256758
O O6 0.119269 0.067057 0.461017
O O7 0.879336 0.000000 0.233256
O O8 0.841950 0.628917 0.802554
O O9 0.749604 0.721058 0.822016
O O10 0.893544 0.647484 0.087352
O O11 0.873506 0.825118 0.520285
O O12 0.659921 0.882211 0.423479
O O13 0.750000 0.750000 0.500000
O O14 0.966761 0.703457 0.608136
O O15 0.050805 0.775780 0.844553
O O16 0.500000 0.256853 0.000000
#
# Coordination Sequence:
#
# PCOD9213285 Si02
#       8
#     8   8   8   8   8   2   8   8
#     4  11  23  41  70  93 121 170 223 277 320 395
#     4  11  24  42  64  92 130 178 224 260 327 396
#     4  10  22  37  62  95 138 169 221 270 317 401
#     4  11  20  38  61  93 135 180 211 270 326 395
#     4   9  18  32  58  90 130 164 203 261 330 387
#     4  12  24  48  72  94 124 164 234 278 332 392
#     4   9  21  38  60  93 131 170 217 265 334 384
#     4  11  20  36  64  96 123 166 218 274 331 382
#
# _framework density 24.420731
#
# number of rings (size 3 to 8) (size 9 to 14) (size 15 to 20)
#    0.000    1.655    2.759    3.310    1.931    2.759 
#    1.241    0.000    0.000   11.172    0.000    0.000 
#    0.000    0.000    0.000    0.000    0.000    0.000 
#
# Total GULP energy -161645.382303 kJ/mol
# GULP energy per Si atom -5573.978700 kJ/mol
# Density = 2.436515 g / cm^3
# Si number density = 24.420731 Si / 1000 Ang^3
#
#
#
# Elastic Constant Matrix: (Units=GPa)
#
#
# Indices 1 2 3 4 5 6 
#
# 1 87.2491 49.7009 28.1284 0.0000 27.9087 0.0000
# 2 49.7009 176.5362 40.2105 0.0000 33.4844 0.0000
# 3 28.1284 40.2105 73.7754 0.0000 2.8824 0.0000
# 4 0.0000 0.0000 0.0000 17.7211 0.0000 33.5135
# 5 27.9087 33.4844 2.8824 0.0000 33.4634 0.0000
# 6 0.0000 0.0000 0.0000 33.5135 0.0000 -46.4371
#
#
#
# Elastic Compliance Matrix: (Units=1/GPa)
#
#
# Indices 1 2 3 4 5 6 
#
# 1 0.018396 -0.001292 -0.005780 0.000000 -0.013551 0.000000
# 2 -0.001292 0.008150 -0.003685 0.000000 -0.006760 0.000000
# 3 -0.005780 -0.003685 0.017493 0.000000 0.007001 0.000000
# 4 0.000000 0.000000 0.000000 0.023862 0.000000 0.017221
# 5 -0.013551 -0.006760 0.007001 0.000000 0.047346 0.000000
# 6 0.000000 0.000000 0.000000 0.017221 0.000000 -0.009106
#
#
# Mechanical properties :
#
#
# Convention : Reuss Voigt Hill
#
# Bulk Modulus (GPa) = 44.39664 63.73781 54.06723
# Shear Modulus (GPa) = 36.99204 15.58422 26.28813
#
# Velocity S-wave (km/s) = 3.89624 2.52891 3.28452
# Velocity P-wave (km/s) = 6.20164 5.88929 6.04748
#
# Compressibility (1/GPa) = 0.02252423
#
# Stress axis : x y z
#
# Youngs Moduli (GPa) = 54.36078 122.70019 57.16411
#
# Poissons Ratio (x) = 0.15854 0.33041
# Poissons Ratio (y) = 0.07024 0.21067
# Poissons Ratio (z) = 0.31421 0.45219
#
# Static dielectric constant tensor:
#      x y z
#    x 2.198840 0.000000 -0.116370 
#    y 0.000000 1.851940 0.000000 
#    z -0.116370 0.000000 2.089480 
# 
# From -- ./inp_files/227998.got.cif
#   From: 2010.05.17/outbox.cif.g08.bks.cpg/sg12_114_cif.got.tgz:227998.got - 2010.06.03 13:09:07.
