data_PCOD9213679
_publ_section_title
;
Structure prediction by ZEFSAII (Michael W. Deem and Ramdas Pophale) SiO2 
 PCOD9213679
Probable space group: C 2/M
;
_chemical_formula_sum "Si O2"
_cell_formula_units_Z 64
_cell_length_a 27.277759
_cell_length_b 21.156777
_cell_length_c 14.587949
_cell_angle_alpha 90.000000
_cell_angle_beta 19.094521
_cell_angle_gamma 90.000000
_cell_volume 2754.035501
_symmetry_space_group_name_H-M "C 2/M"
_symmetry_group_IT_number 12
_symmetry_cell_setting 'monoclinic'
loop_
_space_group_symop_operation_xyz
x,y,z
-x,y,-z
-x,-y,-z
x,-y,z
1/2+x,1/2+y,z
1/2-x,1/2+y,-z
1/2-x,1/2-y,-z
1/2+x,1/2-y,z
loop_
_atom_site_type_symbol
_atom_site_label
_atom_site_fract_x
_atom_site_fract_y
_atom_site_fract_z
Si Si1 0.775838 0.796512 0.871025
Si Si2 0.653703 0.570243 0.472759
Si Si3 0.341821 0.167488 0.259017
Si Si4 0.414853 0.932295 0.527428
Si Si5 0.066277 0.703204 0.537768
Si Si6 0.629905 0.431443 0.911708
Si Si7 0.271893 0.432415 0.871964
Si Si8 0.296728 0.694728 0.297804
O O1 0.607475 0.800073 0.126905
O O2 0.750000 0.750000 0.000000
O O3 0.889376 0.764776 0.598858
O O4 0.819571 0.865905 0.829760
O O5 0.706430 0.500000 0.409600
O O6 0.740915 0.624752 0.372018
O O7 0.679688 0.573752 0.319116
O O8 0.479057 0.573325 0.808234
O O9 0.372634 0.236655 0.161294
O O10 0.263851 0.180713 0.493957
O O11 0.500000 0.135181 0.000000
O O12 0.396446 0.859301 0.591096
O O13 0.301921 0.933435 0.641130
O O14 0.380070 0.000000 0.638496
O O15 0.590775 0.934853 0.195067
O O16 0.165965 0.700207 0.452793
O O17 0.598249 0.500000 0.923117
O O18 0.607080 0.366724 0.898273
O O19 0.326615 0.500000 0.812432
#
# Coordination Sequence:
#
# PCOD9213679 Si02
#       8
#     8   8   8   8   8   8   8   8
#     4  11  23  40  63  94 126 155 201 258 316 371
#     4  10  22  39  60  90 124 164 211 257 309 366
#     4  11  26  38  56  84 128 161 209 264 303 361
#     4   8  16  33  58  87 113 148 198 245 291 355
#     4  10  22  38  64  87 120 161 202 247 309 376
#     4   9  19  36  60  85 115 154 205 258 303 356
#     4   9  19  38  65  91 122 164 206 249 305 374
#     4  10  24  39  59  85 119 167 210 251 313 369
#
# _framework density 23.238626
#
# number of rings (size 3 to 8) (size 9 to 14) (size 15 to 20)
#    0.000    2.250    0.000    1.125   10.500    3.750 
#    0.000    1.875    0.000    4.500    0.000    0.000 
#    0.000    0.000    0.000    0.000    0.000    0.000 
#
# Total GULP energy -178545.307624 kJ/mol
# GULP energy per Si atom -5579.540863 kJ/mol
# Density = 2.318573 g / cm^3
# Si number density = 23.238626 Si / 1000 Ang^3
#
#
#
# Elastic Constant Matrix: (Units=GPa)
#
#
# Indices 1 2 3 4 5 6 
#
# 1 44.6908 14.2359 -6.3282 0.0038 -0.6809 -0.0040
# 2 14.2359 194.2446 17.1617 0.0162 12.8255 -0.0153
# 3 -6.3282 17.1617 46.9110 0.0112 -3.3246 -0.0111
# 4 0.0038 0.0162 0.0112 19.5111 -0.0052 15.3645
# 5 -0.6809 12.8255 -3.3246 -0.0052 33.8249 0.0052
# 6 -0.0040 -0.0153 -0.0111 15.3645 0.0052 -3.5007
#
#
#
# Elastic Compliance Matrix: (Units=1/GPa)
#
#
# Indices 1 2 3 4 5 6 
#
# 1 0.023692 -0.002215 0.004128 0.000004 0.001723 -0.000011
# 2 -0.002215 0.005699 -0.002558 0.000002 -0.002457 -0.000007
# 3 0.004128 -0.002558 0.023045 0.000008 0.003318 -0.000025
# 4 0.000004 0.000002 0.000008 0.011501 -0.000006 0.050480
# 5 0.001723 -0.002457 0.003318 -0.000006 0.030856 0.000018
# 6 -0.000011 -0.000007 -0.000025 0.050480 0.000018 -0.064103
#
#
# Mechanical properties :
#
#
# Convention : Reuss Voigt Hill
#
# Bulk Modulus (GPa) = 19.55131 37.33167 28.44149
# Shear Modulus (GPa) = 101.98377 27.35219 64.66798
#
# Velocity S-wave (km/s) = 6.63180 3.43449 5.28093
# Velocity P-wave (km/s) = 8.18978 5.64154 7.03205
#
# Compressibility (1/GPa) = 0.05114747
#
# Stress axis : x y z
#
# Youngs Moduli (GPa) = 42.20772 175.47994 43.39396
#
# Poissons Ratio (x) = 0.38866 -0.17915
# Poissons Ratio (y) = 0.09348 0.11099
# Poissons Ratio (z) = -0.17425 0.44882
#
# Static dielectric constant tensor:
#      x y z
#    x 1.851090 0.000000 -0.020910 
#    y 0.000000 1.964200 0.000000 
#    z -0.020910 0.000000 1.863240 
# 
# From -- ./inp_files/251922.got.cif
#   From: 2010.05.17/outbox.cif.g08.bks.cpg/sg12_126_cif.got.tgz:251922.got - 2010.06.03 13:09:07.
