data_PCOD9213197
_publ_section_title
;
Structure prediction by ZEFSAII (Michael W. Deem and Ramdas Pophale) SiO2 
 PCOD9213197
Probable space group: C 2/M
;
_chemical_formula_sum "Si O2"
_cell_formula_units_Z 56
_cell_length_a 19.974190
_cell_length_b 7.533246
_cell_length_c 29.834899
_cell_angle_alpha 90.000000
_cell_angle_beta 148.648862
_cell_angle_gamma 90.000000
_cell_volume 2335.685199
_symmetry_space_group_name_H-M "C 2/M"
_symmetry_group_IT_number 12
_symmetry_cell_setting 'monoclinic'
loop_
_space_group_symop_operation_xyz
x,y,z
-x,y,-z
-x,-y,-z
x,-y,z
1/2+x,1/2+y,z
1/2-x,1/2+y,-z
1/2-x,1/2-y,-z
1/2+x,1/2-y,z
loop_
_atom_site_type_symbol
_atom_site_label
_atom_site_fract_x
_atom_site_fract_y
_atom_site_fract_z
Si Si1 0.827237 0.783746 0.110527
Si Si2 0.712277 0.202737 0.546188
Si Si3 0.996236 0.217644 0.292711
Si Si4 0.035906 0.788078 0.163256
Si Si5 0.054149 0.201886 0.641143
Si Si6 0.700994 0.704626 0.640640
Si Si7 0.453057 0.211904 0.021356
O O1 0.920277 0.733144 0.204851
O O2 0.900139 0.725236 0.107015
O O3 0.821152 0.000000 0.105500
O O4 0.685359 0.717117 0.041307
O O5 0.855777 0.277205 0.622983
O O6 0.598131 0.300041 0.455490
O O7 0.685177 0.205526 0.583835
O O8 0.711046 0.000000 0.529430
O O9 0.928198 0.279134 0.299445
O O10 0.999262 0.000000 0.295210
O O11 0.152078 0.712115 0.258844
O O12 0.046085 0.743026 0.116769
O O13 0.041926 0.000000 0.171564
O O14 0.120325 0.285491 0.635645
O O15 0.104431 0.000000 0.671572
O O16 0.660722 0.500000 0.610878
O O17 0.438875 0.000000 0.007991
O O18 0.500000 0.281008 0.000000
#
# Coordination Sequence:
#
# PCOD9213197 Si02
#       7
#     8   8   8   8   8   8   8
#     4   9  18  36  61  86 115 152 193 235 282 339
#     4  11  21  37  60  84 115 153 193 238 291 348
#     4   9  18  35  59  84 113 151 194 237 286 338
#     4  11  22  39  62  85 118 156 191 234 287 342
#     4  10  22  37  58  84 115 153 193 243 291 336
#     4  11  23  38  59  86 116 151 198 243 283 338
#     4  10  22  38  63  93 119 149 189 235 283 342
#
# _framework density 23.975835
#
# number of rings (size 3 to 8) (size 9 to 14) (size 15 to 20)
#    0.000    1.857    1.429    2.571    2.000    3.143 
#    0.000    1.429    0.000    0.000    0.000    0.000 
#    0.000    0.000    0.000    0.000    0.000    0.000 
#
# Total GULP energy -156590.723400 kJ/mol
# GULP energy per Si atom -5592.525836 kJ/mol
# Density = 2.392126 g / cm^3
# Si number density = 23.975835 Si / 1000 Ang^3
#
#
#
# Elastic Constant Matrix: (Units=GPa)
#
#
# Indices 1 2 3 4 5 6 
#
# 1 115.2374 6.4074 23.9170 0.0021 -34.5195 0.0060
# 2 6.4074 67.9919 -11.2575 0.0159 3.7751 0.0393
# 3 23.9170 -11.2575 59.8170 0.0002 -14.0548 0.0012
# 4 0.0021 0.0159 0.0002 96.1774 -0.0022 168.8075
# 5 -34.5195 3.7751 -14.0548 -0.0022 40.7427 -0.0049
# 6 0.0060 0.0393 0.0012 168.8075 -0.0049 377.3478
#
#
#
# Elastic Compliance Matrix: (Units=1/GPa)
#
#
# Indices 1 2 3 4 5 6 
#
# 1 0.012306 -0.002202 -0.003087 0.000000 0.009566 0.000000
# 2 -0.002202 0.015583 0.003303 0.000001 -0.002170 -0.000002
# 3 -0.003087 0.003303 0.019465 0.000000 0.003793 -0.000001
# 4 0.000000 0.000001 0.000000 0.048401 0.000000 -0.021652
# 5 0.009566 -0.002170 0.003793 0.000000 0.034158 0.000000
# 6 0.000000 -0.000002 -0.000001 -0.021652 0.000000 0.012336
#
#
# Mechanical properties :
#
#
# Convention : Reuss Voigt Hill
#
# Bulk Modulus (GPa) = 23.05131 31.24223 27.14677
# Shear Modulus (GPa) = 31.11740 117.78553 74.45147
#
# Velocity S-wave (km/s) = 3.60650 7.01665 5.57854
# Velocity P-wave (km/s) = 5.19401 8.87150 7.26916
#
# Compressibility (1/GPa) = 0.04338148
#
# Stress axis : x y z
#
# Youngs Moduli (GPa) = 81.25905 64.17439 51.37441
#
# Poissons Ratio (x) = 0.14131 0.15861
# Poissons Ratio (y) = 0.17893 -0.16970
# Poissons Ratio (z) = 0.25088 -0.21198
#
# Static dielectric constant tensor:
#      x y z
#    x 1.939700 0.000000 0.022260 
#    y 0.000000 1.918940 0.000000 
#    z 0.022260 0.000000 1.857430 
# 
# From -- ./inp_files/363087.got.cif
#   From: 2010.05.17/outbox.cif.g08.bks.cpg/sg12_182_cif.got.tgz:363087.got - 2010.06.03 13:09:07.
