data_PCOD9213201
_publ_section_title
;
Structure prediction by ZEFSAII (Michael W. Deem and Ramdas Pophale) SiO2 
 PCOD9213201
Probable space group: C 2/M
;
_chemical_formula_sum "Si O2"
_cell_formula_units_Z 56
_cell_length_a 19.288160
_cell_length_b 15.069359
_cell_length_c 15.161354
_cell_angle_alpha 90.000000
_cell_angle_beta 31.020820
_cell_angle_gamma 90.000000
_cell_volume 2271.043433
_symmetry_space_group_name_H-M "C 2/M"
_symmetry_group_IT_number 12
_symmetry_cell_setting 'monoclinic'
loop_
_space_group_symop_operation_xyz
x,y,z
-x,y,-z
-x,-y,-z
x,-y,z
1/2+x,1/2+y,z
1/2-x,1/2+y,-z
1/2-x,1/2-y,-z
1/2+x,1/2-y,z
loop_
_atom_site_type_symbol
_atom_site_label
_atom_site_fract_x
_atom_site_fract_y
_atom_site_fract_z
Si Si1 0.839643 0.898696 0.758349
Si Si2 0.844912 0.665246 0.376298
Si Si3 0.886657 0.605282 0.851765
Si Si4 0.892069 0.896105 0.444370
Si Si5 0.764328 0.400622 0.650249
Si Si6 0.704374 0.797548 0.223152
Si Si7 0.018286 0.893672 0.120380
O O1 0.789729 0.807598 0.771362
O O2 0.998320 0.882094 0.600763
O O3 0.821130 0.000000 0.743038
O O4 0.756962 0.897600 0.941441
O O5 0.750000 0.750000 0.500000
O O6 0.762489 0.632763 0.381079
O O7 0.818374 0.605439 0.492230
O O8 0.005162 0.654052 0.201179
O O9 0.917781 0.500000 0.800914
O O10 0.875741 0.664501 0.774894
O O11 0.963549 0.863952 0.275973
O O12 0.884282 0.000000 0.439468
O O13 0.775949 0.500000 0.671882
O O14 0.839681 0.337430 0.635226
O O15 0.606846 0.379281 0.808808
O O16 0.850973 0.839930 0.047050
O O17 0.045983 0.000000 0.091835
#
# Coordination Sequence:
#
# PCOD9213201 Si02
#       7
#     8   8   8   8   8   8   8
#     4  10  22  37  58  86 118 155 200 247 294 343
#     4  11  23  37  58  85 119 157 195 231 288 358
#     4  11  22  36  57  90 125 157 192 245 300 346
#     4   9  17  35  57  79 109 149 195 240 279 335
#     4  10  22  38  57  86 118 154 194 241 294 353
#     4  12  21  33  59  85 120 152 194 239 300 352
#     4   9  17  31  54  83 112 143 185 234 287 341
#
# _framework density 24.658268
#
# number of rings (size 3 to 8) (size 9 to 14) (size 15 to 20)
#    0.000    1.714    1.429    5.143    4.000    1.714 
#    0.000    1.429    0.000    4.286    0.000    3.000 
#    0.000    0.000    0.000    0.000    0.000    0.000 
#
# Total GULP energy -156276.615461 kJ/mol
# GULP energy per Si atom -5581.307695 kJ/mol
# Density = 2.460215 g / cm^3
# Si number density = 24.658268 Si / 1000 Ang^3
#
#
#
# Elastic Constant Matrix: (Units=GPa)
#
#
# Indices 1 2 3 4 5 6 
#
# 1 82.2333 61.3583 28.2932 0.0000 -13.2649 0.0000
# 2 61.3583 127.0570 28.8001 0.0000 -17.0440 0.0000
# 3 28.2932 28.8001 72.4176 0.0000 -22.6049 0.0000
# 4 0.0000 0.0000 0.0000 19.9466 0.0000 -3.9545
# 5 -13.2649 -17.0440 -22.6049 0.0000 34.5920 0.0000
# 6 0.0000 0.0000 0.0000 -3.9545 0.0000 30.5403
#
#
#
# Elastic Compliance Matrix: (Units=1/GPa)
#
#
# Indices 1 2 3 4 5 6 
#
# 1 0.020231 -0.008720 -0.004216 0.000000 0.000707 0.000000
# 2 -0.008720 0.012588 -0.000888 0.000000 0.002278 0.000000
# 3 -0.004216 -0.000888 0.019055 0.000000 0.010397 0.000000
# 4 0.000000 0.000000 0.000000 0.051455 0.000000 0.006663
# 5 0.000707 0.002278 0.010397 0.000000 0.037096 0.000000
# 6 0.000000 0.000000 0.000000 0.006663 0.000000 0.033606
#
#
# Mechanical properties :
#
#
# Convention : Reuss Voigt Hill
#
# Bulk Modulus (GPa) = 41.27736 57.62345 49.45040
# Shear Modulus (GPa) = 23.83733 27.89953 25.86843
#
# Velocity S-wave (km/s) = 3.11256 3.36735 3.24246
# Velocity P-wave (km/s) = 5.44918 6.20792 5.84088
#
# Compressibility (1/GPa) = 0.02422635
#
# Stress axis : x y z
#
# Youngs Moduli (GPa) = 49.42869 79.43862 52.48040
#
# Poissons Ratio (x) = 0.69267 0.22125
# Poissons Ratio (y) = 0.43100 0.04663
# Poissons Ratio (z) = 0.20838 0.07058
#
# Static dielectric constant tensor:
#      x y z
#    x 2.208010 0.000000 -0.147790 
#    y 0.000000 1.960560 0.000000 
#    z -0.147790 0.000000 2.111880 
# 
# From -- ./inp_files/284518.got.cif
#   From: 2010.05.17/outbox.cif.g08.bks.cpg/sg12_143_cif.got.tgz:284518.got - 2010.06.03 13:09:07.
