data_PCOD9213241
_publ_section_title
;
Structure prediction by ZEFSAII (Michael W. Deem and Ramdas Pophale) SiO2 
 PCOD9213241
Probable space group: C 2/M
;
_chemical_formula_sum "Si O2"
_cell_formula_units_Z 34
_cell_length_a 5.252819
_cell_length_b 26.114896
_cell_length_c 12.495002
_cell_angle_alpha 90.000000
_cell_angle_beta 78.478729
_cell_angle_gamma 90.000000
_cell_volume 1679.488133
_symmetry_space_group_name_H-M "C 2/M"
_symmetry_group_IT_number 12
_symmetry_cell_setting 'monoclinic'
loop_
_space_group_symop_operation_xyz
x,y,z
-x,y,-z
-x,-y,-z
x,-y,z
1/2+x,1/2+y,z
1/2-x,1/2+y,-z
1/2-x,1/2-y,-z
1/2+x,1/2-y,z
loop_
_atom_site_type_symbol
_atom_site_label
_atom_site_fract_x
_atom_site_fract_y
_atom_site_fract_z
Si Si1 0.500000 0.500000 0.500000
Si Si2 0.766749 0.393397 0.436206
Si Si3 0.029956 0.941107 0.125617
Si Si4 0.337179 0.771270 0.876290
Si Si5 0.995451 0.616915 0.809501
O O1 0.689667 0.453863 0.436045
O O2 0.500000 0.368198 0.500000
O O3 0.000000 0.387987 0.500000
O O4 0.860314 0.373581 0.314303
O O5 0.769219 0.914382 0.190806
O O6 0.295639 0.913611 0.136934
O O7 0.038797 0.000000 0.160680
O O8 0.000000 0.939626 0.000000
O O9 0.588887 0.738742 0.823717
O O10 0.413010 0.830279 0.871966
O O11 0.250000 0.750000 0.000000
#
# Coordination Sequence:
#
# PCOD9213241 Si02
#       5
#     2   8   8   8   8
#     4   8  22  36  62  88 128 162 222 264 302 368
#     4  10  22  37  60  92 128 161 214 261 312 374
#     4  11  26  40  58  93 136 174 212 253 315 407
#     4  10  23  40  64  93 121 159 219 280 323 376
#     4  12  24  40  70  90 129 179 214 263 336 377
#
# _framework density 20.244264000000001
#
# number of rings (size 3 to 8) (size 9 to 14) (size 15 to 20)
#    0.706    0.706    0.000    4.588   13.176    1.882 
#    0.000    0.000    0.000    4.235    0.000    0.000 
#    0.000    0.000    0.000    0.000    0.000    0.000 
#
# Total GULP energy -94641.663399 kJ/mol
# GULP energy per Si atom -5567.156671 kJ/mol
# Density = 2.019819 g / cm^3
# Si number density = 20.244264 Si / 1000 Ang^3
#
#
#
# Elastic Constant Matrix: (Units=GPa)
#
#
# Indices 1 2 3 4 5 6 
#
# 1 161.8787 68.0634 13.7608 0.0000 -14.9999 0.0000
# 2 68.0634 132.3434 30.7274 0.0000 -8.0829 0.0000
# 3 13.7608 30.7274 62.6856 0.0000 -11.3590 0.0000
# 4 0.0000 0.0000 0.0000 -15.0534 0.0000 -34.2764
# 5 -14.9999 -8.0829 -11.3590 0.0000 31.0298 0.0000
# 6 0.0000 0.0000 0.0000 -34.2764 0.0000 -1.2196
#
#
#
# Elastic Compliance Matrix: (Units=1/GPa)
#
#
# Indices 1 2 3 4 5 6 
#
# 1 0.008165 -0.004201 0.000840 0.000000 0.003160 0.000000
# 2 -0.004201 0.010704 -0.004485 0.000000 -0.000884 0.000000
# 3 0.000840 -0.004485 0.019095 0.000000 0.006228 0.000000
# 4 0.000000 0.000000 0.000000 0.001055 0.000000 -0.029638
# 5 0.003160 -0.000884 0.006228 0.000000 0.035804 0.000000
# 6 0.000000 0.000000 0.000000 -0.029638 0.000000 0.013016
#
#
# Mechanical properties :
#
#
# Convention : Reuss Voigt Hill
#
# Bulk Modulus (GPa) = 44.90072 64.66786 54.78429
# Shear Modulus (GPa) = 45.06261 19.24180 32.15221
#
# Velocity S-wave (km/s) = 4.72311 3.08633 3.98956
# Velocity P-wave (km/s) = 7.20911 6.68683 6.95288
#
# Compressibility (1/GPa) = 0.02227136
#
# Stress axis : x y z
#
# Youngs Moduli (GPa) = 122.46782 93.42194 52.36903
#
# Poissons Ratio (x) = 0.39250 -0.04397
# Poissons Ratio (y) = 0.51453 0.23487
# Poissons Ratio (z) = -0.10282 0.41899
#
# Static dielectric constant tensor:
#      x y z
#    x 1.762350 0.000000 -0.005710 
#    y 0.000000 1.704630 0.000000 
#    z -0.005710 0.000000 1.725250 
# 
# From -- ./inp_files/115305.got.cif
#   From: 2010.05.17/outbox.cif.g08.bks.cpg/sg12_58_cif.got.tgz:115305.got - 2010.06.03 13:09:07.
