data_PCOD9213483
_publ_section_title
;
Structure prediction by ZEFSAII (Michael W. Deem and Ramdas Pophale) SiO2 
 PCOD9213483
Probable space group: C 2/M
;
_chemical_formula_sum "Si O2"
_cell_formula_units_Z 52
_cell_length_a 20.082580
_cell_length_b 24.867123
_cell_length_c 6.755251
_cell_angle_alpha 90.000000
_cell_angle_beta 133.301402
_cell_angle_gamma 90.000000
_cell_volume 2455.117709
_symmetry_space_group_name_H-M "C 2/M"
_symmetry_group_IT_number 12
_symmetry_cell_setting 'monoclinic'
loop_
_space_group_symop_operation_xyz
x,y,z
-x,y,-z
-x,-y,-z
x,-y,z
1/2+x,1/2+y,z
1/2-x,1/2+y,-z
1/2-x,1/2-y,-z
1/2+x,1/2-y,z
loop_
_atom_site_type_symbol
_atom_site_label
_atom_site_fract_x
_atom_site_fract_y
_atom_site_fract_z
Si Si1 0.000000 0.891402 0.000000
Si Si2 0.856440 0.734511 0.237314
Si Si3 0.910186 0.346430 0.686898
Si Si4 0.106391 0.848672 0.582648
Si Si5 0.849197 0.562308 0.299573
Si Si6 0.316598 0.859460 0.889698
Si Si7 0.635264 0.561794 0.964957
O O1 0.957113 0.856906 0.735727
O O2 0.082047 0.924829 0.060737
O O3 0.879769 0.703125 0.487379
O O4 0.904990 0.791644 0.333463
O O5 0.750000 0.750000 0.000000
O O6 0.872768 0.690597 0.099956
O O7 0.915778 0.398703 0.558028
O O8 0.834133 0.359957 0.695016
O O9 0.000000 0.336930 0.000000
O O10 0.210334 0.850066 0.715637
O O11 0.100419 0.897060 0.726874
O O12 0.874668 0.500000 0.352419
O O13 0.843032 0.587476 0.067036
O O14 0.746195 0.567412 0.183874
O O15 0.615323 0.500000 0.871231
#
# Coordination Sequence:
#
# PCOD9213483 Si02
#       7
#     4   8   8   8   8   8   8
#     4  12  23  34  56  92 122 154 195 252 306 354
#     4   9  21  40  61  84 116 161 204 252 307 367
#     4  11  23  38  61  94 124 156 202 260 313 365
#     4  10  22  38  59  86 114 157 204 251 296 362
#     4   9  20  40  64  89 120 162 208 249 303 372
#     4   9  20  41  63  81 119 163 206 247 312 364
#     4  10  22  41  60  83 120 162 202 245 297 364
#
# _framework density 21.180247000000001
#
# number of rings (size 3 to 8) (size 9 to 14) (size 15 to 20)
#    0.000    2.154    0.000    2.538    1.077    8.923 
#    2.769    3.846    0.000    0.000    0.000    0.000 
#    0.000    0.000    0.000    0.000    0.000    0.000 
#
# Total GULP energy -145156.511813 kJ/mol
# GULP energy per Si atom -5582.942762 kJ/mol
# Density = 2.113204 g / cm^3
# Si number density = 21.180247 Si / 1000 Ang^3
#
#
#
# Elastic Constant Matrix: (Units=GPa)
#
#
# Indices 1 2 3 4 5 6 
#
# 1 47.5347 6.8644 -3.9784 0.0000 11.0717 0.0000
# 2 6.8644 161.0297 63.6791 0.0000 -0.0568 0.0000
# 3 -3.9784 63.6791 114.9107 0.0000 10.5797 0.0000
# 4 0.0000 0.0000 0.0000 9.7626 0.0000 -16.8275
# 5 11.0717 -0.0568 10.5797 0.0000 22.1893 0.0000
# 6 0.0000 0.0000 0.0000 -16.8275 0.0000 -13.7299
#
#
#
# Elastic Compliance Matrix: (Units=1/GPa)
#
#
# Indices 1 2 3 4 5 6 
#
# 1 0.024988 -0.002469 0.003537 0.000000 -0.014161 0.000000
# 2 -0.002469 0.008303 -0.005022 0.000000 0.003648 0.000000
# 3 0.003537 -0.005022 0.012312 0.000000 -0.007648 0.000000
# 4 0.000000 0.000000 0.000000 0.032909 0.000000 -0.040334
# 5 -0.014161 0.003648 -0.007648 0.000000 0.055789 0.000000
# 6 0.000000 0.000000 0.000000 -0.040334 0.000000 -0.023400
#
#
# Mechanical properties :
#
#
# Convention : Reuss Voigt Hill
#
# Bulk Modulus (GPa) = 26.52889 50.73392 38.63141
# Shear Modulus (GPa) = 38.05922 20.77174 29.41548
#
# Velocity S-wave (km/s) = 4.24361 3.13503 3.73073
# Velocity P-wave (km/s) = 6.04677 6.09180 6.06933
#
# Compressibility (1/GPa) = 0.03769475
#
# Stress axis : x y z
#
# Youngs Moduli (GPa) = 40.01887 120.44351 81.22022
#
# Poissons Ratio (x) = 0.29737 -0.28729
# Poissons Ratio (y) = 0.09880 0.40792
# Poissons Ratio (z) = -0.14155 0.60491
#
# Static dielectric constant tensor:
#      x y z
#    x 1.824130 0.000000 0.039530 
#    y 0.000000 1.741470 0.000000 
#    z 0.039530 0.000000 1.744140 
# 
# From -- ./inp_files/22488.got.cif
#   From: 2010.05.17/outbox.cif.g08.bks.cpg/sg12_12_cif.got.tgz:22488.got - 2010.06.03 13:09:07.
