data_PCOD9213664
_publ_section_title
;
Structure prediction by ZEFSAII (Michael W. Deem and Ramdas Pophale) SiO2 
 PCOD9213664
Probable space group: C 2/M
;
_chemical_formula_sum "Si O2"
_cell_formula_units_Z 44
_cell_length_a 10.593696
_cell_length_b 31.395492
_cell_length_c 16.411990
_cell_angle_alpha 90.000000
_cell_angle_beta 18.652853
_cell_angle_gamma 90.000000
_cell_volume 1745.821860
_symmetry_space_group_name_H-M "C 2/M"
_symmetry_group_IT_number 12
_symmetry_cell_setting 'monoclinic'
loop_
_space_group_symop_operation_xyz
x,y,z
-x,y,-z
-x,-y,-z
x,-y,z
1/2+x,1/2+y,z
1/2-x,1/2+y,-z
1/2-x,1/2-y,-z
1/2+x,1/2-y,z
loop_
_atom_site_type_symbol
_atom_site_label
_atom_site_fract_x
_atom_site_fract_y
_atom_site_fract_z
Si Si1 0.562733 0.000000 0.594922
Si Si2 0.428572 0.656550 0.270180
Si Si3 0.119397 0.248748 0.174530
Si Si4 0.570068 0.066630 0.731303
Si Si5 0.883611 0.659885 0.823803
Si Si6 0.137642 0.065980 0.166403
O O1 0.446706 0.963056 0.733356
O O2 0.766898 0.962852 0.412577
O O3 0.400970 0.704135 0.322664
O O4 0.568887 0.615339 0.232842
O O5 0.000000 0.644906 0.500000
O O6 0.723745 0.660321 0.013694
O O7 0.910716 0.294438 0.316185
O O8 0.500000 0.248229 0.000000
O O9 0.250000 0.250000 0.000000
O O10 0.608080 0.115617 0.679287
O O11 0.000000 0.052351 0.500000
O O12 0.270861 0.063747 0.990617
O O13 0.500000 0.657833 0.000000
O O14 0.500000 0.049852 0.000000
#
# Coordination Sequence:
#
# PCOD9213664 Si02
#       6
#     4   8   8   8   8   8
#     4  12  24  40  66  88 126 158 222 262 342 372
#     4  10  22  38  63  93 130 166 213 261 324 391
#     4   9  18  39  64  94 131 174 215 264 322 388
#     4  11  23  38  63  93 120 163 212 263 320 387
#     4   9  21  40  62  87 130 165 204 260 315 385
#     4  11  23  39  63  92 125 164 210 274 319 389
#
# _framework density 25.203030999999999
#
# number of rings (size 3 to 8) (size 9 to 14) (size 15 to 20)
#    0.000    1.818    1.818    1.636    2.545    0.727 
#    0.000    9.091    0.000    0.000    0.000    0.000 
#    0.000    0.000    0.000    0.000    0.000    0.000 
#
# Total GULP energy -122584.320828 kJ/mol
# GULP energy per Si atom -5572.014583 kJ/mol
# Density = 2.514567 g / cm^3
# Si number density = 25.203031 Si / 1000 Ang^3
#
#
#
# Elastic Constant Matrix: (Units=GPa)
#
#
# Indices 1 2 3 4 5 6 
#
# 1 99.1558 30.9287 45.7844 0.0016 17.6153 -0.0012
# 2 30.9287 232.3250 33.6633 -0.0023 16.6670 0.0010
# 3 45.7844 33.6633 74.7176 0.0078 32.4296 -0.0053
# 4 0.0016 -0.0023 0.0078 -13.0333 0.0008 73.0714
# 5 17.6153 16.6670 32.4296 0.0008 63.5677 0.0001
# 6 -0.0012 0.0010 -0.0053 73.0714 0.0001 -44.1697
#
#
#
# Elastic Compliance Matrix: (Units=1/GPa)
#
#
# Indices 1 2 3 4 5 6 
#
# 1 0.014184 -0.000679 -0.008679 0.000000 0.000675 0.000001
# 2 -0.000679 0.004639 -0.001577 0.000000 -0.000224 0.000000
# 3 -0.008679 -0.001577 0.023362 0.000000 -0.009100 -0.000002
# 4 0.000000 0.000000 0.000000 0.009272 0.000000 0.015339
# 5 0.000675 -0.000224 -0.009100 0.000000 0.020245 0.000001
# 6 0.000001 0.000000 -0.000002 0.015339 0.000001 0.002736
#
#
# Mechanical properties :
#
#
# Convention : Reuss Voigt Hill
#
# Bulk Modulus (GPa) = 49.22251 69.66125 59.44188
# Shear Modulus (GPa) = 48.50599 20.99439 34.75019
#
# Velocity S-wave (km/s) = 4.39180 2.88932 3.71726
# Velocity P-wave (km/s) = 6.72978 6.23145 6.48540
#
# Compressibility (1/GPa) = 0.02031591
#
# Stress axis : x y z
#
# Youngs Moduli (GPa) = 70.50002 215.55106 42.80506
#
# Poissons Ratio (x) = 0.14641 0.37149
# Poissons Ratio (y) = 0.04789 0.06750
# Poissons Ratio (z) = 0.61184 0.33990
#
# Static dielectric constant tensor:
#      x y z
#    x 1.967080 0.000000 -0.022420 
#    y 0.000000 2.009570 0.000000 
#    z -0.022420 0.000000 1.953500 
# 
# From -- ./inp_files/266252.got.cif
#   From: 2010.05.17/outbox.cif.g08.bks.cpg/sg12_134_cif.got.tgz:266252.got - 2010.06.03 13:09:07.
