data_PCOD9213837
_publ_section_title
;
Structure prediction by ZEFSAII (Michael W. Deem and Ramdas Pophale) SiO2 
 PCOD9213837
Probable space group: C 2/M
;
_chemical_formula_sum "Si O2"
_cell_formula_units_Z 64
_cell_length_a 18.366542
_cell_length_b 8.736630
_cell_length_c 31.182661
_cell_angle_alpha 90.000000
_cell_angle_beta 137.428656
_cell_angle_gamma 90.000000
_cell_volume 3384.989127
_symmetry_space_group_name_H-M "C 2/M"
_symmetry_group_IT_number 12
_symmetry_cell_setting 'monoclinic'
loop_
_space_group_symop_operation_xyz
x,y,z
-x,y,-z
-x,-y,-z
x,-y,z
1/2+x,1/2+y,z
1/2-x,1/2+y,-z
1/2-x,1/2-y,-z
1/2+x,1/2-y,z
loop_
_atom_site_type_symbol
_atom_site_label
_atom_site_fract_x
_atom_site_fract_y
_atom_site_fract_z
Si Si1 0.366478 0.816376 0.061963
Si Si2 0.276574 0.182749 0.183836
Si Si3 0.837249 0.684776 0.307797
Si Si4 0.458008 0.184030 0.934330
Si Si5 0.919242 0.315678 0.567540
Si Si6 0.749947 0.184273 0.432551
Si Si7 0.827302 0.316182 0.694991
Si Si8 0.438495 0.682436 0.184349
O O1 0.452048 0.776718 0.061910
O O2 0.406244 0.750457 0.124320
O O3 0.360102 0.000000 0.061727
O O4 0.250000 0.750000 0.000000
O O5 0.314577 0.222362 0.248397
O O6 0.153904 0.234164 0.124203
O O7 0.351597 0.263745 0.181555
O O8 0.286231 0.000000 0.182817
O O9 0.829874 0.500000 0.308800
O O10 0.749867 0.761189 0.300492
O O11 0.957770 0.732962 0.373254
O O12 0.441214 0.000000 0.925724
O O13 0.500000 0.223392 0.000000
O O14 0.917596 0.500000 0.565105
O O15 0.858852 0.251206 0.499768
O O16 0.846734 0.268936 0.577154
O O17 0.722956 0.231488 0.372587
O O18 0.756363 0.000000 0.436348
O O19 0.836608 0.500000 0.699339
O O20 0.944861 0.245200 0.751857
O O21 0.440542 0.500000 0.182694
#
# Coordination Sequence:
#
# PCOD9213837 Si02
#       8
#     8   8   8   8   8   8   8   8
#     4  11  23  40  64  93 126 161 198 241 290 344
#     4  11  23  40  63  88 116 151 194 244 295 348
#     4  10  22  39  58  84 118 153 191 239 295 352
#     4  10  22  40  61  88 122 156 192 237 287 341
#     4   9  18  35  58  81 110 149 191 236 288 349
#     4   9  19  36  57  82 112 147 190 240 291 343
#     4  11  23  39  59  84 117 154 194 242 294 348
#     4  12  25  41  62  87 118 155 198 245 292 348
#
# _framework density 18.907001999999999
#
# number of rings (size 3 to 8) (size 9 to 14) (size 15 to 20)
#    0.000    1.625    0.000    4.500    0.000    9.250 
#    0.000    5.000    0.000    0.000    0.000    0.000 
#    0.000    0.000    0.000    0.000    0.000    0.000 
#
# Total GULP energy -178920.628288 kJ/mol
# GULP energy per Si atom -5591.269634 kJ/mol
# Density = 1.886397 g / cm^3
# Si number density = 18.907002 Si / 1000 Ang^3
#
#
#
# Elastic Constant Matrix: (Units=GPa)
#
#
# Indices 1 2 3 4 5 6 
#
# 1 158.6950 64.8061 102.7441 0.0000 -3.7769 0.0000
# 2 64.8061 56.5646 62.4843 0.0000 -2.0494 0.0001
# 3 102.7441 62.4843 180.4263 0.0000 -2.1347 0.0000
# 4 0.0000 0.0000 0.0000 36.3743 0.0000 3.6649
# 5 -3.7769 -2.0494 -2.1347 0.0000 40.2885 0.0000
# 6 0.0000 0.0001 0.0000 3.6649 0.0000 28.5592
#
#
#
# Elastic Compliance Matrix: (Units=1/GPa)
#
#
# Indices 1 2 3 4 5 6 
#
# 1 0.013214 -0.011039 -0.003696 0.000000 0.000481 0.000000
# 2 -0.011039 0.037889 -0.006829 0.000000 0.000531 0.000000
# 3 -0.003696 -0.006829 0.010010 0.000000 -0.000163 0.000000
# 4 0.000000 0.000000 0.000000 0.027852 0.000000 -0.003574
# 5 0.000481 0.000531 -0.000163 0.000000 0.024884 0.000000
# 6 0.000000 0.000000 0.000000 -0.003574 0.000000 0.035474
#
#
# Mechanical properties :
#
#
# Convention : Reuss Voigt Hill
#
# Bulk Modulus (GPa) = 55.60140 95.08389 75.34265
# Shear Modulus (GPa) = 25.19579 32.08781 28.64180
#
# Velocity S-wave (km/s) = 3.65446 4.12410 3.89637
# Velocity P-wave (km/s) = 6.87593 8.54852 7.75744
#
# Compressibility (1/GPa) = 0.01798516
#
# Stress axis : x y z
#
# Youngs Moduli (GPa) = 75.68005 26.39284 99.89732
#
# Poissons Ratio (x) = 0.29134 0.36922
# Poissons Ratio (y) = 0.83540 0.68223
# Poissons Ratio (z) = 0.27971 0.18025
#
# Static dielectric constant tensor:
#      x y z
#    x 1.626700 0.000000 -0.005860 
#    y 0.000000 1.645320 0.000000 
#    z -0.005860 0.000000 1.624220 
# 
# From -- ./inp_files/378306.got.cif
#   From: 2010.05.17/outbox.cif.g08.bks.cpg/sg12_190_cif.got.tgz:378306.got - 2010.06.03 13:09:07.
