data_PCOD9213578
_publ_section_title
;
Structure prediction by ZEFSAII (Michael W. Deem and Ramdas Pophale) SiO2 
 PCOD9213578
Probable space group: C 2/M
;
_chemical_formula_sum "Si O2"
_cell_formula_units_Z 42
_cell_length_a 18.297102
_cell_length_b 10.955913
_cell_length_c 11.729342
_cell_angle_alpha 90.000000
_cell_angle_beta 49.319551
_cell_angle_gamma 90.000000
_cell_volume 1783.109948
_symmetry_space_group_name_H-M "C 2/M"
_symmetry_group_IT_number 12
_symmetry_cell_setting 'monoclinic'
loop_
_space_group_symop_operation_xyz
x,y,z
-x,y,-z
-x,-y,-z
x,-y,z
1/2+x,1/2+y,z
1/2-x,1/2+y,-z
1/2-x,1/2-y,-z
1/2+x,1/2-y,z
loop_
_atom_site_type_symbol
_atom_site_label
_atom_site_fract_x
_atom_site_fract_y
_atom_site_fract_z
Si Si1 0.420339 0.634406 0.345287
Si Si2 0.500000 0.000000 0.000000
Si Si3 0.649187 0.796242 0.769378
Si Si4 0.119461 0.188810 0.026846
Si Si5 0.836692 0.634227 0.843793
Si Si6 0.141032 0.860415 0.348172
O O1 0.376466 0.500000 0.375018
O O2 0.358474 0.738068 0.347016
O O3 0.523973 0.636425 0.178730
O O4 0.428899 0.653693 0.471940
O O5 0.432567 0.894974 0.129164
O O6 0.752585 0.846980 0.702631
O O7 0.624004 0.689735 0.886748
O O8 0.126489 0.328325 0.068244
O O9 0.220455 0.132968 0.965641
O O10 0.871418 0.500000 0.774796
O O11 0.864413 0.746997 0.733431
O O12 0.131884 0.000000 0.311921
#
# Coordination Sequence:
#
# PCOD9213578 Si02
#       6
#     8   2   8   8   8   8
#     4  11  23  40  61  90 121 160 198 246 298 363
#     4  12  20  36  62  88 122 154 202 242 306 350
#     4  11  22  38  60  91 118 160 194 247 297 358
#     4  10  22  38  61  89 119 152 201 247 302 353
#     4  10  23  41  64  90 118 158 202 256 300 350
#     4  10  23  42  62  86 126 163 201 241 302 360
#
# _framework density 23.554352000000002
#
# number of rings (size 3 to 8) (size 9 to 14) (size 15 to 20)
#    0.000    1.524    2.857    1.143    1.333   10.667 
#    1.714    2.857    0.000    0.000    0.000    0.000 
#    0.000    0.000    0.000    0.000    0.000    0.000 
#
# Total GULP energy -117175.587175 kJ/mol
# GULP energy per Si atom -5579.789865 kJ/mol
# Density = 2.350074 g / cm^3
# Si number density = 23.554352 Si / 1000 Ang^3
#
#
#
# Elastic Constant Matrix: (Units=GPa)
#
#
# Indices 1 2 3 4 5 6 
#
# 1 63.3449 24.7443 5.2213 0.0000 4.0886 0.0000
# 2 24.7443 152.9712 34.6559 0.0000 14.0234 0.0000
# 3 5.2213 34.6559 101.6095 0.0000 -0.0109 0.0000
# 4 0.0000 0.0000 0.0000 -19.2459 0.0000 21.5167
# 5 4.0886 14.0234 -0.0109 0.0000 43.0318 0.0000
# 6 0.0000 0.0000 0.0000 21.5167 0.0000 2.0787
#
#
#
# Elastic Compliance Matrix: (Units=1/GPa)
#
#
# Indices 1 2 3 4 5 6 
#
# 1 0.016874 -0.002672 0.000044 0.000000 -0.000732 0.000000
# 2 -0.002672 0.007745 -0.002505 0.000000 -0.002271 0.000000
# 3 0.000044 -0.002505 0.010694 0.000000 0.000815 0.000000
# 4 0.000000 0.000000 0.000000 -0.004133 0.000000 0.042779
# 5 -0.000732 -0.002271 0.000815 0.000000 0.024048 0.000000
# 6 0.000000 0.000000 0.000000 0.042779 0.000000 0.038264
#
#
# Mechanical properties :
#
#
# Convention : Reuss Voigt Hill
#
# Bulk Modulus (GPa) = 39.92410 49.68539 44.80475
# Shear Modulus (GPa) = 44.60038 22.05988 33.33013
#
# Velocity S-wave (km/s) = 4.35617 3.06363 3.76577
# Velocity P-wave (km/s) = 6.50294 5.80122 6.16208
#
# Compressibility (1/GPa) = 0.02504753
#
# Stress axis : x y z
#
# Youngs Moduli (GPa) = 59.26232 129.11513 93.51368
#
# Poissons Ratio (x) = 0.34505 -0.00414
# Poissons Ratio (y) = 0.15837 0.23421
# Poissons Ratio (z) = -0.00263 0.32337
#
# Static dielectric constant tensor:
#      x y z
#    x 1.933930 0.000000 -0.010590 
#    y 0.000000 1.871450 0.000000 
#    z -0.010590 0.000000 1.902340 
# 
# From -- ./inp_files/164617.got.cif
#   From: 2010.05.17/outbox.cif.g08.bks.cpg/sg12_83_cif.got.tgz:164617.got - 2010.06.03 13:09:07.
