data_PCOD9213236
_publ_section_title
;
Structure prediction by ZEFSAII (Michael W. Deem and Ramdas Pophale) SiO2 
 PCOD9213236
Probable space group: C 2/M
;
_chemical_formula_sum "Si O2"
_cell_formula_units_Z 56
_cell_length_a 17.955411
_cell_length_b 13.928033
_cell_length_c 14.449937
_cell_angle_alpha 90.000000
_cell_angle_beta 132.854050
_cell_angle_gamma 90.000000
_cell_volume 2649.156100
_symmetry_space_group_name_H-M "C 2/M"
_symmetry_group_IT_number 12
_symmetry_cell_setting 'monoclinic'
loop_
_space_group_symop_operation_xyz
x,y,z
-x,y,-z
-x,-y,-z
x,-y,z
1/2+x,1/2+y,z
1/2-x,1/2+y,-z
1/2-x,1/2-y,-z
1/2+x,1/2-y,z
loop_
_atom_site_type_symbol
_atom_site_label
_atom_site_fract_x
_atom_site_fract_y
_atom_site_fract_z
Si Si1 0.277980 0.386855 0.692497
Si Si2 0.609169 0.755639 0.087592
Si Si3 0.449282 0.314854 0.300262
Si Si4 0.786894 0.886507 0.292113
Si Si5 0.813455 0.841105 0.019363
Si Si6 0.632119 0.105507 0.740148
Si Si7 0.322978 0.384742 0.527153
O O1 0.305673 0.500000 0.722226
O O2 0.364041 0.318165 0.807663
O O3 0.182020 0.375284 0.680824
O O4 0.264556 0.362810 0.573060
O O5 0.701373 0.830415 0.162768
O O6 0.500000 0.803686 0.000000
O O7 0.610956 0.693116 0.996544
O O8 0.397098 0.352584 0.350309
O O9 0.381421 0.368821 0.164165
O O10 0.431275 0.199433 0.285023
O O11 0.565676 0.338587 0.382026
O O12 0.770359 0.860163 0.385619
O O13 0.777994 0.000000 0.273409
O O14 0.750000 0.750000 0.000000
O O15 0.727441 0.899879 0.892111
O O16 0.581747 0.000000 0.696661
O O17 0.337316 0.500000 0.537165
#
# Coordination Sequence:
#
# PCOD9213236 Si02
#       7
#     8   8   8   8   8   8   8
#     4   9  18  37  60  86 116 148 188 239 291 336
#     4  11  21  37  58  85 117 147 187 236 289 349
#     4  11  19  37  58  86 117 153 192 240 287 340
#     4  11  23  39  57  81 115 154 196 240 286 338
#     4   9  17  34  54  81 115 149 187 229 277 338
#     4   9  18  33  58  88 118 152 189 235 293 347
#     4  10  22  37  60  88 113 147 199 246 284 337
#
# _framework density 21.138805999999999
#
# number of rings (size 3 to 8) (size 9 to 14) (size 15 to 20)
#    0.000    2.000    4.286    1.714    0.000    3.429 
#    0.000    2.857    0.000    5.143    0.000    0.000 
#    0.000    0.000    0.000    0.000    0.000    0.000 
#
# Total GULP energy -156155.175463 kJ/mol
# GULP energy per Si atom -5576.970552 kJ/mol
# Density = 2.109069 g / cm^3
# Si number density = 21.138806 Si / 1000 Ang^3
#
#
#
# Elastic Constant Matrix: (Units=GPa)
#
#
# Indices 1 2 3 4 5 6 
#
# 1 28.7163 14.7618 17.2509 0.0000 -20.0886 0.0000
# 2 14.7618 76.0299 6.6899 0.0000 -7.5888 0.0000
# 3 17.2509 6.6899 37.5584 0.0000 -21.7823 0.0000
# 4 0.0000 0.0000 0.0000 45.3005 0.0000 -30.1059
# 5 -20.0886 -7.5888 -21.7823 0.0000 39.9420 0.0000
# 6 0.0000 0.0000 0.0000 -30.1059 0.0000 46.3827
#
#
#
# Elastic Compliance Matrix: (Units=1/GPa)
#
#
# Indices 1 2 3 4 5 6 
#
# 1 0.063952 -0.008878 -0.014796 0.000000 0.022408 0.000000
# 2 -0.008878 0.014685 0.000718 0.000000 -0.001284 0.000000
# 3 -0.014796 0.000718 0.042498 0.000000 0.015871 0.000000
# 4 0.000000 0.000000 0.000000 0.038821 0.000000 0.025198
# 5 0.022408 -0.001284 0.015871 0.000000 0.044718 0.000000
# 6 0.000000 0.000000 0.000000 0.025198 0.000000 0.037915
#
#
# Mechanical properties :
#
#
# Convention : Reuss Voigt Hill
#
# Bulk Modulus (GPa) = 13.29416 24.41221 18.85318
# Shear Modulus (GPa) = 15.94513 33.23184 24.58849
#
# Velocity S-wave (km/s) = 2.74944 3.96924 3.41426
# Velocity P-wave (km/s) = 4.04745 5.70790 4.94783
#
# Compressibility (1/GPa) = 0.07522100
#
# Stress axis : x y z
#
# Youngs Moduli (GPa) = 15.63682 68.09569 23.53059
#
# Poissons Ratio (x) = 0.60456 0.34816
# Poissons Ratio (y) = 0.13883 -0.01688
# Poissons Ratio (z) = 0.23137 -0.04886
#
# Static dielectric constant tensor:
#      x y z
#    x 1.770200 0.000000 -0.049690 
#    y 0.000000 1.882450 0.000000 
#    z -0.049690 0.000000 1.782980 
# 
# From -- ./inp_files/225405.got.cif
#   From: 2010.05.17/outbox.cif.g08.bks.cpg/sg12_113_cif.got.tgz:225405.got - 2010.06.03 13:09:07.
