data_PCOD9213750
_publ_section_title
;
Structure prediction by ZEFSAII (Michael W. Deem and Ramdas Pophale) SiO2 
 PCOD9213750
Probable space group: C 2/M
;
_chemical_formula_sum "Si O2"
_cell_formula_units_Z 32
_cell_length_a 25.518549
_cell_length_b 9.707523
_cell_length_c 5.903285
_cell_angle_alpha 90.000000
_cell_angle_beta 71.075073
_cell_angle_gamma 90.000000
_cell_volume 1383.323457
_symmetry_space_group_name_H-M "C 2/M"
_symmetry_group_IT_number 12
_symmetry_cell_setting 'monoclinic'
loop_
_space_group_symop_operation_xyz
x,y,z
-x,y,-z
-x,-y,-z
x,-y,z
1/2+x,1/2+y,z
1/2-x,1/2+y,-z
1/2-x,1/2-y,-z
1/2+x,1/2-y,z
loop_
_atom_site_type_symbol
_atom_site_label
_atom_site_fract_x
_atom_site_fract_y
_atom_site_fract_z
Si Si1 0.953597 0.000000 0.263247
Si Si2 0.188081 0.775491 0.179112
Si Si3 0.345720 0.500000 0.105675
Si Si4 0.500000 0.746153 0.500000
Si Si5 0.269821 0.500000 0.573269
Si Si6 0.957892 0.500000 0.854248
Si Si7 0.338920 0.000000 0.958708
O O1 0.894403 0.000000 0.219956
O O2 0.963428 0.138155 0.401090
O O3 0.000000 0.000000 0.000000
O O4 0.197860 0.863489 0.388932
O O5 0.250000 0.750000 0.000000
O O6 0.161927 0.627901 0.209804
O O7 0.152814 0.868334 0.057075
O O8 0.282134 0.500000 0.291770
O O9 0.467771 0.857179 0.702283
O O10 0.212063 0.500000 0.789354
O O11 0.894784 0.500000 0.021665
O O12 0.000000 0.500000 0.000000
#
# Coordination Sequence:
#
# PCOD9213750 Si02
#       7
#     4   8   4   4   4   4   4
#     4  11  26  45  74  98 138 175 237 289 334 396
#     4   9  21  41  62  94 132 171 212 273 327 394
#     4  11  24  39  72  97 126 179 225 272 335 404
#     4  10  26  46  68 102 132 182 232 280 342 406
#     4   9  21  43  65  96 129 167 223 269 329 404
#     4  11  25  45  69  99 144 174 225 278 346 413
#     4  10  22  38  68  92 134 173 203 273 339 392
#
# _framework density 23.132694999999998
#
# number of rings (size 3 to 8) (size 9 to 14) (size 15 to 20)
#    0.000    2.000    0.000    1.500   10.500    6.000 
#    0.000   11.250    0.000    0.000    0.000    0.000 
#    0.000    0.000    0.000    0.000    0.000    0.000 
#
# Total GULP energy -89313.497042 kJ/mol
# GULP energy per Si atom -5582.093565 kJ/mol
# Density = 2.308004 g / cm^3
# Si number density = 23.132695 Si / 1000 Ang^3
#
#
#
# Elastic Constant Matrix: (Units=GPa)
#
#
# Indices 1 2 3 4 5 6 
#
# 1 138.5927 52.2765 21.6128 0.0000 7.3127 0.0000
# 2 52.2765 221.1019 38.7260 0.0000 13.2118 0.0000
# 3 21.6128 38.7260 63.3065 0.0000 -8.2108 0.0000
# 4 0.0000 0.0000 0.0000 -21.3034 0.0000 -22.6723
# 5 7.3127 13.2118 -8.2108 0.0000 28.2602 0.0000
# 6 0.0000 0.0000 0.0000 -22.6723 0.0000 -9.3100
#
#
#
# Elastic Compliance Matrix: (Units=1/GPa)
#
#
# Indices 1 2 3 4 5 6 
#
# 1 0.008208 -0.001430 -0.002199 0.000000 -0.002094 0.000000
# 2 -0.001430 0.005649 -0.003390 0.000000 -0.003256 0.000000
# 3 -0.002199 -0.003390 0.019640 0.000000 0.007860 0.000000
# 4 0.000000 0.000000 0.000000 0.029490 0.000000 -0.071816
# 5 -0.002094 -0.003256 0.007860 0.000000 0.039733 0.000000
# 6 0.000000 0.000000 0.000000 -0.071816 0.000000 0.067480
#
#
# Mechanical properties :
#
#
# Convention : Reuss Voigt Hill
#
# Bulk Modulus (GPa) = 51.38914 72.02574 61.70744
# Shear Modulus (GPa) = 26.21566 20.22174 23.21870
#
# Velocity S-wave (km/s) = 3.37006 2.95983 3.17159
# Velocity P-wave (km/s) = 6.11607 6.54861 6.33603
#
# Compressibility (1/GPa) = 0.01945937
#
# Stress axis : x y z
#
# Youngs Moduli (GPa) = 121.82712 177.01407 50.91692
#
# Poissons Ratio (x) = 0.25322 0.11196
# Poissons Ratio (y) = 0.17427 0.17259
# Poissons Ratio (z) = 0.26788 0.60002
#
# Static dielectric constant tensor:
#      x y z
#    x 1.874600 0.000000 -0.008140 
#    y 0.000000 1.809700 0.000000 
#    z -0.008140 0.000000 1.862750 
# 
# From -- ./inp_files/30223.got.cif
#   From: 2010.05.17/outbox.cif.g08.bks.cpg/sg12_16_cif.got.tgz:30223.got - 2010.06.03 13:09:07.
