data_PCOD9213666
_publ_section_title
;
Structure prediction by ZEFSAII (Michael W. Deem and Ramdas Pophale) SiO2 
 PCOD9213666
Probable space group: C 2/M
;
_chemical_formula_sum "Si O2"
_cell_formula_units_Z 52
_cell_length_a 14.036246
_cell_length_b 18.549570
_cell_length_c 24.269959
_cell_angle_alpha 90.000000
_cell_angle_beta 156.926325
_cell_angle_gamma 90.000000
_cell_volume 2476.538839
_symmetry_space_group_name_H-M "C 2/M"
_symmetry_group_IT_number 12
_symmetry_cell_setting 'monoclinic'
loop_
_space_group_symop_operation_xyz
x,y,z
-x,y,-z
-x,-y,-z
x,-y,z
1/2+x,1/2+y,z
1/2-x,1/2+y,-z
1/2-x,1/2-y,-z
1/2+x,1/2-y,z
loop_
_atom_site_type_symbol
_atom_site_label
_atom_site_fract_x
_atom_site_fract_y
_atom_site_fract_z
Si Si1 0.050928 0.159672 0.904429
Si Si2 0.395668 0.226383 0.274223
Si Si3 0.404662 0.500000 0.665496
Si Si4 0.516434 0.781499 0.211476
Si Si5 0.645470 0.000000 0.179629
Si Si6 0.589700 0.389517 0.604936
Si Si7 0.928510 0.000000 0.122556
Si Si8 0.790044 0.139596 0.543856
O O1 0.008959 0.199319 0.823204
O O2 0.012706 0.074195 0.878350
O O3 0.872540 0.201778 0.851767
O O4 0.319337 0.176483 0.069526
O O5 0.457272 0.205881 0.244058
O O6 0.558776 0.189130 0.409038
O O7 0.477833 0.309908 0.318819
O O8 0.667325 0.500000 0.772591
O O9 0.437178 0.500000 0.747640
O O10 0.270804 0.572613 0.574066
O O11 0.782182 0.813351 0.340023
O O12 0.717358 0.066404 0.256918
O O13 0.360415 0.000000 0.016775
O O14 0.500000 0.420689 0.500000
O O15 0.354667 0.389182 0.517991
#
# Coordination Sequence:
#
# PCOD9213666 Si02
#       8
#     8   8   4   8   4   8   4   8
#     4  11  25  41  63  93 131 169 212 261 310 388
#     4  11  22  41  63  89 127 172 210 265 314 376
#     4  10  23  40  65  96 122 167 209 266 330 367
#     4  11  22  40  64  91 124 165 217 259 315 373
#     4  10  22  38  63  94 129 161 209 264 317 383
#     4  11  19  38  63  95 123 159 207 266 322 365
#     4  12  23  44  61  93 135 169 210 255 321 390
#     4  10  22  39  62  93 127 158 220 264 314 383
#
# _framework density 20.997046000000001
#
# number of rings (size 3 to 8) (size 9 to 14) (size 15 to 20)
#    0.000    1.231    4.615    1.846    0.000    0.615 
#    0.000    9.231    0.000    0.000    0.000    0.000 
#    0.000    0.000    0.000    0.000    0.000    0.000 
#
# Total GULP energy -145044.864910 kJ/mol
# GULP energy per Si atom -5578.648650 kJ/mol
# Density = 2.094926 g / cm^3
# Si number density = 20.997046 Si / 1000 Ang^3
#
#
#
# Elastic Constant Matrix: (Units=GPa)
#
#
# Indices 1 2 3 4 5 6 
#
# 1 46.3658 1.5778 0.3367 0.0048 -18.1485 0.0008
# 2 1.5778 129.7416 23.5028 0.0044 -14.5613 -0.0006
# 3 0.3367 23.5028 41.0241 0.0191 -9.8791 -0.0060
# 4 0.0048 0.0044 0.0191 35.4290 -0.0059 -0.6949
# 5 -18.1485 -14.5613 -9.8791 -0.0059 28.8672 -0.0003
# 6 0.0008 -0.0006 -0.0060 -0.6949 -0.0003 16.9095
#
#
#
# Elastic Compliance Matrix: (Units=1/GPa)
#
#
# Indices 1 2 3 4 5 6 
#
# 1 0.029546 0.001222 0.004009 -0.000003 0.020564 0.000000
# 2 0.001222 0.008878 -0.004177 0.000002 0.003817 -0.000001
# 3 0.004009 -0.004177 0.029246 -0.000014 0.010422 0.000010
# 4 -0.000003 0.000002 -0.000014 0.028248 0.000000 0.001161
# 5 0.020564 0.003817 0.010422 0.000000 0.053062 0.000004
# 6 0.000000 -0.000001 0.000010 0.001161 0.000004 0.059186
#
#
# Mechanical properties :
#
#
# Convention : Reuss Voigt Hill
#
# Bulk Modulus (GPa) = 14.33098 29.77401 22.05250
# Shear Modulus (GPa) = 21.80397 29.02210 25.41304
#
# Velocity S-wave (km/s) = 3.22596 3.72183 3.48273
# Velocity P-wave (km/s) = 4.55147 5.71666 5.16701
#
# Compressibility (1/GPa) = 0.06977888
#
# Stress axis : x y z
#
# Youngs Moduli (GPa) = 33.84553 112.64004 34.19297
#
# Poissons Ratio (x) = -0.13769 -0.13709
# Poissons Ratio (y) = -0.04137 0.14282
# Poissons Ratio (z) = -0.13569 0.47049
#
# Static dielectric constant tensor:
#      x y z
#    x 1.763460 0.000000 0.021260 
#    y 0.000000 1.819080 -0.000020 
#    z 0.021260 -0.000020 1.762740 
# 
# From -- ./inp_files/306942.got.cif
#   From: 2010.05.17/outbox.cif.g08.bks.cpg/sg12_154_cif.got.tgz:306942.got - 2010.06.03 13:09:07.
