data_PCOD9213916
_publ_section_title
;
Structure prediction by ZEFSAII (Michael W. Deem and Ramdas Pophale) SiO2 
 PCOD9213916
Probable space group: C 2/M
;
_chemical_formula_sum "Si O2"
_cell_formula_units_Z 52
_cell_length_a 27.628103
_cell_length_b 7.581562
_cell_length_c 12.421252
_cell_angle_alpha 90.000000
_cell_angle_beta 115.027088
_cell_angle_gamma 90.000000
_cell_volume 2357.518115
_symmetry_space_group_name_H-M "C 2/M"
_symmetry_group_IT_number 12
_symmetry_cell_setting 'monoclinic'
loop_
_space_group_symop_operation_xyz
x,y,z
-x,y,-z
-x,-y,-z
x,-y,z
1/2+x,1/2+y,z
1/2-x,1/2+y,-z
1/2-x,1/2-y,-z
1/2+x,1/2-y,z
loop_
_atom_site_type_symbol
_atom_site_label
_atom_site_fract_x
_atom_site_fract_y
_atom_site_fract_z
Si Si1 0.250000 0.250000 0.500000
Si Si2 0.121906 0.790627 0.365419
Si Si3 0.149167 0.713421 0.777891
Si Si4 0.054744 0.203771 0.097496
Si Si5 0.754086 0.293697 0.744617
Si Si6 0.940242 0.286699 0.471533
Si Si7 0.854926 0.714333 0.979940
O O1 0.182642 0.278386 0.431507
O O2 0.250207 0.201561 0.373368
O O3 0.087030 0.720889 0.231024
O O4 0.087284 0.766198 0.441649
O O5 0.129700 0.000000 0.356761
O O6 0.150299 0.500000 0.779595
O O7 0.201236 0.776601 0.764759
O O8 0.098266 0.770725 0.661455
O O9 0.148276 0.772840 0.900099
O O10 0.094900 0.211792 0.035692
O O11 0.042545 0.000000 0.115714
O O12 0.000000 0.285159 0.000000
O O13 0.760933 0.500000 0.720401
O O14 0.802945 0.233763 0.863372
O O15 0.941626 0.500000 0.474331
O O16 0.000000 0.224762 0.500000
O O17 0.857571 0.500000 0.981097
#
# Coordination Sequence:
#
# PCOD9213916 Si02
#       7
#     4   8   8   8   8   8   8
#     4  12  22  38  62  92 126 160 196 250 310 368
#     4  11  24  42  65  93 124 162 206 255 308 365
#     4  10  22  39  60  85 118 156 197 245 296 354
#     4  10  23  42  61  86 119 156 201 250 299 352
#     4  11  23  39  60  88 120 154 198 246 298 362
#     4  10  23  41  61  89 122 160 202 248 302 361
#     4  10  22  40  60  86 117 154 198 243 295 357
#
# _framework density 22.057093999999999
#
# number of rings (size 3 to 8) (size 9 to 14) (size 15 to 20)
#    0.000    1.538    3.077    0.923    2.154    4.923 
#    0.000    0.000    0.000    0.000    0.000    0.000 
#    0.000    0.000    0.000    0.000    0.000    0.000 
#
# Total GULP energy -144791.551735 kJ/mol
# GULP energy per Si atom -5568.905836 kJ/mol
# Density = 2.200689 g / cm^3
# Si number density = 22.057094 Si / 1000 Ang^3
#
#
#
# Elastic Constant Matrix: (Units=GPa)
#
#
# Indices 1 2 3 4 5 6 
#
# 1 191.7616 7.2491 119.8469 0.0000 29.3205 0.0000
# 2 7.2491 49.9656 21.0314 0.0000 4.3027 0.0000
# 3 119.8469 21.0314 215.7096 0.0000 -3.2263 0.0000
# 4 0.0000 0.0000 0.0000 5.6473 0.0000 -8.3794
# 5 29.3205 4.3027 -3.2263 0.0000 45.8881 0.0000
# 6 0.0000 0.0000 0.0000 -8.3794 0.0000 42.6360
#
#
#
# Elastic Compliance Matrix: (Units=1/GPa)
#
#
# Indices 1 2 3 4 5 6 
#
# 1 0.009723 0.001551 -0.005654 0.000000 -0.006755 0.000000
# 2 0.001551 0.021322 -0.002989 0.000000 -0.003200 0.000000
# 3 -0.005654 -0.002989 0.008135 0.000000 0.004465 0.000000
# 4 0.000000 0.000000 0.000000 0.249967 0.000000 0.049127
# 5 -0.006755 -0.003200 0.004465 0.000000 0.026723 0.000000
# 6 0.000000 0.000000 0.000000 0.049127 0.000000 0.033109
#
#
# Mechanical properties :
#
#
# Convention : Reuss Voigt Hill
#
# Bulk Modulus (GPa) = 40.00437 83.74350 61.87394
# Shear Modulus (GPa) = 13.45913 39.45492 26.45703
#
# Velocity S-wave (km/s) = 2.47289 4.23397 3.46711
# Velocity P-wave (km/s) = 5.13125 7.87090 6.64382
#
# Compressibility (1/GPa) = 0.02499727
#
# Stress axis : x y z
#
# Youngs Moduli (GPa) = 102.85032 46.89929 122.91836
#
# Poissons Ratio (x) = -0.07275 0.69501
# Poissons Ratio (y) = -0.15953 0.36735
# Poissons Ratio (z) = 0.58154 0.14016
#
# Static dielectric constant tensor:
#      x y z
#    x 1.765260 0.000000 0.044700 
#    y 0.000000 1.886460 0.000000 
#    z 0.044700 0.000000 1.803710 
# 
# From -- ./inp_files/180156.got.cif
#   From: 2010.05.17/outbox.cif.g08.bks.cpg/sg12_91_cif.got.tgz:180156.got - 2010.06.03 13:09:07.
