data_PCOD9213450
_publ_section_title
;
Structure prediction by ZEFSAII (Michael W. Deem and Ramdas Pophale) SiO2 
 PCOD9213450
Probable space group: C 2/M
;
_chemical_formula_sum "Si O2"
_cell_formula_units_Z 32
_cell_length_a 24.847711
_cell_length_b 11.294080
_cell_length_c 14.966480
_cell_angle_alpha 90.000000
_cell_angle_beta 17.892533
_cell_angle_gamma 90.000000
_cell_volume 1290.399578
_symmetry_space_group_name_H-M "C 2/M"
_symmetry_group_IT_number 12
_symmetry_cell_setting 'monoclinic'
loop_
_space_group_symop_operation_xyz
x,y,z
-x,y,-z
-x,-y,-z
x,-y,z
1/2+x,1/2+y,z
1/2-x,1/2+y,-z
1/2-x,1/2-y,-z
1/2+x,1/2-y,z
loop_
_atom_site_type_symbol
_atom_site_label
_atom_site_fract_x
_atom_site_fract_y
_atom_site_fract_z
Si Si1 0.420958 0.254499 0.293182
Si Si2 0.756771 0.871305 0.912917
Si Si3 0.447394 0.000000 0.186001
Si Si4 0.029179 0.000000 0.849554
Si Si5 0.439740 0.739125 0.466296
O O1 0.250000 0.250000 0.500000
O O2 0.530030 0.372716 0.094882
O O3 0.367766 0.273379 0.480332
O O4 0.500149 0.122930 0.151413
O O5 0.908830 0.855882 0.746446
O O6 0.804802 0.774797 0.760690
O O7 0.771113 0.000000 0.849473
O O8 0.567222 0.852678 0.256158
O O9 0.237755 0.000000 0.510655
O O10 0.500000 0.000000 0.000000
O O11 0.000000 0.000000 0.000000
#
# Coordination Sequence:
#
# PCOD9213450 Si02
#       5
#     8   8   4   4   8
#     4  10  23  41  66  97 133 175 222 273 338 407
#     4  10  23  44  70  96 138 176 232 283 343 406
#     4  10  22  40  60  88 128 172 216 262 319 396
#     4  10  22  38  58  86 128 168 212 264 321 390
#     4  10  22  41  67  99 130 178 226 279 342 405
#
# _framework density 24.798518999999999
#
# number of rings (size 3 to 8) (size 9 to 14) (size 15 to 20)
#    0.000    2.000    0.000    2.250    5.250    8.000 
#    0.000   11.250    0.000    0.000    0.000    0.000 
#    0.000    0.000    0.000    0.000    0.000    0.000 
#
# Total GULP energy -89290.737121 kJ/mol
# GULP energy per Si atom -5580.671070 kJ/mol
# Density = 2.474208 g / cm^3
# Si number density = 24.798519 Si / 1000 Ang^3
#
#
#
# Elastic Constant Matrix: (Units=GPa)
#
#
# Indices 1 2 3 4 5 6 
#
# 1 170.5986 46.3763 32.4020 0.0001 20.6223 0.0000
# 2 46.3763 202.3097 39.8267 -0.0001 26.2188 -0.0001
# 3 32.4020 39.8267 102.8585 -0.0004 33.6737 -0.0001
# 4 0.0001 -0.0001 -0.0004 25.3259 0.0001 8.3959
# 5 20.6223 26.2188 33.6737 0.0001 53.3013 0.0001
# 6 0.0000 -0.0001 -0.0001 8.3959 0.0001 25.3277
#
#
#
# Elastic Compliance Matrix: (Units=1/GPa)
#
#
# Indices 1 2 3 4 5 6 
#
# 1 0.006542 -0.001099 -0.001240 0.000000 -0.001207 0.000000
# 2 -0.001099 0.005656 -0.001352 0.000000 -0.001503 0.000000
# 3 -0.001240 -0.001352 0.012937 0.000000 -0.007028 0.000000
# 4 0.000000 0.000000 0.000000 0.044360 0.000000 -0.014705
# 5 -0.001207 -0.001503 -0.007028 0.000000 0.024408 0.000000
# 6 0.000000 0.000000 0.000000 -0.014705 0.000000 0.044357
#
#
# Mechanical properties :
#
#
# Convention : Reuss Voigt Hill
#
# Bulk Modulus (GPa) = 56.32834 79.21965 67.77400
# Shear Modulus (GPa) = 32.99048 44.60177 38.79612
#
# Velocity S-wave (km/s) = 3.65134 4.24555 3.95961
# Velocity P-wave (km/s) = 6.36711 7.48649 6.94938
#
# Compressibility (1/GPa) = 0.01775305
#
# Stress axis : x y z
#
# Youngs Moduli (GPa) = 152.86003 176.81217 77.29722
#
# Poissons Ratio (x) = 0.19433 0.09586
# Poissons Ratio (y) = 0.16801 0.10448
# Poissons Ratio (z) = 0.18956 0.23899
#
# Static dielectric constant tensor:
#      x y z
#    x 1.982070 0.000000 -0.079110 
#    y 0.000000 2.012380 0.000000 
#    z -0.079110 0.000000 1.966370 
# 
# From -- ./inp_files/245495.got.cif
#   From: 2010.05.17/outbox.cif.g08.bks.cpg/sg12_123_cif.got.tgz:245495.got - 2010.06.03 13:09:07.
