data_PCOD9213640
_publ_section_title
;
Structure prediction by ZEFSAII (Michael W. Deem and Ramdas Pophale) SiO2 
 PCOD9213640
Probable space group: C 2/M
;
_chemical_formula_sum "Si O2"
_cell_formula_units_Z 48
_cell_length_a 23.352400
_cell_length_b 23.480302
_cell_length_c 4.921178
_cell_angle_alpha 90.000000
_cell_angle_beta 128.879528
_cell_angle_gamma 90.000000
_cell_volume 2100.606688
_symmetry_space_group_name_H-M "C 2/M"
_symmetry_group_IT_number 12
_symmetry_cell_setting 'monoclinic'
loop_
_space_group_symop_operation_xyz
x,y,z
-x,y,-z
-x,-y,-z
x,-y,z
1/2+x,1/2+y,z
1/2-x,1/2+y,-z
1/2-x,1/2-y,-z
1/2+x,1/2-y,z
loop_
_atom_site_type_symbol
_atom_site_label
_atom_site_fract_x
_atom_site_fract_y
_atom_site_fract_z
Si Si1 0.418770 0.064243 0.118882
Si Si2 0.734170 0.936701 0.001435
Si Si3 0.449595 0.314136 0.085047
Si Si4 0.776937 0.714300 0.833974
Si Si5 0.428992 0.188951 0.102375
Si Si6 0.697228 0.612972 0.334100
O O1 0.500000 0.063597 0.500000
O O2 0.417384 0.124942 0.947810
O O3 0.411536 0.000000 0.970571
O O4 0.348631 0.070103 0.115121
O O5 0.794170 0.938342 0.428275
O O6 0.732909 0.000000 0.874485
O O7 0.761003 0.898241 0.824373
O O8 0.500000 0.309374 0.500000
O O9 0.429653 0.248544 0.936957
O O10 0.500000 0.339587 0.000000
O O11 0.379708 0.354287 0.935293
O O12 0.750000 0.750000 0.500000
O O13 0.741539 0.654653 0.667591
O O14 0.750000 0.750000 0.000000
O O15 0.862317 0.703222 0.103367
O O16 0.500000 0.185349 0.500000
#
# Coordination Sequence:
#
# PCOD9213640 Si02
#       6
#     8   8   8   8   8   8
#     4   9  19  40  65  94 136 184 232 280 330 388
#     4  11  24  44  72 103 135 180 235 283 336 405
#     4  11  25  43  68 101 137 178 223 279 349 420
#     4  12  25  40  64  98 137 177 225 280 338 407
#     4  10  22  38  62  95 136 179 222 273 330 401
#     4  12  24  44  72  98 139 181 224 285 350 408
#
# _framework density 22.850539999999999
#
# number of rings (size 3 to 8) (size 9 to 14) (size 15 to 20)
#    0.000    1.167    3.333    2.500    4.667    0.000 
#    3.000    0.833    0.000   14.500    0.000    0.000 
#    0.000    0.000    0.000    0.000    0.000    0.000 
#
# Total GULP energy -133688.461683 kJ/mol
# GULP energy per Si atom -5570.352570 kJ/mol
# Density = 2.279853 g / cm^3
# Si number density = 22.850540 Si / 1000 Ang^3
#
#
#
# Elastic Constant Matrix: (Units=GPa)
#
#
# Indices 1 2 3 4 5 6 
#
# 1 115.8006 49.9694 58.7228 0.0000 10.7131 0.0000
# 2 49.9694 133.4550 40.1984 0.0000 16.2758 0.0000
# 3 58.7228 40.1984 105.2045 0.0000 9.3997 0.0000
# 4 0.0000 0.0000 0.0000 27.6798 0.0000 10.2513
# 5 10.7131 16.2758 9.3997 0.0000 50.1445 0.0000
# 6 0.0000 0.0000 0.0000 10.2513 0.0000 43.0038
#
#
#
# Elastic Compliance Matrix: (Units=1/GPa)
#
#
# Indices 1 2 3 4 5 6 
#
# 1 0.013077 -0.002975 -0.006101 0.000000 -0.000684 0.000000
# 2 -0.002975 0.009385 -0.001739 0.000000 -0.002085 0.000000
# 3 -0.006101 -0.001739 0.013637 0.000000 -0.000688 0.000000
# 4 0.000000 0.000000 0.000000 0.039626 0.000000 -0.009446
# 5 -0.000684 -0.002085 -0.000688 0.000000 0.020894 0.000000
# 6 0.000000 0.000000 0.000000 -0.009446 0.000000 0.025506
#
#
# Mechanical properties :
#
#
# Convention : Reuss Voigt Hill
#
# Bulk Modulus (GPa) = 69.11875 72.47126 70.79500
# Shear Modulus (GPa) = 33.65248 37.87024 35.76136
#
# Velocity S-wave (km/s) = 3.84177 4.07541 3.96031
# Velocity P-wave (km/s) = 7.07056 7.34367 7.20841
#
# Compressibility (1/GPa) = 0.01446785
#
# Stress axis : x y z
#
# Youngs Moduli (GPa) = 76.47302 106.55066 73.33069
#
# Poissons Ratio (x) = 0.31699 0.44740
# Poissons Ratio (y) = 0.22751 0.12754
# Poissons Ratio (z) = 0.46657 0.18532
#
# Static dielectric constant tensor:
#      x y z
#    x 2.642820 0.000000 -0.514620 
#    y 0.000000 0.734790 0.000000 
#    z -0.514620 0.000000 2.583330 
# 
# From -- ./inp_files/21983.got.cif
#   From: 2010.05.17/outbox.cif.g08.bks.cpg/sg12_11_cif.got.tgz:21983.got - 2010.06.03 13:09:07.
