data_PCOD9213876
_publ_section_title
;
Structure prediction by ZEFSAII (Michael W. Deem and Ramdas Pophale) SiO2 
 PCOD9213876
Probable space group: C 2/M
;
_chemical_formula_sum "Si O2"
_cell_formula_units_Z 56
_cell_length_a 18.298129
_cell_length_b 26.728010
_cell_length_c 6.738809
_cell_angle_alpha 90.000000
_cell_angle_beta 58.602071
_cell_angle_gamma 90.000000
_cell_volume 2813.166333
_symmetry_space_group_name_H-M "C 2/M"
_symmetry_group_IT_number 12
_symmetry_cell_setting 'monoclinic'
loop_
_space_group_symop_operation_xyz
x,y,z
-x,y,-z
-x,-y,-z
x,-y,z
1/2+x,1/2+y,z
1/2-x,1/2+y,-z
1/2-x,1/2-y,-z
1/2+x,1/2-y,z
loop_
_atom_site_type_symbol
_atom_site_label
_atom_site_fract_x
_atom_site_fract_y
_atom_site_fract_z
Si Si1 0.918748 0.730539 0.261095
Si Si2 0.096087 0.940428 0.858907
Si Si3 0.715923 0.400036 0.355154
Si Si4 0.241729 0.558062 0.111748
Si Si5 0.091640 0.183997 0.383736
Si Si6 0.825462 0.642064 0.546508
Si Si7 0.695902 0.275372 0.900182
O O1 0.916879 0.772599 0.436994
O O2 0.906135 0.677066 0.385676
O O3 0.837477 0.740703 0.230557
O O4 0.000000 0.731975 0.000000
O O5 0.143718 0.926939 0.588767
O O6 0.165075 0.925776 0.929674
O O7 0.088310 0.000000 0.887692
O O8 0.000000 0.918585 0.000000
O O9 0.669151 0.351741 0.331634
O O10 0.790647 0.382347 0.394377
O O11 0.750831 0.434480 0.132080
O O12 0.227163 0.500000 0.185845
O O13 0.173021 0.596463 0.300310
O O14 0.000000 0.157295 0.500000
O O15 0.113650 0.204815 0.135492
O O16 0.753109 0.680527 0.729217
O O17 0.750000 0.250000 0.000000
#
# Coordination Sequence:
#
# PCOD9213876 Si02
#       7
#     8   8   8   8   8   8   8
#     4  12  25  41  60  91 126 158 200 251 300 358
#     4   9  20  35  51  77 114 154 199 251 297 346
#     4  11  22  35  58  84 114 160 202 243 295 350
#     4  10  22  39  59  85 114 152 204 255 304 356
#     4  12  24  36  55  88 125 164 196 241 293 350
#     4  11  23  39  63  87 115 158 202 251 297 358
#     4  12  22  38  62  86 122 162 201 241 293 358
#
# _framework density 19.906396000000001
#
# number of rings (size 3 to 8) (size 9 to 14) (size 15 to 20)
#    0.000    1.000    5.714    1.714    2.000    1.143 
#    0.000    2.143    0.000    0.429    0.000    1.000 
#    0.000    0.000    0.000    0.000    0.000    0.000 
#
# Total GULP energy -156342.447424 kJ/mol
# GULP energy per Si atom -5583.658837 kJ/mol
# Density = 1.986109 g / cm^3
# Si number density = 19.906396 Si / 1000 Ang^3
#
#
#
# Elastic Constant Matrix: (Units=GPa)
#
#
# Indices 1 2 3 4 5 6 
#
# 1 17.7458 7.5732 5.7566 0.0000 6.8459 0.0000
# 2 7.5732 7.4776 6.9731 0.0000 -5.3194 0.0000
# 3 5.7566 6.9731 91.0277 0.0000 5.8630 0.0000
# 4 0.0000 0.0000 0.0000 37.1201 0.0000 -0.0527
# 5 6.8459 -5.3194 5.8630 0.0000 28.2801 0.0000
# 6 0.0000 0.0000 0.0000 -0.0527 0.0000 18.4756
#
#
#
# Elastic Compliance Matrix: (Units=1/GPa)
#
#
# Indices 1 2 3 4 5 6 
#
# 1 0.293975 -0.433021 0.024740 0.000000 -0.157742 0.000000
# 2 -0.433021 0.811723 -0.052078 0.000000 0.268302 0.000000
# 3 0.024740 -0.052078 0.014622 0.000000 -0.018816 0.000000
# 4 0.000000 0.000000 0.000000 0.026940 0.000000 0.000077
# 5 -0.157742 0.268302 -0.018816 0.000000 0.127913 0.000000
# 6 0.000000 0.000000 0.000000 0.000077 0.000000 0.054126
#
#
# Mechanical properties :
#
#
# Convention : Reuss Voigt Hill
#
# Bulk Modulus (GPa) = 5.00996 17.42852 11.21924
# Shear Modulus (GPa) = 2.15838 23.17173 12.66505
#
# Velocity S-wave (km/s) = 1.04241 3.41550 2.52510
# Velocity P-wave (km/s) = 1.99275 4.93238 3.76161
#
# Compressibility (1/GPa) = 0.19960236
#
# Stress axis : x y z
#
# Youngs Moduli (GPa) = 3.40165 1.23195 68.38818
#
# Poissons Ratio (x) = 0.53346 -1.69194
# Poissons Ratio (y) = 1.47299 3.56152
# Poissons Ratio (z) = -0.08416 0.06416
#
# Static dielectric constant tensor:
#      x y z
#    x 1.726750 0.000000 0.003850 
#    y 0.000000 1.719680 0.000000 
#    z 0.003850 0.000000 1.738770 
# 
# From -- ./inp_files/17643.got.cif
#   From: 2010.05.17/outbox.cif.g08.bks.cpg/sg12_9_cif.got.tgz:17643.got - 2010.06.03 13:09:07.
