data_PCOD9213538
_publ_section_title
;
Structure prediction by ZEFSAII (Michael W. Deem and Ramdas Pophale) SiO2 
 PCOD9213538
Probable space group: C 2/M
;
_chemical_formula_sum "Si O2"
_cell_formula_units_Z 64
_cell_length_a 31.383861
_cell_length_b 22.353082
_cell_length_c 16.471135
_cell_angle_alpha 90.000000
_cell_angle_beta 17.277083
_cell_angle_gamma 90.000000
_cell_volume 3431.732881
_symmetry_space_group_name_H-M "C 2/M"
_symmetry_group_IT_number 12
_symmetry_cell_setting 'monoclinic'
loop_
_space_group_symop_operation_xyz
x,y,z
-x,y,-z
-x,-y,-z
x,-y,z
1/2+x,1/2+y,z
1/2-x,1/2+y,-z
1/2-x,1/2-y,-z
1/2+x,1/2-y,z
loop_
_atom_site_type_symbol
_atom_site_label
_atom_site_fract_x
_atom_site_fract_y
_atom_site_fract_z
Si Si1 0.652118 0.269568 0.253383
Si Si2 0.872173 0.128085 0.177944
Si Si3 0.829380 0.754792 0.183734
Si Si4 0.299635 0.570568 0.592300
Si Si5 0.672553 0.154071 0.687416
Si Si6 0.852856 0.343419 0.007896
Si Si7 0.639561 0.569070 0.967258
Si Si8 0.356065 0.168202 0.600838
O O1 0.500000 0.294426 0.500000
O O2 0.619772 0.211251 0.367102
O O3 0.750000 0.250000 0.000000
O O4 0.740605 0.314382 0.149530
O O5 0.926610 0.190123 0.037156
O O6 0.740864 0.146804 0.474478
O O7 0.832125 0.082984 0.179514
O O8 0.000000 0.103306 0.000000
O O9 0.787368 0.715080 0.337732
O O10 0.705886 0.789533 0.358742
O O11 0.889248 0.707702 0.009267
O O12 0.275452 0.500000 0.634827
O O13 0.238557 0.601376 0.622410
O O14 0.470639 0.581134 0.287474
O O15 0.219085 0.602771 0.812656
O O16 0.500000 0.151430 0.000000
O O17 0.996848 0.359452 0.698693
O O18 0.669317 0.500000 0.932423
O O19 0.738420 0.617372 0.832308
#
# Coordination Sequence:
#
# PCOD9213538 Si02
#       8
#     8   8   8   8   8   8   8   8
#     4  11  22  38  64  97 131 152 173 219 279 340
#     4  11  21  34  54  78 106 150 196 243 298 347
#     4   9  22  32  54  77 118 147 185 231 294 349
#     4  10  23  42  59  77 110 155 200 244 290 338
#     4  11  23  36  51  79 112 148 194 250 303 344
#     4  10  22  38  60  89 118 150 192 228 274 346
#     4  10  23  41  59  79 109 153 201 245 289 337
#     4  10  22  38  61  89 116 151 193 227 275 345
#
# _framework density 18.649470999999998
#
# number of rings (size 3 to 8) (size 9 to 14) (size 15 to 20)
#    0.000    1.750    2.500    0.750   10.500    4.500 
#    0.000    0.000    0.000    1.500    0.000    0.000 
#    0.000    0.000    0.000    0.000    0.000    0.000 
#
# Total GULP energy -178640.620733 kJ/mol
# GULP energy per Si atom -5582.519398 kJ/mol
# Density = 1.860702 g / cm^3
# Si number density = 18.649471 Si / 1000 Ang^3
#
#
#
# Elastic Constant Matrix: (Units=GPa)
#
#
# Indices 1 2 3 4 5 6 
#
# 1 45.1714 10.7948 11.6106 0.0002 1.9415 0.0005
# 2 10.7948 96.4648 35.0777 0.0037 -4.9180 -0.0011
# 3 11.6106 35.0777 96.0025 0.0012 1.8489 -0.0001
# 4 0.0002 0.0037 0.0012 19.5789 -0.0005 -0.9877
# 5 1.9415 -4.9180 1.8489 -0.0005 24.6891 -0.0011
# 6 0.0005 -0.0011 -0.0001 -0.9877 -0.0011 17.0481
#
#
#
# Elastic Compliance Matrix: (Units=1/GPa)
#
#
# Indices 1 2 3 4 5 6 
#
# 1 0.023222 -0.001957 -0.002054 0.000000 -0.002062 -0.000001
# 2 -0.001957 0.012304 -0.004315 -0.000002 0.002928 0.000001
# 3 -0.002054 -0.004315 0.012273 0.000000 -0.001617 0.000000
# 4 0.000000 -0.000002 0.000000 0.051225 0.000001 0.002968
# 5 -0.002062 0.002928 -0.001617 0.000001 0.041370 0.000003
# 6 -0.000001 0.000001 0.000000 0.002968 0.000003 0.058830
#
#
# Mechanical properties :
#
#
# Convention : Reuss Voigt Hill
#
# Bulk Modulus (GPa) = 32.10628 39.17833 35.64230
# Shear Modulus (GPa) = 22.09867 24.27358 23.18613
#
# Velocity S-wave (km/s) = 3.44604 3.61164 3.52981
# Velocity P-wave (km/s) = 5.75210 6.20043 5.98047
#
# Compressibility (1/GPa) = 0.03114655
#
# Stress axis : x y z
#
# Youngs Moduli (GPa) = 43.06245 81.27470 81.48176
#
# Poissons Ratio (x) = 0.15905 0.16734
# Poissons Ratio (y) = 0.08427 0.35162
# Poissons Ratio (z) = 0.08844 0.35073
#
# Static dielectric constant tensor:
#      x y z
#    x 1.649370 0.000000 0.002500 
#    y 0.000000 1.627050 0.000000 
#    z 0.002500 0.000000 1.648570 
# 
# From -- ./inp_files/251889.got.cif
#   From: 2010.05.17/outbox.cif.g08.bks.cpg/sg12_126_cif.got.tgz:251889.got - 2010.06.03 13:09:07.
