data_PCOD9213726
_publ_section_title
;
Structure prediction by ZEFSAII (Michael W. Deem and Ramdas Pophale) SiO2 
 PCOD9213726
Probable space group: C 2/M
;
_chemical_formula_sum "Si O2"
_cell_formula_units_Z 44
_cell_length_a 9.465446
_cell_length_b 22.067318
_cell_length_c 11.000196
_cell_angle_alpha 90.000000
_cell_angle_beta 67.961647
_cell_angle_gamma 90.000000
_cell_volume 2129.802594
_symmetry_space_group_name_H-M "C 2/M"
_symmetry_group_IT_number 12
_symmetry_cell_setting 'monoclinic'
loop_
_space_group_symop_operation_xyz
x,y,z
-x,y,-z
-x,-y,-z
x,-y,z
1/2+x,1/2+y,z
1/2-x,1/2+y,-z
1/2-x,1/2-y,-z
1/2+x,1/2-y,z
loop_
_atom_site_type_symbol
_atom_site_label
_atom_site_fract_x
_atom_site_fract_y
_atom_site_fract_z
Si Si1 0.074773 0.725880 0.353656
Si Si2 0.037251 0.399643 0.237719
Si Si3 0.777564 0.500000 0.369674
Si Si4 0.500000 0.171972 0.000000
Si Si5 0.099536 0.773406 0.807808
Si Si6 0.043560 0.000000 0.667773
Si Si7 0.386349 0.586980 0.143009
O O1 0.036832 0.760440 0.240635
O O2 0.000000 0.748844 0.500000
O O3 0.031613 0.656377 0.334608
O O4 0.252047 0.730266 0.321789
O O5 0.206530 0.428437 0.190722
O O6 0.893319 0.443452 0.308811
O O7 0.036235 0.370090 0.103038
O O8 0.688177 0.500000 0.528277
O O9 0.626496 0.500000 0.333586
O O10 0.385367 0.221572 0.094744
O O11 0.101321 0.840346 0.859885
O O12 0.058536 0.941659 0.749089
O O13 0.500000 0.566038 0.000000
#
# Coordination Sequence:
#
# PCOD9213726 Si02
#       7
#     8   8   4   4   8   4   8
#     4  10  22  39  61 100 130 175 219 264 321 398
#     4  10  25  40  73  93 133 179 218 276 329 393
#     4  11  27  51  67  97 126 176 221 280 337 393
#     4  10  22  43  66 101 134 174 220 262 328 396
#     4  10  22  38  66  94 138 172 211 271 324 381
#     4  11  28  48  71  95 132 166 227 281 334 389
#     4  11  24  42  68 103 132 177 217 275 326 392
#
# _framework density 20.659192999999998
#
# number of rings (size 3 to 8) (size 9 to 14) (size 15 to 20)
#    0.000    1.636    0.909    1.364   10.182    4.727 
#    3.273    0.000    0.000    0.000    0.000    0.000 
#    0.000    0.000    0.000    0.000    0.000    0.000 
#
# Total GULP energy -122567.322646 kJ/mol
# GULP energy per Si atom -5571.241938 kJ/mol
# Density = 2.061217 g / cm^3
# Si number density = 20.659193 Si / 1000 Ang^3
#
#
#
# Elastic Constant Matrix: (Units=GPa)
#
#
# Indices 1 2 3 4 5 6 
#
# 1 108.8487 31.4484 49.5763 0.0000 -20.0866 0.0000
# 2 31.4484 79.2391 25.1674 0.0000 -11.9109 0.0000
# 3 49.5763 25.1674 132.1063 0.0000 -10.4412 0.0000
# 4 0.0000 0.0000 0.0000 -9.3506 0.0000 -47.3809
# 5 -20.0866 -11.9109 -10.4412 0.0000 30.7933 0.0000
# 6 0.0000 0.0000 0.0000 -47.3809 0.0000 -80.2593
#
#
#
# Elastic Compliance Matrix: (Units=1/GPa)
#
#
# Indices 1 2 3 4 5 6 
#
# 1 0.012882 -0.003014 -0.003790 0.000000 0.005952 0.000000
# 2 -0.003014 0.014758 -0.001423 0.000000 0.003260 0.000000
# 3 -0.003790 -0.001423 0.009273 0.000000 0.000122 0.000000
# 4 0.000000 0.000000 0.000000 0.053704 0.000000 -0.031704
# 5 0.005952 0.003260 0.000122 0.000000 0.037659 0.000000
# 6 0.000000 0.000000 0.000000 -0.031704 0.000000 0.006257
#
#
# Mechanical properties :
#
#
# Convention : Reuss Voigt Hill
#
# Bulk Modulus (GPa) = 48.87694 59.17537 54.02615
# Shear Modulus (GPa) = 31.68422 2.50348 17.09385
#
# Velocity S-wave (km/s) = 3.92045 1.10201 2.87961
# Velocity P-wave (km/s) = 6.64855 5.50682 6.10444
#
# Compressibility (1/GPa) = 0.02045955
#
# Stress axis : x y z
#
# Youngs Moduli (GPa) = 77.62473 67.75862 107.84554
#
# Poissons Ratio (x) = 0.20425 0.40871
# Poissons Ratio (y) = 0.23399 0.15343
# Poissons Ratio (z) = 0.29418 0.09640
#
# Static dielectric constant tensor:
#      x y z
#    x 1.711990 0.000000 -0.003540 
#    y 0.000000 1.753330 0.000000 
#    z -0.003540 0.000000 1.741350 
# 
# From -- ./inp_files/122377.got.cif
#   From: 2010.05.17/outbox.cif.g08.bks.cpg/sg12_62_cif.got.tgz:122377.got - 2010.06.03 13:09:07.
