data_PCOD9213190
_publ_section_title
;
Structure prediction by ZEFSAII (Michael W. Deem and Ramdas Pophale) SiO2 
 PCOD9213190
Probable space group: C 2/M
;
_chemical_formula_sum "Si O2"
_cell_formula_units_Z 52
_cell_length_a 8.555077
_cell_length_b 21.924564
_cell_length_c 20.718958
_cell_angle_alpha 90.000000
_cell_angle_beta 138.663627
_cell_angle_gamma 90.000000
_cell_volume 2566.737504
_symmetry_space_group_name_H-M "C 2/M"
_symmetry_group_IT_number 12
_symmetry_cell_setting 'monoclinic'
loop_
_space_group_symop_operation_xyz
x,y,z
-x,y,-z
-x,-y,-z
x,-y,z
1/2+x,1/2+y,z
1/2-x,1/2+y,-z
1/2-x,1/2-y,-z
1/2+x,1/2-y,z
loop_
_atom_site_type_symbol
_atom_site_label
_atom_site_fract_x
_atom_site_fract_y
_atom_site_fract_z
Si Si1 0.070725 0.874765 0.948520
Si Si2 0.748380 0.392603 0.596515
Si Si3 0.663361 0.790476 0.287333
Si Si4 0.061306 0.668815 0.593632
Si Si5 0.842118 0.747539 0.854697
Si Si6 0.756334 0.067760 0.738235
Si Si7 0.000000 0.651665 0.000000
O O1 0.335234 0.882956 0.001023
O O2 0.017499 0.801966 0.928132
O O3 0.903459 0.908004 0.844604
O O4 0.000000 0.893046 0.000000
O O5 0.500000 0.420775 0.500000
O O6 0.730320 0.353487 0.655867
O O7 0.829608 0.344414 0.565601
O O8 0.979225 0.433949 0.671958
O O9 0.830235 0.735044 0.360215
O O10 0.406228 0.779798 0.238524
O O11 0.598489 0.787256 0.192303
O O12 0.249295 0.618525 0.679219
O O13 0.000000 0.660273 0.500000
O O14 0.831832 0.696918 0.906788
O O15 0.833670 0.000000 0.742707
#
# Coordination Sequence:
#
# PCOD9213190 Si02
#       7
#     8   8   8   8   8   8   4
#     4  12  23  42  63  94 126 167 218 263 328 382
#     4  10  23  39  59  93 122 166 209 260 314 380
#     4  12  20  35  58  87 133 159 203 249 326 390
#     4  10  22  37  57  91 120 163 203 252 321 367
#     4  12  20  34  56  88 127 168 196 254 319 380
#     4  10  23  46  64  86 126 168 217 265 316 380
#     4  12  24  34  63  98 127 168 214 266 318 400
#
# _framework density 20.259181999999999
#
# number of rings (size 3 to 8) (size 9 to 14) (size 15 to 20)
#    0.923    0.000    6.923    1.846    2.154    2.154 
#    0.000    0.385    0.000    1.846    0.000    0.000 
#    0.000    0.000    0.000    0.000    0.000    0.000 
#
# Total GULP energy -144915.942813 kJ/mol
# GULP energy per Si atom -5573.690108 kJ/mol
# Density = 2.021307 g / cm^3
# Si number density = 20.259182 Si / 1000 Ang^3
#
#
#
# Elastic Constant Matrix: (Units=GPa)
#
#
# Indices 1 2 3 4 5 6 
#
# 1 74.2476 -6.4045 24.5238 0.0000 -4.8073 0.0000
# 2 -6.4045 49.5892 8.2210 0.0000 -11.0449 0.0000
# 3 24.5238 8.2210 94.8780 0.0000 -12.6856 0.0000
# 4 0.0000 0.0000 0.0000 -21.5034 0.0000 -1.1530
# 5 -4.8073 -11.0449 -12.6856 0.0000 48.6805 0.0000
# 6 0.0000 0.0000 0.0000 -1.1530 0.0000 12.5978
#
#
#
# Elastic Compliance Matrix: (Units=1/GPa)
#
#
# Indices 1 2 3 4 5 6 
#
# 1 0.015110 0.002860 -0.004007 0.000000 0.001097 0.000000
# 2 0.002860 0.021922 -0.002006 0.000000 0.004734 0.000000
# 3 -0.004007 -0.002006 0.012056 0.000000 0.002291 0.000000
# 4 0.000000 0.000000 0.000000 -0.046277 0.000000 -0.004236
# 5 0.001097 0.004734 0.002291 0.000000 0.022321 0.000000
# 6 0.000000 0.000000 0.000000 -0.004236 0.000000 0.078992
#
#
# Mechanical properties :
#
#
# Convention : Reuss Voigt Hill
#
# Bulk Modulus (GPa) = 23.37435 30.15505 26.76470
# Shear Modulus (GPa) = 40.09995 20.77993 30.43994
#
# Velocity S-wave (km/s) = 4.45381 3.20614 3.88045
# Velocity P-wave (km/s) = 6.16533 5.35002 5.77209
#
# Compressibility (1/GPa) = 0.04278194
#
# Stress axis : x y z
#
# Youngs Moduli (GPa) = 66.18338 45.61655 82.94925
#
# Poissons Ratio (x) = -0.13046 0.33235
# Poissons Ratio (y) = -0.18928 0.16638
# Poissons Ratio (z) = 0.26517 0.09150
#
# Static dielectric constant tensor:
#      x y z
#    x 1.789090 0.000000 0.005920 
#    y 0.000000 1.684150 0.000000 
#    z 0.005920 0.000000 1.718600 
# 
# From -- ./inp_files/302381.got.cif
#   From: 2010.05.17/outbox.cif.g08.bks.cpg/sg12_152_cif.got.tgz:302381.got - 2010.06.03 13:09:07.
