data_PCOD9213381
_publ_section_title
;
Structure prediction by ZEFSAII (Michael W. Deem and Ramdas Pophale) SiO2 
 PCOD9213381
Probable space group: C 2/M
;
_chemical_formula_sum "Si O2"
_cell_formula_units_Z 32
_cell_length_a 16.757739
_cell_length_b 8.420753
_cell_length_c 10.531765
_cell_angle_alpha 90.000000
_cell_angle_beta 65.404864
_cell_angle_gamma 90.000000
_cell_volume 1351.328895
_symmetry_space_group_name_H-M "C 2/M"
_symmetry_group_IT_number 12
_symmetry_cell_setting 'monoclinic'
loop_
_space_group_symop_operation_xyz
x,y,z
-x,y,-z
-x,-y,-z
x,-y,z
1/2+x,1/2+y,z
1/2-x,1/2+y,-z
1/2-x,1/2-y,-z
1/2+x,1/2-y,z
loop_
_atom_site_type_symbol
_atom_site_label
_atom_site_fract_x
_atom_site_fract_y
_atom_site_fract_z
Si Si1 0.893548 0.173587 0.554593
Si Si2 0.922771 0.500000 0.441228
Si Si3 0.225133 0.686983 0.157751
Si Si4 0.406647 0.675019 0.993281
Si Si5 0.464300 0.000000 0.879868
O O1 0.873087 0.334107 0.491407
O O2 0.841052 0.204983 0.719825
O O3 0.000000 0.171114 0.500000
O O4 0.869272 0.000000 0.518883
O O5 0.000000 0.500000 0.500000
O O6 0.965044 0.500000 0.275809
O O7 0.201067 0.500000 0.180674
O O8 0.250000 0.750000 0.000000
O O9 0.325979 0.696775 0.144191
O O10 0.393466 0.500000 0.941097
O O11 0.414217 0.832560 0.902476
O O12 0.500000 0.667088 0.000000
O O13 0.500000 0.000000 0.000000
#
# Coordination Sequence:
#
# PCOD9213381 Si02
#       5
#     8   4   8   8   4
#     4  10  22  38  56  88 131 172 208 260 338 389
#     4  10  22  38  62  90 135 164 210 270 331 394
#     4  11  23  36  61  98 132 170 219 279 331 391
#     4   9  21  40  62  94 128 167 221 269 320 385
#     4  10  22  40  68  96 121 172 222 266 327 394
#
# _framework density 23.680394
#
# number of rings (size 3 to 8) (size 9 to 14) (size 15 to 20)
#    0.000    2.000    1.250    0.750   10.500    1.000 
#    0.000    0.000    0.000    6.000    0.000    0.000 
#    0.000    0.000    0.000    0.000    0.000    0.000 
#
# Total GULP energy -89185.275819 kJ/mol
# GULP energy per Si atom -5574.079739 kJ/mol
# Density = 2.362650 g / cm^3
# Si number density = 23.680394 Si / 1000 Ang^3
#
#
#
# Elastic Constant Matrix: (Units=GPa)
#
#
# Indices 1 2 3 4 5 6 
#
# 1 45.5113 2.4910 31.9026 0.0000 -21.7408 0.0000
# 2 2.4910 267.9942 65.3070 0.0000 -8.9449 0.0000
# 3 31.9026 65.3070 157.4782 0.0000 -22.7253 0.0000
# 4 0.0000 0.0000 0.0000 35.6055 0.0000 5.6627
# 5 -21.7408 -8.9449 -22.7253 0.0000 32.8796 0.0000
# 6 0.0000 0.0000 0.0000 5.6627 0.0000 -19.2367
#
#
#
# Elastic Compliance Matrix: (Units=1/GPa)
#
#
# Indices 1 2 3 4 5 6 
#
# 1 0.034877 0.001515 -0.004783 0.000000 0.020167 0.000000
# 2 0.001515 0.004217 -0.001939 0.000000 0.000809 0.000000
# 3 -0.004783 -0.001939 0.008432 0.000000 0.002137 0.000000
# 4 0.000000 0.000000 0.000000 0.026829 0.000000 0.007898
# 5 0.020167 0.000809 0.002137 0.000000 0.045446 0.000000
# 6 0.000000 0.000000 0.000000 0.007898 0.000000 -0.049659
#
#
# Mechanical properties :
#
#
# Convention : Reuss Voigt Hill
#
# Bulk Modulus (GPa) = 26.94701 74.48721 50.71711
# Shear Modulus (GPa) = 53.80578 34.60188 44.20383
#
# Velocity S-wave (km/s) = 4.77190 3.82672 4.32520
# Velocity P-wave (km/s) = 6.46262 7.14482 6.81227
#
# Compressibility (1/GPa) = 0.03710986
#
# Stress axis : x y z
#
# Youngs Moduli (GPa) = 28.67256 237.14577 118.60149
#
# Poissons Ratio (x) = -0.35917 0.56730
# Poissons Ratio (y) = -0.04343 0.22995
# Poissons Ratio (z) = 0.13715 0.45980
#
# Static dielectric constant tensor:
#      x y z
#    x 2.359820 0.000000 -0.000170 
#    y 0.000000 1.961250 0.000000 
#    z -0.000170 0.000000 1.827380 
# 
# From -- ./inp_files/162236.got.cif
#   From: 2010.05.17/outbox.cif.g08.bks.cpg/sg12_82_cif.got.tgz:162236.got - 2010.06.03 13:09:07.
