data_PCOD9213205
_publ_section_title
;
Structure prediction by ZEFSAII (Michael W. Deem and Ramdas Pophale) SiO2 
 PCOD9213205
Probable space group: C 2/M
;
_chemical_formula_sum "Si O2"
_cell_formula_units_Z 40
_cell_length_a 17.815232
_cell_length_b 20.549574
_cell_length_c 14.146640
_cell_angle_alpha 90.000000
_cell_angle_beta 158.214794
_cell_angle_gamma 90.000000
_cell_volume 1922.079857
_symmetry_space_group_name_H-M "C 2/M"
_symmetry_group_IT_number 12
_symmetry_cell_setting 'monoclinic'
loop_
_space_group_symop_operation_xyz
x,y,z
-x,y,-z
-x,-y,-z
x,-y,z
1/2+x,1/2+y,z
1/2-x,1/2+y,-z
1/2-x,1/2-y,-z
1/2+x,1/2-y,z
loop_
_atom_site_type_symbol
_atom_site_label
_atom_site_fract_x
_atom_site_fract_y
_atom_site_fract_z
Si Si1 0.340133 0.285222 0.234883
Si Si2 0.075581 0.500000 0.998480
Si Si3 0.371307 0.130659 0.261401
Si Si4 0.485225 0.376841 0.711935
Si Si5 0.968401 0.369328 0.761988
Si Si6 0.068474 0.000000 0.488734
O O1 0.500000 0.310223 0.500000
O O2 0.341049 0.207953 0.242188
O O3 0.425236 0.313699 0.236477
O O4 0.115635 0.314578 0.978499
O O5 0.030056 0.434823 0.887741
O O6 0.840088 0.500000 0.790564
O O7 0.343758 0.500000 0.294653
O O8 0.500000 0.104707 0.500000
O O9 0.486305 0.123608 0.296101
O O10 0.147710 0.102722 0.981184
O O11 0.470811 0.434375 0.617919
O O12 0.267036 0.359180 0.495969
#
# Coordination Sequence:
#
# PCOD9213205 Si02
#       6
#     8   4   8   8   8   4
#     4  10  22  37  58  88 122 157 198 245 299 356
#     4  12  22  38  58  94 127 142 184 245 305 372
#     4  10  24  43  57  82 119 160 209 253 288 341
#     4  11  21  37  60  87 118 155 199 242 300 357
#     4  11  22  38  62  88 122 156 195 247 296 361
#     4  12  22  36  60  90 123 154 186 240 308 369
#
# _framework density 20.810789
#
# number of rings (size 3 to 8) (size 9 to 14) (size 15 to 20)
#    0.000    1.200    2.000    6.600    0.000    4.000 
#    0.000    6.000    0.000    2.400    0.000    0.000 
#    0.000    0.000    0.000    0.000    0.000    0.000 
#
# Total GULP energy -111673.285051 kJ/mol
# GULP energy per Si atom -5583.664253 kJ/mol
# Density = 2.076342 g / cm^3
# Si number density = 20.810789 Si / 1000 Ang^3
#
#
#
# Elastic Constant Matrix: (Units=GPa)
#
#
# Indices 1 2 3 4 5 6 
#
# 1 99.6675 19.6948 77.1205 0.0000 -1.5041 0.0000
# 2 19.6948 55.0730 15.6204 0.0000 -1.0468 -0.0001
# 3 77.1205 15.6204 213.5839 0.0000 1.4400 0.0000
# 4 0.0000 0.0000 0.0000 24.0746 0.0000 -4.4788
# 5 -1.5041 -1.0468 1.4400 0.0000 57.2430 0.0000
# 6 0.0000 -0.0001 0.0000 -4.4788 0.0000 -57.9341
#
#
#
# Elastic Compliance Matrix: (Units=1/GPa)
#
#
# Indices 1 2 3 4 5 6 
#
# 1 0.014683 -0.003817 -0.005026 0.000000 0.000442 0.000000
# 2 -0.003817 0.019543 -0.000053 0.000000 0.000258 0.000000
# 3 -0.005026 -0.000053 0.006502 0.000000 -0.000297 0.000000
# 4 0.000000 0.000000 0.000000 0.040949 0.000000 -0.003166
# 5 0.000442 0.000258 -0.000297 0.000000 0.017493 0.000000
# 6 0.000000 0.000000 0.000000 -0.003166 0.000000 -0.017016
#
#
# Mechanical properties :
#
#
# Convention : Reuss Voigt Hill
#
# Bulk Modulus (GPa) = 43.59678 65.91063 54.75370
# Shear Modulus (GPa) = 46.47278 21.73597 34.10438
#
# Velocity S-wave (km/s) = 4.73071 3.23531 4.05258
# Velocity P-wave (km/s) = 7.12980 6.75992 6.94732
#
# Compressibility (1/GPa) = 0.02293748
#
# Stress axis : x y z
#
# Youngs Moduli (GPa) = 68.10639 51.17026 153.78799
#
# Poissons Ratio (x) = 0.19532 0.77286
# Poissons Ratio (y) = 0.25996 0.00811
# Poissons Ratio (z) = 0.34227 0.00270
#
# Static dielectric constant tensor:
#      x y z
#    x 1.812110 0.000000 0.091090 
#    y 0.000000 1.708510 0.000000 
#    z 0.091090 0.000000 1.942390 
# 
# From -- ./inp_files/228031.got.cif
#   From: 2010.05.17/outbox.cif.g08.bks.cpg/sg12_115_cif.got.tgz:228031.got - 2010.06.03 13:09:07.
