data_PCOD9213121
_publ_section_title
;
Structure prediction by ZEFSAII (Michael W. Deem and Ramdas Pophale) SiO2 
 PCOD9213121
Probable space group: C 2/M
;
_chemical_formula_sum "Si O2"
_cell_formula_units_Z 56
_cell_length_a 19.664078
_cell_length_b 8.626784
_cell_length_c 32.900416
_cell_angle_alpha 90.000000
_cell_angle_beta 146.918106
_cell_angle_gamma 90.000000
_cell_volume 3046.400778
_symmetry_space_group_name_H-M "C 2/M"
_symmetry_group_IT_number 12
_symmetry_cell_setting 'monoclinic'
loop_
_space_group_symop_operation_xyz
x,y,z
-x,y,-z
-x,-y,-z
x,-y,z
1/2+x,1/2+y,z
1/2-x,1/2+y,-z
1/2-x,1/2-y,-z
1/2+x,1/2-y,z
loop_
_atom_site_type_symbol
_atom_site_label
_atom_site_fract_x
_atom_site_fract_y
_atom_site_fract_z
Si Si1 0.696780 0.681808 0.798351
Si Si2 0.891684 0.185391 0.070303
Si Si3 0.452780 0.672733 0.930806
Si Si4 0.551910 0.313206 0.295325
Si Si5 0.881535 0.313909 0.581278
Si Si6 0.129000 0.811615 0.675379
Si Si7 0.614176 0.185796 0.239970
O O1 0.675815 0.500000 0.784701
O O2 0.838278 0.713523 0.876684
O O3 0.594586 0.735935 0.779109
O O4 0.667564 0.746097 0.739476
O O5 0.948585 0.219741 0.053999
O O6 0.996077 0.247514 0.154840
O O7 0.884441 0.000000 0.071935
O O8 0.750000 0.250000 0.000000
O O9 0.407812 0.500000 0.896148
O O10 0.500000 0.662449 0.000000
O O11 0.565603 0.500000 0.300141
O O12 0.596134 0.255912 0.362001
O O13 0.610306 0.238703 0.284754
O O14 0.882426 0.500000 0.584016
O O15 0.750000 0.250000 0.500000
O O16 0.989829 0.257242 0.604069
O O17 0.248691 0.767586 0.708327
O O18 0.119026 0.000000 0.668654
O O19 0.605936 0.000000 0.232562
#
# Coordination Sequence:
#
# PCOD9213121 Si02
#       7
#     8   8   8   8   8   8   8
#     4   9  18  35  56  79 107 146 188 236 291 346
#     4  11  24  40  57  81 116 158 201 251 308 359
#     4  10  22  37  53  77 108 144 192 247 295 346
#     4  10  22  39  59  89 123 154 196 244 292 351
#     4  11  22  39  65  94 124 159 196 239 291 348
#     4   9  19  37  60  86 118 153 193 240 292 351
#     4  11  22  39  62  87 119 159 201 248 301 357
#
# _framework density 18.382349999999999
#
# number of rings (size 3 to 8) (size 9 to 14) (size 15 to 20)
#    0.000    1.857    1.429    3.429    2.000    4.857 
#    0.000    0.714    0.000    4.286    0.000    0.000 
#    0.000    0.000    0.000    0.000    0.000    0.000 
#
# Total GULP energy -155890.854794 kJ/mol
# GULP energy per Si atom -5567.530528 kJ/mol
# Density = 1.834051 g / cm^3
# Si number density = 18.382350 Si / 1000 Ang^3
#
#
#
# Elastic Constant Matrix: (Units=GPa)
#
#
# Indices 1 2 3 4 5 6 
#
# 1 165.7026 45.8364 66.1285 0.0001 19.8708 0.0001
# 2 45.8364 53.5035 30.5156 0.0001 10.7952 -0.0003
# 3 66.1285 30.5156 89.8674 0.0000 22.2869 -0.0001
# 4 0.0001 0.0001 0.0000 -12.4951 0.0000 -59.5117
# 5 19.8708 10.7952 22.2869 0.0000 29.7818 0.0001
# 6 0.0001 -0.0003 -0.0001 -59.5117 0.0001 -57.5620
#
#
#
# Elastic Compliance Matrix: (Units=1/GPa)
#
#
# Indices 1 2 3 4 5 6 
#
# 1 0.009593 -0.005148 -0.005140 0.000000 -0.000688 0.000000
# 2 -0.005148 0.026175 -0.004419 0.000000 -0.002746 0.000000
# 3 -0.005140 -0.004419 0.018618 0.000000 -0.008901 0.000000
# 4 0.000000 0.000000 0.000000 0.020395 0.000000 -0.021085
# 5 -0.000688 -0.002746 -0.008901 0.000000 0.041693 0.000000
# 6 0.000000 0.000000 0.000000 -0.021085 0.000000 0.004427
#
#
# Mechanical properties :
#
#
# Convention : Reuss Voigt Hill
#
# Bulk Modulus (GPa) = 40.04545 66.00384 53.02465
# Shear Modulus (GPa) = 31.51836 3.05115 17.28476
#
# Velocity S-wave (km/s) = 4.14526 1.28974 3.06974
# Velocity P-wave (km/s) = 6.68902 6.18077 6.43991
#
# Compressibility (1/GPa) = 0.02497162
#
# Stress axis : x y z
#
# Youngs Moduli (GPa) = 104.24644 38.20475 53.71166
#
# Poissons Ratio (x) = 0.19666 0.27609
# Poissons Ratio (y) = 0.53661 0.23736
# Poissons Ratio (z) = 0.53585 0.16883
#
# Static dielectric constant tensor:
#      x y z
#    x 1.652320 0.000000 0.035640 
#    y 0.000000 1.716000 0.000000 
#    z 0.035640 0.000000 1.588800 
# 
# From -- ./inp_files/377743.got.cif
#   From: 2010.05.17/outbox.cif.g08.bks.cpg/sg12_189_cif.got.tgz:377743.got - 2010.06.03 13:09:07.
