data_PCOD9213551
_publ_section_title
;
Structure prediction by ZEFSAII (Michael W. Deem and Ramdas Pophale) SiO2 
 PCOD9213551
Probable space group: C 2/M
;
_chemical_formula_sum "Si O2"
_cell_formula_units_Z 64
_cell_length_a 28.099875
_cell_length_b 13.719632
_cell_length_c 19.844862
_cell_angle_alpha 90.000000
_cell_angle_beta 23.046858
_cell_angle_gamma 90.000000
_cell_volume 2995.082165
_symmetry_space_group_name_H-M "C 2/M"
_symmetry_group_IT_number 12
_symmetry_cell_setting 'monoclinic'
loop_
_space_group_symop_operation_xyz
x,y,z
-x,y,-z
-x,-y,-z
x,-y,z
1/2+x,1/2+y,z
1/2-x,1/2+y,-z
1/2-x,1/2-y,-z
1/2+x,1/2-y,z
loop_
_atom_site_type_symbol
_atom_site_label
_atom_site_fract_x
_atom_site_fract_y
_atom_site_fract_z
Si Si1 0.844582 0.889631 0.501973
Si Si2 0.521378 0.218588 0.310140
Si Si3 0.894738 0.702541 0.952945
Si Si4 0.626993 0.718373 0.307318
Si Si5 0.159849 0.387429 0.370420
Si Si6 0.562149 0.883061 0.850531
Si Si7 0.022651 0.110427 0.813753
Si Si8 0.363211 0.388327 0.204906
O O1 0.920996 0.805865 0.439032
O O2 0.704923 0.862257 0.671722
O O3 0.908535 0.894828 0.346065
O O4 0.849826 0.000000 0.524940
O O5 0.570225 0.196683 0.171790
O O6 0.616536 0.255532 0.241939
O O7 0.453511 0.126445 0.431127
O O8 0.992782 0.652696 0.874293
O O9 0.910651 0.817270 0.950616
O O10 0.757758 0.667460 0.146146
O O11 0.500000 0.671666 0.500000
O O12 0.635335 0.817616 0.339787
O O13 0.176755 0.500000 0.329416
O O14 0.273832 0.348032 0.265637
O O15 0.551026 0.000000 0.864948
O O16 0.500000 0.843801 0.000000
O O17 0.118304 0.150968 0.744189
O O18 0.986335 0.000000 0.880998
O O19 0.319692 0.500000 0.270272
O O20 0.500000 0.388495 0.000000
#
# Coordination Sequence:
#
# PCOD9213551 Si02
#       8
#     8   8   8   8   8   8   8   8
#     4   9  20  40  63  87 120 158 199 247 304 362
#     4  10  23  39  62  91 123 160 211 251 301 360
#     4  11  23  38  65  90 123 163 203 255 309 360
#     4  10  23  41  60  85 122 163 208 255 299 360
#     4  10  22  38  60  91 127 165 200 246 309 370
#     4  10  24  41  61  89 122 157 200 252 309 371
#     4   9  19  34  57  92 127 160 194 237 294 367
#     4   9  17  29  48  80 122 158 191 229 277 349
#
# _framework density 21.368362000000001
#
# number of rings (size 3 to 8) (size 9 to 14) (size 15 to 20)
#    0.000    2.250    0.000    1.125    7.000    5.750 
#    0.000    0.625    0.000    8.250    0.000    0.000 
#    0.000    0.000    0.000    0.000    0.000    0.000 
#
# Total GULP energy -178530.193499 kJ/mol
# GULP energy per Si atom -5579.068547 kJ/mol
# Density = 2.131973 g / cm^3
# Si number density = 21.368362 Si / 1000 Ang^3
#
#
#
# Elastic Constant Matrix: (Units=GPa)
#
#
# Indices 1 2 3 4 5 6 
#
# 1 120.5407 16.1535 13.9095 0.0000 -3.6896 0.0000
# 2 16.1535 52.6008 11.5724 0.0000 -1.1321 0.0000
# 3 13.9095 11.5724 85.1420 0.0000 -15.5712 0.0000
# 4 0.0000 0.0000 0.0000 6.2246 0.0000 4.4207
# 5 -3.6896 -1.1321 -15.5712 0.0000 34.3304 0.0000
# 6 0.0000 0.0000 0.0000 4.4207 0.0000 15.5822
#
#
#
# Elastic Compliance Matrix: (Units=1/GPa)
#
#
# Indices 1 2 3 4 5 6 
#
# 1 0.008755 -0.002455 -0.001024 0.000000 0.000395 0.000000
# 2 -0.002455 0.020297 -0.002490 0.000000 -0.000724 0.000000
# 3 -0.001024 -0.002490 0.013321 0.000000 0.005850 0.000000
# 4 0.000000 0.000000 0.000000 0.201188 0.000000 -0.057078
# 5 0.000395 -0.000724 0.005850 0.000000 0.031801 0.000000
# 6 0.000000 0.000000 0.000000 -0.057078 0.000000 0.080369
#
#
# Mechanical properties :
#
#
# Convention : Reuss Voigt Hill
#
# Bulk Modulus (GPa) = 32.85741 37.95048 35.40395
# Shear Modulus (GPa) = 13.23401 25.67064 19.45232
#
# Velocity S-wave (km/s) = 2.49133 3.46979 3.02045
# Velocity P-wave (km/s) = 4.86679 5.81819 5.36363
#
# Compressibility (1/GPa) = 0.03043453
#
# Stress axis : x y z
#
# Youngs Moduli (GPa) = 114.21750 49.26780 75.07112
#
# Poissons Ratio (x) = 0.12094 0.07690
# Poissons Ratio (y) = 0.28038 0.18694
# Poissons Ratio (z) = 0.11700 0.12268
#
# Static dielectric constant tensor:
#      x y z
#    x 1.789500 0.000000 -0.013450 
#    y 0.000000 1.813090 0.000000 
#    z -0.013450 0.000000 1.800000 
# 
# From -- ./inp_files/330374.got.cif
#   From: 2010.05.17/outbox.cif.g08.bks.cpg/sg12_166_cif.got.tgz:330374.got - 2010.06.03 13:09:07.
