data_PCOD9213350
_publ_section_title
;
Structure prediction by ZEFSAII (Michael W. Deem and Ramdas Pophale) SiO2 
 PCOD9213350
Probable space group: C 2/M
;
_chemical_formula_sum "Si O2"
_cell_formula_units_Z 52
_cell_length_a 13.195005
_cell_length_b 27.733251
_cell_length_c 17.436008
_cell_angle_alpha 90.000000
_cell_angle_beta 25.307127
_cell_angle_gamma 90.000000
_cell_volume 2727.491249
_symmetry_space_group_name_H-M "C 2/M"
_symmetry_group_IT_number 12
_symmetry_cell_setting 'monoclinic'
loop_
_space_group_symop_operation_xyz
x,y,z
-x,y,-z
-x,-y,-z
x,-y,z
1/2+x,1/2+y,z
1/2-x,1/2+y,-z
1/2-x,1/2-y,-z
1/2+x,1/2-y,z
loop_
_atom_site_type_symbol
_atom_site_label
_atom_site_fract_x
_atom_site_fract_y
_atom_site_fract_z
Si Si1 0.007621 0.500000 0.871425
Si Si2 0.989430 0.109622 0.632919
Si Si3 0.500000 0.219150 0.500000
Si Si4 0.717904 0.807045 0.502371
Si Si5 0.047286 0.253513 0.880863
Si Si6 0.902816 0.000000 0.734832
Si Si7 0.673772 0.820217 0.100329
Si Si8 0.387526 0.896881 0.233004
O O1 0.203221 0.500000 0.805103
O O2 0.062183 0.452401 0.789154
O O3 0.746588 0.500000 0.084894
O O4 0.062920 0.156110 0.633574
O O5 0.180768 0.115714 0.433852
O O6 0.729111 0.112562 0.770983
O O7 0.016084 0.054300 0.647567
O O8 0.351945 0.189974 0.538841
O O9 0.322098 0.250948 0.672337
O O10 0.750000 0.750000 0.500000
O O11 0.496177 0.820543 0.708781
O O12 0.933010 0.284996 0.891846
O O13 0.000000 0.269773 0.000000
O O14 0.923750 0.201063 0.955296
O O15 0.630646 0.870251 0.086998
#
# Coordination Sequence:
#
# PCOD9213350 Si02
#       8
#     4   8   4   8   8   4   8   8
#     4   9  17  31  47  77 113 147 179 236 286 341
#     4   9  19  32  56  82 110 151 188 233 286 347
#     4  12  24  38  60  77 118 151 196 242 286 336
#     4  11  22  36  58  85 115 153 196 238 291 348
#     4  11  23  39  57  82 114 155 193 240 283 333
#     4   9  17  33  49  78 114 144 188 231 289 341
#     4  10  22  38  55  84 114 149 197 235 284 350
#     4   9  18  33  55  79 113 146 187 228 288 343
#
# _framework density 19.065138000000001
#
# number of rings (size 3 to 8) (size 9 to 14) (size 15 to 20)
#    0.000    2.000    3.077    0.462    2.154    3.077 
#    5.538    0.000    0.000    0.462    0.000    1.615 
#    0.000    0.000    0.000    0.000    0.000    0.000 
#
# Total GULP energy -144741.467454 kJ/mol
# GULP energy per Si atom -5566.979517 kJ/mol
# Density = 1.902175 g / cm^3
# Si number density = 19.065138 Si / 1000 Ang^3
#
#
#
# Elastic Constant Matrix: (Units=GPa)
#
#
# Indices 1 2 3 4 5 6 
#
# 1 80.1299 23.1810 4.8329 0.0069 8.7157 -0.0746
# 2 23.1810 93.6979 -6.2254 -0.0025 -15.4498 -0.0531
# 3 4.8329 -6.2254 51.9749 0.0330 10.1438 -0.0570
# 4 0.0069 -0.0025 0.0330 17.0080 -0.0094 -18.8908
# 5 8.7157 -15.4498 10.1438 -0.0094 18.7778 0.0582
# 6 -0.0746 -0.0531 -0.0570 -18.8908 0.0582 -4.3909
#
#
#
# Elastic Compliance Matrix: (Units=1/GPa)
#
#
# Indices 1 2 3 4 5 6 
#
# 1 0.015456 -0.005798 0.000223 -0.000071 -0.012065 -0.000051
# 2 -0.005798 0.014538 -0.000648 0.000027 0.015002 0.000012
# 3 0.000223 -0.000648 0.021537 -0.000093 -0.012270 -0.000040
# 4 -0.000071 0.000027 -0.000093 0.010176 0.000246 -0.043774
# 5 -0.012065 0.015002 -0.012270 0.000246 0.077826 0.000155
# 6 -0.000051 0.000012 -0.000040 -0.043774 0.000155 -0.039412
#
#
# Mechanical properties :
#
#
# Convention : Reuss Voigt Hill
#
# Bulk Modulus (GPa) = 25.58566 29.93110 27.75838
# Shear Modulus (GPa) = 39.81051 19.87992 29.84522
#
# Velocity S-wave (km/s) = 4.57456 3.23265 3.96085
# Velocity P-wave (km/s) = 6.43051 5.44672 5.95895
#
# Compressibility (1/GPa) = 0.03908439
#
# Stress axis : x y z
#
# Youngs Moduli (GPa) = 64.69974 68.78578 46.43278
#
# Poissons Ratio (x) = 0.39885 -0.01035
# Poissons Ratio (y) = 0.37516 0.03007
# Poissons Ratio (z) = -0.01443 0.04454
#
# Static dielectric constant tensor:
#      x y z
#    x 1.700130 -0.000010 0.000830 
#    y -0.000010 1.730670 0.000030 
#    z 0.000830 0.000030 1.712150 
# 
# From -- ./inp_files/265948.got.cif
#   From: 2010.05.17/outbox.cif.g08.bks.cpg/sg12_133_cif.got.tgz:265948.got - 2010.06.03 13:09:07.
