data_PCOD9213639
_publ_section_title
;
Structure prediction by ZEFSAII (Michael W. Deem and Ramdas Pophale) SiO2 
 PCOD9213639
Probable space group: C 2/M
;
_chemical_formula_sum "Si O2"
_cell_formula_units_Z 48
_cell_length_a 11.477632
_cell_length_b 19.284994
_cell_length_c 25.676430
_cell_angle_alpha 90.000000
_cell_angle_beta 157.017858
_cell_angle_gamma 90.000000
_cell_volume 2219.041511
_symmetry_space_group_name_H-M "C 2/M"
_symmetry_group_IT_number 12
_symmetry_cell_setting 'monoclinic'
loop_
_space_group_symop_operation_xyz
x,y,z
-x,y,-z
-x,-y,-z
x,-y,z
1/2+x,1/2+y,z
1/2-x,1/2+y,-z
1/2-x,1/2-y,-z
1/2+x,1/2-y,z
loop_
_atom_site_type_symbol
_atom_site_label
_atom_site_fract_x
_atom_site_fract_y
_atom_site_fract_z
Si Si1 0.290682 0.143880 0.650907
Si Si2 0.014676 0.575028 0.443852
Si Si3 0.626877 0.303631 0.154966
Si Si4 0.718423 0.420561 0.731399
Si Si5 0.498436 0.161515 0.059284
Si Si6 0.090109 0.271773 0.627196
O O1 0.595013 0.147146 0.743779
O O2 0.346239 0.109150 0.729808
O O3 0.207941 0.223765 0.629923
O O4 0.000000 0.115531 0.500000
O O5 0.899972 0.500000 0.377189
O O6 0.363962 0.580905 0.574803
O O7 0.000000 0.573674 0.500000
O O8 0.872594 0.646821 0.367705
O O9 0.575038 0.243939 0.090987
O O10 0.718876 0.258520 0.243064
O O11 0.326184 0.342514 0.046921
O O12 0.812302 0.500000 0.777026
O O13 0.787402 0.380111 0.813235
O O14 0.500000 0.137259 0.000000
O O15 0.750000 0.250000 0.500000
#
# Coordination Sequence:
#
# PCOD9213639 Si02
#       6
#     8   8   8   8   8   8
#     4  12  23  39  69 103 134 169 216 275 335 399
#     4  10  22  38  62  95 132 170 211 269 335 393
#     4  11  24  40  65 100 132 167 223 280 325 392
#     4  11  25  46  65  93 138 178 221 272 333 394
#     4  11  25  44  65  94 129 177 225 277 327 379
#     4  12  20  37  64 100 133 168 216 266 330 395
#
# _framework density 21.630960999999999
#
# number of rings (size 3 to 8) (size 9 to 14) (size 15 to 20)
#    0.000    0.833    5.000    1.500    7.000    0.667 
#    0.000    3.333    0.000    0.000    0.000    0.000 
#    0.000    0.000    0.000    0.000    0.000    0.000 
#
# Total GULP energy -134051.895545 kJ/mol
# GULP energy per Si atom -5585.495648 kJ/mol
# Density = 2.158173 g / cm^3
# Si number density = 21.630961 Si / 1000 Ang^3
#
#
#
# Elastic Constant Matrix: (Units=GPa)
#
#
# Indices 1 2 3 4 5 6 
#
# 1 79.5681 20.8296 5.5441 -0.0001 -16.8014 0.0066
# 2 20.8296 110.7304 2.5158 0.0009 -16.6957 0.0334
# 3 5.5441 2.5158 36.9859 0.0055 -3.5072 0.0832
# 4 -0.0001 0.0009 0.0055 16.8990 0.0060 -15.1727
# 5 -16.8014 -16.6957 -3.5072 0.0060 47.7803 0.0010
# 6 0.0066 0.0334 0.0832 -15.1727 0.0010 95.6041
#
#
#
# Elastic Compliance Matrix: (Units=1/GPa)
#
#
# Indices 1 2 3 4 5 6 
#
# 1 0.014072 -0.001987 -0.001582 0.000000 0.004138 0.000001
# 2 -0.001987 0.009818 -0.000112 -0.000005 0.002724 -0.000004
# 3 -0.001582 -0.000112 0.027417 -0.000036 0.001417 -0.000029
# 4 0.000000 -0.000005 -0.000036 0.069008 -0.000013 0.010952
# 5 0.004138 0.002724 0.001417 -0.000013 0.023440 -0.000005
# 6 0.000001 -0.000004 -0.000029 0.010952 -0.000005 0.012198
#
#
# Mechanical properties :
#
#
# Convention : Reuss Voigt Hill
#
# Bulk Modulus (GPa) = 22.75572 31.67371 27.21472
# Shear Modulus (GPa) = 28.09581 45.28299 36.68940
#
# Velocity S-wave (km/s) = 3.60789 4.58037 4.12290
# Velocity P-wave (km/s) = 5.28192 6.53051 5.93912
#
# Compressibility (1/GPa) = 0.04394499
#
# Stress axis : x y z
#
# Youngs Moduli (GPa) = 71.06298 101.85390 36.47437
#
# Poissons Ratio (x) = 0.20241 0.05770
# Poissons Ratio (y) = 0.14122 0.00407
# Poissons Ratio (z) = 0.11241 0.01137
#
# Static dielectric constant tensor:
#      x y z
#    x 1.807290 0.000000 0.019510 
#    y 0.000000 1.822980 -0.000010 
#    z 0.019510 -0.000010 1.829190 
# 
# From -- ./inp_files/359070.got.cif
#   From: 2010.05.17/outbox.cif.g08.bks.cpg/sg12_180_cif.got.tgz:359070.got - 2010.06.03 13:09:07.
