data_PCOD9213502
_publ_section_title
;
Structure prediction by ZEFSAII (Michael W. Deem and Ramdas Pophale) SiO2 
 PCOD9213502
Probable space group: C 2/M
;
_chemical_formula_sum "Si O2"
_cell_formula_units_Z 54
_cell_length_a 13.390765
_cell_length_b 14.242735
_cell_length_c 31.511426
_cell_angle_alpha 90.000000
_cell_angle_beta 29.826637
_cell_angle_gamma 90.000000
_cell_volume 2989.185244
_symmetry_space_group_name_H-M "C 2/M"
_symmetry_group_IT_number 12
_symmetry_cell_setting 'monoclinic'
loop_
_space_group_symop_operation_xyz
x,y,z
-x,y,-z
-x,-y,-z
x,-y,z
1/2+x,1/2+y,z
1/2-x,1/2+y,-z
1/2-x,1/2-y,-z
1/2+x,1/2-y,z
loop_
_atom_site_type_symbol
_atom_site_label
_atom_site_fract_x
_atom_site_fract_y
_atom_site_fract_z
Si Si1 0.000000 0.000000 0.000000
Si Si2 0.327354 0.223178 0.290742
Si Si3 0.187008 0.673198 0.094959
Si Si4 0.000000 0.330992 0.000000
Si Si5 0.899813 0.760586 0.405099
Si Si6 0.232415 0.110229 0.407096
Si Si7 0.939749 0.112252 0.312927
Si Si8 0.908537 0.606956 0.126235
O O1 0.170957 0.083488 0.947652
O O2 0.515259 0.191346 0.193428
O O3 0.292243 0.142916 0.338530
O O4 0.358602 0.321039 0.305005
O O5 0.125628 0.230521 0.338002
O O6 0.070892 0.664986 0.093015
O O7 0.325776 0.764237 0.046646
O O8 0.074007 0.385140 0.931020
O O9 0.750000 0.750000 0.500000
O O10 0.869414 0.667314 0.388788
O O11 0.857047 0.846233 0.388017
O O12 0.000000 0.137914 0.500000
O O13 0.250024 0.000000 0.406561
O O14 0.180279 0.129394 0.223527
O O15 0.904320 0.000000 0.321255
O O16 0.945689 0.500000 0.125307
#
# Coordination Sequence:
#
# PCOD9213502 Si02
#       8
#     2   8   8   4   8   8   8   8
#     4  10  24  40  62  98 128 156 216 272 318 392
#     4  11  22  40  65  87 126 166 208 264 320 375
#     4  11  22  40  63  90 122 163 208 259 321 380
#     4  11  23  39  61  88 122 156 201 263 309 373
#     4  11  22  39  63  93 122 162 212 261 310 379
#     4  10  22  38  59  91 125 160 205 261 319 374
#     4  10  23  40  62  92 125 168 214 260 315 390
#     4  11  21  39  62  90 120 159 208 251 315 382
#
# _framework density 18.065123
#
# number of rings (size 3 to 8) (size 9 to 14) (size 15 to 20)
#    0.000    1.333    5.185    0.667    1.037    1.778 
#    0.000    0.741    0.000    0.000    0.000    0.000 
#    0.000    0.000    0.000    0.000    0.000    0.000 
#
# Total GULP energy -150330.965505 kJ/mol
# GULP energy per Si atom -5567.813537 kJ/mol
# Density = 1.802401 g / cm^3
# Si number density = 18.065123 Si / 1000 Ang^3
#
#
#
# Elastic Constant Matrix: (Units=GPa)
#
#
# Indices 1 2 3 4 5 6 
#
# 1 79.1489 16.6127 2.6370 -0.0019 12.1199 -0.0046
# 2 16.6127 39.5534 5.8972 0.0000 0.7861 -0.0028
# 3 2.6370 5.8972 62.5515 -0.0052 20.9203 -0.0163
# 4 -0.0019 0.0000 -0.0052 14.3142 0.0034 -13.8538
# 5 12.1199 0.7861 20.9203 0.0034 26.4571 0.0044
# 6 -0.0046 -0.0028 -0.0163 -13.8538 0.0044 6.3158
#
#
#
# Elastic Compliance Matrix: (Units=1/GPa)
#
#
# Indices 1 2 3 4 5 6 
#
# 1 0.015366 -0.006730 0.003092 -0.000024 -0.009283 -0.000031
# 2 -0.006730 0.028638 -0.004300 0.000009 0.005632 0.000014
# 3 0.003092 -0.004300 0.022695 -0.000074 -0.019234 -0.000090
# 4 -0.000024 0.000009 -0.000074 -0.062211 0.000100 -0.136460
# 5 -0.009283 0.005632 -0.019234 0.000100 0.057091 0.000126
# 6 -0.000031 0.000014 -0.000090 -0.136460 0.000126 -0.140995
#
#
# Mechanical properties :
#
#
# Convention : Reuss Voigt Hill
#
# Bulk Modulus (GPa) = 19.67674 25.72750 22.70212
# Shear Modulus (GPa) = -107.29684 19.82455 -43.73614
#
# Velocity S-wave (km/s) = -7.71514 3.31629 -4.92573
# Velocity P-wave (km/s) = 8.27338 5.37923 4.44481
#
# Compressibility (1/GPa) = 0.05082143
#
# Stress axis : x y z
#
# Youngs Moduli (GPa) = 65.08064 34.91850 44.06350
#
# Poissons Ratio (x) = 0.23500 -0.13623
# Poissons Ratio (y) = 0.43800 0.18947
# Poissons Ratio (z) = -0.20120 0.15015
#
# Static dielectric constant tensor:
#      x y z
#    x 1.624990 0.000000 0.028180 
#    y 0.000000 1.595720 0.000000 
#    z 0.028180 0.000000 1.652480 
# 
# From -- ./inp_files/374228.got.cif
#   From: 2010.05.17/outbox.cif.g08.bks.cpg/sg12_188_cif.got.tgz:374228.got - 2010.06.03 13:09:07.
