data_PCOD9213829
_publ_section_title
;
Structure prediction by ZEFSAII (Michael W. Deem and Ramdas Pophale) SiO2 
 PCOD9213829
Probable space group: C 2/M
;
_chemical_formula_sum "Si O2"
_cell_formula_units_Z 48
_cell_length_a 19.023882
_cell_length_b 10.866843
_cell_length_c 21.042877
_cell_angle_alpha 90.000000
_cell_angle_beta 29.709203
_cell_angle_gamma 90.000000
_cell_volume 2155.943419
_symmetry_space_group_name_H-M "C 2/M"
_symmetry_group_IT_number 12
_symmetry_cell_setting 'monoclinic'
loop_
_space_group_symop_operation_xyz
x,y,z
-x,y,-z
-x,-y,-z
x,-y,z
1/2+x,1/2+y,z
1/2-x,1/2+y,-z
1/2-x,1/2-y,-z
1/2+x,1/2-y,z
loop_
_atom_site_type_symbol
_atom_site_label
_atom_site_fract_x
_atom_site_fract_y
_atom_site_fract_z
Si Si1 0.322872 0.366937 0.358276
Si Si2 0.429295 0.864637 0.342483
Si Si3 0.636655 0.859356 0.845563
Si Si4 0.893267 0.366999 0.947884
Si Si5 0.726604 0.867822 0.102746
Si Si6 0.336546 0.142619 0.650449
O O1 0.397273 0.500000 0.306712
O O2 0.415252 0.252589 0.308257
O O3 0.191712 0.362621 0.510064
O O4 0.256631 0.360296 0.341026
O O5 0.582124 0.859729 0.255757
O O6 0.417857 0.000000 0.319759
O O7 0.557496 0.859611 0.838833
O O8 0.755596 0.751913 0.752920
O O9 0.691299 0.000000 0.812123
O O10 0.500000 0.841897 0.000000
O O11 0.844121 0.500000 0.011922
O O12 0.837819 0.366636 0.918764
O O13 0.822901 0.248578 0.034195
O O14 0.797662 0.000000 0.057074
O O15 0.500000 0.168794 0.500000
O O16 0.332591 0.000000 0.678644
#
# Coordination Sequence:
#
# PCOD9213829 Si02
#       6
#     8   8   8   8   8   8
#     4   9  18  32  50  74 104 137 174 217 265 319
#     4   9  17  30  49  74 104 137 173 215 264 318
#     4  10  22  40  60  82 109 143 186 234 280 328
#     4   9  18  32  49  72 103 135 169 213 263 315
#     4   9  17  29  48  74 102 134 170 208 257 317
#     4  10  22  39  58  82 112 146 186 231 277 328
#
# _framework density 22.264033999999999
#
# number of rings (size 3 to 8) (size 9 to 14) (size 15 to 20)
#    0.000    2.667    0.000    1.000    0.000    5.333 
#    0.000    5.000    0.000    0.000    0.000    0.000 
#    0.000    0.000    0.000    0.000    0.000    0.000 
#
# Total GULP energy -133709.825266 kJ/mol
# GULP energy per Si atom -5571.242719 kJ/mol
# Density = 2.221336 g / cm^3
# Si number density = 22.264034 Si / 1000 Ang^3
#
#
#
# Elastic Constant Matrix: (Units=GPa)
#
#
# Indices 1 2 3 4 5 6 
#
# 1 62.5845 30.7157 -1.1342 0.0001 1.5537 -0.0001
# 2 30.7157 241.9573 97.8313 0.0002 -12.2668 -0.0001
# 3 -1.1342 97.8313 76.0991 0.0007 -2.3065 -0.0004
# 4 0.0001 0.0002 0.0007 37.8438 -0.0002 -8.8035
# 5 1.5537 -12.2668 -2.3065 -0.0002 21.6875 0.0001
# 6 -0.0001 -0.0001 -0.0004 -8.8035 0.0001 15.4079
#
#
#
# Elastic Compliance Matrix: (Units=1/GPa)
#
#
# Indices 1 2 3 4 5 6 
#
# 1 0.018920 -0.005536 0.007287 0.000000 -0.003712 0.000000
# 2 -0.005536 0.010534 -0.013475 0.000000 0.004922 0.000000
# 3 0.007287 -0.013475 0.030424 0.000000 -0.004908 0.000000
# 4 0.000000 0.000000 0.000000 0.030475 0.000000 0.017412
# 5 -0.003712 0.004922 -0.004908 0.000000 0.048637 0.000000
# 6 0.000000 0.000000 0.000000 0.017412 0.000000 0.074850
#
#
# Mechanical properties :
#
#
# Convention : Reuss Voigt Hill
#
# Bulk Modulus (GPa) = 27.45137 70.60741 49.02939
# Shear Modulus (GPa) = 20.04549 31.86972 25.95760
#
# Velocity S-wave (km/s) = 3.00384 3.78755 3.41823
# Velocity P-wave (km/s) = 4.93836 7.13512 6.13585
#
# Compressibility (1/GPa) = 0.03642806
#
# Stress axis : x y z
#
# Youngs Moduli (GPa) = 52.85483 94.93213 32.86848
#
# Poissons Ratio (x) = 0.52557 -0.23951
# Poissons Ratio (y) = 0.29262 0.44292
# Poissons Ratio (z) = -0.38514 1.27925
#
# Static dielectric constant tensor:
#      x y z
#    x 1.870910 0.000000 0.078840 
#    y 0.000000 1.910600 0.000000 
#    z 0.078840 0.000000 1.852060 
# 
# From -- ./inp_files/365352.got.cif
#   From: 2010.05.17/outbox.cif.g08.bks.cpg/sg12_183_cif.got.tgz:365352.got - 2010.06.03 13:09:07.
