data_PCOD9213220
_publ_section_title
;
Structure prediction by ZEFSAII (Michael W. Deem and Ramdas Pophale) SiO2 
 PCOD9213220
Probable space group: C 2/M
;
_chemical_formula_sum "Si O2"
_cell_formula_units_Z 48
_cell_length_a 12.625055
_cell_length_b 15.879895
_cell_length_c 26.610116
_cell_angle_alpha 90.000000
_cell_angle_beta 27.078255
_cell_angle_gamma 90.000000
_cell_volume 2428.491698
_symmetry_space_group_name_H-M "C 2/M"
_symmetry_group_IT_number 12
_symmetry_cell_setting 'monoclinic'
loop_
_space_group_symop_operation_xyz
x,y,z
-x,y,-z
-x,-y,-z
x,-y,z
1/2+x,1/2+y,z
1/2-x,1/2+y,-z
1/2-x,1/2-y,-z
1/2+x,1/2-y,z
loop_
_atom_site_type_symbol
_atom_site_label
_atom_site_fract_x
_atom_site_fract_y
_atom_site_fract_z
Si Si1 0.146399 0.332815 0.156857
Si Si2 0.776386 0.903380 0.374580
Si Si3 0.588912 0.671336 0.786644
Si Si4 0.526285 0.289048 0.622599
Si Si5 0.341351 0.600076 0.612742
Si Si6 0.550628 0.402346 0.051737
O O1 0.362187 0.344637 0.102724
O O2 0.083049 0.240391 0.164719
O O3 0.921990 0.368972 0.279841
O O4 0.211342 0.385059 0.078925
O O5 0.500000 0.894117 0.500000
O O6 0.829114 0.886829 0.293861
O O7 0.902755 0.832676 0.355130
O O8 0.840476 0.000000 0.361069
O O9 0.461229 0.622850 0.885376
O O10 0.816592 0.721150 0.711727
O O11 0.750000 0.250000 0.500000
O O12 0.437247 0.362928 0.623776
O O13 0.500000 0.632464 0.500000
O O14 0.348580 0.500000 0.609533
O O15 0.486210 0.500000 0.072470
#
# Coordination Sequence:
#
# PCOD9213220 Si02
#       6
#     8   8   8   8   8   8
#     4  10  22  39  62  89 123 156 199 254 307 351
#     4  11  23  39  57  84 123 162 198 246 300 355
#     4  11  23  38  63  87 120 157 209 246 296 365
#     4  11  23  37  58  84 120 158 199 236 301 354
#     4  10  22  37  59  88 119 153 193 244 302 364
#     4  11  22  40  64  91 120 157 206 254 301 358
#
# _framework density 19.765353999999999
#
# number of rings (size 3 to 8) (size 9 to 14) (size 15 to 20)
#    0.000    1.333    1.667    4.500    7.000    0.000 
#    0.000    0.000    0.000    0.000    0.000   17.500 
#    0.000    0.000    0.000    0.000    0.000    0.000 
#
# Total GULP energy -134075.857526 kJ/mol
# GULP energy per Si atom -5586.494064 kJ/mol
# Density = 1.972037 g / cm^3
# Si number density = 19.765354 Si / 1000 Ang^3
#
#
#
# Elastic Constant Matrix: (Units=GPa)
#
#
# Indices 1 2 3 4 5 6 
#
# 1 47.2655 14.4499 22.8294 0.0602 16.0268 0.0687
# 2 14.4499 55.2704 14.1693 0.0616 -2.5815 0.0501
# 3 22.8294 14.1693 100.5854 0.3224 22.4829 0.0637
# 4 0.0602 0.0616 0.3224 15.7363 -0.0529 0.6904
# 5 16.0268 -2.5815 22.4829 -0.0529 38.6529 -0.0304
# 6 0.0687 0.0501 0.0637 0.6904 -0.0304 2.7867
#
#
#
# Elastic Compliance Matrix: (Units=1/GPa)
#
#
# Indices 1 2 3 4 5 6 
#
# 1 0.028368 -0.007107 -0.003105 -0.000025 -0.010431 -0.000608
# 2 -0.007107 0.020904 -0.002647 0.000023 0.005882 -0.000082
# 3 -0.003105 -0.002647 0.012382 -0.000245 -0.006092 -0.000165
# 4 -0.000025 0.000023 -0.000245 0.064251 0.000230 -0.015911
# 5 -0.010431 0.005882 -0.006092 0.000230 0.034133 0.000606
# 6 -0.000608 -0.000082 -0.000165 -0.015911 0.000606 0.362816
#
#
# Mechanical properties :
#
#
# Convention : Reuss Voigt Hill
#
# Bulk Modulus (GPa) = 27.82719 34.00207 30.91463
# Shear Modulus (GPa) = 8.91981 21.54670 15.23325
#
# Velocity S-wave (km/s) = 2.12665 3.30529 2.77917
# Velocity P-wave (km/s) = 4.48771 5.63975 5.09639
#
# Compressibility (1/GPa) = 0.03593607
#
# Stress axis : x y z
#
# Youngs Moduli (GPa) = 35.25159 47.83739 80.76295
#
# Poissons Ratio (x) = 0.33998 0.25079
# Poissons Ratio (y) = 0.25053 0.21374
# Poissons Ratio (z) = 0.10947 0.12660
#
# Static dielectric constant tensor:
#      x y z
#    x 1.696600 -0.000010 -0.004080 
#    y -0.000010 1.673110 0.000010 
#    z -0.004080 0.000010 1.718960 
# 
# From -- ./inp_files/131081.got.cif
#   From: 2010.05.17/outbox.cif.g08.bks.cpg/sg12_66_cif.got.tgz:131081.got - 2010.06.03 13:09:07.
