data_PCOD9213254
_publ_section_title
;
Structure prediction by ZEFSAII (Michael W. Deem and Ramdas Pophale) SiO2 
 PCOD9213254
Probable space group: C 2/M
;
_chemical_formula_sum "Si O2"
_cell_formula_units_Z 44
_cell_length_a 22.266270
_cell_length_b 7.684930
_cell_length_c 10.986507
_cell_angle_alpha 90.000000
_cell_angle_beta 112.794984
_cell_angle_gamma 90.000000
_cell_volume 1733.123296
_symmetry_space_group_name_H-M "C 2/M"
_symmetry_group_IT_number 12
_symmetry_cell_setting 'monoclinic'
loop_
_space_group_symop_operation_xyz
x,y,z
-x,y,-z
-x,-y,-z
x,-y,z
1/2+x,1/2+y,z
1/2-x,1/2+y,-z
1/2-x,1/2-y,-z
1/2+x,1/2-y,z
loop_
_atom_site_type_symbol
_atom_site_label
_atom_site_fract_x
_atom_site_fract_y
_atom_site_fract_z
Si Si1 0.191331 0.310116 0.819988
Si Si2 0.540656 0.796523 0.907308
Si Si3 0.411292 0.209653 0.669022
Si Si4 0.223140 0.707086 0.343044
Si Si5 0.852830 0.000000 0.057747
Si Si6 0.071872 0.799955 0.579816
O O1 0.200567 0.500000 0.878056
O O2 0.238820 0.289155 0.740244
O O3 0.308179 0.347645 0.087917
O O4 0.118122 0.299202 0.706339
O O5 0.484500 0.746556 0.765395
O O6 0.560746 0.000000 0.905712
O O7 0.500000 0.793362 0.000000
O O8 0.597198 0.655571 0.950778
O O9 0.353322 0.258146 0.715104
O O10 0.396094 0.295037 0.527851
O O11 0.408310 0.000000 0.653087
O O12 0.228302 0.500000 0.332101
O O13 0.250000 0.750000 0.500000
O O14 0.000000 0.728366 0.500000
O O15 0.067486 0.000000 0.620239
#
# Coordination Sequence:
#
# PCOD9213254 Si02
#       6
#     8   8   8   8   4   8
#     4  12  24  39  59  89 128 176 213 255 306 372
#     4  10  23  45  71 100 124 158 206 269 334 383
#     4  10  22  37  61  91 123 165 212 260 311 377
#     4  11  21  38  58  87 129 173 219 255 297 363
#     4  12  23  42  65  98 132 162 208 262 327 387
#     4  11  22  34  52  85 127 168 206 247 309 376
#
# _framework density 25.387692000000001
#
# number of rings (size 3 to 8) (size 9 to 14) (size 15 to 20)
#    0.000    1.091    3.636    3.000    3.818    3.636 
#    0.000    0.000    0.000    1.091    0.000    0.000 
#    0.000    0.000    0.000    0.000    0.000    0.000 
#
# Total GULP energy -122785.849683 kJ/mol
# GULP energy per Si atom -5581.174986 kJ/mol
# Density = 2.532991 g / cm^3
# Si number density = 25.387692 Si / 1000 Ang^3
#
#
#
# Elastic Constant Matrix: (Units=GPa)
#
#
# Indices 1 2 3 4 5 6 
#
# 1 170.6486 65.7652 18.7536 0.0000 6.7918 0.0000
# 2 65.7652 173.6054 38.6472 0.0000 2.8163 0.0000
# 3 18.7536 38.6472 71.7484 0.0000 12.3205 0.0000
# 4 0.0000 0.0000 0.0000 22.7180 0.0000 -6.6164
# 5 6.7918 2.8163 12.3205 0.0000 17.6985 0.0000
# 6 0.0000 0.0000 0.0000 -6.6164 0.0000 48.6707
#
#
#
# Elastic Compliance Matrix: (Units=1/GPa)
#
#
# Indices 1 2 3 4 5 6 
#
# 1 0.006950 -0.002588 -0.000040 0.000000 -0.002227 0.000000
# 2 -0.002588 0.007549 -0.003809 0.000000 0.002444 0.000000
# 3 -0.000040 -0.003809 0.018051 0.000000 -0.011944 0.000000
# 4 0.000000 0.000000 0.000000 0.045833 0.000000 0.006231
# 5 -0.002227 0.002444 -0.011944 0.000000 0.065283 0.000000
# 6 0.000000 0.000000 0.000000 0.006231 0.000000 0.021393
#
#
# Mechanical properties :
#
#
# Convention : Reuss Voigt Hill
#
# Bulk Modulus (GPa) = 50.82508 73.59270 62.20889
# Shear Modulus (GPa) = 27.10134 37.33987 32.22060
#
# Velocity S-wave (km/s) = 3.27081 3.83924 3.56637
# Velocity P-wave (km/s) = 5.85895 6.97879 6.44324
#
# Compressibility (1/GPa) = 0.01967533
#
# Stress axis : x y z
#
# Youngs Moduli (GPa) = 143.87701 132.46939 55.39819
#
# Poissons Ratio (x) = 0.34281 0.00223
# Poissons Ratio (y) = 0.37233 0.21104
# Poissons Ratio (z) = 0.00579 0.50463
#
# Static dielectric constant tensor:
#      x y z
#    x 2.034410 0.000000 -0.012100 
#    y 0.000000 1.880960 0.000000 
#    z -0.012100 0.000000 2.149970 
# 
# From -- ./inp_files/238044.got.cif
#   From: 2010.05.17/outbox.cif.g08.bks.cpg/sg12_120_cif.got.tgz:238044.got - 2010.06.03 13:09:07.
