data_PCOD9213255
_publ_section_title
;
Structure prediction by ZEFSAII (Michael W. Deem and Ramdas Pophale) SiO2 
 PCOD9213255
Probable space group: C 2/M
;
_chemical_formula_sum "Si O2"
_cell_formula_units_Z 48
_cell_length_a 21.653327
_cell_length_b 25.328408
_cell_length_c 14.084039
_cell_angle_alpha 90.000000
_cell_angle_beta 165.878139
_cell_angle_gamma 90.000000
_cell_volume 1884.616350
_symmetry_space_group_name_H-M "C 2/M"
_symmetry_group_IT_number 12
_symmetry_cell_setting 'monoclinic'
loop_
_space_group_symop_operation_xyz
x,y,z
-x,y,-z
-x,-y,-z
x,-y,z
1/2+x,1/2+y,z
1/2-x,1/2+y,-z
1/2-x,1/2-y,-z
1/2+x,1/2-y,z
loop_
_atom_site_type_symbol
_atom_site_label
_atom_site_fract_x
_atom_site_fract_y
_atom_site_fract_z
Si Si1 0.651928 0.000000 0.385688
Si Si2 0.106368 0.913403 0.748868
Si Si3 0.387905 0.500000 0.533759
Si Si4 0.275959 0.193510 0.588403
Si Si5 0.914978 0.691761 0.476451
Si Si6 0.006166 0.196033 0.649018
Si Si7 0.645948 0.112840 0.467766
O O1 0.809200 0.000000 0.524143
O O2 0.715149 0.053592 0.537590
O O3 0.362762 0.000000 0.909246
O O4 0.934895 0.861057 0.502833
O O5 0.000000 0.943505 0.500000
O O6 0.390335 0.900518 0.145467
O O7 0.056630 0.948927 0.764352
O O8 0.250000 0.250000 0.500000
O O9 0.336090 0.148226 0.600953
O O10 0.030274 0.189806 0.291802
O O11 0.500000 0.192509 0.000000
O O12 0.847200 0.754134 0.375545
O O13 0.745986 0.654298 0.291201
O O14 0.000000 0.671184 0.500000
O O15 0.201121 0.699942 0.947916
#
# Coordination Sequence:
#
# PCOD9213255 Si02
#       7
#     4   8   4   8   8   8   8
#     4  11  23  38  60  91 132 163 221 269 344 402
#     4  11  19  34  57  87 126 164 209 256 322 392
#     4  11  22  35  60  94 124 176 199 275 333 396
#     4  12  26  41  63  98 138 182 223 275 340 401
#     4  10  22  41  64  91 127 172 228 274 328 397
#     4  10  22  37  61  91 128 174 214 270 331 395
#     4  11  23  40  61  96 125 172 216 275 331 399
#
# _framework density 25.469373000000001
#
# number of rings (size 3 to 8) (size 9 to 14) (size 15 to 20)
#    0.000    1.167    3.333    3.250    4.667    0.000 
#    0.000    0.417    0.000    0.000    0.000    8.750 
#    0.000    0.000    0.000    0.000    0.000    0.000 
#
# Total GULP energy -133865.618407 kJ/mol
# GULP energy per Si atom -5577.734100 kJ/mol
# Density = 2.541140 g / cm^3
# Si number density = 25.469373 Si / 1000 Ang^3
#
#
#
# Elastic Constant Matrix: (Units=GPa)
#
#
# Indices 1 2 3 4 5 6 
#
# 1 197.3469 99.3420 22.2048 -0.0007 22.1174 0.0002
# 2 99.3420 232.7914 18.7470 0.0007 7.6326 0.0000
# 3 22.2048 18.7470 77.4945 -0.0004 27.7927 0.0042
# 4 -0.0007 0.0007 -0.0004 7.9721 -0.0012 7.9182
# 5 22.1174 7.6326 27.7927 -0.0012 42.9191 0.0010
# 6 0.0002 0.0000 0.0042 7.9182 0.0010 71.8993
#
#
#
# Elastic Compliance Matrix: (Units=1/GPa)
#
#
# Indices 1 2 3 4 5 6 
#
# 1 0.006824 -0.002798 -0.000255 0.000000 -0.002854 0.000000
# 2 -0.002798 0.005529 -0.000912 -0.000001 0.001049 0.000000
# 3 -0.000255 -0.000912 0.017053 0.000000 -0.010749 -0.000001
# 4 0.000000 -0.000001 0.000000 0.140844 0.000004 -0.015511
# 5 -0.002854 0.001049 -0.010749 0.000004 0.031545 0.000000
# 6 0.000000 0.000000 -0.000001 -0.015511 0.000000 0.015617
#
#
# Mechanical properties :
#
#
# Convention : Reuss Voigt Hill
#
# Bulk Modulus (GPa) = 46.56391 87.58004 67.07198
# Shear Modulus (GPa) = 21.50539 49.04736 35.27638
#
# Velocity S-wave (km/s) = 2.90894 4.39309 3.72566
# Velocity P-wave (km/s) = 5.44101 7.75844 6.70067
#
# Compressibility (1/GPa) = 0.02147586
#
# Stress axis : x y z
#
# Youngs Moduli (GPa) = 146.53511 180.87073 58.64094
#
# Poissons Ratio (x) = 0.50610 0.01495
# Poissons Ratio (y) = 0.41002 0.05349
# Poissons Ratio (z) = 0.03735 0.16497
#
# Static dielectric constant tensor:
#      x y z
#    x 2.011390 0.000000 -0.071030 
#    y 0.000000 2.066910 0.000000 
#    z -0.071030 0.000000 2.287350 
# 
# From -- ./inp_files/235579.got.cif
#   From: 2010.05.17/outbox.cif.g08.bks.cpg/sg12_118_cif.got.tgz:235579.got - 2010.06.03 13:09:07.
