data_PCOD9213762
_publ_section_title
;
Structure prediction by ZEFSAII (Michael W. Deem and Ramdas Pophale) SiO2 
 PCOD9213762
Probable space group: C 2/M
;
_chemical_formula_sum "Si O2"
_cell_formula_units_Z 58
_cell_length_a 8.952400
_cell_length_b 20.660533
_cell_length_c 19.450383
_cell_angle_alpha 90.000000
_cell_angle_beta 132.172886
_cell_angle_gamma 90.000000
_cell_volume 2666.239092
_symmetry_space_group_name_H-M "C 2/M"
_symmetry_group_IT_number 12
_symmetry_cell_setting 'monoclinic'
loop_
_space_group_symop_operation_xyz
x,y,z
-x,y,-z
-x,-y,-z
x,-y,z
1/2+x,1/2+y,z
1/2-x,1/2+y,-z
1/2-x,1/2-y,-z
1/2+x,1/2-y,z
loop_
_atom_site_type_symbol
_atom_site_label
_atom_site_fract_x
_atom_site_fract_y
_atom_site_fract_z
Si Si1 0.472390 0.661700 0.672236
Si Si2 0.189393 0.613361 0.474217
Si Si3 0.342970 0.423316 0.854244
Si Si4 0.914227 0.576864 0.696445
Si Si5 0.000000 0.500000 0.500000
Si Si6 0.231167 0.423535 0.982473
Si Si7 0.295994 0.922898 0.818674
Si Si8 0.916089 0.739234 0.403671
O O1 0.368093 0.613440 0.584807
O O2 0.600146 0.620980 0.766254
O O3 0.294713 0.703757 0.650345
O O4 0.593568 0.712169 0.662449
O O5 0.231762 0.601180 0.407767
O O6 0.041692 0.557022 0.454952
O O7 0.080674 0.682619 0.444137
O O8 0.356728 0.500000 0.841402
O O9 0.142604 0.395803 0.756255
O O10 0.283805 0.420087 0.917233
O O11 0.570189 0.396288 0.918513
O O12 0.929651 0.500000 0.695110
O O13 0.842172 0.587164 0.751654
O O14 0.221667 0.500000 0.996114
O O15 0.001272 0.400716 0.919799
O O16 0.263894 0.000000 0.820732
O O17 0.000000 0.771554 0.500000
#
# Coordination Sequence:
#
# PCOD9213762 Si02
#       8
#     8   8   8   8   2   8   8   8
#     4  11  23  36  55  71 100 135 178 213 254 294
#     4  11  21  34  52  70 104 134 173 206 251 302
#     4   7  10  19  38  61  98 135 162 185 239 293
#     4   9  17  27  42  75 107 134 160 205 247 303
#     4  12  20  36  52  74 104 140 170 204 256 324
#     4   7  10  21  38  63  99 135 156 192 236 305
#     4   9  19  29  46  78 110 129 162 204 262 303
#     4  10  22  39  52  70  90 136 183 217 244 292
#
# _framework density 21.753487
#
# number of rings (size 3 to 8) (size 9 to 14) (size 15 to 20)
#    0.000    2.759    2.759    4.138    4.828    0.000 
#    0.000    1.379    0.000    0.000    0.000    1.931 
#    0.000    5.517    0.000    0.000    0.000    0.000 
#
# Total GULP energy -161440.668727 kJ/mol
# GULP energy per Si atom -5566.919611 kJ/mol
# Density = 2.170398 g / cm^3
# Si number density = 21.753487 Si / 1000 Ang^3
#
#
#
# Elastic Constant Matrix: (Units=GPa)
#
#
# Indices 1 2 3 4 5 6 
#
# 1 47.5397 9.8331 34.8953 0.0000 -3.4994 0.0000
# 2 9.8331 52.8449 18.5533 0.0000 7.6185 0.0000
# 3 34.8953 18.5533 92.5423 0.0000 25.0883 0.0000
# 4 0.0000 0.0000 0.0000 -2.2130 0.0000 22.0421
# 5 -3.4994 7.6185 25.0883 0.0000 37.5560 0.0000
# 6 0.0000 0.0000 0.0000 22.0421 0.0000 -10.2031
#
#
#
# Elastic Compliance Matrix: (Units=1/GPa)
#
#
# Indices 1 2 3 4 5 6 
#
# 1 0.034959 -0.002808 -0.016677 0.000000 0.014968 0.000000
# 2 -0.002808 0.020672 -0.002293 0.000000 -0.002923 0.000000
# 3 -0.016677 -0.002293 0.021797 0.000000 -0.015649 0.000000
# 4 0.000000 0.000000 0.000000 0.022024 0.000000 0.047579
# 5 0.014968 -0.002923 -0.015649 0.000000 0.039069 0.000000
# 6 0.000000 0.000000 0.000000 0.047579 0.000000 0.004777
#
#
# Mechanical properties :
#
#
# Convention : Reuss Voigt Hill
#
# Bulk Modulus (GPa) = 29.52289 35.49892 32.51090
# Shear Modulus (GPa) = 25.23419 13.67098 19.45258
#
# Velocity S-wave (km/s) = 3.40958 2.50961 2.99361
# Velocity P-wave (km/s) = 5.39457 4.97511 5.18908
#
# Compressibility (1/GPa) = 0.03387203
#
# Stress axis : x y z
#
# Youngs Moduli (GPa) = 28.60506 48.37391 45.87865
#
# Poissons Ratio (x) = 0.13582 0.76511
# Poissons Ratio (y) = 0.08031 0.10521
# Poissons Ratio (z) = 0.47704 0.11094
#
# Static dielectric constant tensor:
#      x y z
#    x 1.925030 0.000000 0.047490 
#    y 0.000000 1.749870 0.000000 
#    z 0.047490 0.000000 1.862500 
# 
# From -- ./inp_files/333883.got.cif
#   From: 2010.05.17/outbox.cif.g08.bks.cpg/sg12_167_cif.got.tgz:333883.got - 2010.06.03 13:09:07.
