data_PCOD9213593
_publ_section_title
;
Structure prediction by ZEFSAII (Michael W. Deem and Ramdas Pophale) SiO2 
 PCOD9213593
Probable space group: C 2/M
;
_chemical_formula_sum "Si O2"
_cell_formula_units_Z 52
_cell_length_a 11.146781
_cell_length_b 21.882036
_cell_length_c 14.084470
_cell_angle_alpha 90.000000
_cell_angle_beta 48.931589
_cell_angle_gamma 90.000000
_cell_volume 2590.038737
_symmetry_space_group_name_H-M "C 2/M"
_symmetry_group_IT_number 12
_symmetry_cell_setting 'monoclinic'
loop_
_space_group_symop_operation_xyz
x,y,z
-x,y,-z
-x,-y,-z
x,-y,z
1/2+x,1/2+y,z
1/2-x,1/2+y,-z
1/2-x,1/2-y,-z
1/2+x,1/2-y,z
loop_
_atom_site_type_symbol
_atom_site_label
_atom_site_fract_x
_atom_site_fract_y
_atom_site_fract_z
Si Si1 0.295274 0.175094 0.672509
Si Si2 0.261526 0.931753 0.546829
Si Si3 0.627410 0.071076 0.728798
Si Si4 0.424452 0.621502 0.692690
Si Si5 0.627805 0.172749 0.153089
Si Si6 0.424788 0.689019 0.881436
Si Si7 0.500000 0.280703 0.500000
O O1 0.322583 0.118516 0.588550
O O2 0.615374 0.174614 0.273512
O O3 0.349146 0.236287 0.589941
O O4 0.109453 0.174035 0.793547
O O5 0.327980 0.923505 0.405936
O O6 0.069962 0.923514 0.639669
O O7 0.300383 0.000000 0.559022
O O8 0.782793 0.090833 0.707683
O O9 0.484305 0.117979 0.823682
O O10 0.588454 0.000000 0.767932
O O11 0.363210 0.654135 0.819484
O O12 0.502666 0.675300 0.588867
O O13 0.581193 0.238152 0.132798
O O14 0.811261 0.167582 0.025089
#
# Coordination Sequence:
#
# PCOD9213593 Si02
#       7
#     8   8   8   8   8   8   4
#     4  11  23  39  62  92 126 161 204 259 309 370
#     4  10  22  38  61  91 127 169 204 245 308 375
#     4  11  23  40  64  93 129 165 207 255 307 367
#     4  11  21  38  63  94 124 160 203 262 312 366
#     4  11  23  41  60  89 122 168 210 256 307 363
#     4  10  24  40  63  87 124 163 210 256 313 367
#     4  12  20  34  62  96 124 152 196 260 320 368
#
# _framework density 20.076919
#
# number of rings (size 3 to 8) (size 9 to 14) (size 15 to 20)
#    0.000    1.231    3.077    2.769    0.000    3.692 
#    0.000    6.538    0.000    4.615    0.000    0.000 
#    0.000    0.000    0.000    0.000    0.000    0.000 
#
# Total GULP energy -145291.182681 kJ/mol
# GULP energy per Si atom -5588.122411 kJ/mol
# Density = 2.003122 g / cm^3
# Si number density = 20.076919 Si / 1000 Ang^3
#
#
#
# Elastic Constant Matrix: (Units=GPa)
#
#
# Indices 1 2 3 4 5 6 
#
# 1 61.5712 36.2744 24.7707 0.0000 -3.6354 0.0000
# 2 36.2744 124.6537 41.7508 0.0000 -1.9762 0.0000
# 3 24.7707 41.7508 75.5221 0.0000 -7.1107 0.0000
# 4 0.0000 0.0000 0.0000 21.2586 0.0000 3.2109
# 5 -3.6354 -1.9762 -7.1107 0.0000 38.2646 0.0000
# 6 0.0000 0.0000 0.0000 3.2109 0.0000 19.6711
#
#
#
# Elastic Compliance Matrix: (Units=1/GPa)
#
#
# Indices 1 2 3 4 5 6 
#
# 1 0.020684 -0.004617 -0.004142 0.000000 0.000957 0.000000
# 2 -0.004617 0.010885 -0.004572 0.000000 -0.000726 0.000000
# 3 -0.004142 -0.004572 0.017372 0.000000 0.002599 0.000000
# 4 0.000000 0.000000 0.000000 0.048229 0.000000 -0.007872
# 5 0.000957 -0.000726 0.002599 0.000000 0.026670 0.000000
# 6 0.000000 0.000000 0.000000 -0.007872 0.000000 0.052121
#
#
# Mechanical properties :
#
#
# Convention : Reuss Voigt Hill
#
# Bulk Modulus (GPa) = 44.88251 51.92653 48.40452
# Shear Modulus (GPa) = 23.80398 26.43560 25.11979
#
# Velocity S-wave (km/s) = 3.44705 3.63259 3.54104
# Velocity P-wave (km/s) = 6.18439 6.59653 6.39378
#
# Compressibility (1/GPa) = 0.02228039
#
# Stress axis : x y z
#
# Youngs Moduli (GPa) = 48.34642 91.86566 57.56449
#
# Poissons Ratio (x) = 0.42411 0.23843
# Poissons Ratio (y) = 0.22320 0.26318
# Poissons Ratio (z) = 0.20025 0.42000
#
# Static dielectric constant tensor:
#      x y z
#    x 1.715770 0.000000 0.005480 
#    y 0.000000 1.686090 0.000000 
#    z 0.005480 0.000000 1.719570 
# 
# From -- ./inp_files/99163.got.cif
#   From: 2010.05.17/outbox.cif.g08.bks.cpg/sg12_50_cif.got.tgz:99163.got - 2010.06.03 13:09:07.
