data_PCOD9213091
_publ_section_title
;
Structure prediction by ZEFSAII (Michael W. Deem and Ramdas Pophale) SiO2 
 PCOD9213091
Probable space group: C 2/M
;
_chemical_formula_sum "Si O2"
_cell_formula_units_Z 48
_cell_length_a 30.318477
_cell_length_b 15.334019
_cell_length_c 15.138816
_cell_angle_alpha 90.000000
_cell_angle_beta 160.798840
_cell_angle_gamma 90.000000
_cell_volume 2314.730144
_symmetry_space_group_name_H-M "C 2/M"
_symmetry_group_IT_number 12
_symmetry_cell_setting 'monoclinic'
loop_
_space_group_symop_operation_xyz
x,y,z
-x,y,-z
-x,-y,-z
x,-y,z
1/2+x,1/2+y,z
1/2-x,1/2+y,-z
1/2-x,1/2-y,-z
1/2+x,1/2-y,z
loop_
_atom_site_type_symbol
_atom_site_label
_atom_site_fract_x
_atom_site_fract_y
_atom_site_fract_z
Si Si1 0.237780 0.851384 0.675038
Si Si2 0.285491 0.858676 0.385528
Si Si3 0.941002 0.096800 0.166033
Si Si4 0.956109 0.598444 0.235516
Si Si5 0.606352 0.735765 0.772430
Si Si6 0.157911 0.663986 0.313505
O O1 0.218717 0.746565 0.632805
O O2 0.287517 0.880709 0.672176
O O3 0.096369 0.889489 0.437559
O O4 0.348929 0.875772 0.957209
O O5 0.398679 0.894389 0.534534
O O6 0.323163 0.882944 0.556914
O O7 0.142983 0.892036 0.082660
O O8 0.891748 0.169618 0.141720
O O9 0.918746 0.000000 0.159976
O O10 0.931188 0.500000 0.218803
O O11 0.943923 0.671070 0.287227
O O12 0.500000 0.701612 0.500000
O O13 0.750000 0.750000 0.000000
O O14 0.250000 0.750000 0.500000
O O15 0.000000 0.684493 0.000000
#
# Coordination Sequence:
#
# PCOD9213091 Si02
#       6
#     8   8   8   8   8   8
#     4  11  21  42  68  97 140 182 225 276 329 391
#     4  11  21  42  68  97 140 180 223 279 327 387
#     4  12  26  45  70 102 135 177 226 276 338 409
#     4  12  24  43  70 100 131 175 222 274 337 405
#     4  12  26  46  72  97 132 171 216 284 348 403
#     4  10  22  36  65 104 136 183 236 273 321 386
#
# _framework density 20.736758999999999
#
# number of rings (size 3 to 8) (size 9 to 14) (size 15 to 20)
#    0.000    0.667    5.000    3.000    7.000    1.333 
#    0.000    5.000    0.000    0.000    0.000    0.000 
#    0.000    0.000    0.000    0.000    0.000    0.000 
#
# Total GULP energy -134224.138302 kJ/mol
# GULP energy per Si atom -5592.672429 kJ/mol
# Density = 2.068956 g / cm^3
# Si number density = 20.736759 Si / 1000 Ang^3
#
#
#
# Elastic Constant Matrix: (Units=GPa)
#
#
# Indices 1 2 3 4 5 6 
#
# 1 78.5895 14.1891 -2.0290 0.0000 5.3733 0.0000
# 2 14.1891 109.8433 -10.2929 0.0000 -1.2742 0.0000
# 3 -2.0290 -10.2929 79.2287 0.0000 -5.6488 0.0000
# 4 0.0000 0.0000 0.0000 3.4588 0.0000 2.2027
# 5 5.3733 -1.2742 -5.6488 0.0000 38.7875 0.0000
# 6 0.0000 0.0000 0.0000 2.2027 0.0000 -6.5504
#
#
#
# Elastic Compliance Matrix: (Units=1/GPa)
#
#
# Indices 1 2 3 4 5 6 
#
# 1 0.013164 -0.001724 -0.000021 0.000000 -0.001883 0.000000
# 2 -0.001724 0.009451 0.001236 0.000000 0.000729 0.000000
# 3 -0.000021 0.001236 0.012919 0.000000 0.001925 0.000000
# 4 0.000000 0.000000 0.000000 0.238120 0.000000 0.080074
# 5 -0.001883 0.000729 0.001925 0.000000 0.026347 0.000000
# 6 0.000000 0.000000 0.000000 0.080074 0.000000 -0.125735
#
#
# Mechanical properties :
#
#
# Convention : Reuss Voigt Hill
#
# Bulk Modulus (GPa) = 28.97373 30.15510 29.56441
# Shear Modulus (GPa) = 26.76813 24.85880 25.81346
#
# Velocity S-wave (km/s) = 3.59674 3.46610 3.53202
# Velocity P-wave (km/s) = 5.59028 5.53099 5.56071
#
# Compressibility (1/GPa) = 0.03451403
#
# Stress axis : x y z
#
# Youngs Moduli (GPa) = 75.96540 105.81047 77.40584
#
# Poissons Ratio (x) = 0.18245 0.00164
# Poissons Ratio (y) = 0.13099 -0.09565
# Poissons Ratio (z) = 0.00161 -0.13074
#
# Static dielectric constant tensor:
#      x y z
#    x 1.753340 0.000000 -0.002010 
#    y 0.000000 1.744410 0.000000 
#    z -0.002010 0.000000 1.708200 
# 
# From -- ./inp_files/251488.got.cif
#   From: 2010.05.17/outbox.cif.g08.bks.cpg/sg12_126_cif.got.tgz:251488.got - 2010.06.03 13:09:07.
