data_PCOD9213719
_publ_section_title
;
Structure prediction by ZEFSAII (Michael W. Deem and Ramdas Pophale) SiO2 
 PCOD9213719
Probable space group: C 2/M
;
_chemical_formula_sum "Si O2"
_cell_formula_units_Z 48
_cell_length_a 9.309453
_cell_length_b 22.381674
_cell_length_c 9.509881
_cell_angle_alpha 90.000000
_cell_angle_beta 96.839770
_cell_angle_gamma 90.000000
_cell_volume 1967.387569
_symmetry_space_group_name_H-M "C 2/M"
_symmetry_group_IT_number 12
_symmetry_cell_setting 'monoclinic'
loop_
_space_group_symop_operation_xyz
x,y,z
-x,y,-z
-x,-y,-z
x,-y,z
1/2+x,1/2+y,z
1/2-x,1/2+y,-z
1/2-x,1/2-y,-z
1/2+x,1/2-y,z
loop_
_atom_site_type_symbol
_atom_site_label
_atom_site_fract_x
_atom_site_fract_y
_atom_site_fract_z
Si Si1 0.087473 0.567221 0.363873
Si Si2 0.830906 0.313398 0.749765
Si Si3 0.564197 0.249120 0.651625
Si Si4 0.035192 0.886750 0.348945
Si Si5 0.714438 0.932307 0.789060
Si Si6 0.137098 0.876515 0.932680
O O1 0.151908 0.500000 0.362564
O O2 0.957824 0.572717 0.235007
O O3 0.000000 0.570226 0.500000
O O4 0.181004 0.625997 0.345044
O O5 0.734479 0.259626 0.674858
O O6 0.752588 0.329977 0.885103
O O7 0.994708 0.290779 0.765280
O O8 0.500000 0.223027 0.500000
O O9 0.505001 0.316716 0.655392
O O10 0.200061 0.894330 0.318070
O O11 0.000000 0.910841 0.500000
O O12 0.936900 0.910660 0.207969
O O13 0.749026 0.000000 0.753607
O O14 0.779914 0.917356 0.947487
O O15 0.000000 0.848844 0.000000
#
# Coordination Sequence:
#
# PCOD9213719 Si02
#       6
#     8   8   8   8   8   8
#     4  10  24  42  67 101 136 177 232 289 342 404
#     4  11  23  41  70  99 134 186 223 287 335 414
#     4  10  22  38  66 107 139 178 225 280 351 410
#     4   9  20  37  65  98 138 172 225 281 339 411
#     4  10  22  41  66  93 134 185 228 283 343 408
#     4   9  21  42  62  93 134 178 228 272 336 413
#
# _framework density 24.397835000000001
#
# number of rings (size 3 to 8) (size 9 to 14) (size 15 to 20)
#    0.000    2.167    0.000    1.000    9.333    4.667 
#    0.000   13.333    7.333    0.500    0.000    0.000 
#    0.000    0.000    0.000    0.000    0.000    0.000 
#
# Total GULP energy -134052.025541 kJ/mol
# GULP energy per Si atom -5585.501064 kJ/mol
# Density = 2.434230 g / cm^3
# Si number density = 24.397835 Si / 1000 Ang^3
#
#
#
# Elastic Constant Matrix: (Units=GPa)
#
#
# Indices 1 2 3 4 5 6 
#
# 1 75.1242 28.8222 26.5228 0.0000 -12.2875 0.0000
# 2 28.8222 77.6128 11.1738 0.0000 -9.4383 0.0000
# 3 26.5228 11.1738 106.3122 0.0000 -2.0958 0.0000
# 4 0.0000 0.0000 0.0000 11.6716 0.0000 -4.7541
# 5 -12.2875 -9.4383 -2.0958 0.0000 32.6052 0.0000
# 6 0.0000 0.0000 0.0000 -4.7541 0.0000 37.3379
#
#
#
# Elastic Compliance Matrix: (Units=1/GPa)
#
#
# Indices 1 2 3 4 5 6 
#
# 1 0.017460 -0.005369 -0.003697 0.000000 0.004788 0.000000
# 2 -0.005369 0.015196 -0.000211 0.000000 0.002362 0.000000
# 3 -0.003697 -0.000211 0.010335 0.000000 -0.000790 0.000000
# 4 0.000000 0.000000 0.000000 0.090365 0.000000 0.011506
# 5 0.004788 0.002362 -0.000790 0.000000 0.033107 0.000000
# 6 0.000000 0.000000 0.000000 0.011506 0.000000 0.028247
#
#
# Mechanical properties :
#
#
# Convention : Reuss Voigt Hill
#
# Bulk Modulus (GPa) = 40.92330 43.56519 42.24424
# Shear Modulus (GPa) = 22.58247 29.15829 25.87038
#
# Velocity S-wave (km/s) = 3.04566 3.46080 3.25984
# Velocity P-wave (km/s) = 5.40165 5.81932 5.61437
#
# Compressibility (1/GPa) = 0.02443596
#
# Stress axis : x y z
#
# Youngs Moduli (GPa) = 57.27485 65.80679 96.75645
#
# Poissons Ratio (x) = 0.35334 0.35772
# Poissons Ratio (y) = 0.30752 0.02042
# Poissons Ratio (z) = 0.21175 0.01389
#
# Static dielectric constant tensor:
#      x y z
#    x 1.999890 0.000000 0.031570 
#    y 0.000000 1.923750 0.000000 
#    z 0.031570 0.000000 2.020220 
# 
# From -- ./inp_files/121927.got.cif
#   From: 2010.05.17/outbox.cif.g08.bks.cpg/sg12_61_cif.got.tgz:121927.got - 2010.06.03 13:09:07.
