data_PCOD9213571
_publ_section_title
;
Structure prediction by ZEFSAII (Michael W. Deem and Ramdas Pophale) SiO2 
 PCOD9213571
Probable space group: C 2/M
;
_chemical_formula_sum "Si O2"
_cell_formula_units_Z 32
_cell_length_a 10.784061
_cell_length_b 26.982179
_cell_length_c 14.479193
_cell_angle_alpha 90.000000
_cell_angle_beta 160.520821
_cell_angle_gamma 90.000000
_cell_volume 1404.924674
_symmetry_space_group_name_H-M "C 2/M"
_symmetry_group_IT_number 12
_symmetry_cell_setting 'monoclinic'
loop_
_space_group_symop_operation_xyz
x,y,z
-x,y,-z
-x,-y,-z
x,-y,z
1/2+x,1/2+y,z
1/2-x,1/2+y,-z
1/2-x,1/2-y,-z
1/2+x,1/2-y,z
loop_
_atom_site_type_symbol
_atom_site_label
_atom_site_fract_x
_atom_site_fract_y
_atom_site_fract_z
Si Si1 0.077103 0.941013 0.162576
Si Si2 0.324799 0.873587 0.971541
Si Si3 0.403695 0.191867 0.534470
Si Si4 0.548116 0.210512 0.244753
O O1 0.500000 0.933998 0.500000
O O2 0.805413 0.912986 0.043443
O O3 0.006819 0.000000 0.116631
O O4 0.000000 0.926247 0.000000
O O5 0.966096 0.838954 0.699614
O O6 0.500000 0.893655 0.000000
O O7 0.599915 0.833533 0.210525
O O8 0.500000 0.174155 0.500000
O O9 0.628412 0.186835 0.786565
O O10 0.375423 0.251930 0.502646
O O11 0.250000 0.250000 0.000000
#
# Coordination Sequence:
#
# PCOD9213571 Si02
#       4
#     8   8   8   8
#     4  10  24  49  77 102 131 172 223 276 338 417
#     4  11  25  38  62  98 135 169 217 281 340 398
#     4  10  22  38  61  84 126 184 227 274 317 396
#     4   9  22  37  56  87 128 170 227 268 331 377
#
# _framework density 22.777023
#
# number of rings (size 3 to 8) (size 9 to 14) (size 15 to 20)
#    0.000    2.000    0.000    0.750   17.500    2.500 
#    0.000    0.000    0.000    4.500    0.000    0.000 
#    0.000    0.000    0.000    0.000    0.000    0.000 
#
# Total GULP energy -89149.931827 kJ/mol
# GULP energy per Si atom -5571.870739 kJ/mol
# Density = 2.272518 g / cm^3
# Si number density = 22.777023 Si / 1000 Ang^3
#
#
#
# Elastic Constant Matrix: (Units=GPa)
#
#
# Indices 1 2 3 4 5 6 
#
# 1 226.0467 65.6606 54.8995 -0.0059 -25.9479 0.0026
# 2 65.6606 131.8251 17.6832 -0.0075 -4.2731 0.0034
# 3 54.8995 17.6832 70.9869 -0.0465 -21.2622 0.0114
# 4 -0.0059 -0.0075 -0.0465 5.7218 -0.0105 4.9627
# 5 -25.9479 -4.2731 -21.2622 -0.0105 40.4002 0.0030
# 6 0.0026 0.0034 0.0114 4.9627 0.0030 37.5533
#
#
#
# Elastic Compliance Matrix: (Units=1/GPa)
#
#
# Indices 1 2 3 4 5 6 
#
# 1 0.006270 -0.002573 -0.003661 -0.000027 0.001828 0.000004
# 2 -0.002573 0.008906 -0.000524 0.000004 -0.000986 -0.000001
# 3 -0.003661 -0.000524 0.019384 0.000195 0.007795 -0.000032
# 4 -0.000027 0.000004 0.000195 0.197396 0.000139 -0.026086
# 5 0.001828 -0.000986 0.007795 0.000139 0.029925 -0.000023
# 6 0.000004 -0.000001 -0.000032 -0.026086 -0.000023 0.030076
#
#
# Mechanical properties :
#
#
# Convention : Reuss Voigt Hill
#
# Bulk Modulus (GPa) = 47.51889 78.37169 62.94529
# Shear Modulus (GPa) = 16.00069 36.10943 26.05506
#
# Velocity S-wave (km/s) = 2.65333 3.98596 3.38586
# Velocity P-wave (km/s) = 5.50407 7.46101 6.55597
#
# Compressibility (1/GPa) = 0.02104426
#
# Stress axis : x y z
#
# Youngs Moduli (GPa) = 159.48647 112.28871 51.59004
#
# Poissons Ratio (x) = 0.28889 0.18885
# Poissons Ratio (y) = 0.41032 0.02704
# Poissons Ratio (z) = 0.58382 0.05885
#
# Static dielectric constant tensor:
#      x y z
#    x 2.119170 0.000000 -0.004570 
#    y 0.000000 1.838080 0.000030 
#    z -0.004570 0.000030 2.235350 
# 
# From -- ./inp_files/3822.got.cif
#   From: 2010.05.17/outbox.cif.g08.bks.cpg/sg12_2_cif.got.tgz:3822.got - 2010.06.03 13:09:07.
