data_PCOD9213653
_publ_section_title
;
Structure prediction by ZEFSAII (Michael W. Deem and Ramdas Pophale) SiO2 
 PCOD9213653
Probable space group: C 2/M
;
_chemical_formula_sum "Si O2"
_cell_formula_units_Z 48
_cell_length_a 11.910197
_cell_length_b 25.618581
_cell_length_c 7.722071
_cell_angle_alpha 90.000000
_cell_angle_beta 75.972454
_cell_angle_gamma 90.000000
_cell_volume 2285.913607
_symmetry_space_group_name_H-M "C 2/M"
_symmetry_group_IT_number 12
_symmetry_cell_setting 'monoclinic'
loop_
_space_group_symop_operation_xyz
x,y,z
-x,y,-z
-x,-y,-z
x,-y,z
1/2+x,1/2+y,z
1/2-x,1/2+y,-z
1/2-x,1/2-y,-z
1/2+x,1/2-y,z
loop_
_atom_site_type_symbol
_atom_site_label
_atom_site_fract_x
_atom_site_fract_y
_atom_site_fract_z
Si Si1 0.763749 0.112948 0.921869
Si Si2 0.016838 0.826503 0.190059
Si Si3 0.589532 0.883085 0.678907
Si Si4 0.207381 0.500000 0.970894
Si Si5 0.487954 0.000000 0.255805
Si Si6 0.760323 0.844837 0.316084
Si Si7 0.064261 0.720091 0.306448
O O1 0.650550 0.120267 0.844452
O O2 0.869105 0.143375 0.792684
O O3 0.782238 0.051215 0.921646
O O4 0.751349 0.129876 0.127083
O O5 0.893303 0.838428 0.320812
O O6 0.045786 0.765147 0.176207
O O7 0.000000 0.844868 0.000000
O O8 0.538988 0.941202 0.666362
O O9 0.684385 0.872057 0.493567
O O10 0.496216 0.835937 0.707053
O O11 0.104689 0.500000 0.867412
O O12 0.125815 0.500000 0.170513
O O13 0.697271 0.789532 0.304778
O O14 0.000000 0.741125 0.500000
#
# Coordination Sequence:
#
# PCOD9213653 Si02
#       7
#     8   8   8   4   4   8   8
#     4  10  22  39  62  86 118 159 196 241 294 350
#     4  10  24  39  58  86 119 159 202 238 291 354
#     4  10  22  38  63  90 119 151 198 243 300 348
#     4   9  18  37  63  88 121 153 193 247 291 343
#     4   9  18  37  62  94 116 152 195 243 297 350
#     4  10  23  40  55  88 123 149 199 247 287 355
#     4  10  23  37  59  88 117 155 198 245 297 349
#
# _framework density 20.998169999999998
#
# number of rings (size 3 to 8) (size 9 to 14) (size 15 to 20)
#    0.000    2.167    0.000    1.000    7.000    4.667 
#    0.000    9.167    0.000    3.000    0.000    0.000 
#    0.000    0.000    0.000    0.000    0.000    0.000 
#
# Total GULP energy -133734.940094 kJ/mol
# GULP energy per Si atom -5572.289171 kJ/mol
# Density = 2.095038 g / cm^3
# Si number density = 20.998170 Si / 1000 Ang^3
#
#
#
# Elastic Constant Matrix: (Units=GPa)
#
#
# Indices 1 2 3 4 5 6 
#
# 1 66.1639 62.8201 13.6334 0.0000 -15.3327 0.0000
# 2 62.8201 117.7562 32.8603 0.0000 -25.0552 0.0000
# 3 13.6334 32.8603 44.9130 0.0000 -3.0246 0.0000
# 4 0.0000 0.0000 0.0000 5.3823 0.0000 -1.4630
# 5 -15.3327 -25.0552 -3.0246 0.0000 37.5940 0.0000
# 6 0.0000 0.0000 0.0000 -1.4630 0.0000 26.4980
#
#
#
# Elastic Compliance Matrix: (Units=1/GPa)
#
#
# Indices 1 2 3 4 5 6 
#
# 1 0.031102 -0.017173 0.003224 0.000000 0.001499 0.000000
# 2 -0.017173 0.022020 -0.010438 0.000000 0.006832 0.000000
# 3 0.003224 -0.010438 0.028699 0.000000 -0.003332 0.000000
# 4 0.000000 0.000000 0.000000 0.188625 0.000000 0.010415
# 5 0.001499 0.006832 -0.003332 0.000000 0.031496 0.000000
# 6 0.000000 0.000000 0.000000 0.010415 0.000000 0.038314
#
#
# Mechanical properties :
#
#
# Convention : Reuss Voigt Hill
#
# Bulk Modulus (GPa) = 30.25898 49.71787 39.98843
# Shear Modulus (GPa) = 12.49862 21.86281 17.18072
#
# Velocity S-wave (km/s) = 2.44237 3.23023 2.86352
# Velocity P-wave (km/s) = 4.73235 6.13524 5.47888
#
# Compressibility (1/GPa) = 0.03304804
#
# Stress axis : x y z
#
# Youngs Moduli (GPa) = 32.15210 45.41363 34.84475
#
# Poissons Ratio (x) = 0.77989 -0.11235
# Poissons Ratio (y) = 0.55215 0.36370
# Poissons Ratio (z) = -0.10367 0.47401
#
# Static dielectric constant tensor:
#      x y z
#    x 1.783870 0.000000 -0.010790 
#    y 0.000000 1.764860 0.000000 
#    z -0.010790 0.000000 1.834350 
# 
# From -- ./inp_files/51394.got.cif
#   From: 2010.05.17/outbox.cif.g08.bks.cpg/sg12_26_cif.got.tgz:51394.got - 2010.06.03 13:09:07.
