data_PCOD9213327
_publ_section_title
;
Structure prediction by ZEFSAII (Michael W. Deem and Ramdas Pophale) SiO2 
 PCOD9213327
Probable space group: C 2/M
;
_chemical_formula_sum "Si O2"
_cell_formula_units_Z 48
_cell_length_a 19.942370
_cell_length_b 16.712279
_cell_length_c 14.974823
_cell_angle_alpha 90.000000
_cell_angle_beta 155.164658
_cell_angle_gamma 90.000000
_cell_volume 2096.214847
_symmetry_space_group_name_H-M "C 2/M"
_symmetry_group_IT_number 12
_symmetry_cell_setting 'monoclinic'
loop_
_space_group_symop_operation_xyz
x,y,z
-x,y,-z
-x,-y,-z
x,-y,z
1/2+x,1/2+y,z
1/2-x,1/2+y,-z
1/2-x,1/2-y,-z
1/2+x,1/2-y,z
loop_
_atom_site_type_symbol
_atom_site_label
_atom_site_fract_x
_atom_site_fract_y
_atom_site_fract_z
Si Si1 0.837260 0.088889 0.516266
Si Si2 0.484591 0.086978 0.373799
Si Si3 0.506071 0.256134 0.352334
Si Si4 0.636024 0.587410 0.008133
Si Si5 0.021631 0.586154 0.920018
Si Si6 0.812076 0.745702 0.932506
O O1 0.657297 0.097258 0.333690
O O2 0.877946 0.167867 0.507792
O O3 0.971016 0.086777 0.754853
O O4 0.844981 0.000000 0.481075
O O5 0.500000 0.088140 0.500000
O O6 0.567673 0.165141 0.434867
O O7 0.539076 0.000000 0.407032
O O8 0.290791 0.091611 0.128043
O O9 0.409140 0.258437 0.142176
O O10 0.373692 0.261524 0.269553
O O11 0.651192 0.500000 0.072350
O O12 0.651683 0.672199 0.077445
O O13 0.085379 0.500000 0.965171
O O14 0.127221 0.662368 0.029689
O O15 0.000000 0.581944 0.000000
#
# Coordination Sequence:
#
# PCOD9213327 Si02
#       6
#     8   8   8   8   8   8
#     4   9  18  33  52  73 101 138 173 210 260 310
#     4   9  17  29  46  72 107 138 161 199 259 316
#     4   9  18  31  53  83 105 128 172 222 266 312
#     4   8  15  29  49  72  99 131 165 201 249 311
#     4  10  22  38  53  73 105 144 182 218 260 311
#     4   9  18  33  54  79 104 134 173 218 265 310
#
# _framework density 22.898416000000001
#
# number of rings (size 3 to 8) (size 9 to 14) (size 15 to 20)
#    0.000    3.000    0.000    1.000    0.000    6.667 
#    0.000    1.667    0.000    5.000    0.000    0.000 
#    0.000    0.000    0.000    0.000    0.000    0.000 
#
# Total GULP energy -133772.773698 kJ/mol
# GULP energy per Si atom -5573.865571 kJ/mol
# Density = 2.284630 g / cm^3
# Si number density = 22.898416 Si / 1000 Ang^3
#
#
#
# Elastic Constant Matrix: (Units=GPa)
#
#
# Indices 1 2 3 4 5 6 
#
# 1 20.4644 27.4677 13.4233 0.0000 -4.8920 0.0000
# 2 27.4677 288.0008 21.7348 0.0000 26.5212 0.0000
# 3 13.4233 21.7348 59.8101 0.0001 -17.4138 0.0000
# 4 0.0000 0.0000 0.0001 16.3409 0.0000 7.9008
# 5 -4.8920 26.5212 -17.4138 0.0000 17.1786 0.0000
# 6 0.0000 0.0000 0.0000 7.9008 0.0000 26.2794
#
#
#
# Elastic Compliance Matrix: (Units=1/GPa)
#
#
# Indices 1 2 3 4 5 6 
#
# 1 0.071269 -0.009426 -0.003439 0.000000 0.031361 0.000000
# 2 -0.009426 0.006483 -0.005584 0.000000 -0.018353 0.000000
# 3 -0.003439 -0.005584 0.030850 0.000000 0.038914 0.000000
# 4 0.000000 0.000000 0.000000 0.071605 0.000000 -0.021528
# 5 0.031361 -0.018353 0.038914 0.000000 0.134923 0.000000
# 6 0.000000 0.000000 0.000000 -0.021528 0.000000 0.044525
#
#
# Mechanical properties :
#
#
# Convention : Reuss Voigt Hill
#
# Bulk Modulus (GPa) = 13.94589 54.83631 34.39110
# Shear Modulus (GPa) = 11.89192 32.33641 22.11417
#
# Velocity S-wave (km/s) = 2.28136 3.76196 3.11102
# Velocity P-wave (km/s) = 3.61151 6.54747 5.28736
#
# Compressibility (1/GPa) = 0.07170571
#
# Stress axis : x y z
#
# Youngs Moduli (GPa) = 14.03130 154.25903 32.41456
#
# Poissons Ratio (x) = 1.45400 0.11147
# Poissons Ratio (y) = 0.13225 0.18099
# Poissons Ratio (z) = 0.04825 0.86134
#
# Static dielectric constant tensor:
#      x y z
#    x 1.856000 0.000000 -0.046830 
#    y 0.000000 1.963040 0.000000 
#    z -0.046830 0.000000 1.873300 
# 
# From -- ./inp_files/285427.got.cif
#   From: 2010.05.17/outbox.cif.g08.bks.cpg/sg12_143_cif.got.tgz:285427.got - 2010.06.03 13:09:07.
