data_PCOD9213605
_publ_section_title
;
Structure prediction by ZEFSAII (Michael W. Deem and Ramdas Pophale) SiO2 
 PCOD9213605
Probable space group: C 2/M
;
_chemical_formula_sum "Si O2"
_cell_formula_units_Z 48
_cell_length_a 12.198915
_cell_length_b 21.686228
_cell_length_c 9.039448
_cell_angle_alpha 90.000000
_cell_angle_beta 114.745806
_cell_angle_gamma 90.000000
_cell_volume 2171.781415
_symmetry_space_group_name_H-M "C 2/M"
_symmetry_group_IT_number 12
_symmetry_cell_setting 'monoclinic'
loop_
_space_group_symop_operation_xyz
x,y,z
-x,y,-z
-x,-y,-z
x,-y,z
1/2+x,1/2+y,z
1/2-x,1/2+y,-z
1/2-x,1/2-y,-z
1/2+x,1/2-y,z
loop_
_atom_site_type_symbol
_atom_site_label
_atom_site_fract_x
_atom_site_fract_y
_atom_site_fract_z
Si Si1 0.364089 0.607912 0.369559
Si Si2 0.971517 0.500000 0.216512
Si Si3 0.419570 0.229687 0.684132
Si Si4 0.721962 0.804354 0.103084
Si Si5 0.621205 0.129936 0.782569
Si Si6 0.777705 0.843432 0.603701
Si Si7 0.713494 0.000000 0.157011
O O1 0.500000 0.599118 0.500000
O O2 0.334613 0.671232 0.264135
O O3 0.289195 0.607636 0.480519
O O4 0.304197 0.556299 0.235560
O O5 0.952685 0.566684 0.283361
O O6 0.101119 0.500000 0.209608
O O7 0.858997 0.500000 0.037415
O O8 0.373837 0.213812 0.824573
O O9 0.538874 0.191110 0.717789
O O10 0.326902 0.202180 0.511921
O O11 0.400315 0.303146 0.670941
O O12 0.750000 0.750000 0.000000
O O13 0.667368 0.859837 0.975289
O O14 0.734302 0.132199 0.735813
#
# Coordination Sequence:
#
# PCOD9213605 Si02
#       7
#     8   4   8   8   8   8   4
#     4  11  25  45  70  96 136 187 235 287 349 419
#     4  11  24  41  74 102 143 178 231 303 342 411
#     4  10  22  38  61  95 137 181 217 281 346 410
#     4  11  22  40  64  99 134 174 234 280 342 420
#     4  12  23  42  67 102 141 181 227 293 352 409
#     4  10  23  40  62 100 139 174 233 278 348 419
#     4  11  23  45  68 102 132 183 244 283 344 423
#
# _framework density 22.101671
#
# number of rings (size 3 to 8) (size 9 to 14) (size 15 to 20)
#    0.000    1.167    3.333    3.250    4.667    0.667 
#    0.000    3.333    0.000    1.000    0.000    0.000 
#    0.000    0.000    0.000    0.000    0.000    0.000 
#
# Total GULP energy -133867.846488 kJ/mol
# GULP energy per Si atom -5577.826937 kJ/mol
# Density = 2.205137 g / cm^3
# Si number density = 22.101671 Si / 1000 Ang^3
#
#
#
# Elastic Constant Matrix: (Units=GPa)
#
#
# Indices 1 2 3 4 5 6 
#
# 1 64.4108 10.5989 15.3396 0.0000 11.3144 0.0000
# 2 10.5989 72.2388 5.7737 0.0000 5.1659 0.0000
# 3 15.3396 5.7737 79.2450 0.0000 5.8289 0.0000
# 4 0.0000 0.0000 0.0000 12.4386 0.0000 7.1486
# 5 11.3144 5.1659 5.8289 0.0000 50.7794 0.0000
# 6 0.0000 0.0000 0.0000 7.1486 0.0000 26.7756
#
#
#
# Elastic Compliance Matrix: (Units=1/GPa)
#
#
# Indices 1 2 3 4 5 6 
#
# 1 0.017134 -0.002046 -0.002927 0.000000 -0.003274 0.000000
# 2 -0.002046 0.014255 -0.000574 0.000000 -0.000928 0.000000
# 3 -0.002927 -0.000574 0.013287 0.000000 -0.000815 0.000000
# 4 0.000000 0.000000 0.000000 0.094966 0.000000 -0.025354
# 5 -0.003274 -0.000928 -0.000815 0.000000 0.020610 0.000000
# 6 0.000000 0.000000 0.000000 -0.025354 0.000000 0.044117
#
#
# Mechanical properties :
#
#
# Convention : Reuss Voigt Hill
#
# Bulk Modulus (GPa) = 29.77708 31.03545 30.40627
# Shear Modulus (GPa) = 22.05962 30.27754 26.16858
#
# Velocity S-wave (km/s) = 3.16270 3.70526 3.44468
# Velocity P-wave (km/s) = 5.18063 5.69016 5.44136
#
# Compressibility (1/GPa) = 0.03358288
#
# Stress axis : x y z
#
# Youngs Moduli (GPa) = 58.36320 70.14856 75.25917
#
# Poissons Ratio (x) = 0.14352 0.22027
# Poissons Ratio (y) = 0.11941 0.04322
# Poissons Ratio (z) = 0.17082 0.04029
#
# Static dielectric constant tensor:
#      x y z
#    x 1.817320 0.000000 0.037580 
#    y 0.000000 1.913960 0.000000 
#    z 0.037580 0.000000 1.827670 
# 
# From -- ./inp_files/51506.got.cif
#   From: 2010.05.17/outbox.cif.g08.bks.cpg/sg12_26_cif.got.tgz:51506.got - 2010.06.03 13:09:07.
