data_PCOD9213843
_publ_section_title
;
Structure prediction by ZEFSAII (Michael W. Deem and Ramdas Pophale) SiO2 
 PCOD9213843
Probable space group: C 2/M
;
_chemical_formula_sum "Si O2"
_cell_formula_units_Z 56
_cell_length_a 27.372975
_cell_length_b 8.754138
_cell_length_c 12.136040
_cell_angle_alpha 90.000000
_cell_angle_beta 76.461077
_cell_angle_gamma 90.000000
_cell_volume 2827.306994
_symmetry_space_group_name_H-M "C 2/M"
_symmetry_group_IT_number 12
_symmetry_cell_setting 'monoclinic'
loop_
_space_group_symop_operation_xyz
x,y,z
-x,y,-z
-x,-y,-z
x,-y,z
1/2+x,1/2+y,z
1/2-x,1/2+y,-z
1/2-x,1/2-y,-z
1/2+x,1/2-y,z
loop_
_atom_site_type_symbol
_atom_site_label
_atom_site_fract_x
_atom_site_fract_y
_atom_site_fract_z
Si Si1 0.896319 0.816262 0.296896
Si Si2 0.413422 0.182920 0.812324
Si Si3 0.115590 0.183014 0.942813
Si Si4 0.005066 0.815179 0.624425
Si Si5 0.726806 0.817957 0.900266
Si Si6 0.805676 0.681294 0.475737
Si Si7 0.184493 0.682637 0.278411
O O1 0.906833 0.774701 0.164426
O O2 0.941838 0.766701 0.351364
O O3 0.843880 0.749395 0.366992
O O4 0.892637 0.000000 0.303888
O O5 0.459912 0.248940 0.720164
O O6 0.361767 0.226345 0.775990
O O7 0.415566 0.000000 0.813101
O O8 0.411301 0.246226 0.937120
O O9 0.172624 0.243609 0.912149
O O10 0.115504 0.000000 0.953138
O O11 0.000000 0.767743 0.500000
O O12 0.002769 0.000000 0.629861
O O13 0.765637 0.770729 0.784624
O O14 0.722105 0.000000 0.911192
O O15 0.750000 0.750000 0.000000
O O16 0.802452 0.500000 0.462738
O O17 0.750000 0.750000 0.500000
O O18 0.826668 0.712872 0.587769
O O19 0.193184 0.500000 0.261308
#
# Coordination Sequence:
#
# PCOD9213843 Si02
#       7
#     8   8   8   8   8   8   8
#     4  10  23  42  63  89 123 162 202 252 308 362
#     4  11  23  39  62  90 120 156 202 254 304 361
#     4  11  23  40  61  87 123 163 204 250 304 364
#     4  10  22  42  67  92 120 157 202 252 306 364
#     4  12  23  36  58  88 122 161 203 247 300 359
#     4  11  23  39  61  89 122 160 201 249 302 361
#     4  10  22  39  58  85 122 160 201 251 304 358
#
# _framework density 19.806833000000001
#
# number of rings (size 3 to 8) (size 9 to 14) (size 15 to 20)
#    0.000    1.286    1.429    4.286    0.000    7.714 
#    0.000    2.857    0.000    0.000    0.000    0.000 
#    0.000    0.000    0.000    0.000    0.000    0.000 
#
# Total GULP energy -156621.596817 kJ/mol
# GULP energy per Si atom -5593.628458 kJ/mol
# Density = 1.976175 g / cm^3
# Si number density = 19.806833 Si / 1000 Ang^3
#
#
#
# Elastic Constant Matrix: (Units=GPa)
#
#
# Indices 1 2 3 4 5 6 
#
# 1 108.4074 26.8993 70.2732 0.0000 0.8754 0.0000
# 2 26.8993 27.2297 42.1503 0.0000 3.7397 0.0000
# 3 70.2732 42.1503 166.1463 0.0000 -0.5347 0.0000
# 4 0.0000 0.0000 0.0000 32.3684 0.0000 -7.7388
# 5 0.8754 3.7397 -0.5347 0.0000 40.8801 0.0000
# 6 0.0000 0.0000 0.0000 -7.7388 0.0000 28.1736
#
#
#
# Elastic Compliance Matrix: (Units=1/GPa)
#
#
# Indices 1 2 3 4 5 6 
#
# 1 0.013572 -0.007527 -0.003830 0.000000 0.000348 0.000000
# 2 -0.007527 0.066020 -0.013585 0.000000 -0.006056 0.000000
# 3 -0.003830 -0.013585 0.011090 0.000000 0.001470 0.000000
# 4 0.000000 0.000000 0.000000 0.033066 0.000000 0.009083
# 5 0.000348 -0.006056 0.001470 0.000000 0.025028 0.000000
# 6 0.000000 0.000000 0.000000 0.009083 0.000000 0.037989
#
#
# Mechanical properties :
#
#
# Convention : Reuss Voigt Hill
#
# Bulk Modulus (GPa) = 24.51022 64.49212 44.50117
# Shear Modulus (GPa) = 19.98026 31.11513 25.54769
#
# Velocity S-wave (km/s) = 3.17954 3.96779 3.59533
# Velocity P-wave (km/s) = 5.08731 7.32273 6.30489
#
# Compressibility (1/GPa) = 0.04079930
#
# Stress axis : x y z
#
# Youngs Moduli (GPa) = 73.68212 15.14682 90.17301
#
# Poissons Ratio (x) = 0.11400 0.34534
# Poissons Ratio (y) = 0.55458 1.22500
# Poissons Ratio (z) = 0.28219 0.20577
#
# Static dielectric constant tensor:
#      x y z
#    x 1.692640 0.000000 0.048990 
#    y 0.000000 1.663360 0.000000 
#    z 0.048990 0.000000 1.715300 
# 
# From -- ./inp_files/180736.got.cif
#   From: 2010.05.17/outbox.cif.g08.bks.cpg/sg12_91_cif.got.tgz:180736.got - 2010.06.03 13:09:07.
