data_PCOD9213796
_publ_section_title
;
Structure prediction by ZEFSAII (Michael W. Deem and Ramdas Pophale) SiO2 
 PCOD9213796
Probable space group: C 2/M
;
_chemical_formula_sum "Si O2"
_cell_formula_units_Z 64
_cell_length_a 15.995894
_cell_length_b 9.364717
_cell_length_c 26.290039
_cell_angle_alpha 90.000000
_cell_angle_beta 134.445767
_cell_angle_gamma 90.000000
_cell_volume 2811.512659
_symmetry_space_group_name_H-M "C 2/M"
_symmetry_group_IT_number 12
_symmetry_cell_setting 'monoclinic'
loop_
_space_group_symop_operation_xyz
x,y,z
-x,y,-z
-x,-y,-z
x,-y,z
1/2+x,1/2+y,z
1/2-x,1/2+y,-z
1/2-x,1/2-y,-z
1/2+x,1/2-y,z
loop_
_atom_site_type_symbol
_atom_site_label
_atom_site_fract_x
_atom_site_fract_y
_atom_site_fract_z
Si Si1 0.316012 0.838575 0.339562
Si Si2 0.775783 0.330829 0.958688
Si Si3 0.488151 0.834116 0.696564
Si Si4 0.039986 0.662600 0.090317
Si Si5 0.037712 0.836368 0.456165
Si Si6 0.237518 0.835982 0.425427
Si Si7 0.769285 0.329212 0.160435
Si Si8 0.899431 0.341040 0.774086
O O1 0.434945 0.750621 0.385296
O O2 0.279254 0.837846 0.383796
O O3 0.204489 0.770645 0.265452
O O4 0.335579 0.000000 0.331956
O O5 0.749437 0.500000 0.950793
O O6 0.712630 0.255435 0.884642
O O7 0.750000 0.250000 0.000000
O O8 0.916341 0.315490 0.010640
O O9 0.391458 0.733367 0.629685
O O10 0.625473 0.795966 0.755299
O O11 0.459034 0.826978 0.744850
O O12 0.470559 0.000000 0.673695
O O13 0.081459 0.500000 0.096650
O O14 0.142546 0.773956 0.123847
O O15 0.018050 0.668319 0.141922
O O16 0.163297 0.760629 0.506168
O O17 0.000000 0.836144 0.500000
O O18 0.041833 0.000000 0.441617
O O19 0.239657 0.000000 0.443789
O O20 0.771000 0.500000 0.153225
O O21 0.845285 0.500000 0.751695
#
# Coordination Sequence:
#
# PCOD9213796 Si02
#       8
#     8   8   8   8   8   8   8   8
#     4   9  16  25  39  64  97 128 164 213 263 308
#     4  11  23  40  62  86 112 142 177 218 265 316
#     4   9  18  33  51  72 101 137 176 217 262 314
#     4  10  22  39  57  79 109 144 179 218 265 316
#     4   9  15  23  37  59  91 132 171 206 254 313
#     4   9  16  25  40  65  96 129 167 214 264 309
#     4  11  23  38  57  82 111 143 180 221 264 313
#     4   9  17  32  52  71  97 135 176 215 260 315
#
# _framework density 22.763546999999999
#
# number of rings (size 3 to 8) (size 9 to 14) (size 15 to 20)
#    0.000    2.375    0.000    3.000    0.000   10.500 
#    0.000    2.500    0.000    0.000    0.000    0.875 
#    0.000    0.000    0.000    0.000    0.000    0.000 
#
# Total GULP energy -178991.430841 kJ/mol
# GULP energy per Si atom -5593.482214 kJ/mol
# Density = 2.271174 g / cm^3
# Si number density = 22.763547 Si / 1000 Ang^3
#
#
#
# Elastic Constant Matrix: (Units=GPa)
#
#
# Indices 1 2 3 4 5 6 
#
# 1 86.9464 32.1857 7.6027 0.0000 8.8805 0.0000
# 2 32.1857 158.8835 77.4939 0.0000 30.2697 0.0000
# 3 7.6027 77.4939 120.5132 0.0000 20.3716 0.0000
# 4 0.0000 0.0000 0.0000 35.0954 0.0000 7.0191
# 5 8.8805 30.2697 20.3716 0.0000 42.0507 0.0000
# 6 0.0000 0.0000 0.0000 7.0191 0.0000 21.6354
#
#
#
# Elastic Compliance Matrix: (Units=1/GPa)
#
#
# Indices 1 2 3 4 5 6 
#
# 1 0.012605 -0.002973 0.001312 0.000000 -0.001158 0.000000
# 2 -0.002973 0.010562 -0.005909 0.000000 -0.004112 0.000000
# 3 0.001312 -0.005909 0.012354 0.000000 -0.002009 0.000000
# 4 0.000000 0.000000 0.000000 0.030471 0.000000 -0.009886
# 5 -0.001158 -0.004112 -0.002009 0.000000 0.027959 0.000000
# 6 0.000000 0.000000 0.000000 -0.009886 0.000000 0.049428
#
#
# Mechanical properties :
#
#
# Convention : Reuss Voigt Hill
#
# Bulk Modulus (GPa) = 49.06278 66.76751 57.91515
# Shear Modulus (GPa) = 30.24597 36.36035 33.30316
#
# Velocity S-wave (km/s) = 3.64909 4.00097 3.82907
# Velocity P-wave (km/s) = 6.27332 7.12308 6.71166
#
# Compressibility (1/GPa) = 0.02038205
#
# Stress axis : x y z
#
# Youngs Moduli (GPa) = 79.33123 94.68322 80.94454
#
# Poissons Ratio (x) = 0.28149 -0.10622
# Poissons Ratio (y) = 0.23585 0.47828
# Poissons Ratio (z) = -0.10410 0.55946
#
# Static dielectric constant tensor:
#      x y z
#    x 1.920830 0.000000 -0.036470 
#    y 0.000000 1.772800 0.000000 
#    z -0.036470 0.000000 1.789300 
# 
# From -- ./inp_files/378282.got.cif
#   From: 2010.05.17/outbox.cif.g08.bks.cpg/sg12_190_cif.got.tgz:378282.got - 2010.06.03 13:09:07.
