data_PCOD9213283
_publ_section_title
;
Structure prediction by ZEFSAII (Michael W. Deem and Ramdas Pophale) SiO2 
 PCOD9213283
Probable space group: C 2/M
;
_chemical_formula_sum "Si O2"
_cell_formula_units_Z 28
_cell_length_a 5.509428
_cell_length_b 24.171019
_cell_length_c 11.618400
_cell_angle_alpha 90.000000
_cell_angle_beta 127.118599
_cell_angle_gamma 90.000000
_cell_volume 1233.722637
_symmetry_space_group_name_H-M "C 2/M"
_symmetry_group_IT_number 12
_symmetry_cell_setting 'monoclinic'
loop_
_space_group_symop_operation_xyz
x,y,z
-x,y,-z
-x,-y,-z
x,-y,z
1/2+x,1/2+y,z
1/2-x,1/2+y,-z
1/2-x,1/2-y,-z
1/2+x,1/2-y,z
loop_
_atom_site_type_symbol
_atom_site_label
_atom_site_fract_x
_atom_site_fract_y
_atom_site_fract_z
Si Si1 0.632937 0.500000 0.406910
Si Si2 0.139443 0.324727 0.912382
Si Si3 0.096059 0.882546 0.661707
Si Si4 0.641056 0.730730 0.318533
O O1 0.500000 0.500000 0.500000
O O2 0.504140 0.442361 0.321868
O O3 0.000000 0.500000 0.500000
O O4 0.029425 0.264746 0.833415
O O5 0.951294 0.368705 0.780447
O O6 0.500000 0.331579 0.000000
O O7 0.000000 0.332095 0.000000
O O8 0.933864 0.832984 0.684451
O O9 0.000000 0.877813 0.500000
O O10 0.986580 0.738024 0.380993
#
# Coordination Sequence:
#
# PCOD9213283 Si02
#       4
#     4   8   8   8
#     4  10  24  46  70  94 128 174 223 274 331 384
#     4  11  24  42  65  99 139 177 213 263 335 401
#     4  10  24  44  69  97 130 174 227 275 323 388
#     4  10  22  37  62  95 130 167 211 262 323 388
#
# _framework density 22.695537999999999
#
# number of rings (size 3 to 8) (size 9 to 14) (size 15 to 20)
#    0.000    1.714    0.000    3.429    0.000   32.000 
#    0.000    2.857    0.000    1.714    0.000    7.000 
#    0.000    0.000    0.000    0.000    0.000    0.000 
#
# Total GULP energy -78224.218988 kJ/mol
# GULP energy per Si atom -5587.444213 kJ/mol
# Density = 2.264388 g / cm^3
# Si number density = 22.695538 Si / 1000 Ang^3
#
#
#
# Elastic Constant Matrix: (Units=GPa)
#
#
# Indices 1 2 3 4 5 6 
#
# 1 205.6719 53.9237 75.6503 0.0000 29.0089 0.0000
# 2 53.9237 216.7749 40.1018 0.0000 28.2840 0.0000
# 3 75.6503 40.1018 133.8316 0.0000 15.7182 0.0000
# 4 0.0000 0.0000 0.0000 13.7528 0.0000 13.4314
# 5 29.0089 28.2840 15.7182 0.0000 64.6148 0.0000
# 6 0.0000 0.0000 0.0000 13.4314 0.0000 18.4370
#
#
#
# Elastic Compliance Matrix: (Units=1/GPa)
#
#
# Indices 1 2 3 4 5 6 
#
# 1 0.006511 -0.000788 -0.003234 0.000000 -0.001792 0.000000
# 2 -0.000788 0.005200 -0.000913 0.000000 -0.001700 0.000000
# 3 -0.003234 -0.000913 0.009631 0.000000 -0.000491 0.000000
# 4 0.000000 0.000000 0.000000 0.252016 0.000000 -0.183594
# 5 -0.001792 -0.001700 -0.000491 0.000000 0.017145 0.000000
# 6 0.000000 0.000000 0.000000 -0.183594 0.000000 0.187987
#
#
# Mechanical properties :
#
#
# Convention : Reuss Voigt Hill
#
# Bulk Modulus (GPa) = 87.16371 99.51445 93.33908
# Shear Modulus (GPa) = 10.15882 45.13442 27.64662
#
# Velocity S-wave (km/s) = 2.11798 4.46431 3.49399
# Velocity P-wave (km/s) = 6.66860 8.39739 7.58243
#
# Compressibility (1/GPa) = 0.01147266
#
# Stress axis : x y z
#
# Youngs Moduli (GPa) = 153.59109 192.31559 103.82671
#
# Poissons Ratio (x) = 0.15146 0.33577
# Poissons Ratio (y) = 0.12096 0.09481
# Poissons Ratio (z) = 0.49670 0.17562
#
# Static dielectric constant tensor:
#      x y z
#    x 1.890400 0.000000 -0.002480 
#    y 0.000000 1.823240 0.000000 
#    z -0.002480 0.000000 2.071850 
# 
# From -- ./inp_files/115347.got.cif
#   From: 2010.05.17/outbox.cif.g08.bks.cpg/sg12_58_cif.got.tgz:115347.got - 2010.06.03 13:09:07.
