data_PCOD9213454
_publ_section_title
;
Structure prediction by ZEFSAII (Michael W. Deem and Ramdas Pophale) SiO2 
 PCOD9213454
Probable space group: C 2/M
;
_chemical_formula_sum "Si O2"
_cell_formula_units_Z 48
_cell_length_a 17.654308
_cell_length_b 22.941437
_cell_length_c 5.791922
_cell_angle_alpha 90.000000
_cell_angle_beta 115.757026
_cell_angle_gamma 90.000000
_cell_volume 2112.747728
_symmetry_space_group_name_H-M "C 2/M"
_symmetry_group_IT_number 12
_symmetry_cell_setting 'monoclinic'
loop_
_space_group_symop_operation_xyz
x,y,z
-x,y,-z
-x,-y,-z
x,-y,z
1/2+x,1/2+y,z
1/2-x,1/2+y,-z
1/2-x,1/2-y,-z
1/2+x,1/2-y,z
loop_
_atom_site_type_symbol
_atom_site_label
_atom_site_fract_x
_atom_site_fract_y
_atom_site_fract_z
Si Si1 0.921317 0.749656 0.058845
Si Si2 0.692980 0.837459 0.343343
Si Si3 0.241820 0.934944 0.891079
Si Si4 0.064642 0.933712 0.389542
Si Si5 0.481177 0.133612 0.709632
Si Si6 0.845254 0.860338 0.855283
O O1 0.842402 0.719142 0.830217
O O2 0.883012 0.811955 0.081559
O O3 0.000000 0.766731 0.000000
O O4 0.963600 0.693729 0.238635
O O5 0.700466 0.889459 0.167440
O O6 0.617852 0.852962 0.418244
O O7 0.781621 0.831394 0.586870
O O8 0.155643 0.938017 0.630739
O O9 0.276774 0.000000 0.959657
O O10 0.211355 0.907796 0.090387
O O11 0.083526 0.893570 0.195239
O O12 0.000000 0.911991 0.500000
O O13 0.038086 0.000000 0.294182
O O14 0.500000 0.098704 0.500000
O O15 0.500000 0.113071 0.000000
#
# Coordination Sequence:
#
# PCOD9213454 Si02
#       6
#     8   8   8   8   8   8
#     4   9  21  39  57  91 122 158 206 253 313 375
#     4   9  21  40  60  85 123 163 199 256 312 379
#     4  10  22  38  58  88 118 156 208 258 310 369
#     4   9  20  38  56  80 120 166 211 257 306 363
#     4   9  20  41  65  90 124 168 205 250 314 375
#     4  11  21  35  60  89 121 160 208 252 314 371
#
# _framework density 22.719228999999999
#
# number of rings (size 3 to 8) (size 9 to 14) (size 15 to 20)
#    0.000    2.833    0.000    1.000    7.000    1.333 
#   18.000    2.500    0.000    8.500    0.000    0.000 
#    0.000    0.000    0.000    0.000    0.000    0.000 
#
# Total GULP energy -133681.217787 kJ/mol
# GULP energy per Si atom -5570.050741 kJ/mol
# Density = 2.266752 g / cm^3
# Si number density = 22.719229 Si / 1000 Ang^3
#
#
#
# Elastic Constant Matrix: (Units=GPa)
#
#
# Indices 1 2 3 4 5 6 
#
# 1 109.9215 57.7216 28.8567 0.0000 -13.0799 0.0000
# 2 57.7216 113.6492 28.3554 0.0000 -6.0883 0.0000
# 3 28.8567 28.3554 75.8343 0.0000 -7.7804 0.0000
# 4 0.0000 0.0000 0.0000 15.4022 0.0000 1.7275
# 5 -13.0799 -6.0883 -7.7804 0.0000 41.6814 0.0000
# 6 0.0000 0.0000 0.0000 1.7275 0.0000 35.8050
#
#
#
# Elastic Compliance Matrix: (Units=1/GPa)
#
#
# Indices 1 2 3 4 5 6 
#
# 1 0.013206 -0.005928 -0.002521 0.000000 0.002808 0.000000
# 2 -0.005928 0.012389 -0.002428 0.000000 -0.000504 0.000000
# 3 -0.002521 -0.002428 0.015228 0.000000 0.001697 0.000000
# 4 0.000000 0.000000 0.000000 0.065279 0.000000 -0.003150
# 5 0.002808 -0.000504 0.001697 0.000000 0.025116 0.000000
# 6 0.000000 0.000000 0.000000 -0.003150 0.000000 0.028081
#
#
# Mechanical properties :
#
#
# Convention : Reuss Voigt Hill
#
# Bulk Modulus (GPa) = 52.44133 58.80803 55.62468
# Shear Modulus (GPa) = 26.67970 30.87580 28.77775
#
# Velocity S-wave (km/s) = 3.43056 3.69048 3.56289
# Velocity P-wave (km/s) = 6.23090 6.64082 6.43912
#
# Compressibility (1/GPa) = 0.01906893
#
# Stress axis : x y z
#
# Youngs Moduli (GPa) = 75.72257 80.71923 65.66920
#
# Poissons Ratio (x) = 0.47850 0.16553
# Poissons Ratio (y) = 0.44888 0.15946
# Poissons Ratio (z) = 0.19087 0.19600
#
# Static dielectric constant tensor:
#      x y z
#    x 1.869670 0.000000 -0.021300 
#    y 0.000000 1.849490 0.000000 
#    z -0.021300 0.000000 1.907070 
# 
# From -- ./inp_files/16950.got.cif
#   From: 2010.05.17/outbox.cif.g08.bks.cpg/sg12_9_cif.got.tgz:16950.got - 2010.06.03 13:09:07.
