data_PCOD9213080
_publ_section_title
;
Structure prediction by ZEFSAII (Michael W. Deem and Ramdas Pophale) SiO2 
 PCOD9213080
Probable space group: C 2/M
;
_chemical_formula_sum "Si O2"
_cell_formula_units_Z 64
_cell_length_a 17.785988
_cell_length_b 20.924765
_cell_length_c 16.927393
_cell_angle_alpha 90.000000
_cell_angle_beta 149.894083
_cell_angle_gamma 90.000000
_cell_volume 3159.994002
_symmetry_space_group_name_H-M "C 2/M"
_symmetry_group_IT_number 12
_symmetry_cell_setting 'monoclinic'
loop_
_space_group_symop_operation_xyz
x,y,z
-x,y,-z
-x,-y,-z
x,-y,z
1/2+x,1/2+y,z
1/2-x,1/2+y,-z
1/2-x,1/2-y,-z
1/2+x,1/2-y,z
loop_
_atom_site_type_symbol
_atom_site_label
_atom_site_fract_x
_atom_site_fract_y
_atom_site_fract_z
Si Si1 0.846086 0.271292 0.388044
Si Si2 0.717084 0.762969 0.841574
Si Si3 0.817506 0.150833 0.470399
Si Si4 0.523043 0.813437 0.262541
Si Si5 0.962267 0.814189 0.826153
Si Si6 0.288779 0.125505 0.945851
Si Si7 0.820304 0.076656 0.322733
Si Si8 0.983198 0.927454 0.233708
O O1 0.809677 0.238706 0.271318
O O2 0.867382 0.218096 0.475972
O O3 0.695521 0.308801 0.272314
O O4 0.000000 0.305925 0.500000
O O5 0.589033 0.806808 0.765199
O O6 0.722798 0.697538 0.896228
O O7 0.879608 0.796939 0.988386
O O8 0.692905 0.162730 0.424657
O O9 0.752140 0.111002 0.337328
O O10 0.946270 0.108774 0.626692
O O11 0.541630 0.742646 0.242572
O O12 0.449422 0.860350 0.130001
O O13 0.975348 0.884008 0.802060
O O14 0.259736 0.101810 0.830095
O O15 0.194141 0.077898 0.913822
O O16 0.000000 0.090826 0.500000
O O17 0.806129 0.000000 0.310955
O O18 0.033526 0.000000 0.276053
#
# Coordination Sequence:
#
# PCOD9213080 Si02
#       8
#     8   8   8   8   8   8   8   8
#     4  11  23  35  61  94 124 153 193 253 310 367
#     4  11  19  39  62  90 122 153 193 258 309 356
#     4  11  23  37  56  91 125 160 200 244 298 356
#     4  10  22  36  62  87 121 154 194 261 306 353
#     4  10  22  39  61  91 120 158 202 249 310 356
#     4  11  19  37  58  88 117 157 206 245 294 360
#     4  11  21  35  55  81 121 169 206 235 280 358
#     4  12  23  39  62  86 121 165 209 249 291 358
#
# _framework density 20.253204
#
# number of rings (size 3 to 8) (size 9 to 14) (size 15 to 20)
#    0.000    1.125    5.000    3.000    1.750    1.500 
#    0.000    3.125    0.000    1.875    0.000    0.000 
#    0.000    0.000    0.000    0.000    0.000    0.000 
#
# Total GULP energy -178341.332915 kJ/mol
# GULP energy per Si atom -5573.166654 kJ/mol
# Density = 2.020711 g / cm^3
# Si number density = 20.253204 Si / 1000 Ang^3
#
#
#
# Elastic Constant Matrix: (Units=GPa)
#
#
# Indices 1 2 3 4 5 6 
#
# 1 71.9378 20.0823 31.1268 0.0000 32.2732 0.0000
# 2 20.0823 62.5544 32.1166 0.0000 10.0877 0.0000
# 3 31.1268 32.1166 74.1737 0.0000 15.6338 0.0000
# 4 0.0000 0.0000 0.0000 19.4548 0.0000 -6.3711
# 5 32.2732 10.0877 15.6338 0.0000 34.4489 0.0000
# 6 0.0000 0.0000 0.0000 -6.3711 0.0000 15.6309
#
#
#
# Elastic Compliance Matrix: (Units=1/GPa)
#
#
# Indices 1 2 3 4 5 6 
#
# 1 0.026778 -0.002143 -0.005699 0.000000 -0.021872 0.000000
# 2 -0.002143 0.020878 -0.008045 0.000000 -0.000455 0.000000
# 3 -0.005699 -0.008045 0.019611 0.000000 -0.001205 0.000000
# 4 0.000000 0.000000 0.000000 0.059319 0.000000 0.024178
# 5 -0.021872 -0.000455 -0.001205 0.000000 0.050200 0.000000
# 6 0.000000 0.000000 0.000000 0.024178 0.000000 0.073831
#
#
# Mechanical properties :
#
#
# Convention : Reuss Voigt Hill
#
# Bulk Modulus (GPa) = 28.17524 41.70192 34.93858
# Shear Modulus (GPa) = 16.99406 22.26293 19.62849
#
# Velocity S-wave (km/s) = 2.89983 3.31906 3.11650
# Velocity P-wave (km/s) = 5.01535 5.94333 5.49895
#
# Compressibility (1/GPa) = 0.03549215
#
# Stress axis : x y z
#
# Youngs Moduli (GPa) = 37.34450 47.89787 50.99268
#
# Poissons Ratio (x) = 0.10267 0.29061
# Poissons Ratio (y) = 0.08005 0.41021
# Poissons Ratio (z) = 0.21283 0.38532
#
# Static dielectric constant tensor:
#      x y z
#    x 1.775410 0.000000 0.007860 
#    y 0.000000 1.683910 0.000000 
#    z 0.007860 0.000000 1.838690 
# 
# From -- ./inp_files/279128.got.cif
#   From: 2010.05.17/outbox.cif.g08.bks.cpg/sg12_140_cif.got.tgz:279128.got - 2010.06.03 13:09:07.
