data_PCOD9213716
_publ_section_title
;
Structure prediction by ZEFSAII (Michael W. Deem and Ramdas Pophale) SiO2 
 PCOD9213716
Probable space group: C 2/M
;
_chemical_formula_sum "Si O2"
_cell_formula_units_Z 30
_cell_length_a 10.853940
_cell_length_b 14.423801
_cell_length_c 11.225585
_cell_angle_alpha 90.000000
_cell_angle_beta 125.983904
_cell_angle_gamma 90.000000
_cell_volume 1422.074608
_symmetry_space_group_name_H-M "C 2/M"
_symmetry_group_IT_number 12
_symmetry_cell_setting 'monoclinic'
loop_
_space_group_symop_operation_xyz
x,y,z
-x,y,-z
-x,-y,-z
x,-y,z
1/2+x,1/2+y,z
1/2-x,1/2+y,-z
1/2-x,1/2-y,-z
1/2+x,1/2-y,z
loop_
_atom_site_type_symbol
_atom_site_label
_atom_site_fract_x
_atom_site_fract_y
_atom_site_fract_z
Si Si1 0.000000 0.000000 0.500000
Si Si2 0.648661 0.842377 0.667928
Si Si3 0.797071 0.500000 0.831591
Si Si4 0.681078 0.203574 0.079560
Si Si5 0.485735 0.000000 0.257207
Si Si6 0.218356 0.000000 0.406285
O O1 0.831252 0.000000 0.342962
O O2 0.923983 0.000000 0.590305
O O3 0.500000 0.825271 0.500000
O O4 0.726927 0.749806 0.758201
O O5 0.601075 0.906739 0.753263
O O6 0.766613 0.907234 0.663495
O O7 0.786584 0.594376 0.898702
O O8 0.951234 0.500000 0.839455
O O9 0.500000 0.218993 0.000000
O O10 0.750000 0.250000 0.000000
O O11 0.626115 0.000000 0.429627
#
# Coordination Sequence:
#
# PCOD9213716 Si02
#       6
#     2   8   4   8   4   4
#     4  10  22  38  66 104 134 162 230 294 338 368
#     4   9  19  40  73  97 130 177 239 275 335 408
#     4  11  25  44  66  93 143 177 225 277 354 403
#     4  12  28  46  67 100 140 186 228 280 352 414
#     4   8  16  41  66  98 128 179 214 283 339 402
#     4   8  17  35  64 101 136 170 214 287 347 392
#
# _framework density 21.095939999999999
#
# number of rings (size 3 to 8) (size 9 to 14) (size 15 to 20)
#    0.000    2.133    0.000    3.600    5.600    2.133 
#    0.000    8.667    0.000    0.000    0.000    0.000 
#    0.000    0.000    0.000    0.000    0.000    0.000 
#
# Total GULP energy -83538.699910 kJ/mol
# GULP energy per Si atom -5569.246661 kJ/mol
# Density = 2.104793 g / cm^3
# Si number density = 21.095940 Si / 1000 Ang^3
#
#
#
# Elastic Constant Matrix: (Units=GPa)
#
#
# Indices 1 2 3 4 5 6 
#
# 1 145.5827 62.0775 33.5493 0.0000 -13.6288 0.0000
# 2 62.0775 167.1422 67.2976 0.0000 -3.7381 0.0000
# 3 33.5493 67.2976 104.1599 0.0000 1.4908 0.0000
# 4 0.0000 0.0000 0.0000 24.6341 0.0000 4.2711
# 5 -13.6288 -3.7381 1.4908 0.0000 37.8689 0.0000
# 6 0.0000 0.0000 0.0000 4.2711 0.0000 10.4299
#
#
#
# Elastic Compliance Matrix: (Units=1/GPa)
#
#
# Indices 1 2 3 4 5 6 
#
# 1 0.008519 -0.002675 -0.001056 0.000000 0.002844 0.000000
# 2 -0.002675 0.008965 -0.004932 0.000000 0.000116 0.000000
# 3 -0.001056 -0.004932 0.013147 0.000000 -0.001385 0.000000
# 4 0.000000 0.000000 0.000000 0.043697 0.000000 -0.017894
# 5 0.002844 0.000116 -0.001385 0.000000 0.027496 0.000000
# 6 0.000000 0.000000 0.000000 -0.017894 0.000000 0.103206
#
#
# Mechanical properties :
#
#
# Convention : Reuss Voigt Hill
#
# Bulk Modulus (GPa) = 75.16429 82.52597 78.84513
# Shear Modulus (GPa) = 22.04658 31.51728 26.78193
#
# Velocity S-wave (km/s) = 3.23625 3.86942 3.56691
# Velocity P-wave (km/s) = 7.04780 7.69204 7.37696
#
# Compressibility (1/GPa) = 0.01330419
#
# Stress axis : x y z
#
# Youngs Moduli (GPa) = 117.38061 111.54433 76.06061
#
# Poissons Ratio (x) = 0.29841 0.08034
# Poissons Ratio (y) = 0.31402 0.37515
# Poissons Ratio (z) = 0.12398 0.55017
#
# Static dielectric constant tensor:
#      x y z
#    x 1.743980 0.000000 -0.021480 
#    y 0.000000 1.800520 0.000000 
#    z -0.021480 0.000000 1.771930 
# 
# From -- ./inp_files/129523.got.cif
#   From: 2010.05.17/outbox.cif.g08.bks.cpg/sg12_65_cif.got.tgz:129523.got - 2010.06.03 13:09:07.
