data_PCOD9213545
_publ_section_title
;
Structure prediction by ZEFSAII (Michael W. Deem and Ramdas Pophale) SiO2 
 PCOD9213545
Probable space group: C 2/M
;
_chemical_formula_sum "Si O2"
_cell_formula_units_Z 32
_cell_length_a 11.920055
_cell_length_b 16.804882
_cell_length_c 10.150270
_cell_angle_alpha 90.000000
_cell_angle_beta 139.457989
_cell_angle_gamma 90.000000
_cell_volume 1321.625178
_symmetry_space_group_name_H-M "C 2/M"
_symmetry_group_IT_number 12
_symmetry_cell_setting 'monoclinic'
loop_
_space_group_symop_operation_xyz
x,y,z
-x,y,-z
-x,-y,-z
x,-y,z
1/2+x,1/2+y,z
1/2-x,1/2+y,-z
1/2-x,1/2-y,-z
1/2+x,1/2-y,z
loop_
_atom_site_type_symbol
_atom_site_label
_atom_site_fract_x
_atom_site_fract_y
_atom_site_fract_z
Si Si1 0.334427 0.090631 0.760751
Si Si2 0.933126 0.090635 0.082200
Si Si3 0.909528 0.208133 0.567449
Si Si4 0.960175 0.619977 0.317760
O O1 0.183357 0.156470 0.631054
O O2 0.405211 0.093042 0.673545
O O3 0.278832 0.000000 0.743403
O O4 0.500000 0.110213 0.000000
O O5 0.727319 0.093278 0.894987
O O6 0.993597 0.000000 0.153050
O O7 0.000000 0.119776 0.000000
O O8 0.004820 0.145177 0.259765
O O9 0.750000 0.250000 0.500000
O O10 0.034436 0.283984 0.663898
O O11 0.000000 0.589774 0.500000
#
# Coordination Sequence:
#
# PCOD9213545 Si02
#       4
#     8   8   8   8
#     4  10  22  42  67  95 129 167 208 259 319 380
#     4  11  23  40  64  94 128 167 214 265 316 373
#     4  10  22  38  60  90 126 164 205 254 311 373
#     4  11  24  41  65  95 128 168 212 261 315 375
#
# _framework density 24.212615
#
# number of rings (size 3 to 8) (size 9 to 14) (size 15 to 20)
#    0.000    1.500    0.000    5.250    0.000   14.000 
#    0.000    0.000    0.000    6.000    0.000    0.000 
#    0.000    3.000    0.000    0.000    0.000    0.000 
#
# Total GULP energy -89579.190063 kJ/mol
# GULP energy per Si atom -5598.699379 kJ/mol
# Density = 2.415751 g / cm^3
# Si number density = 24.212615 Si / 1000 Ang^3
#
#
#
# Elastic Constant Matrix: (Units=GPa)
#
#
# Indices 1 2 3 4 5 6 
#
# 1 68.7861 -1.2680 1.3097 0.0000 -12.5870 0.0000
# 2 -1.2680 152.5250 65.8531 0.0000 -15.5558 0.0000
# 3 1.3097 65.8531 127.7047 0.0000 -15.2788 0.0000
# 4 0.0000 0.0000 0.0000 23.5890 0.0000 11.8248
# 5 -12.5870 -15.5558 -15.2788 0.0000 42.4279 0.0000
# 6 0.0000 0.0000 0.0000 11.8248 0.0000 31.7057
#
#
#
# Elastic Compliance Matrix: (Units=1/GPa)
#
#
# Indices 1 2 3 4 5 6 
#
# 1 0.015430 0.000566 0.000128 0.000000 0.004831 0.000000
# 2 0.000566 0.008559 -0.004205 0.000000 0.001792 0.000000
# 3 0.000128 -0.004205 0.010260 0.000000 0.002191 0.000000
# 4 0.000000 0.000000 0.000000 0.052141 0.000000 -0.019446
# 5 0.004831 0.001792 0.002191 0.000000 0.026448 0.000000
# 6 0.000000 0.000000 0.000000 -0.019446 0.000000 0.038793
#
#
# Mechanical properties :
#
#
# Convention : Reuss Voigt Hill
#
# Bulk Modulus (GPa) = 36.72946 53.42282 45.07614
# Shear Modulus (GPa) = 29.80999 38.41926 34.11463
#
# Velocity S-wave (km/s) = 3.51262 3.98772 3.75768
# Velocity P-wave (km/s) = 5.62617 6.58137 6.12243
#
# Compressibility (1/GPa) = 0.02722610
#
# Stress axis : x y z
#
# Youngs Moduli (GPa) = 64.80947 116.83132 97.46721
#
# Poissons Ratio (x) = -0.06609 -0.01248
# Poissons Ratio (y) = -0.03666 0.40987
# Poissons Ratio (z) = -0.00830 0.49130
#
# Static dielectric constant tensor:
#      x y z
#    x 2.163610 0.000000 0.015780 
#    y 0.000000 1.935600 0.000000 
#    z 0.015780 0.000000 1.866520 
# 
# From -- ./inp_files/46723.got.cif
#   From: 2010.05.17/outbox.cif.g08.bks.cpg/sg12_24_cif.got.tgz:46723.got - 2010.06.03 13:09:07.
