data_PCOD9213317
_publ_section_title
;
Structure prediction by ZEFSAII (Michael W. Deem and Ramdas Pophale) SiO2 
 PCOD9213317
Probable space group: C 2/M
;
_chemical_formula_sum "Si O2"
_cell_formula_units_Z 56
_cell_length_a 14.325494
_cell_length_b 19.359697
_cell_length_c 10.418285
_cell_angle_alpha 90.000000
_cell_angle_beta 119.594951
_cell_angle_gamma 90.000000
_cell_volume 2512.425479
_symmetry_space_group_name_H-M "C 2/M"
_symmetry_group_IT_number 12
_symmetry_cell_setting 'monoclinic'
loop_
_space_group_symop_operation_xyz
x,y,z
-x,y,-z
-x,-y,-z
x,-y,z
1/2+x,1/2+y,z
1/2-x,1/2+y,-z
1/2-x,1/2-y,-z
1/2+x,1/2-y,z
loop_
_atom_site_type_symbol
_atom_site_label
_atom_site_fract_x
_atom_site_fract_y
_atom_site_fract_z
Si Si1 0.925138 0.076478 0.325007
Si Si2 0.571383 0.000000 0.678404
Si Si3 0.869435 0.347152 0.272083
Si Si4 0.964932 0.827962 0.774341
Si Si5 0.420346 0.000000 0.826591
Si Si6 0.291186 0.143370 0.750486
Si Si7 0.607167 0.202541 0.423606
Si Si8 0.659544 0.280264 0.071590
O O1 0.997953 0.099705 0.255886
O O2 0.829451 0.129561 0.286286
O O3 0.000000 0.075566 0.500000
O O4 0.880180 0.000000 0.273972
O O5 0.500000 0.000000 0.500000
O O6 0.640761 0.070143 0.729115
O O7 0.489703 0.000000 0.743008
O O8 0.862995 0.313625 0.410307
O O9 0.778267 0.309744 0.126599
O O10 0.993154 0.334839 0.316786
O O11 0.918621 0.781464 0.627958
O O12 0.882448 0.825839 0.835351
O O13 0.072344 0.792364 0.903386
O O14 0.350754 0.930153 0.789003
O O15 0.500000 0.000000 0.000000
O O16 0.306394 0.174329 0.618278
O O17 0.340312 0.202050 0.876279
#
# Coordination Sequence:
#
# PCOD9213317 Si02
#       8
#     8   4   8   8   4   8   8   8
#     4  11  26  45  65  95 131 178 223 270 327 395
#     4  12  22  46  64  99 148 169 222 288 339 412
#     4  11  22  40  65 105 129 176 220 270 344 398
#     4  10  24  46  66  94 136 170 229 275 324 400
#     4  12  26  40  69 102 136 183 218 276 359 406
#     4  11  23  44  66  96 137 170 220 277 333 401
#     4  10  22  37  69  99 131 165 222 275 335 393
#     4  10  25  43  70  99 128 178 221 279 335 387
#
# _framework density 22.289218999999999
#
# number of rings (size 3 to 8) (size 9 to 14) (size 15 to 20)
#    0.000    1.286    3.571    0.857   10.000    4.571 
#    2.571    0.714    0.000    0.000    0.000    0.000 
#    0.000    0.000    0.000    0.000    0.000    0.000 
#
# Total GULP energy -156686.375753 kJ/mol
# GULP energy per Si atom -5595.941991 kJ/mol
# Density = 2.223849 g / cm^3
# Si number density = 22.289219 Si / 1000 Ang^3
#
#
#
# Elastic Constant Matrix: (Units=GPa)
#
#
# Indices 1 2 3 4 5 6 
#
# 1 94.6519 15.7062 24.3041 0.0000 -8.1678 0.0000
# 2 15.7062 79.3252 32.6393 0.0000 -0.7412 0.0000
# 3 24.3041 32.6393 74.2330 0.0000 4.3379 0.0000
# 4 0.0000 0.0000 0.0000 8.0957 0.0000 9.0234
# 5 -8.1678 -0.7412 4.3379 0.0000 38.6183 0.0000
# 6 0.0000 0.0000 0.0000 9.0234 0.0000 31.3230
#
#
#
# Elastic Compliance Matrix: (Units=1/GPa)
#
#
# Indices 1 2 3 4 5 6 
#
# 1 0.011904 -0.000801 -0.003716 0.000000 0.002920 0.000000
# 2 -0.000801 0.015488 -0.006599 0.000000 0.000869 0.000000
# 3 -0.003716 -0.006599 0.017759 0.000000 -0.002907 0.000000
# 4 0.000000 0.000000 0.000000 0.181943 0.000000 -0.052414
# 5 0.002920 0.000869 -0.002907 0.000000 0.026855 0.000000
# 6 0.000000 0.000000 0.000000 -0.052414 0.000000 0.047025
#
#
# Mechanical properties :
#
#
# Convention : Reuss Voigt Hill
#
# Bulk Modulus (GPa) = 43.62895 43.72323 43.67609
# Shear Modulus (GPa) = 15.11285 27.31143 21.21214
#
# Velocity S-wave (km/s) = 2.60673 3.50426 3.08827
# Velocity P-wave (km/s) = 5.35505 6.00266 5.68808
#
# Compressibility (1/GPa) = 0.02292056
#
# Stress axis : x y z
#
# Youngs Moduli (GPa) = 84.00529 64.56601 56.30983
#
# Poissons Ratio (x) = 0.05170 0.20925
# Poissons Ratio (y) = 0.06726 0.37156
# Poissons Ratio (z) = 0.31216 0.42604
#
# Static dielectric constant tensor:
#      x y z
#    x 1.834880 0.000000 -0.002270 
#    y 0.000000 1.795850 0.000000 
#    z -0.002270 0.000000 1.783230 
# 
# From -- ./inp_files/146265.got.cif
#   From: 2010.05.17/outbox.cif.g08.bks.cpg/sg12_74_cif.got.tgz:146265.got - 2010.06.03 13:09:07.
