data_PCOD9213135
_publ_section_title
;
Structure prediction by ZEFSAII (Michael W. Deem and Ramdas Pophale) SiO2 
 PCOD9213135
Probable space group: C 2/M
;
_chemical_formula_sum "Si O2"
_cell_formula_units_Z 48
_cell_length_a 9.290937
_cell_length_b 25.881158
_cell_length_c 14.603872
_cell_angle_alpha 90.000000
_cell_angle_beta 41.160374
_cell_angle_gamma 90.000000
_cell_volume 2311.258990
_symmetry_space_group_name_H-M "C 2/M"
_symmetry_group_IT_number 12
_symmetry_cell_setting 'monoclinic'
loop_
_space_group_symop_operation_xyz
x,y,z
-x,y,-z
-x,-y,-z
x,-y,z
1/2+x,1/2+y,z
1/2-x,1/2+y,-z
1/2-x,1/2-y,-z
1/2+x,1/2-y,z
loop_
_atom_site_type_symbol
_atom_site_label
_atom_site_fract_x
_atom_site_fract_y
_atom_site_fract_z
Si Si1 0.765529 0.645647 0.657903
Si Si2 0.110457 0.940902 0.594016
Si Si3 0.165618 0.398783 0.005140
Si Si4 0.848480 0.557492 0.291071
Si Si5 0.409062 0.442593 0.145377
Si Si6 0.075412 0.796180 0.070809
O O1 0.646465 0.609510 0.638586
O O2 0.753141 0.602749 0.745604
O O3 0.638796 0.695635 0.760232
O O4 0.000000 0.657416 0.500000
O O5 0.276259 0.936117 0.429421
O O6 0.871312 0.939376 0.663976
O O7 0.144915 0.000000 0.615212
O O8 0.024061 0.405545 0.163968
O O9 0.365566 0.439171 0.903721
O O10 0.288365 0.345338 0.959871
O O11 0.000000 0.401771 0.000000
O O12 0.939080 0.500000 0.234570
O O13 0.314521 0.500000 0.196139
O O14 0.500000 0.433659 0.000000
O O15 0.250000 0.750000 0.000000
O O16 0.000000 0.798044 0.000000
#
# Coordination Sequence:
#
# PCOD9213135 Si02
#       6
#     8   8   8   8   8   8
#     4  11  23  38  64  93 125 163 210 255 319 378
#     4   9  19  33  52  87 136 176 213 249 296 357
#     4  11  21  35  63  92 121 167 220 267 313 372
#     4   9  18  32  53  86 130 178 215 256 297 348
#     4  10  22  37  54  88 135 182 227 263 303 359
#     4  11  26  49  73  93 121 155 203 266 334 395
#
# _framework density 20.767900000000001
#
# number of rings (size 3 to 8) (size 9 to 14) (size 15 to 20)
#    0.000    1.833    0.000    6.500    4.667    4.000 
#    0.000    0.833    3.667    0.000    0.000    0.000 
#    0.000    0.000    0.000    0.000    0.000    0.000 
#
# Total GULP energy -133806.028888 kJ/mol
# GULP energy per Si atom -5575.251204 kJ/mol
# Density = 2.072063 g / cm^3
# Si number density = 20.767900 Si / 1000 Ang^3
#
#
#
# Elastic Constant Matrix: (Units=GPa)
#
#
# Indices 1 2 3 4 5 6 
#
# 1 125.6270 18.2586 29.5119 0.0000 -2.3189 0.0000
# 2 18.2586 76.1566 38.1256 0.0000 -5.2249 0.0000
# 3 29.5119 38.1256 160.8950 0.0000 -3.1509 0.0000
# 4 0.0000 0.0000 0.0000 1.8227 0.0000 11.3609
# 5 -2.3189 -5.2249 -3.1509 0.0000 38.2235 0.0000
# 6 0.0000 0.0000 0.0000 11.3609 0.0000 10.0401
#
#
#
# Elastic Compliance Matrix: (Units=1/GPa)
#
#
# Indices 1 2 3 4 5 6 
#
# 1 0.008453 -0.001404 -0.001214 0.000000 0.000221 0.000000
# 2 -0.001404 0.015249 -0.003322 0.000000 0.001725 0.000000
# 3 -0.001214 -0.003322 0.007226 0.000000 0.000068 0.000000
# 4 0.000000 0.000000 0.000000 -0.090639 0.000000 0.102563
# 5 0.000221 0.001725 0.000068 0.000000 0.026417 0.000000
# 6 0.000000 0.000000 0.000000 0.102563 0.000000 -0.016455
#
#
# Mechanical properties :
#
#
# Convention : Reuss Voigt Hill
#
# Bulk Modulus (GPa) = 52.49518 59.38566 55.94042
# Shear Modulus (GPa) = -158.63006 28.46942 -65.08032
#
# Velocity S-wave (km/s) = -8.74918 3.70650 -5.60402
# Velocity P-wave (km/s) = 8.75969 6.85380 3.85731
#
# Compressibility (1/GPa) = 0.01904937
#
# Stress axis : x y z
#
# Youngs Moduli (GPa) = 118.29721 65.57846 138.38260
#
# Poissons Ratio (x) = 0.09207 0.16793
# Poissons Ratio (y) = 0.16609 0.45971
# Poissons Ratio (z) = 0.14355 0.21786
#
# Static dielectric constant tensor:
#      x y z
#    x 1.829740 0.000000 0.014720 
#    y 0.000000 1.744220 0.000000 
#    z 0.014720 0.000000 1.818470 
# 
# From -- ./inp_files/200148.got.cif
#   From: 2010.05.17/outbox.cif.g08.bks.cpg/sg12_101_cif.got.tgz:200148.got - 2010.06.03 13:09:07.
