data_PCOD9213400
_publ_section_title
;
Structure prediction by ZEFSAII (Michael W. Deem and Ramdas Pophale) SiO2 
 PCOD9213400
Probable space group: C 2/M
;
_chemical_formula_sum "Si O2"
_cell_formula_units_Z 64
_cell_length_a 22.461423
_cell_length_b 20.367351
_cell_length_c 15.762482
_cell_angle_alpha 90.000000
_cell_angle_beta 156.658241
_cell_angle_gamma 90.000000
_cell_volume 2857.110925
_symmetry_space_group_name_H-M "C 2/M"
_symmetry_group_IT_number 12
_symmetry_cell_setting 'monoclinic'
loop_
_space_group_symop_operation_xyz
x,y,z
-x,y,-z
-x,-y,-z
x,-y,z
1/2+x,1/2+y,z
1/2-x,1/2+y,-z
1/2-x,1/2-y,-z
1/2+x,1/2-y,z
loop_
_atom_site_type_symbol
_atom_site_label
_atom_site_fract_x
_atom_site_fract_y
_atom_site_fract_z
Si Si1 0.338042 0.286185 0.494521
Si Si2 0.178097 0.072434 0.962746
Si Si3 0.338760 0.322749 0.805070
Si Si4 0.337922 0.286196 0.994426
Si Si5 0.343824 0.074587 0.504580
Si Si6 0.677837 0.427569 0.462550
Si Si7 0.155932 0.425413 0.995306
Si Si8 0.661203 0.322752 0.694897
O O1 0.217533 0.227235 0.342249
O O2 0.272697 0.357261 0.435475
O O3 0.363623 0.288449 0.427196
O O4 0.500048 0.275200 0.750046
O O5 0.227478 0.142748 0.064639
O O6 0.221551 0.075475 0.920336
O O7 0.236347 0.000000 0.068289
O O8 0.000115 0.071916 0.750041
O O9 0.363459 0.288508 0.927043
O O10 0.212466 0.378088 0.642058
O O11 0.500000 0.354311 0.000000
O O12 0.217506 0.227205 0.842253
O O13 0.221152 0.075479 0.419938
O O14 0.499836 0.096987 0.749941
O O15 0.364125 0.000000 0.502306
O O16 0.736144 0.500000 0.568133
O O17 0.135727 0.500000 0.997739
O O18 0.212438 0.378060 0.142144
O O19 0.500000 0.354366 0.500000
#
# Coordination Sequence:
#
# PCOD9213400 Si02
#       8
#     8   8   8   8   8   8   8   8
#     4  10  22  38  57  84 118 155 196 244 296 349
#     4   9  18  35  60  86 113 150 193 237 288 344
#     4  11  23  37  59  88 116 155 202 245 292 349
#     4  10  22  38  57  84 118 155 196 244 296 349
#     4  10  22  40  62  89 121 156 194 241 297 352
#     4   9  18  35  60  86 113 150 193 237 288 344
#     4  10  22  40  62  89 121 156 194 241 297 352
#     4  11  23  37  59  88 116 155 202 245 292 349
#
# _framework density 22.40025
#
# number of rings (size 3 to 8) (size 9 to 14) (size 15 to 20)
#    0.000    2.000    0.000    3.750    0.000    9.500 
#    0.000    0.000    0.000    5.250    0.000    0.000 
#    0.000    0.000    0.000    0.000    0.000    0.000 
#
# Total GULP energy -178357.844403 kJ/mol
# GULP energy per Si atom -5573.682638 kJ/mol
# Density = 2.234927 g / cm^3
# Si number density = 22.400250 Si / 1000 Ang^3
#
#
#
# Elastic Constant Matrix: (Units=GPa)
#
#
# Indices 1 2 3 4 5 6 
#
# 1 29.2158 -17.3481 22.9428 0.0000 4.3594 0.0000
# 2 -17.3481 106.2303 62.4537 0.0000 -16.5053 0.0000
# 3 22.9428 62.4537 153.4959 0.0000 -18.7512 0.0000
# 4 0.0000 0.0000 0.0000 48.4009 0.0000 -24.3195
# 5 4.3594 -16.5053 -18.7512 0.0000 25.6935 0.0000
# 6 0.0000 0.0000 0.0000 -24.3195 0.0000 43.0335
#
#
#
# Elastic Compliance Matrix: (Units=1/GPa)
#
#
# Indices 1 2 3 4 5 6 
#
# 1 0.061810 0.019126 -0.018445 0.000000 -0.011662 0.000000
# 2 0.019126 0.018829 -0.010363 0.000000 0.001288 0.000000
# 3 -0.018445 -0.010363 0.014335 0.000000 0.006935 0.000000
# 4 0.000000 0.000000 0.000000 0.028854 0.000000 0.016306
# 5 -0.011662 0.001288 0.006935 0.000000 0.046787 0.000000
# 6 0.000000 0.000000 0.000000 0.016306 0.000000 0.032453
#
#
# Mechanical properties :
#
#
# Convention : Reuss Voigt Hill
#
# Bulk Modulus (GPa) = 13.22560 47.22654 30.22607
# Shear Modulus (GPa) = 20.19093 38.15182 29.17138
#
# Velocity S-wave (km/s) = 3.00554 4.13145 3.61263
# Velocity P-wave (km/s) = 4.23809 6.62475 5.56097
#
# Compressibility (1/GPa) = 0.07561095
#
# Stress axis : x y z
#
# Youngs Moduli (GPa) = 16.17865 53.10871 69.75815
#
# Poissons Ratio (x) = -1.01576 1.28670
# Poissons Ratio (y) = -0.30943 0.72287
# Poissons Ratio (z) = 0.29842 0.55034
#
# Static dielectric constant tensor:
#      x y z
#    x 1.894740 0.000000 0.044530 
#    y 0.000000 1.885890 0.000000 
#    z 0.044530 0.000000 1.833760 
# 
# From -- ./inp_files/294192.got.cif
#   From: 2010.05.17/outbox.cif.g08.bks.cpg/sg12_148_cif.got.tgz:294192.got - 2010.06.03 13:09:07.
