data_PCOD9213897
_publ_section_title
;
Structure prediction by ZEFSAII (Michael W. Deem and Ramdas Pophale) SiO2 
 PCOD9213897
Probable space group: C 2/M
;
_chemical_formula_sum "Si O2"
_cell_formula_units_Z 56
_cell_length_a 29.698364
_cell_length_b 19.678945
_cell_length_c 8.844222
_cell_angle_alpha 90.000000
_cell_angle_beta 149.391375
_cell_angle_gamma 90.000000
_cell_volume 2631.828694
_symmetry_space_group_name_H-M "C 2/M"
_symmetry_group_IT_number 12
_symmetry_cell_setting 'monoclinic'
loop_
_space_group_symop_operation_xyz
x,y,z
-x,y,-z
-x,-y,-z
x,-y,z
1/2+x,1/2+y,z
1/2-x,1/2+y,-z
1/2-x,1/2-y,-z
1/2+x,1/2-y,z
loop_
_atom_site_type_symbol
_atom_site_label
_atom_site_fract_x
_atom_site_fract_y
_atom_site_fract_z
Si Si1 0.836134 0.331030 0.689911
Si Si2 0.525342 0.817932 0.398095
Si Si3 0.166707 0.201722 0.749134
Si Si4 0.406174 0.922033 0.638083
Si Si5 0.365063 0.573596 0.191240
Si Si6 0.051575 0.925102 0.899008
Si Si7 0.826913 0.174626 0.574837
O O1 0.842714 0.385655 0.575443
O O2 0.820529 0.255810 0.579368
O O3 0.761562 0.351025 0.596213
O O4 0.931542 0.321351 0.042886
O O5 0.500000 0.827239 0.500000
O O6 0.579591 0.747578 0.530490
O O7 0.582149 0.876843 0.479089
O O8 0.183412 0.142830 0.917438
O O9 0.166144 0.166818 0.583687
O O10 0.250000 0.250000 0.000000
O O11 0.383907 0.000000 0.541478
O O12 0.500000 0.921979 0.000000
O O13 0.323901 0.500000 0.103875
O O14 0.395808 0.574322 0.107270
O O15 0.451154 0.579924 0.549932
O O16 0.063472 0.000000 0.006287
O O17 0.090228 0.863893 0.109316
#
# Coordination Sequence:
#
# PCOD9213897 Si02
#       7
#     8   8   8   8   8   8   8
#     4  10  22  39  59  89 123 162 212 256 324 384
#     4  11  23  39  62  91 124 166 210 266 325 388
#     4  12  26  40  61  94 131 168 218 275 334 394
#     4   9  19  39  63  86 117 159 209 256 307 379
#     4   9  21  41  64  92 131 172 214 261 328 401
#     4   9  20  39  66  97 125 168 216 261 325 398
#     4  11  23  38  60  92 129 164 210 271 319 385
#
# _framework density 21.277979999999999
#
# number of rings (size 3 to 8) (size 9 to 14) (size 15 to 20)
#    0.000    1.857    1.429    2.571    8.000    3.143 
#    0.000    3.571    0.000    3.429    0.000    0.000 
#    0.000    0.000    0.000    0.000    0.000    0.000 
#
# Total GULP energy -156380.991483 kJ/mol
# GULP energy per Si atom -5585.035410 kJ/mol
# Density = 2.122955 g / cm^3
# Si number density = 21.277980 Si / 1000 Ang^3
#
#
#
# Elastic Constant Matrix: (Units=GPa)
#
#
# Indices 1 2 3 4 5 6 
#
# 1 136.3628 50.9680 17.8045 0.0000 -3.6837 0.0000
# 2 50.9680 128.9294 8.0694 0.0000 1.6100 0.0000
# 3 17.8045 8.0694 67.1571 0.0000 1.8704 0.0000
# 4 0.0000 0.0000 0.0000 8.1491 0.0000 4.6441
# 5 -3.6837 1.6100 1.8704 0.0000 19.5990 0.0000
# 6 0.0000 0.0000 0.0000 4.6441 0.0000 27.6668
#
#
#
# Elastic Compliance Matrix: (Units=1/GPa)
#
#
# Indices 1 2 3 4 5 6 
#
# 1 0.008939 -0.003434 -0.002017 0.000000 0.002155 0.000000
# 2 -0.003434 0.009140 -0.000149 0.000000 -0.001382 0.000000
# 3 -0.002017 -0.000149 0.015495 0.000000 -0.001846 0.000000
# 4 0.000000 0.000000 0.000000 0.135694 0.000000 -0.022777
# 5 0.002155 -0.001382 -0.001846 0.000000 0.051718 0.000000
# 6 0.000000 0.000000 0.000000 -0.022777 0.000000 0.039968
#
#
# Mechanical properties :
#
#
# Convention : Reuss Voigt Hill
#
# Bulk Modulus (GPa) = 44.69835 54.01477 49.35656
# Shear Modulus (GPa) = 17.88196 28.12348 23.00272
#
# Velocity S-wave (km/s) = 2.90211 3.63949 3.29151
# Velocity P-wave (km/s) = 5.68173 6.56518 6.13937
#
# Compressibility (1/GPa) = 0.02237219
#
# Stress axis : x y z
#
# Youngs Moduli (GPa) = 111.87494 109.40447 64.53876
#
# Poissons Ratio (x) = 0.37572 0.13018
# Poissons Ratio (y) = 0.38420 0.00964
# Poissons Ratio (z) = 0.22567 0.01634
#
# Static dielectric constant tensor:
#      x y z
#    x 1.777360 0.000000 0.028590 
#    y 0.000000 1.794370 0.000000 
#    z 0.028590 0.000000 1.792400 
# 
# From -- ./inp_files/113402.got.cif
#   From: 2010.05.17/outbox.cif.g08.bks.cpg/sg12_57_cif.got.tgz:113402.got - 2010.06.03 13:09:07.
