data_PCOD9213525
_publ_section_title
;
Structure prediction by ZEFSAII (Michael W. Deem and Ramdas Pophale) SiO2 
 PCOD9213525
Probable space group: C 2/M
;
_chemical_formula_sum "Si O2"
_cell_formula_units_Z 48
_cell_length_a 9.099222
_cell_length_b 30.784495
_cell_length_c 8.505414
_cell_angle_alpha 90.000000
_cell_angle_beta 90.703927
_cell_angle_gamma 90.000000
_cell_volume 2382.313846
_symmetry_space_group_name_H-M "C 2/M"
_symmetry_group_IT_number 12
_symmetry_cell_setting 'monoclinic'
loop_
_space_group_symop_operation_xyz
x,y,z
-x,y,-z
-x,-y,-z
x,-y,z
1/2+x,1/2+y,z
1/2-x,1/2+y,-z
1/2-x,1/2-y,-z
1/2+x,1/2-y,z
loop_
_atom_site_type_symbol
_atom_site_label
_atom_site_fract_x
_atom_site_fract_y
_atom_site_fract_z
Si Si1 0.085759 0.950238 0.750152
Si Si2 0.591378 0.121932 0.747031
Si Si3 0.771809 0.377050 0.598540
Si Si4 0.272142 0.450655 0.902182
Si Si5 0.272867 0.221198 0.654127
Si Si6 0.571632 0.217861 0.833168
O O1 0.154382 0.913842 0.639576
O O2 0.915320 0.943549 0.793245
O O3 0.103389 0.000000 0.691802
O O4 0.170926 0.947158 0.918440
O O5 0.672448 0.119783 0.579549
O O6 0.417913 0.117911 0.708763
O O7 0.650051 0.083861 0.856854
O O8 0.628332 0.168505 0.824025
O O9 0.717656 0.327847 0.627768
O O10 0.220836 0.500000 0.876348
O O11 0.250000 0.250000 0.500000
O O12 0.444134 0.219374 0.699728
O O13 0.189653 0.246036 0.791938
O O14 0.500000 0.225501 0.000000
#
# Coordination Sequence:
#
# PCOD9213525 Si02
#       6
#     8   8   8   8   8   8
#     4   9  20  40  62  88 123 157 198 249 297 355
#     4  10  22  38  60  87 122 156 198 246 300 358
#     4  10  22  39  59  88 119 161 200 243 299 358
#     4   9  20  39  61  88 122 159 197 245 302 355
#     4  11  22  43  63  86 125 165 202 247 310 367
#     4  11  24  41  63  90 122 158 205 258 303 359
#
# _framework density 20.148479999999999
#
# number of rings (size 3 to 8) (size 9 to 14) (size 15 to 20)
#    0.000    2.000    1.667    2.000    4.667    3.333 
#    6.000    5.000    0.000    0.000    0.000    0.000 
#    0.000    0.000    0.000    0.000    0.000    0.000 
#
# Total GULP energy -134164.434649 kJ/mol
# GULP energy per Si atom -5590.184777 kJ/mol
# Density = 2.010262 g / cm^3
# Si number density = 20.148480 Si / 1000 Ang^3
#
#
#
# Elastic Constant Matrix: (Units=GPa)
#
#
# Indices 1 2 3 4 5 6 
#
# 1 30.7787 51.1757 15.9144 0.0000 -5.3433 0.0000
# 2 51.1757 143.8652 36.0863 0.0000 -9.3441 0.0000
# 3 15.9144 36.0863 51.7402 0.0000 -11.3551 0.0000
# 4 0.0000 0.0000 0.0000 24.4505 0.0000 2.9429
# 5 -5.3433 -9.3441 -11.3551 0.0000 35.5615 0.0000
# 6 0.0000 0.0000 0.0000 2.9429 0.0000 32.9644
#
#
#
# Elastic Compliance Matrix: (Units=1/GPa)
#
#
# Indices 1 2 3 4 5 6 
#
# 1 0.081328 -0.027419 -0.005152 0.000000 0.003370 0.000000
# 2 -0.027419 0.017673 -0.004062 0.000000 -0.000773 0.000000
# 3 -0.005152 -0.004062 0.025100 0.000000 0.006173 0.000000
# 4 0.000000 0.000000 0.000000 0.041343 0.000000 -0.003691
# 5 0.003370 -0.000773 0.006173 0.000000 0.030395 0.000000
# 6 0.000000 0.000000 0.000000 -0.003691 0.000000 0.030665
#
#
# Mechanical properties :
#
#
# Convention : Reuss Voigt Hill
#
# Bulk Modulus (GPa) = 19.67154 48.08188 33.87671
# Shear Modulus (GPa) = 15.78698 26.80914 21.29806
#
# Velocity S-wave (km/s) = 2.80220 3.65167 3.25477
# Velocity P-wave (km/s) = 4.50047 6.45718 5.56549
#
# Compressibility (1/GPa) = 0.05083485
#
# Stress axis : x y z
#
# Youngs Moduli (GPa) = 12.29581 56.58311 39.84046
#
# Poissons Ratio (x) = 1.55145 0.20527
# Poissons Ratio (y) = 0.33714 0.16184
# Poissons Ratio (z) = 0.06335 0.22985
#
# Static dielectric constant tensor:
#      x y z
#    x 1.703290 0.000000 0.011230 
#    y 0.000000 1.688320 0.000000 
#    z 0.011230 0.000000 1.725590 
# 
# From -- ./inp_files/42176.got.cif
#   From: 2010.05.17/outbox.cif.g08.bks.cpg/sg12_22_cif.got.tgz:42176.got - 2010.06.03 13:09:07.
