data_PCOD9213512
_publ_section_title
;
Structure prediction by ZEFSAII (Michael W. Deem and Ramdas Pophale) SiO2 
 PCOD9213512
Probable space group: C 2/M
;
_chemical_formula_sum "Si O2"
_cell_formula_units_Z 48
_cell_length_a 11.446689
_cell_length_b 32.066227
_cell_length_c 13.869393
_cell_angle_alpha 90.000000
_cell_angle_beta 148.978204
_cell_angle_gamma 90.000000
_cell_volume 2623.610589
_symmetry_space_group_name_H-M "C 2/M"
_symmetry_group_IT_number 12
_symmetry_cell_setting 'monoclinic'
loop_
_space_group_symop_operation_xyz
x,y,z
-x,y,-z
-x,-y,-z
x,-y,z
1/2+x,1/2+y,z
1/2-x,1/2+y,-z
1/2-x,1/2-y,-z
1/2+x,1/2-y,z
loop_
_atom_site_type_symbol
_atom_site_label
_atom_site_fract_x
_atom_site_fract_y
_atom_site_fract_z
Si Si1 0.276814 0.449685 0.291591
Si Si2 0.178440 0.339795 0.710192
Si Si3 0.269968 0.049639 0.967884
Si Si4 0.655892 0.373276 0.983510
Si Si5 0.498714 0.763802 0.708071
Si Si6 0.865491 0.692778 0.002971
O O1 0.500000 0.432141 0.500000
O O2 0.280379 0.500000 0.302815
O O3 0.281199 0.441732 0.180653
O O4 0.035449 0.437876 0.166651
O O5 0.189563 0.369586 0.811758
O O6 0.000000 0.349220 0.500000
O O7 0.115159 0.294929 0.712189
O O8 0.430036 0.346143 0.844809
O O9 0.245215 0.000000 0.966820
O O10 0.120034 0.078962 0.929572
O O11 0.775774 0.350846 0.979240
O O12 0.250000 0.750000 0.500000
O O13 0.495813 0.787160 0.809470
O O14 0.657838 0.723951 0.835417
O O15 0.000000 0.688309 0.000000
#
# Coordination Sequence:
#
# PCOD9213512 Si02
#       6
#     8   8   8   8   8   8
#     4   8  15  29  51  79 109 143 182 230 284 336
#     4  10  22  39  61  78 109 154 191 229 283 339
#     4   9  18  33  57  82 110 151 195 234 281 339
#     4  10  22  39  57  83 116 150 186 238 289 333
#     4  10  22  38  60  83 107 146 196 230 273 343
#     4  10  23  35  56  85 115 146 180 234 287 328
#
# _framework density 18.295397000000001
#
# number of rings (size 3 to 8) (size 9 to 14) (size 15 to 20)
#    0.000    2.500    0.000    2.000   11.667    1.333 
#    0.000    1.667    0.000    1.000    0.000    0.000 
#    0.000    0.000    0.000    0.000    0.000    0.000 
#
# Total GULP energy -133751.792102 kJ/mol
# GULP energy per Si atom -5572.991338 kJ/mol
# Density = 1.825376 g / cm^3
# Si number density = 18.295397 Si / 1000 Ang^3
#
#
#
# Elastic Constant Matrix: (Units=GPa)
#
#
# Indices 1 2 3 4 5 6 
#
# 1 102.1877 47.6473 38.0625 0.0000 -5.7322 0.0000
# 2 47.6473 83.2237 32.7395 0.0000 -1.7232 0.0000
# 3 38.0625 32.7395 133.3955 0.0000 -8.3533 0.0000
# 4 0.0000 0.0000 0.0000 13.6809 0.0000 -1.2850
# 5 -5.7322 -1.7232 -8.3533 0.0000 11.3962 0.0000
# 6 0.0000 0.0000 0.0000 -1.2850 0.0000 13.6466
#
#
#
# Elastic Compliance Matrix: (Units=1/GPa)
#
#
# Indices 1 2 3 4 5 6 
#
# 1 0.014149 -0.007228 -0.001977 0.000000 0.004575 0.000000
# 2 -0.007228 0.016994 -0.002280 0.000000 -0.002737 0.000000
# 3 -0.001977 -0.002280 0.008947 0.000000 0.005219 0.000000
# 4 0.000000 0.000000 0.000000 0.073747 0.000000 0.006944
# 5 0.004575 -0.002737 0.005219 0.000000 0.093462 0.000000
# 6 0.000000 0.000000 0.000000 0.006944 0.000000 0.073932
#
#
# Mechanical properties :
#
#
# Convention : Reuss Voigt Hill
#
# Bulk Modulus (GPa) = 58.40908 61.74506 60.07707
# Shear Modulus (GPa) = 16.13382 21.10191 18.61786
#
# Velocity S-wave (km/s) = 2.97282 3.39986 3.19349
# Velocity P-wave (km/s) = 6.61653 7.01671 6.81956
#
# Compressibility (1/GPa) = 0.01712063
#
# Stress axis : x y z
#
# Youngs Moduli (GPa) = 70.67517 58.84286 111.77055
#
# Poissons Ratio (x) = 0.42534 0.22094
# Poissons Ratio (y) = 0.51087 0.25482
# Poissons Ratio (z) = 0.13970 0.13415
#
# Static dielectric constant tensor:
#      x y z
#    x 1.636210 0.000000 0.007580 
#    y 0.000000 1.651800 0.000000 
#    z 0.007580 0.000000 1.643460 
# 
# From -- ./inp_files/209900.got.cif
#   From: 2010.05.17/outbox.cif.g08.bks.cpg/sg12_105_cif.got.tgz:209900.got - 2010.06.03 13:09:07.
