data_PCOD9213234
_publ_section_title
;
Structure prediction by ZEFSAII (Michael W. Deem and Ramdas Pophale) SiO2 
 PCOD9213234
Probable space group: C 2/M
;
_chemical_formula_sum "Si O2"
_cell_formula_units_Z 48
_cell_length_a 9.701369
_cell_length_b 10.541661
_cell_length_c 23.157463
_cell_angle_alpha 90.000000
_cell_angle_beta 88.682418
_cell_angle_gamma 90.000000
_cell_volume 2367.653834
_symmetry_space_group_name_H-M "C 2/M"
_symmetry_group_IT_number 12
_symmetry_cell_setting 'monoclinic'
loop_
_space_group_symop_operation_xyz
x,y,z
-x,y,-z
-x,-y,-z
x,-y,z
1/2+x,1/2+y,z
1/2-x,1/2+y,-z
1/2-x,1/2-y,-z
1/2+x,1/2-y,z
loop_
_atom_site_type_symbol
_atom_site_label
_atom_site_fract_x
_atom_site_fract_y
_atom_site_fract_z
Si Si1 0.917253 0.135937 0.272035
Si Si2 0.653551 0.356863 0.973915
Si Si3 0.444823 0.145962 0.435083
Si Si4 0.710906 0.289738 0.843780
Si Si5 0.490344 0.144668 0.795403
Si Si6 0.743220 0.146698 0.388763
O O1 0.339804 0.369023 0.211229
O O2 0.006377 0.262022 0.259957
O O3 0.808998 0.153056 0.324413
O O4 0.989960 0.000000 0.280716
O O5 0.701424 0.500000 0.987387
O O6 0.657856 0.339388 0.904921
O O7 0.500000 0.342799 0.000000
O O8 0.750000 0.250000 0.000000
O O9 0.500000 0.153893 0.500000
O O10 0.580384 0.171465 0.394853
O O11 0.327869 0.249413 0.424226
O O12 0.398422 0.000000 0.425326
O O13 0.636445 0.158357 0.827363
O O14 0.874844 0.297585 0.838880
O O15 0.463072 0.000000 0.781092
O O16 0.762943 0.000000 0.409189
#
# Coordination Sequence:
#
# PCOD9213234 Si02
#       6
#     8   8   8   8   8   8
#     4   9  21  38  60  86 120 154 189 239 293 346
#     4  11  24  41  62  87 116 153 196 241 290 344
#     4  10  22  40  61  86 118 156 196 239 287 339
#     4  10  22  40  62  83 120 154 190 236 295 345
#     4  10  22  37  60  87 114 152 195 233 286 349
#     4  10  22  38  59  89 119 152 195 240 288 343
#
# _framework density 20.273235
#
# number of rings (size 3 to 8) (size 9 to 14) (size 15 to 20)
#    1.000    1.000    0.000    3.000    2.333    3.333 
#    0.000    0.000    0.000    0.000    0.000    0.000 
#    0.000    0.000    0.000    0.000    0.000    0.000 
#
# Total GULP energy -133695.232641 kJ/mol
# GULP energy per Si atom -5570.634693 kJ/mol
# Density = 2.022709 g / cm^3
# Si number density = 20.273235 Si / 1000 Ang^3
#
#
#
# Elastic Constant Matrix: (Units=GPa)
#
#
# Indices 1 2 3 4 5 6 
#
# 1 49.7729 57.1766 4.9677 0.0000 -9.0019 0.0000
# 2 57.1766 117.2274 19.3935 0.0000 0.5768 0.0000
# 3 4.9677 19.3935 84.6515 0.0000 -13.0596 0.0000
# 4 0.0000 0.0000 0.0000 -4.2749 0.0000 4.4026
# 5 -9.0019 0.5768 -13.0596 0.0000 33.2600 0.0000
# 6 0.0000 0.0000 0.0000 4.4026 0.0000 25.7938
#
#
#
# Elastic Compliance Matrix: (Units=1/GPa)
#
#
# Indices 1 2 3 4 5 6 
#
# 1 0.054288 -0.027526 0.005813 0.000000 0.017453 0.000000
# 2 -0.027526 0.022855 -0.005143 0.000000 -0.009866 0.000000
# 3 0.005813 -0.005143 0.013739 0.000000 0.007057 0.000000
# 4 0.000000 0.000000 0.000000 -0.198951 0.000000 0.033958
# 5 0.017453 -0.009866 0.007057 0.000000 0.037732 0.000000
# 6 0.000000 0.000000 0.000000 0.033958 0.000000 0.032973
#
#
# Mechanical properties :
#
#
# Convention : Reuss Voigt Hill
#
# Bulk Modulus (GPa) = 26.90311 46.08082 36.49197
# Shear Modulus (GPa) = 173.98257 22.29672 98.13965
#
# Velocity S-wave (km/s) = 9.27390 3.31994 6.96517
# Velocity P-wave (km/s) = 11.31250 6.12170 9.09527
#
# Compressibility (1/GPa) = 0.03717042
#
# Stress axis : x y z
#
# Youngs Moduli (GPa) = 18.42024 43.75347 72.78585
#
# Poissons Ratio (x) = 1.20436 -0.42309
# Poissons Ratio (y) = 0.50704 0.37432
# Poissons Ratio (z) = -0.10707 0.22501
#
# Static dielectric constant tensor:
#      x y z
#    x 1.745920 0.000000 0.000240 
#    y 0.000000 1.740000 0.000000 
#    z 0.000240 0.000000 1.721330 
# 
# From -- ./inp_files/331994.got.cif
#   From: 2010.05.17/outbox.cif.g08.bks.cpg/sg12_166_cif.got.tgz:331994.got - 2010.06.03 13:09:07.
