data_PCOD9213468
_publ_section_title
;
Structure prediction by ZEFSAII (Michael W. Deem and Ramdas Pophale) SiO2 
 PCOD9213468
Probable space group: C 2/M
;
_chemical_formula_sum "Si O2"
_cell_formula_units_Z 48
_cell_length_a 26.508206
_cell_length_b 8.241190
_cell_length_c 11.002195
_cell_angle_alpha 90.000000
_cell_angle_beta 123.691692
_cell_angle_gamma 90.000000
_cell_volume 1999.820294
_symmetry_space_group_name_H-M "C 2/M"
_symmetry_group_IT_number 12
_symmetry_cell_setting 'monoclinic'
loop_
_space_group_symop_operation_xyz
x,y,z
-x,y,-z
-x,-y,-z
x,-y,z
1/2+x,1/2+y,z
1/2-x,1/2+y,-z
1/2-x,1/2-y,-z
1/2+x,1/2-y,z
loop_
_atom_site_type_symbol
_atom_site_label
_atom_site_fract_x
_atom_site_fract_y
_atom_site_fract_z
Si Si1 0.659097 0.192752 0.314789
Si Si2 0.811270 0.694840 0.146560
Si Si3 0.414559 0.183708 0.096606
Si Si4 0.727852 0.194448 0.648671
Si Si5 0.543901 0.500000 0.943373
Si Si6 0.033474 0.000000 0.416144
Si Si7 0.443818 0.179586 0.654683
O O1 0.692993 0.255616 0.482743
O O2 0.701050 0.262570 0.264770
O O3 0.589147 0.215826 0.260720
O O4 0.666847 0.000000 0.315839
O O5 0.811997 0.500000 0.153330
O O6 0.870080 0.736543 0.145818
O O7 0.803968 0.757943 0.273159
O O8 0.750000 0.750000 0.000000
O O9 0.417776 0.333677 0.008061
O O10 0.483989 0.167721 0.233939
O O11 0.397363 0.000000 0.030203
O O12 0.723996 0.000000 0.641631
O O13 0.507749 0.500000 0.764204
O O14 0.500000 0.500000 0.000000
O O15 0.068008 0.829641 0.449326
O O16 0.000000 0.000000 0.500000
O O17 0.422036 0.000000 0.584517
#
# Coordination Sequence:
#
# PCOD9213468 Si02
#       7
#     8   8   8   8   4   4   8
#     4   9  18  34  57  88 118 150 195 235 300 366
#     4  10  22  40  59  84 114 156 205 248 301 352
#     4   9  20  41  64  90 124 159 203 257 307 366
#     4   9  19  36  57  83 117 155 193 247 295 354
#     4  10  22  42  64  92 124 166 206 248 310 379
#     4  10  22  38  58  92 126 154 206 245 298 371
#     4   9  19  37  62  91 123 160 195 249 309 371
#
# _framework density 24.002158000000001
#
# number of rings (size 3 to 8) (size 9 to 14) (size 15 to 20)
#    0.000    2.667    0.000    0.000    2.333    4.000 
#    6.000    5.000    0.000    0.000    0.000    0.000 
#    0.000    0.000    0.000    0.000    0.000    0.000 
#
# Total GULP energy -133902.009266 kJ/mol
# GULP energy per Si atom -5579.250386 kJ/mol
# Density = 2.394753 g / cm^3
# Si number density = 24.002158 Si / 1000 Ang^3
#
#
#
# Elastic Constant Matrix: (Units=GPa)
#
#
# Indices 1 2 3 4 5 6 
#
# 1 245.9573 52.5945 62.4626 0.0000 -15.9809 0.0000
# 2 52.5945 127.6548 6.8856 0.0000 -30.0382 0.0000
# 3 62.4626 6.8856 73.8342 0.0000 -10.8079 0.0000
# 4 0.0000 0.0000 0.0000 -0.0319 0.0000 -8.4662
# 5 -15.9809 -30.0382 -10.8079 0.0000 45.5138 0.0000
# 6 0.0000 0.0000 0.0000 -8.4662 0.0000 40.3970
#
#
#
# Elastic Compliance Matrix: (Units=1/GPa)
#
#
# Indices 1 2 3 4 5 6 
#
# 1 0.005698 -0.002233 -0.004698 0.000000 -0.000589 0.000000
# 2 -0.002233 0.010149 0.001873 0.000000 0.006359 0.000000
# 3 -0.004698 0.001873 0.017906 0.000000 0.003839 0.000000
# 4 0.000000 0.000000 0.000000 -0.553638 0.000000 -0.116028
# 5 -0.000589 0.006359 0.003839 0.000000 0.026873 0.000000
# 6 0.000000 0.000000 0.000000 -0.116028 0.000000 0.000438
#
#
# Mechanical properties :
#
#
# Convention : Reuss Voigt Hill
#
# Bulk Modulus (GPa) = 42.30684 76.81464 59.56074
# Shear Modulus (GPa) = -10.53564 38.87601 14.17018
#
# Velocity S-wave (km/s) = -2.09738 4.02890 2.43239
# Velocity P-wave (km/s) = 3.43500 7.32908 5.72340
#
# Compressibility (1/GPa) = 0.02363684
#
# Stress axis : x y z
#
# Youngs Moduli (GPa) = 175.49532 98.53410 55.84750
#
# Poissons Ratio (x) = 0.22000 0.26240
# Poissons Ratio (y) = 0.39183 -0.10461
# Poissons Ratio (z) = 0.82456 -0.18458
#
# Static dielectric constant tensor:
#      x y z
#    x 1.921300 0.000000 0.011720 
#    y 0.000000 1.962160 0.000000 
#    z 0.011720 0.000000 2.043960 
# 
# From -- ./inp_files/173090.got.cif
#   From: 2010.05.17/outbox.cif.g08.bks.cpg/sg12_87_cif.got.tgz:173090.got - 2010.06.03 13:09:07.
