data_PCOD9213654
_publ_section_title
;
Structure prediction by ZEFSAII (Michael W. Deem and Ramdas Pophale) SiO2 
 PCOD9213654
Probable space group: C 2/M
;
_chemical_formula_sum "Si O2"
_cell_formula_units_Z 52
_cell_length_a 15.241730
_cell_length_b 21.066215
_cell_length_c 11.803252
_cell_angle_alpha 90.000000
_cell_angle_beta 135.600286
_cell_angle_gamma 90.000000
_cell_volume 2651.608248
_symmetry_space_group_name_H-M "C 2/M"
_symmetry_group_IT_number 12
_symmetry_cell_setting 'monoclinic'
loop_
_space_group_symop_operation_xyz
x,y,z
-x,y,-z
-x,-y,-z
x,-y,z
1/2+x,1/2+y,z
1/2-x,1/2+y,-z
1/2-x,1/2-y,-z
1/2+x,1/2-y,z
loop_
_atom_site_type_symbol
_atom_site_label
_atom_site_fract_x
_atom_site_fract_y
_atom_site_fract_z
Si Si1 0.851174 0.713096 0.352985
Si Si2 0.703075 0.072464 0.276534
Si Si3 0.870749 0.305122 0.913613
Si Si4 0.613360 0.131067 0.837069
Si Si5 0.112723 0.000000 0.692250
Si Si6 0.753220 0.000000 0.968289
Si Si7 0.822640 0.616401 0.514050
Si Si8 0.345797 0.000000 0.372242
O O1 0.755376 0.768999 0.237324
O O2 0.844547 0.661987 0.243469
O O3 0.806926 0.681014 0.430123
O O4 0.000000 0.729554 0.500000
O O5 0.623055 0.129114 0.151324
O O6 0.752982 0.097778 0.443284
O O7 0.649011 0.000000 0.243282
O O8 0.808445 0.060278 0.279741
O O9 0.867618 0.320123 0.043508
O O10 0.000000 0.269582 0.000000
O O11 0.466747 0.116058 0.688348
O O12 0.680689 0.065166 0.929446
O O13 0.000000 0.000000 0.500000
O O14 0.121695 0.000000 0.837152
O O15 0.737419 0.000000 0.817859
O O16 0.811819 0.561071 0.413243
O O17 0.500000 0.000000 0.500000
#
# Coordination Sequence:
#
# PCOD9213654 Si02
#       8
#     8   8   8   8   4   4   8   4
#     4  10  24  42  61  87 127 174 216 258 316 389
#     4  10  22  38  63  90 119 159 196 270 322 376
#     4  12  24  40  61  91 126 166 218 268 313 377
#     4  11  20  37  62  95 125 159 209 268 321 379
#     4  10  23  42  58  89 131 168 209 248 311 395
#     4  12  20  33  67  96 118 161 200 264 327 369
#     4  11  19  36  62  92 127 157 203 261 330 377
#     4  12  17  29  61  97 126 150 193 262 327 377
#
# _framework density 19.61074
#
# number of rings (size 3 to 8) (size 9 to 14) (size 15 to 20)
#    0.462    0.615    6.923    0.923    0.000    1.538 
#    0.000    1.538    0.000    0.923    0.000    0.000 
#    0.000    0.000    0.000    0.000    0.000    0.000 
#
# Total GULP energy -144739.988670 kJ/mol
# GULP energy per Si atom -5566.922641 kJ/mol
# Density = 1.956611 g / cm^3
# Si number density = 19.610740 Si / 1000 Ang^3
#
#
#
# Elastic Constant Matrix: (Units=GPa)
#
#
# Indices 1 2 3 4 5 6 
#
# 1 34.1118 17.5709 32.6348 0.0000 -16.0084 0.0000
# 2 17.5709 68.5251 46.9161 0.0000 9.2195 0.0000
# 3 32.6348 46.9161 157.3043 0.0000 -18.8876 0.0000
# 4 0.0000 0.0000 0.0000 9.8798 0.0000 8.0657
# 5 -16.0084 9.2195 -18.8876 0.0000 31.4435 0.0000
# 6 0.0000 0.0000 0.0000 8.0657 0.0000 -18.7350
#
#
#
# Elastic Compliance Matrix: (Units=1/GPa)
#
#
# Indices 1 2 3 4 5 6 
#
# 1 0.055056 -0.016401 -0.002789 0.000000 0.031164 0.000000
# 2 -0.016401 0.026175 -0.006820 0.000000 -0.020122 0.000000
# 3 -0.002789 -0.006820 0.009742 0.000000 0.006432 0.000000
# 4 0.000000 0.000000 0.000000 0.074894 0.000000 0.032243
# 5 0.031164 -0.020122 0.006432 0.000000 0.057432 0.000000
# 6 0.000000 0.000000 0.000000 0.032243 0.000000 -0.039495
#
#
# Mechanical properties :
#
#
# Convention : Reuss Voigt Hill
#
# Bulk Modulus (GPa) = 25.67124 50.46497 38.06810
# Shear Modulus (GPa) = 20.09572 15.37228 17.73400
#
# Velocity S-wave (km/s) = 3.20461 2.80281 3.01042
# Velocity P-wave (km/s) = 5.17799 6.02192 5.61583
#
# Compressibility (1/GPa) = 0.03895410
#
# Stress axis : x y z
#
# Youngs Moduli (GPa) = 18.16325 38.20387 102.64736
#
# Poissons Ratio (x) = 0.62657 0.28626
# Poissons Ratio (y) = 0.29789 0.70008
# Poissons Ratio (z) = 0.05065 0.26056
#
# Static dielectric constant tensor:
#      x y z
#    x 1.738060 0.000000 -0.014010 
#    y 0.000000 1.712280 0.000000 
#    z -0.014010 0.000000 1.853440 
# 
# From -- ./inp_files/159658.got.cif
#   From: 2010.05.17/outbox.cif.g08.bks.cpg/sg12_80_cif.got.tgz:159658.got - 2010.06.03 13:09:07.
