data_PCOD9213239
_publ_section_title
;
Structure prediction by ZEFSAII (Michael W. Deem and Ramdas Pophale) SiO2 
 PCOD9213239
Probable space group: C 2/M
;
_chemical_formula_sum "Si O2"
_cell_formula_units_Z 40
_cell_length_a 13.145824
_cell_length_b 14.138503
_cell_length_c 12.327561
_cell_angle_alpha 90.000000
_cell_angle_beta 106.915815
_cell_angle_gamma 90.000000
_cell_volume 2192.094616
_symmetry_space_group_name_H-M "C 2/M"
_symmetry_group_IT_number 12
_symmetry_cell_setting 'monoclinic'
loop_
_space_group_symop_operation_xyz
x,y,z
-x,y,-z
-x,-y,-z
x,-y,z
1/2+x,1/2+y,z
1/2-x,1/2+y,-z
1/2-x,1/2-y,-z
1/2+x,1/2-y,z
loop_
_atom_site_type_symbol
_atom_site_label
_atom_site_fract_x
_atom_site_fract_y
_atom_site_fract_z
Si Si1 0.816500 0.500000 0.471652
Si Si2 0.870343 0.000000 0.758136
Si Si3 0.019449 0.662670 0.748309
Si Si4 0.533715 0.648641 0.884297
Si Si5 0.844941 0.500000 0.723249
Si Si6 0.717675 0.500000 0.903387
Si Si7 0.320636 0.000000 0.150495
Si Si8 0.500000 0.154321 0.500000
O O1 0.713655 0.500000 0.364937
O O2 0.787874 0.500000 0.589210
O O3 0.895121 0.411784 0.474142
O O4 0.798702 0.000000 0.843729
O O5 0.945911 0.909486 0.788824
O O6 0.035587 0.746372 0.837749
O O7 0.119225 0.591592 0.785853
O O8 0.006424 0.701325 0.620821
O O9 0.920936 0.592960 0.746493
O O10 0.643454 0.591456 0.901873
O O11 0.500000 0.646651 0.000000
O O12 0.765636 0.500000 0.798602
O O13 0.814071 0.500000 0.019094
#
# Coordination Sequence:
#
# PCOD9213239 Si02
#       8
#     4   4   8   8   4   4   4   4
#     4   9  16  36  65  82 110 152 190 230 283 335
#     4  11  19  41  62  82 107 159 198 225 285 341
#     4  10  22  37  60  90 115 146 188 240 285 334
#     4  11  24  40  56  83 119 152 192 237 281 338
#     4   9  22  40  58  86 118 146 185 240 287 332
#     4  11  23  42  57  81 119 153 192 235 284 340
#     4  11  20  36  66  85 107 154 196 231 283 344
#     4   9  16  36  60  87 116 142 188 239 278 333
#
# _framework density 18.247388000000001
#
# number of rings (size 3 to 8) (size 9 to 14) (size 15 to 20)
#    0.000    1.800    4.000    1.800    2.800    3.200 
#    3.600    3.000    0.000    0.000    0.000    0.000 
#    0.000    0.000    0.000    0.000    0.000    0.000 
#
# Total GULP energy -111539.720139 kJ/mol
# GULP energy per Si atom -5576.986007 kJ/mol
# Density = 1.820586 g / cm^3
# Si number density = 18.247388 Si / 1000 Ang^3
#
#
#
# Elastic Constant Matrix: (Units=GPa)
#
#
# Indices 1 2 3 4 5 6 
#
# 1 57.6962 12.2261 34.3160 0.0000 -15.7954 0.0000
# 2 12.2261 83.7235 23.0538 0.0000 -3.0949 0.0000
# 3 34.3160 23.0538 135.6661 0.0000 -10.4108 0.0000
# 4 0.0000 0.0000 0.0000 6.6302 0.0000 0.9483
# 5 -15.7954 -3.0949 -10.4108 0.0000 44.2219 0.0000
# 6 0.0000 0.0000 0.0000 0.9483 0.0000 -4.6174
#
#
#
# Elastic Compliance Matrix: (Units=1/GPa)
#
#
# Indices 1 2 3 4 5 6 
#
# 1 0.022433 -0.001685 -0.004870 0.000000 0.006748 0.000000
# 2 -0.001685 0.012663 -0.001735 0.000000 -0.000124 0.000000
# 3 -0.004870 -0.001735 0.008916 0.000000 0.000238 0.000000
# 4 0.000000 0.000000 0.000000 0.146521 0.000000 0.030093
# 5 0.006748 -0.000124 0.000238 0.000000 0.025071 0.000000
# 6 0.000000 0.000000 0.000000 0.030093 0.000000 -0.210392
#
#
# Mechanical properties :
#
#
# Convention : Reuss Voigt Hill
#
# Bulk Modulus (GPa) = 36.45454 46.25308 41.35381
# Shear Modulus (GPa) = 161.61134 23.07960 92.34547
#
# Velocity S-wave (km/s) = 9.42121 3.56028 7.12161
# Velocity P-wave (km/s) = 11.76294 6.50412 9.50448
#
# Compressibility (1/GPa) = 0.02743142
#
# Stress axis : x y z
#
# Youngs Moduli (GPa) = 44.57632 78.96783 112.15749
#
# Poissons Ratio (x) = 0.13310 0.54622
# Poissons Ratio (y) = 0.07513 0.19460
# Poissons Ratio (z) = 0.21709 0.13702
#
# Static dielectric constant tensor:
#      x y z
#    x 1.606450 0.000000 -0.008530 
#    y 0.000000 1.617450 0.000000 
#    z -0.008530 0.000000 1.640490 
# 
# From -- ./inp_files/129884.got.cif
#   From: 2010.05.17/outbox.cif.g08.bks.cpg/sg12_65_cif.got.tgz:129884.got - 2010.06.03 13:09:07.
