data_PCOD9213691
_publ_section_title
;
Structure prediction by ZEFSAII (Michael W. Deem and Ramdas Pophale) SiO2 
 PCOD9213691
Probable space group: C 2/M
;
_chemical_formula_sum "Si O2"
_cell_formula_units_Z 58
_cell_length_a 18.302196
_cell_length_b 20.493833
_cell_length_c 12.416557
_cell_angle_alpha 90.000000
_cell_angle_beta 141.238349
_cell_angle_gamma 90.000000
_cell_volume 2915.807389
_symmetry_space_group_name_H-M "C 2/M"
_symmetry_group_IT_number 12
_symmetry_cell_setting 'monoclinic'
loop_
_space_group_symop_operation_xyz
x,y,z
-x,y,-z
-x,-y,-z
x,-y,z
1/2+x,1/2+y,z
1/2-x,1/2+y,-z
1/2-x,1/2-y,-z
1/2+x,1/2-y,z
loop_
_atom_site_type_symbol
_atom_site_label
_atom_site_fract_x
_atom_site_fract_y
_atom_site_fract_z
Si Si1 0.839944 0.424779 0.465797
Si Si2 0.684736 0.904629 0.318081
Si Si3 0.773730 0.839653 0.841149
Si Si4 0.431119 0.428186 0.531981
Si Si5 0.000000 0.500000 0.000000
Si Si6 0.465460 0.186672 0.338855
Si Si7 0.505099 0.687452 0.237029
Si Si8 0.371491 0.242217 0.798163
O O1 0.873248 0.500000 0.481935
O O2 0.788438 0.421490 0.526973
O O3 0.753519 0.397572 0.274113
O O4 0.949207 0.374069 0.589650
O O5 0.791066 0.925270 0.362853
O O6 0.666437 0.827741 0.285796
O O7 0.570923 0.943435 0.150151
O O8 0.667886 0.836295 0.803350
O O9 0.780902 0.773753 0.777214
O O10 0.896406 0.839000 0.042682
O O11 0.500000 0.421110 0.500000
O O12 0.461662 0.500000 0.611618
O O13 0.462205 0.368755 0.643852
O O14 0.500000 0.208400 0.500000
O O15 0.475713 0.245747 0.267094
O O16 0.609054 0.707353 0.276462
O O17 0.500000 0.236173 0.000000
#
# Coordination Sequence:
#
# PCOD9213691 Si02
#       8
#     8   8   8   8   2   8   8   8
#     4  11  23  42  67  96 132 174 220 276 336 390
#     4  12  23  43  68  97 133 166 223 273 329 394
#     4  10  24  40  61  95 129 171 219 269 330 398
#     4  11  26  44  62  94 134 176 214 265 330 399
#     4  12  24  44  70 104 128 184 210 284 344 392
#     4  10  22  39  61  96 131 169 219 278 338 392
#     4  11  22  42  64  92 128 173 223 268 329 395
#     4  10  22  38  64  95 124 159 216 276 322 385
#
# _framework density 19.891573999999999
#
# number of rings (size 3 to 8) (size 9 to 14) (size 15 to 20)
#    0.000    1.241    3.448    1.655    5.793    4.138 
#    2.483    0.000    0.000    4.138    0.000    0.000 
#    0.000    0.000    0.000    0.000    0.000    0.000 
#
# Total GULP energy -161730.961950 kJ/mol
# GULP energy per Si atom -5576.929722 kJ/mol
# Density = 1.984630 g / cm^3
# Si number density = 19.891574 Si / 1000 Ang^3
#
#
#
# Elastic Constant Matrix: (Units=GPa)
#
#
# Indices 1 2 3 4 5 6 
#
# 1 77.5022 28.5877 9.7760 0.0000 3.8485 0.0000
# 2 28.5877 156.7939 49.5398 0.0000 -5.9872 0.0000
# 3 9.7760 49.5398 60.1439 0.0000 -3.9572 0.0000
# 4 0.0000 0.0000 0.0000-1865.8004 0.0000 -392.8952
# 5 3.8485 -5.9872 -3.9572 0.0000 19.5063 0.0000
# 6 0.0000 0.0000 0.0000 -392.8952 0.0000 -57.7215
#
#
#
# Elastic Compliance Matrix: (Units=1/GPa)
#
#
# Indices 1 2 3 4 5 6 
#
# 1 0.014087 -0.002580 -0.000405 0.000000 -0.003653 0.000000
# 2 -0.002580 0.009123 -0.006970 0.000000 0.001895 0.000000
# 3 -0.000405 -0.006970 0.022600 0.000000 0.002525 0.000000
# 4 0.000000 0.000000 0.000000 0.001237 0.000000 -0.008419
# 5 -0.003653 0.001895 0.002525 0.000000 0.053080 0.000000
# 6 0.000000 0.000000 0.000000 -0.008419 0.000000 0.039979
#
#
# Mechanical properties :
#
#
# Convention : Reuss Voigt Hill
#
# Bulk Modulus (GPa) = 38.61100 52.24966 45.43033
# Shear Modulus (GPa) = 29.64724 -367.03403 -168.69339
#
# Velocity S-wave (km/s) = 3.86481 -13.59845 -9.21903
# Velocity P-wave (km/s) = 6.27444 14.84025 9.50958
#
# Compressibility (1/GPa) = 0.02589936
#
# Stress axis : x y z
#
# Youngs Moduli (GPa) = 70.98732 109.61445 44.24738
#
# Poissons Ratio (x) = 0.28280 0.01792
# Poissons Ratio (y) = 0.18315 0.30842
# Poissons Ratio (z) = 0.02875 0.76405
#
# Static dielectric constant tensor:
#      x y z
#    x 1.719260 0.000000 0.017780 
#    y 0.000000 1.669420 0.000000 
#    z 0.017780 0.000000 1.713280 
# 
# From -- ./inp_files/159800.got.cif
#   From: 2010.05.17/outbox.cif.g08.bks.cpg/sg12_80_cif.got.tgz:159800.got - 2010.06.03 13:09:07.
