data_PCOD9213096
_publ_section_title
;
Structure prediction by ZEFSAII (Michael W. Deem and Ramdas Pophale) SiO2 
 PCOD9213096
Probable space group: C 2/M
;
_chemical_formula_sum "Si O2"
_cell_formula_units_Z 40
_cell_length_a 7.361819
_cell_length_b 28.925063
_cell_length_c 11.483402
_cell_angle_alpha 90.000000
_cell_angle_beta 43.897379
_cell_angle_gamma 90.000000
_cell_volume 1695.486571
_symmetry_space_group_name_H-M "C 2/M"
_symmetry_group_IT_number 12
_symmetry_cell_setting 'monoclinic'
loop_
_space_group_symop_operation_xyz
x,y,z
-x,y,-z
-x,-y,-z
x,-y,z
1/2+x,1/2+y,z
1/2-x,1/2+y,-z
1/2-x,1/2-y,-z
1/2+x,1/2-y,z
loop_
_atom_site_type_symbol
_atom_site_label
_atom_site_fract_x
_atom_site_fract_y
_atom_site_fract_z
Si Si1 0.572235 0.189182 0.688151
Si Si2 0.000000 0.746638 0.500000
Si Si3 0.270059 0.101773 0.506738
Si Si4 0.261726 0.500000 0.020525
Si Si5 0.295902 0.600783 0.887501
Si Si6 0.882504 0.500000 0.417739
Si Si7 0.000000 0.164149 0.000000
O O1 0.782422 0.219968 0.659783
O O2 0.614011 0.211583 0.541650
O O3 0.646636 0.135959 0.634732
O O4 0.267180 0.192578 0.858737
O O5 0.500000 0.104938 0.500000
O O6 0.990174 0.111148 0.692180
O O7 0.248705 0.049169 0.477249
O O8 0.034408 0.500000 0.222763
O O9 0.500000 0.500000 0.000000
O O10 0.280080 0.546566 0.934152
O O11 0.430083 0.629973 0.927378
O O12 0.000000 0.616140 0.000000
O O13 0.000000 0.500000 0.500000
#
# Coordination Sequence:
#
# PCOD9213096 Si02
#       7
#     8   4   8   4   8   4   4
#     4  11  23  44  71  99 136 178 230 287 352 423
#     4  10  24  44  70 100 130 180 228 290 350 420
#     4  11  20  43  66  98 138 182 224 281 347 410
#     4  12  21  42  64  96 140 188 238 289 345 400
#     4  12  26  41  67 102 139 183 239 291 342 409
#     4  10  22  36  69 101 132 189 231 271 339 414
#     4  12  24  45  68 102 136 182 224 287 362 408
#
# _framework density 23.592047999999998
#
# number of rings (size 3 to 8) (size 9 to 14) (size 15 to 20)
#    0.000    0.800    4.000    4.500    2.800    0.800 
#    0.000    1.000    0.000    0.000    0.000    0.000 
#    0.000    0.000    0.000    0.000    0.000    0.000 
#
# Total GULP energy -111693.592371 kJ/mol
# GULP energy per Si atom -5584.679619 kJ/mol
# Density = 2.353835 g / cm^3
# Si number density = 23.592048 Si / 1000 Ang^3
#
#
#
# Elastic Constant Matrix: (Units=GPa)
#
#
# Indices 1 2 3 4 5 6 
#
# 1 71.8871 16.0215 17.7460 0.0000 -22.6368 0.0000
# 2 16.0215 87.9833 7.3251 0.0000 -11.9285 0.0000
# 3 17.7460 7.3251 143.8422 0.0000 -36.1858 0.0000
# 4 0.0000 0.0000 0.0000 30.5433 0.0000 -34.4591
# 5 -22.6368 -11.9285 -36.1858 0.0000 37.1729 0.0000
# 6 0.0000 0.0000 0.0000 -34.4591 0.0000 7.8696
#
#
#
# Elastic Compliance Matrix: (Units=1/GPa)
#
#
# Indices 1 2 3 4 5 6 
#
# 1 0.017527 -0.001792 0.000621 0.000000 0.010703 0.000000
# 2 -0.001792 0.012090 0.000406 0.000000 0.003184 0.000000
# 3 0.000621 0.000406 0.009247 0.000000 0.009510 0.000000
# 4 0.000000 0.000000 0.000000 -0.008309 0.000000 -0.036385
# 5 0.010703 0.003184 0.009510 0.000000 0.043699 0.000000
# 6 0.000000 0.000000 0.000000 -0.036385 0.000000 -0.032250
#
#
# Mechanical properties :
#
#
# Convention : Reuss Voigt Hill
#
# Bulk Modulus (GPa) = 26.78429 42.87756 34.83093
# Shear Modulus (GPa) = 89.32200 32.62514 60.97357
#
# Velocity S-wave (km/s) = 6.15981 3.72275 5.08931
# Velocity P-wave (km/s) = 7.87202 6.05744 7.02358
#
# Compressibility (1/GPa) = 0.03733532
#
# Stress axis : x y z
#
# Youngs Moduli (GPa) = 57.05457 82.71320 108.14070
#
# Poissons Ratio (x) = 0.14825 -0.06721
# Poissons Ratio (y) = 0.10226 -0.04394
# Poissons Ratio (z) = -0.03546 -0.03361
#
# Static dielectric constant tensor:
#      x y z
#    x 2.037650 0.000000 -0.029360 
#    y 0.000000 1.889150 0.000000 
#    z -0.029360 0.000000 1.888620 
# 
# From -- ./inp_files/201163.got.cif
#   From: 2010.05.17/outbox.cif.g08.bks.cpg/sg12_101_cif.got.tgz:201163.got - 2010.06.03 13:09:07.
