data_PCOD9213572
_publ_section_title
;
Structure prediction by ZEFSAII (Michael W. Deem and Ramdas Pophale) SiO2 
 PCOD9213572
Probable space group: C 2/M
;
_chemical_formula_sum "Si O2"
_cell_formula_units_Z 58
_cell_length_a 22.105981
_cell_length_b 9.408110
_cell_length_c 19.892844
_cell_angle_alpha 90.000000
_cell_angle_beta 133.033306
_cell_angle_gamma 90.000000
_cell_volume 3024.133536
_symmetry_space_group_name_H-M "C 2/M"
_symmetry_group_IT_number 12
_symmetry_cell_setting 'monoclinic'
loop_
_space_group_symop_operation_xyz
x,y,z
-x,y,-z
-x,-y,-z
x,-y,z
1/2+x,1/2+y,z
1/2-x,1/2+y,-z
1/2-x,1/2-y,-z
1/2+x,1/2-y,z
loop_
_atom_site_type_symbol
_atom_site_label
_atom_site_fract_x
_atom_site_fract_y
_atom_site_fract_z
Si Si1 0.000000 0.000000 0.500000
Si Si2 0.183573 0.338277 0.563992
Si Si3 0.101725 0.737920 0.640314
Si Si4 0.176655 0.669249 0.982789
Si Si5 0.016316 0.168470 0.807982
Si Si6 0.844779 0.169328 0.754720
Si Si7 0.275173 0.832394 0.825823
Si Si8 0.036955 0.663230 0.363219
O O1 0.942774 0.122464 0.420888
O O2 0.197218 0.500000 0.552421
O O3 0.136176 0.337695 0.599573
O O4 0.273447 0.275318 0.649024
O O5 0.120777 0.276259 0.461493
O O6 0.182004 0.774124 0.745988
O O7 0.033353 0.659875 0.632744
O O8 0.175995 0.500000 0.967136
O O9 0.192526 0.686321 0.074327
O O10 0.250000 0.750000 0.000000
O O11 0.092124 0.744224 0.896279
O O12 0.935062 0.185973 0.792451
O O13 0.993713 0.235020 0.718839
O O14 0.035297 0.000000 0.816941
O O15 0.830614 0.250005 0.813547
O O16 0.829696 0.000000 0.753018
O O17 0.274623 0.000000 0.809725
O O18 0.049619 0.500000 0.349481
#
# Coordination Sequence:
#
# PCOD9213572 Si02
#       8
#     2   8   8   8   8   8   8   8
#     4  12  20  28  54  88 132 154 190 234 296 358
#     4   9  18  35  57  81 115 152 197 242 290 353
#     4  11  20  33  54  88 124 155 192 235 294 360
#     4  11  24  43  65  92 122 155 193 240 294 353
#     4  11  25  42  61  84 117 154 201 251 299 349
#     4   9  21  41  61  85 115 156 198 243 293 356
#     4  10  22  38  61  87 117 152 194 241 292 344
#     4  11  22  35  57  85 118 160 200 245 301 359
#
# _framework density 19.179048000000002
#
# number of rings (size 3 to 8) (size 9 to 14) (size 15 to 20)
#    0.000    1.655    2.069    2.069    0.966    6.069 
#    0.000    2.759    0.000    0.000    0.000    0.000 
#    0.000    0.000    0.000    0.000    0.000    0.000 
#
# Total GULP energy -161609.526187 kJ/mol
# GULP energy per Si atom -5572.742282 kJ/mol
# Density = 1.913540 g / cm^3
# Si number density = 19.179048 Si / 1000 Ang^3
#
#
#
# Elastic Constant Matrix: (Units=GPa)
#
#
# Indices 1 2 3 4 5 6 
#
# 1 55.2958 33.3190 51.7598 0.0000 19.2213 0.0000
# 2 33.3190 96.0948 72.2140 0.0000 10.0104 0.0000
# 3 51.7598 72.2140 165.6375 0.0000 7.5082 0.0000
# 4 0.0000 0.0000 0.0000 34.7142 0.0000 -4.0395
# 5 19.2213 10.0104 7.5082 0.0000 16.6610 0.0000
# 6 0.0000 0.0000 0.0000 -4.0395 0.0000 36.9522
#
#
#
# Elastic Compliance Matrix: (Units=1/GPa)
#
#
# Indices 1 2 3 4 5 6 
#
# 1 0.046639 -0.002857 -0.011196 0.000000 -0.047044 0.000000
# 2 -0.002857 0.016348 -0.006063 0.000000 -0.003795 0.000000
# 3 -0.011196 -0.006063 0.011667 0.000000 0.011302 0.000000
# 4 0.000000 0.000000 0.000000 0.029178 0.000000 0.003190
# 5 -0.047044 -0.003795 0.011302 0.000000 0.111481 0.000000
# 6 0.000000 0.000000 0.000000 0.003190 0.000000 0.027411
#
#
# Mechanical properties :
#
#
# Convention : Reuss Voigt Hill
#
# Bulk Modulus (GPa) = 29.05047 70.17932 49.61489
# Shear Modulus (GPa) = 16.98200 28.31451 22.64826
#
# Velocity S-wave (km/s) = 2.97887 3.84647 3.44013
# Velocity P-wave (km/s) = 5.19725 7.50987 6.45793
#
# Compressibility (1/GPa) = 0.03442286
#
# Stress axis : x y z
#
# Youngs Moduli (GPa) = 21.44124 61.16849 85.71253
#
# Poissons Ratio (x) = 0.17474 0.95966
# Poissons Ratio (y) = 0.06125 0.51966
# Poissons Ratio (z) = 0.24006 0.37085
#
# Static dielectric constant tensor:
#      x y z
#    x 1.657400 0.000000 0.012940 
#    y 0.000000 1.696830 0.000000 
#    z 0.012940 0.000000 1.676120 
# 
# From -- ./inp_files/324628.got.cif
#   From: 2010.05.17/outbox.cif.g08.bks.cpg/sg12_163_cif.got.tgz:324628.got - 2010.06.03 13:09:07.
