data_PCOD9213253
_publ_section_title
;
Structure prediction by ZEFSAII (Michael W. Deem and Ramdas Pophale) SiO2 
 PCOD9213253
Probable space group: C 2/M
;
_chemical_formula_sum "Si O2"
_cell_formula_units_Z 56
_cell_length_a 14.220904
_cell_length_b 17.831342
_cell_length_c 17.491714
_cell_angle_alpha 90.000000
_cell_angle_beta 39.472191
_cell_angle_gamma 90.000000
_cell_volume 2819.670067
_symmetry_space_group_name_H-M "C 2/M"
_symmetry_group_IT_number 12
_symmetry_cell_setting 'monoclinic'
loop_
_space_group_symop_operation_xyz
x,y,z
-x,y,-z
-x,-y,-z
x,-y,z
1/2+x,1/2+y,z
1/2-x,1/2+y,-z
1/2-x,1/2-y,-z
1/2+x,1/2-y,z
loop_
_atom_site_type_symbol
_atom_site_label
_atom_site_fract_x
_atom_site_fract_y
_atom_site_fract_z
Si Si1 0.433823 0.911093 0.224637
Si Si2 0.352749 0.584781 0.043018
Si Si3 0.307544 0.188039 0.739978
Si Si4 0.323938 0.916951 0.591929
Si Si5 0.356253 0.821950 0.427285
Si Si6 0.665467 0.842803 0.862146
Si Si7 0.248468 0.337937 0.976999
O O1 0.374046 0.860920 0.332916
O O2 0.338155 0.899479 0.206700
O O3 0.594846 0.877190 0.100565
O O4 0.442033 0.000000 0.237894
O O5 0.298766 0.500000 0.070698
O O6 0.239015 0.636263 0.160035
O O7 0.373767 0.621080 0.947301
O O8 0.500000 0.585589 0.000000
O O9 0.270533 0.142248 0.687329
O O10 0.481560 0.202209 0.642934
O O11 0.214380 0.263203 0.798925
O O12 0.500000 0.921779 0.500000
O O13 0.303654 0.885477 0.520026
O O14 0.260979 0.000000 0.642219
O O15 0.250000 0.750000 0.500000
O O16 0.500000 0.838081 0.000000
O O17 0.762476 0.852672 0.877944
O O18 0.250000 0.250000 0.000000
#
# Coordination Sequence:
#
# PCOD9213253 Si02
#       7
#     8   8   8   8   8   8   8
#     4  11  23  39  64  92 123 167 211 254 308 370
#     4  11  23  37  60  92 129 164 200 250 313 377
#     4  11  20  38  60  83 122 160 199 253 316 366
#     4   9  19  34  57  83 112 150 197 255 312 363
#     4  11  22  38  60  92 118 154 211 262 311 368
#     4  10  22  37  61  91 119 160 203 249 292 365
#     4  11  21  37  59  92 128 167 205 253 300 365
#
# _framework density 19.860479000000002
#
# number of rings (size 3 to 8) (size 9 to 14) (size 15 to 20)
#    0.000    1.429    2.857    2.571    2.000    4.286 
#    2.571    0.000    0.000    2.571    0.000    0.000 
#    0.000    0.000    0.000    0.000    0.000    0.000 
#
# Total GULP energy -156268.799534 kJ/mol
# GULP energy per Si atom -5581.028555 kJ/mol
# Density = 1.981528 g / cm^3
# Si number density = 19.860479 Si / 1000 Ang^3
#
#
#
# Elastic Constant Matrix: (Units=GPa)
#
#
# Indices 1 2 3 4 5 6 
#
# 1 103.3261 38.3757 27.6379 -0.0002 31.3577 0.0001
# 2 38.3757 127.6006 37.8366 0.0001 8.9812 0.0000
# 3 27.6379 37.8366 59.6350 0.0002 25.4001 0.0000
# 4 -0.0002 0.0001 0.0002 64.7789 -0.0001 -29.5229
# 5 31.3577 8.9812 25.4001 -0.0001 32.2837 0.0001
# 6 0.0001 0.0000 0.0000 -29.5229 0.0001 55.0003
#
#
#
# Elastic Compliance Matrix: (Units=1/GPa)
#
#
# Indices 1 2 3 4 5 6 
#
# 1 0.015324 -0.004141 0.002067 0.000000 -0.015359 0.000000
# 2 -0.004141 0.010998 -0.008225 0.000000 0.007433 0.000000
# 3 0.002067 -0.008225 0.031449 0.000000 -0.024462 0.000000
# 4 0.000000 0.000000 0.000000 0.020437 0.000000 0.010970
# 5 -0.015359 0.007433 -0.024462 0.000000 0.063072 0.000000
# 6 0.000000 0.000000 0.000000 0.010970 0.000000 0.024070
#
#
# Mechanical properties :
#
#
# Convention : Reuss Voigt Hill
#
# Bulk Modulus (GPa) = 26.90113 55.36245 41.13179
# Shear Modulus (GPa) = 25.20946 42.86002 34.03474
#
# Velocity S-wave (km/s) = 3.56663 4.65053 4.14417
# Velocity P-wave (km/s) = 5.52590 7.53477 6.60713
#
# Compressibility (1/GPa) = 0.03717316
#
# Stress axis : x y z
#
# Youngs Moduli (GPa) = 65.25595 90.92631 31.79801
#
# Poissons Ratio (x) = 0.37649 -0.06572
# Poissons Ratio (y) = 0.27020 0.26154
# Poissons Ratio (z) = -0.13487 0.74787
#
# Static dielectric constant tensor:
#      x y z
#    x 1.794300 0.000000 0.005650 
#    y 0.000000 2.380710 0.000010 
#    z 0.005650 0.000010 1.759210 
# 
# From -- ./inp_files/271411.got.cif
#   From: 2010.05.17/outbox.cif.g08.bks.cpg/sg12_136_cif.got.tgz:271411.got - 2010.06.03 13:09:07.
