data_PCOD9213214
_publ_section_title
;
Structure prediction by ZEFSAII (Michael W. Deem and Ramdas Pophale) SiO2 
 PCOD9213214
Probable space group: C 2/M
;
_chemical_formula_sum "Si O2"
_cell_formula_units_Z 28
_cell_length_a 5.164796
_cell_length_b 25.527230
_cell_length_c 8.364286
_cell_angle_alpha 90.000000
_cell_angle_beta 95.492905
_cell_angle_gamma 90.000000
_cell_volume 1097.708155
_symmetry_space_group_name_H-M "C 2/M"
_symmetry_group_IT_number 12
_symmetry_cell_setting 'monoclinic'
loop_
_space_group_symop_operation_xyz
x,y,z
-x,y,-z
-x,-y,-z
x,-y,z
1/2+x,1/2+y,z
1/2-x,1/2+y,-z
1/2-x,1/2-y,-z
1/2+x,1/2-y,z
loop_
_atom_site_type_symbol
_atom_site_label
_atom_site_fract_x
_atom_site_fract_y
_atom_site_fract_z
Si Si1 0.937602 0.215587 0.812838
Si Si2 0.000000 0.144129 0.500000
Si Si3 0.690324 0.440643 0.136138
Si Si4 0.295119 0.060422 0.668918
O O1 0.645074 0.237747 0.795239
O O2 0.972125 0.176807 0.663362
O O3 0.000000 0.198078 0.000000
O O4 0.244414 0.105514 0.539249
O O5 0.739786 0.500000 0.077715
O O6 0.490372 0.444218 0.270056
O O7 0.973935 0.421160 0.199524
O O8 0.500000 0.413106 0.000000
O O9 0.359723 0.000000 0.628528
#
# Coordination Sequence:
#
# PCOD9213214 Si02
#       4
#     8   4   8   8
#     4  10  24  48  75 103 136 175 228 296 362 424
#     4  12  25  42  72 106 144 188 233 282 352 430
#     4   9  18  36  59  84 125 185 243 289 334 386
#     4  10  22  37  58  94 141 189 232 279 335 403
#
# _framework density 25.507691000000001
#
# number of rings (size 3 to 8) (size 9 to 14) (size 15 to 20)
#    0.000    2.000    0.000    2.143    0.000   10.286 
#    0.000   10.000    0.000    2.571    0.000    0.000 
#    0.000   10.286    0.000    0.000    0.000    1.714 
#
# Total GULP energy -78133.639654 kJ/mol
# GULP energy per Si atom -5580.974261 kJ/mol
# Density = 2.544963 g / cm^3
# Si number density = 25.507691 Si / 1000 Ang^3
#
#
#
# Elastic Constant Matrix: (Units=GPa)
#
#
# Indices 1 2 3 4 5 6 
#
# 1 131.3488 13.2135 34.9073 0.0000 19.6185 0.0000
# 2 13.2135 100.7864 78.0570 0.0000 11.9513 0.0000
# 3 34.9073 78.0570 187.3151 0.0000 16.8062 0.0000
# 4 0.0000 0.0000 0.0000 17.9293 0.0000 17.4037
# 5 19.6185 11.9513 16.8062 0.0000 59.5893 0.0000
# 6 0.0000 0.0000 0.0000 17.4037 0.0000 6.8741
#
#
#
# Elastic Compliance Matrix: (Units=1/GPa)
#
#
# Indices 1 2 3 4 5 6 
#
# 1 0.008330 0.000336 -0.001478 0.000000 -0.002393 0.000000
# 2 0.000336 0.014755 -0.006090 0.000000 -0.001352 0.000000
# 3 -0.001478 -0.006090 0.008206 0.000000 -0.000607 0.000000
# 4 0.000000 0.000000 0.000000 -0.038265 0.000000 0.096880
# 5 -0.002393 -0.001352 -0.000607 0.000000 0.018012 0.000000
# 6 0.000000 0.000000 0.000000 0.096880 0.000000 -0.099806
#
#
# Mechanical properties :
#
#
# Convention : Reuss Voigt Hill
#
# Bulk Modulus (GPa) = 59.42560 74.64512 67.03536
# Shear Modulus (GPa) = -72.78327 36.43004 -18.17661
#
# Velocity S-wave (km/s) = -5.34750 3.78325 -2.67234
# Velocity P-wave (km/s) = 3.84448 6.95782 4.10069
#
# Compressibility (1/GPa) = 0.01682777
#
# Stress axis : x y z
#
# Youngs Moduli (GPa) = 120.05337 67.77502 121.86057
#
# Poissons Ratio (x) = -0.02278 0.18007
# Poissons Ratio (y) = -0.04035 0.74211
# Poissons Ratio (z) = 0.17739 0.41274
#
# Static dielectric constant tensor:
#      x y z
#    x 1.356510 0.000000 0.648690 
#    y 0.000000 2.038490 0.000000 
#    z 0.648690 0.000000 1.330110 
# 
# From -- ./inp_files/34016.got.cif
#   From: 2010.05.17/outbox.cif.g08.bks.cpg/sg12_18_cif.got.tgz:34016.got - 2010.06.03 13:09:07.
