data_PCOD9213564
_publ_section_title
;
Structure prediction by ZEFSAII (Michael W. Deem and Ramdas Pophale) SiO2 
 PCOD9213564
Probable space group: C 2/M
;
_chemical_formula_sum "Si O2"
_cell_formula_units_Z 40
_cell_length_a 23.282530
_cell_length_b 14.669150
_cell_length_c 5.629718
_cell_angle_alpha 90.000000
_cell_angle_beta 80.012469
_cell_angle_gamma 90.000000
_cell_volume 1893.607109
_symmetry_space_group_name_H-M "C 2/M"
_symmetry_group_IT_number 12
_symmetry_cell_setting 'monoclinic'
loop_
_space_group_symop_operation_xyz
x,y,z
-x,y,-z
-x,-y,-z
x,-y,z
1/2+x,1/2+y,z
1/2-x,1/2+y,-z
1/2-x,1/2-y,-z
1/2+x,1/2-y,z
loop_
_atom_site_type_symbol
_atom_site_label
_atom_site_fract_x
_atom_site_fract_y
_atom_site_fract_z
Si Si1 0.153599 0.775413 0.139972
Si Si2 0.480406 0.104985 0.261193
Si Si3 0.465253 0.390844 0.775041
Si Si4 0.854888 0.596278 0.530969
Si Si5 0.768217 0.321915 0.291279
O O1 0.094742 0.833282 0.169986
O O2 0.144025 0.687467 0.315336
O O3 0.209277 0.836240 0.185471
O O4 0.180064 0.727525 0.889079
O O5 0.500000 0.145939 0.500000
O O6 0.411271 0.100275 0.323636
O O7 0.503907 0.000000 0.244343
O O8 0.500000 0.148636 0.000000
O O9 0.500000 0.370530 0.500000
O O10 0.453104 0.500000 0.776746
O O11 0.500000 0.374401 0.000000
O O12 0.858182 0.500000 0.666029
O O13 0.797458 0.597192 0.412267
O O14 0.750000 0.250000 0.500000
#
# Coordination Sequence:
#
# PCOD9213564 Si02
#       5
#     8   8   8   8   8
#     4  10  22  42  67  94 134 174 223 284 345 408
#     4   9  19  35  53  78 121 168 210 256 304 364
#     4  10  24  46  74 107 137 173 230 294 358 418
#     4  10  22  38  60  93 133 176 223 269 321 405
#     4   9  21  41  62  90 127 175 226 277 339 405
#
# _framework density 21.123705999999999
#
# number of rings (size 3 to 8) (size 9 to 14) (size 15 to 20)
#    0.000    2.400    0.000    0.000    8.400    2.400 
#    0.000    8.000    0.000    0.600    0.000    0.000 
#    0.000    0.000    0.000    0.000    0.000    0.000 
#
# Total GULP energy -111425.746993 kJ/mol
# GULP energy per Si atom -5571.287350 kJ/mol
# Density = 2.107563 g / cm^3
# Si number density = 21.123706 Si / 1000 Ang^3
#
#
#
# Elastic Constant Matrix: (Units=GPa)
#
#
# Indices 1 2 3 4 5 6 
#
# 1 146.4151 82.0010 58.1238 0.0000 -0.5116 0.0000
# 2 82.0010 117.9921 45.2136 0.0000 -1.4538 0.0000
# 3 58.1238 45.2136 150.6857 0.0000 -11.7742 0.0000
# 4 0.0000 0.0000 0.0000 -12.4581 0.0000 10.1880
# 5 -0.5116 -1.4538 -11.7742 0.0000 35.8782 0.0000
# 6 0.0000 0.0000 0.0000 10.1880 0.0000 20.5207
#
#
#
# Elastic Compliance Matrix: (Units=1/GPa)
#
#
# Indices 1 2 3 4 5 6 
#
# 1 0.011924 -0.007353 -0.002466 0.000000 -0.000937 0.000000
# 2 -0.007353 0.014122 -0.001400 0.000000 0.000008 0.000000
# 3 -0.002466 -0.001400 0.008211 0.000000 0.002603 0.000000
# 4 0.000000 0.000000 0.000000 -0.057090 0.000000 0.028344
# 5 -0.000937 0.000008 0.002603 0.000000 0.028713 0.000000
# 6 0.000000 0.000000 0.000000 0.028344 0.000000 0.034659
#
#
# Mechanical properties :
#
#
# Convention : Reuss Voigt Hill
#
# Bulk Modulus (GPa) = 84.62099 87.30777 85.96438
# Shear Modulus (GPa) = 74.71706 24.10510 49.41108
#
# Velocity S-wave (km/s) = 5.95382 3.38174 4.84170
# Velocity P-wave (km/s) = 9.34937 7.52792 8.48765
#
# Compressibility (1/GPa) = 0.01181740
#
# Stress axis : x y z
#
# Youngs Moduli (GPa) = 83.86472 70.81051 121.78468
#
# Poissons Ratio (x) = 0.52069 0.30035
# Poissons Ratio (y) = 0.61668 0.17055
# Poissons Ratio (z) = 0.20683 0.09916
#
# Static dielectric constant tensor:
#      x y z
#    x 1.807930 0.000000 0.053440 
#    y 0.000000 1.706440 0.000000 
#    z 0.053440 0.000000 1.798130 
# 
# From -- ./inp_files/24056.got.cif
#   From: 2010.05.17/outbox.cif.g08.bks.cpg/sg12_13_cif.got.tgz:24056.got - 2010.06.03 13:09:07.
