data_PCOD9213466
_publ_section_title
;
Structure prediction by ZEFSAII (Michael W. Deem and Ramdas Pophale) SiO2 
 PCOD9213466
Probable space group: C 2/M
;
_chemical_formula_sum "Si O2"
_cell_formula_units_Z 40
_cell_length_a 10.379797
_cell_length_b 12.806092
_cell_length_c 24.113288
_cell_angle_alpha 90.000000
_cell_angle_beta 29.867622
_cell_angle_gamma 90.000000
_cell_volume 1596.207374
_symmetry_space_group_name_H-M "C 2/M"
_symmetry_group_IT_number 12
_symmetry_cell_setting 'monoclinic'
loop_
_space_group_symop_operation_xyz
x,y,z
-x,y,-z
-x,-y,-z
x,-y,z
1/2+x,1/2+y,z
1/2-x,1/2+y,-z
1/2-x,1/2-y,-z
1/2+x,1/2-y,z
loop_
_atom_site_type_symbol
_atom_site_label
_atom_site_fract_x
_atom_site_fract_y
_atom_site_fract_z
Si Si1 0.844694 0.118239 0.506571
Si Si2 0.081412 0.675645 0.257131
Si Si3 0.811802 0.120191 0.392129
Si Si4 0.714090 0.840574 0.093534
Si Si5 0.668437 0.381090 0.068770
O O1 0.560288 0.120441 0.638758
O O2 0.855786 0.155096 0.439729
O O3 0.000000 0.168617 0.500000
O O4 0.939910 0.000000 0.466882
O O5 0.031131 0.632700 0.213601
O O6 0.381753 0.654322 0.155918
O O7 0.976129 0.794550 0.297245
O O8 0.500000 0.118737 0.500000
O O9 0.895719 0.000000 0.352061
O O10 0.735674 0.714385 0.083613
O O11 0.655860 0.875172 0.052708
O O12 0.000000 0.883038 0.000000
O O13 0.669704 0.500000 0.089180
#
# Coordination Sequence:
#
# PCOD9213466 Si02
#       5
#     8   8   8   8   8
#     4  10  22  38  58  90 128 169 213 258 313 378
#     4  11  22  36  64  89 120 164 210 258 315 374
#     4  10  23  41  61  92 132 172 214 263 318 375
#     4   9  22  41  60  92 124 158 208 258 320 382
#     4  10  22  41  64  91 125 161 205 262 322 384
#
# _framework density 25.059401000000001
#
# number of rings (size 3 to 8) (size 9 to 14) (size 15 to 20)
#    0.000    2.000    0.000    1.800    5.600    5.600 
#    0.000    8.000    0.000    0.000    0.000    0.000 
#    0.000    0.000    0.000    0.000    0.000    0.000 
#
# Total GULP energy -111579.489487 kJ/mol
# GULP energy per Si atom -5578.974474 kJ/mol
# Density = 2.500236 g / cm^3
# Si number density = 25.059401 Si / 1000 Ang^3
#
#
#
# Elastic Constant Matrix: (Units=GPa)
#
#
# Indices 1 2 3 4 5 6 
#
# 1 71.6799 -12.1094 30.3011 0.0011 7.8983 -0.0050
# 2 -12.1094 172.6988 4.6981 -0.0002 -6.6919 -0.0022
# 3 30.3011 4.6981 99.8575 -0.0064 29.5357 0.0065
# 4 0.0011 -0.0002 -0.0064 18.3169 0.0003 -13.5066
# 5 7.8983 -6.6919 29.5357 0.0003 35.8770 0.0073
# 6 -0.0050 -0.0022 0.0065 -13.5066 0.0073 -26.2804
#
#
#
# Elastic Compliance Matrix: (Units=1/GPa)
#
#
# Indices 1 2 3 4 5 6 
#
# 1 0.016309 0.001328 -0.005318 -0.000004 0.001035 -0.000002
# 2 0.001328 0.005988 -0.001228 -0.000001 0.001835 0.000000
# 3 -0.005318 -0.001228 0.015079 0.000005 -0.011472 -0.000001
# 4 -0.000004 -0.000001 0.000005 0.039591 0.000000 -0.020347
# 5 0.001035 0.001835 -0.011472 0.000000 0.037432 0.000007
# 6 -0.000002 0.000000 -0.000001 -0.020347 0.000007 -0.027594
#
#
# Mechanical properties :
#
#
# Convention : Reuss Voigt Hill
#
# Bulk Modulus (GPa) = 37.11622 43.33509 40.22565
# Shear Modulus (GPa) = 47.07269 27.00579 37.03924
#
# Velocity S-wave (km/s) = 4.33880 3.28635 3.84872
# Velocity P-wave (km/s) = 6.32011 5.63299 5.98642
#
# Compressibility (1/GPa) = 0.02694240
#
# Stress axis : x y z
#
# Youngs Moduli (GPa) = 61.31531 166.99864 66.31868
#
# Poissons Ratio (x) = -0.22183 0.35265
# Poissons Ratio (y) = -0.08145 0.08141
# Poissons Ratio (z) = 0.32605 0.20500
#
# Static dielectric constant tensor:
#      x y z
#    x 2.047830 0.000000 -0.059010 
#    y 0.000000 1.991290 0.000000 
#    z -0.059010 0.000000 2.070400 
# 
# From -- ./inp_files/335978.got.cif
#   From: 2010.05.17/outbox.cif.g08.bks.cpg/sg12_168_cif.got.tgz:335978.got - 2010.06.03 13:09:07.
