data_PCOD9213334
_publ_section_title
;
Structure prediction by ZEFSAII (Michael W. Deem and Ramdas Pophale) SiO2 
 PCOD9213334
Probable space group: C 2/M
;
_chemical_formula_sum "Si O2"
_cell_formula_units_Z 48
_cell_length_a 33.750587
_cell_length_b 13.675013
_cell_length_c 17.764081
_cell_angle_alpha 90.000000
_cell_angle_beta 18.200988
_cell_angle_gamma 90.000000
_cell_volume 2560.914862
_symmetry_space_group_name_H-M "C 2/M"
_symmetry_group_IT_number 12
_symmetry_cell_setting 'monoclinic'
loop_
_space_group_symop_operation_xyz
x,y,z
-x,y,-z
-x,-y,-z
x,-y,z
1/2+x,1/2+y,z
1/2-x,1/2+y,-z
1/2-x,1/2-y,-z
1/2+x,1/2-y,z
loop_
_atom_site_type_symbol
_atom_site_label
_atom_site_fract_x
_atom_site_fract_y
_atom_site_fract_z
Si Si1 0.419470 0.881425 0.219425
Si Si2 0.988577 0.609739 0.786328
Si Si3 0.638894 0.381425 0.780576
Si Si4 0.225093 0.109739 0.786332
Si Si5 0.817105 0.250001 0.999999
Si Si6 0.643045 0.388265 0.213911
O O1 0.500968 0.854897 0.146431
O O2 0.271040 0.849867 0.500000
O O3 0.413780 0.000000 0.229531
O O4 0.500000 0.853897 0.000000
O O5 0.930768 0.500000 0.888464
O O6 0.133486 0.600741 0.499998
O O7 0.923448 0.683137 0.846537
O O8 0.643311 0.500000 0.770469
O O9 0.647398 0.354897 0.853571
O O10 0.500000 0.353897 0.000000
O O11 0.180766 0.000000 0.888468
O O12 0.230013 0.183137 0.846541
O O13 0.855424 0.174244 0.865509
O O14 0.720934 0.325758 0.134491
O O15 0.500000 0.394361 0.500000
O O16 0.692023 0.500000 0.115953
#
# Coordination Sequence:
#
# PCOD9213334 Si02
#       6
#     8   8   8   8   8   8
#     4   8  14  27  48  73 103 140 180 221 263 307
#     4   9  18  33  53  77 105 137 176 221 262 303
#     4   8  14  27  48  73 103 140 180 221 263 307
#     4   9  18  33  53  77 105 137 176 221 262 303
#     4  11  20  34  57  78 100 134 173 210 256 319
#     4  10  22  38  54  76 106 134 162 206 264 320
#
# _framework density 18.743302
#
# number of rings (size 3 to 8) (size 9 to 14) (size 15 to 20)
#    0.000    2.833    0.000    4.000    0.000    0.000 
#    0.000    4.167    0.000   20.000    0.000    0.000 
#    0.000    0.000    0.000    0.000    0.000    1.333 
#
# Total GULP energy -133622.180003 kJ/mol
# GULP energy per Si atom -5567.590833 kJ/mol
# Density = 1.870064 g / cm^3
# Si number density = 18.743302 Si / 1000 Ang^3
#
#
#
# Elastic Constant Matrix: (Units=GPa)
#
#
# Indices 1 2 3 4 5 6 
#
# 1 173.6596 72.3248 65.0291 0.0000 7.0834 0.0000
# 2 72.3248 127.9475 38.0593 0.0000 3.1046 0.0000
# 3 65.0291 38.0593 66.4820 0.0000 2.6279 0.0001
# 4 0.0000 0.0000 0.0000 40.0903 0.0000 -8.9962
# 5 7.0834 3.1046 2.6279 0.0000 15.6316 0.0000
# 6 0.0000 0.0000 0.0001 -8.9962 0.0000 -59.1400
#
#
#
# Elastic Compliance Matrix: (Units=1/GPa)
#
#
# Indices 1 2 3 4 5 6 
#
# 1 0.010264 -0.003354 -0.008016 0.000000 -0.002638 0.000000
# 2 -0.003354 0.010530 -0.002743 0.000000 -0.000110 0.000000
# 3 -0.008016 -0.002743 0.024450 0.000000 0.000067 0.000000
# 4 0.000000 0.000000 0.000000 0.024120 0.000000 -0.003669
# 5 -0.002638 -0.000110 0.000067 0.000000 0.065179 0.000000
# 6 0.000000 0.000000 0.000000 -0.003669 0.000000 -0.016351
#
#
# Mechanical properties :
#
#
# Convention : Reuss Voigt Hill
#
# Bulk Modulus (GPa) = 58.75882 79.87950 69.31916
# Shear Modulus (GPa) = 32.87473 12.16143 22.51808
#
# Velocity S-wave (km/s) = 4.19256 2.55000 3.46987
# Velocity P-wave (km/s) = 7.40635 7.16799 7.28815
#
# Compressibility (1/GPa) = 0.01701872
#
# Stress axis : x y z
#
# Youngs Moduli (GPa) = 97.42440 94.96475 40.89926
#
# Poissons Ratio (x) = 0.31849 0.32784
# Poissons Ratio (y) = 0.32673 0.11221
# Poissons Ratio (z) = 0.78094 0.26054
#
# Static dielectric constant tensor:
#      x y z
#    x 1.657580 0.000000 0.002160 
#    y 0.000000 1.805320 0.000000 
#    z 0.002160 0.000000 1.633700 
# 
# From -- ./inp_files/204283.got.cif
#   From: 2010.05.17/outbox.cif.g08.bks.cpg/sg12_103_cif.got.tgz:204283.got - 2010.06.03 13:09:07.
