data_PCOD9213818
_publ_section_title
;
Structure prediction by ZEFSAII (Michael W. Deem and Ramdas Pophale) SiO2 
 PCOD9213818
Probable space group: C 2/M
;
_chemical_formula_sum "Si O2"
_cell_formula_units_Z 40
_cell_length_a 18.831242
_cell_length_b 10.696734
_cell_length_c 31.276040
_cell_angle_alpha 90.000000
_cell_angle_beta 162.563742
_cell_angle_gamma 90.000000
_cell_volume 1887.766915
_symmetry_space_group_name_H-M "C 2/M"
_symmetry_group_IT_number 12
_symmetry_cell_setting 'monoclinic'
loop_
_space_group_symop_operation_xyz
x,y,z
-x,y,-z
-x,-y,-z
x,-y,z
1/2+x,1/2+y,z
1/2-x,1/2+y,-z
1/2-x,1/2-y,-z
1/2+x,1/2-y,z
loop_
_atom_site_type_symbol
_atom_site_label
_atom_site_fract_x
_atom_site_fract_y
_atom_site_fract_z
Si Si1 0.552963 0.147166 0.104063
Si Si2 0.443276 0.643455 0.207100
Si Si3 0.919950 0.133990 0.591185
Si Si4 0.877943 0.139712 0.786495
Si Si5 0.079777 0.224639 0.499241
O O1 0.820406 0.153986 0.239621
O O2 0.549068 0.249440 0.139721
O O3 0.524142 0.000000 0.100834
O O4 0.332855 0.174817 0.946676
O O5 0.483664 0.500000 0.243528
O O6 0.484226 0.648556 0.179106
O O7 0.750000 0.250000 0.500000
O O8 0.959091 0.132953 0.562465
O O9 0.850655 0.229773 0.655872
O O10 0.821420 0.000000 0.548192
O O11 0.602287 0.162215 0.615600
O O12 0.911053 0.000000 0.823321
O O13 0.000000 0.176745 0.500000
#
# Coordination Sequence:
#
# PCOD9213818 Si02
#       5
#     8   8   8   8   8
#     4   9  18  32  49  72 103 139 178 217 261 314
#     4   9  16  28  48  76 108 138 172 217 264 311
#     4  10  22  39  58  79 105 142 183 220 264 319
#     4   9  16  27  47  76 107 140 176 212 257 313
#     4   9  18  33  55  83 111 138 174 220 265 310
#
# _framework density 21.189056999999998
#
# number of rings (size 3 to 8) (size 9 to 14) (size 15 to 20)
#    0.000    2.800    0.000    1.200    0.000    6.800 
#    0.000    5.000    0.000    4.800    0.000    0.000 
#    0.000    0.000    0.000    0.000    0.000    0.000 
#
# Total GULP energy -111548.423439 kJ/mol
# GULP energy per Si atom -5577.421172 kJ/mol
# Density = 2.114083 g / cm^3
# Si number density = 21.189057 Si / 1000 Ang^3
#
#
#
# Elastic Constant Matrix: (Units=GPa)
#
#
# Indices 1 2 3 4 5 6 
#
# 1 63.4303 30.1488 26.7600 -0.0035 -7.9809 0.0037
# 2 30.1488 103.6045 53.5950 0.0109 6.0075 0.0006
# 3 26.7600 53.5950 170.3283 0.0303 9.8038 0.0078
# 4 -0.0035 0.0109 0.0303 14.5646 -0.0019 10.6550
# 5 -7.9809 6.0075 9.8038 -0.0019 31.2536 -0.0017
# 6 0.0037 0.0006 0.0078 10.6550 -0.0017 18.9220
#
#
#
# Elastic Compliance Matrix: (Units=1/GPa)
#
#
# Indices 1 2 3 4 5 6 
#
# 1 0.019862 -0.005200 -0.001868 0.000026 0.006657 -0.000017
# 2 -0.005200 0.012927 -0.003087 -0.000010 -0.002844 0.000007
# 3 -0.001868 -0.003087 0.007260 -0.000020 -0.002161 0.000008
# 4 0.000026 -0.000010 -0.000020 0.116757 0.000018 -0.065746
# 5 0.006657 -0.002844 -0.002161 0.000018 0.034921 -0.000008
# 6 -0.000017 0.000007 0.000008 -0.065746 -0.000008 0.089870
#
#
# Mechanical properties :
#
#
# Convention : Reuss Voigt Hill
#
# Bulk Modulus (GPa) = 50.65633 62.04117 56.34875
# Shear Modulus (GPa) = 16.20815 28.07201 22.14008
#
# Velocity S-wave (km/s) = 2.76874 3.64378 3.23597
# Velocity P-wave (km/s) = 5.84636 6.85902 6.37284
#
# Compressibility (1/GPa) = 0.01974087
#
# Stress axis : x y z
#
# Youngs Moduli (GPa) = 50.34639 77.35720 137.73861
#
# Poissons Ratio (x) = 0.40225 0.25724
# Poissons Ratio (y) = 0.26179 0.42519
# Poissons Ratio (z) = 0.09403 0.23880
#
# Static dielectric constant tensor:
#      x y z
#    x 1.837490 0.000000 0.026030 
#    y 0.000000 1.724200 -0.000010 
#    z 0.026030 -0.000010 1.783980 
# 
# From -- ./inp_files/360613.got.cif
#   From: 2010.05.17/outbox.cif.g08.bks.cpg/sg12_181_cif.got.tgz:360613.got - 2010.06.03 13:09:07.
