data_PCOD9213523
_publ_section_title
;
Structure prediction by ZEFSAII (Michael W. Deem and Ramdas Pophale) SiO2 
 PCOD9213523
Probable space group: C 2/M
;
_chemical_formula_sum "Si O2"
_cell_formula_units_Z 64
_cell_length_a 31.623401
_cell_length_b 13.812378
_cell_length_c 10.894169
_cell_angle_alpha 90.000000
_cell_angle_beta 37.035523
_cell_angle_gamma 90.000000
_cell_volume 2866.099429
_symmetry_space_group_name_H-M "C 2/M"
_symmetry_group_IT_number 12
_symmetry_cell_setting 'monoclinic'
loop_
_space_group_symop_operation_xyz
x,y,z
-x,y,-z
-x,-y,-z
x,-y,z
1/2+x,1/2+y,z
1/2-x,1/2+y,-z
1/2-x,1/2-y,-z
1/2+x,1/2-y,z
loop_
_atom_site_type_symbol
_atom_site_label
_atom_site_fract_x
_atom_site_fract_y
_atom_site_fract_z
Si Si1 0.600121 0.883720 0.064549
Si Si2 0.392010 0.383672 0.765531
Si Si3 0.529939 0.199668 0.749651
Si Si4 0.263428 0.885027 0.856184
Si Si5 0.998444 0.885954 0.295939
Si Si6 0.904843 0.386283 0.650387
Si Si7 0.744915 0.886149 0.607760
Si Si8 0.672162 0.198253 0.539453
O O1 0.546880 0.846863 0.083788
O O2 0.577542 0.851082 0.254015
O O3 0.596225 0.000000 0.074992
O O4 0.680885 0.859871 0.848375
O O5 0.390005 0.500000 0.774478
O O6 0.442061 0.364815 0.534537
O O7 0.427743 0.357194 0.811837
O O8 0.313429 0.348773 0.930166
O O9 0.519073 0.314812 0.772799
O O10 0.562764 0.165494 0.542533
O O11 0.589474 0.176850 0.711176
O O12 0.320977 0.878439 0.829040
O O13 0.291781 0.829582 0.672525
O O14 0.259360 0.000000 0.834372
O O15 0.997414 0.000000 0.271373
O O16 0.923887 0.500000 0.596514
O O17 0.709446 0.865004 0.557878
O O18 0.808397 0.810464 0.478206
O O19 0.762795 0.000000 0.579401
#
# Coordination Sequence:
#
# PCOD9213523 Si02
#       8
#     8   8   8   8   8   8   8   8
#     4  10  22  38  60  87 115 154 195 236 288 341
#     4   8  16  30  48  74 110 154 195 225 265 327
#     4  11  22  34  58  86 119 155 185 235 286 339
#     4   9  17  32  57  84 115 150 185 235 284 332
#     4   9  19  32  47  75 115 155 191 225 271 334
#     4   9  19  34  52  84 121 150 187 230 282 342
#     4  10  23  44  65  83 112 149 191 244 291 338
#     4  10  23  40  59  89 112 143 196 236 288 348
#
# _framework density 22.329999999999998
#
# number of rings (size 3 to 8) (size 9 to 14) (size 15 to 20)
#    0.000    2.500    0.000    1.875    5.250    4.500 
#    0.000    6.250    0.000    0.000    0.000    2.625 
#    0.000    0.000    0.000    0.000    0.000    0.000 
#
# Total GULP energy -178692.984770 kJ/mol
# GULP energy per Si atom -5584.155774 kJ/mol
# Density = 2.227918 g / cm^3
# Si number density = 22.330000 Si / 1000 Ang^3
#
#
#
# Elastic Constant Matrix: (Units=GPa)
#
#
# Indices 1 2 3 4 5 6 
#
# 1 94.9186 14.6822 18.6040 0.0000 -4.0869 0.0000
# 2 14.6822 86.0422 -7.5101 0.0000 9.4259 0.0000
# 3 18.6040 -7.5101 25.2077 0.0000 -0.1097 0.0000
# 4 0.0000 0.0000 0.0000 17.5501 0.0000 -6.5804
# 5 -4.0869 9.4259 -0.1097 0.0000 19.0144 0.0000
# 6 0.0000 0.0000 0.0000 -6.5804 0.0000 17.9758
#
#
#
# Elastic Compliance Matrix: (Units=1/GPa)
#
#
# Indices 1 2 3 4 5 6 
#
# 1 0.013492 -0.003784 -0.011065 0.000000 0.004712 0.000000
# 2 -0.003784 0.013693 0.006840 0.000000 -0.007562 0.000000
# 3 -0.011065 0.006840 0.049850 0.000000 -0.005481 0.000000
# 4 0.000000 0.000000 0.000000 0.066045 0.000000 0.024177
# 5 0.004712 -0.007562 -0.005481 0.000000 0.057321 0.000000
# 6 0.000000 0.000000 0.000000 0.024177 0.000000 0.064481
#
#
# Mechanical properties :
#
#
# Convention : Reuss Voigt Hill
#
# Bulk Modulus (GPa) = 16.38875 28.63565 22.51220
# Shear Modulus (GPa) = 16.59802 22.93422 19.76612
#
# Velocity S-wave (km/s) = 2.72932 3.20825 2.97843
# Velocity P-wave (km/s) = 4.15783 5.15515 4.68311
#
# Compressibility (1/GPa) = 0.06101747
#
# Stress axis : x y z
#
# Youngs Moduli (GPa) = 74.11654 73.02809 20.06002
#
# Poissons Ratio (x) = 0.27636 0.22196
# Poissons Ratio (y) = 0.28048 -0.13720
# Poissons Ratio (z) = 0.82007 -0.49949
#
# Static dielectric constant tensor:
#      x y z
#    x 1.816860 0.000000 -0.024760 
#    y 0.000000 1.836890 0.000000 
#    z -0.024760 0.000000 1.854000 
# 
# From -- ./inp_files/189449.got.cif
#   From: 2010.05.17/outbox.cif.g08.bks.cpg/sg12_95_cif.got.tgz:189449.got - 2010.06.03 13:09:07.
