data_PCOD9213721
_publ_section_title
;
Structure prediction by ZEFSAII (Michael W. Deem and Ramdas Pophale) SiO2 
 PCOD9213721
Probable space group: C 2/M
;
_chemical_formula_sum "Si O2"
_cell_formula_units_Z 58
_cell_length_a 18.826665
_cell_length_b 21.249913
_cell_length_c 14.908706
_cell_angle_alpha 90.000000
_cell_angle_beta 149.898059
_cell_angle_gamma 90.000000
_cell_volume 2991.411210
_symmetry_space_group_name_H-M "C 2/M"
_symmetry_group_IT_number 12
_symmetry_cell_setting 'monoclinic'
loop_
_space_group_symop_operation_xyz
x,y,z
-x,y,-z
-x,-y,-z
x,-y,z
1/2+x,1/2+y,z
1/2-x,1/2+y,-z
1/2-x,1/2-y,-z
1/2+x,1/2-y,z
loop_
_atom_site_type_symbol
_atom_site_label
_atom_site_fract_x
_atom_site_fract_y
_atom_site_fract_z
Si Si1 0.531115 0.426946 0.830113
Si Si2 0.937515 0.260098 0.660473
Si Si3 0.687897 0.398890 0.814561
Si Si4 0.000000 0.000000 0.500000
Si Si5 0.123677 0.246542 0.706660
Si Si6 0.992776 0.429025 0.885231
Si Si7 0.927503 0.802881 0.016542
Si Si8 0.261006 0.355448 0.474233
O O1 0.540490 0.500000 0.866180
O O2 0.628368 0.415207 0.848509
O O3 0.370558 0.408053 0.626471
O O4 0.569728 0.375061 0.946482
O O5 0.825192 0.316225 0.544735
O O6 0.856091 0.198824 0.532230
O O7 0.069238 0.274460 0.741754
O O8 0.991972 0.237579 0.817817
O O9 0.606768 0.445321 0.658002
O O10 0.651738 0.327153 0.752423
O O11 0.856710 0.407763 0.990060
O O12 0.268341 0.278789 0.836631
O O13 0.000000 0.256207 0.500000
O O14 0.964420 0.500000 0.822074
O O15 0.861444 0.385403 0.717722
O O16 0.000000 0.429877 0.000000
O O17 0.000000 0.795878 0.000000
#
# Coordination Sequence:
#
# PCOD9213721 Si02
#       8
#     8   8   8   2   8   8   8   8
#     4  11  24  44  69  91 126 180 226 267 332 391
#     4  10  23  43  65  95 130 169 213 270 331 393
#     4  12  24  40  64  94 134 178 219 261 323 408
#     4  12  24  40  62  96 138 172 222 262 310 412
#     4  12  26  40  70 100 132 174 214 270 341 395
#     4  11  25  37  56  92 133 169 212 264 321 384
#     4  11  26  44  69 100 132 169 229 280 325 390
#     4  10  22  38  66  87 128 164 219 265 323 387
#
# _framework density 19.388843000000001
#
# number of rings (size 3 to 8) (size 9 to 14) (size 15 to 20)
#    0.000    0.966    4.828    1.655   11.586    1.379 
#    0.000    0.000    0.000    0.414    0.000    0.000 
#    0.000    0.000    0.000    0.000    0.000    0.000 
#
# Total GULP energy -161847.470646 kJ/mol
# GULP energy per Si atom -5580.947264 kJ/mol
# Density = 1.934471 g / cm^3
# Si number density = 19.388843 Si / 1000 Ang^3
#
#
#
# Elastic Constant Matrix: (Units=GPa)
#
#
# Indices 1 2 3 4 5 6 
#
# 1 130.3741 49.4111 57.2765 0.0000 22.5722 0.0000
# 2 49.4111 71.1739 33.1857 0.0000 10.5247 0.0000
# 3 57.2765 33.1857 105.2922 0.0000 17.7651 0.0000
# 4 0.0000 0.0000 0.0000 30.2597 0.0000 1.2836
# 5 22.5722 10.5247 17.7651 0.0000 28.8576 0.0000
# 6 0.0000 0.0000 0.0000 1.2836 0.0000 17.0652
#
#
#
# Elastic Compliance Matrix: (Units=1/GPa)
#
#
# Indices 1 2 3 4 5 6 
#
# 1 0.012690 -0.006135 -0.004098 0.000000 -0.005166 0.000000
# 2 -0.006135 0.019695 -0.002754 0.000000 -0.000689 0.000000
# 3 -0.004098 -0.002754 0.013262 0.000000 -0.003954 0.000000
# 4 0.000000 0.000000 0.000000 0.033153 0.000000 -0.002494
# 5 -0.005166 -0.000689 -0.003954 0.000000 0.041379 0.000000
# 6 0.000000 0.000000 0.000000 -0.002494 0.000000 0.058786
#
#
# Mechanical properties :
#
#
# Convention : Reuss Voigt Hill
#
# Bulk Modulus (GPa) = 50.83085 65.17632 58.00358
# Shear Modulus (GPa) = 23.64096 26.36762 25.00429
#
# Velocity S-wave (km/s) = 3.49565 3.69173 3.59503
# Velocity P-wave (km/s) = 6.52428 7.20140 6.87119
#
# Compressibility (1/GPa) = 0.01967309
#
# Stress axis : x y z
#
# Youngs Moduli (GPa) = 78.80117 50.77359 75.40548
#
# Poissons Ratio (x) = 0.31151 0.30900
# Poissons Ratio (y) = 0.48347 0.20765
# Poissons Ratio (z) = 0.32291 0.13982
#
# Static dielectric constant tensor:
#      x y z
#    x 1.708250 0.000000 -0.009390 
#    y 0.000000 1.687200 0.000000 
#    z -0.009390 0.000000 1.669530 
# 
# From -- ./inp_files/228004.got.cif
#   From: 2010.05.17/outbox.cif.g08.bks.cpg/sg12_115_cif.got.tgz:228004.got - 2010.06.03 13:09:07.
