data_PCOD9213607
_publ_section_title
;
Structure prediction by ZEFSAII (Michael W. Deem and Ramdas Pophale) SiO2 
 PCOD9213607
Probable space group: C 2/M
;
_chemical_formula_sum "Si O2"
_cell_formula_units_Z 56
_cell_length_a 12.574443
_cell_length_b 19.560630
_cell_length_c 11.789051
_cell_angle_alpha 90.000000
_cell_angle_beta 108.145317
_cell_angle_gamma 90.000000
_cell_volume 2755.480411
_symmetry_space_group_name_H-M "C 2/M"
_symmetry_group_IT_number 12
_symmetry_cell_setting 'monoclinic'
loop_
_space_group_symop_operation_xyz
x,y,z
-x,y,-z
-x,-y,-z
x,-y,z
1/2+x,1/2+y,z
1/2-x,1/2+y,-z
1/2-x,1/2-y,-z
1/2+x,1/2-y,z
loop_
_atom_site_type_symbol
_atom_site_label
_atom_site_fract_x
_atom_site_fract_y
_atom_site_fract_z
Si Si1 0.716741 0.920616 0.257134
Si Si2 0.734264 0.695538 0.330584
Si Si3 0.505267 0.286995 0.136750
Si Si4 0.866806 0.176675 0.453557
Si Si5 0.519406 0.861512 0.871145
Si Si6 0.270471 0.922507 0.170258
Si Si7 0.126741 0.078558 0.903105
O O1 0.806913 0.884344 0.366873
O O2 0.598389 0.882494 0.222928
O O3 0.768270 0.917431 0.147403
O O4 0.701836 0.000000 0.280992
O O5 0.630862 0.722840 0.221632
O O6 0.828037 0.752979 0.379902
O O7 0.683010 0.678794 0.436379
O O8 0.772565 0.629029 0.275413
O O9 0.444527 0.216104 0.149436
O O10 0.454883 0.359523 0.159006
O O11 0.500000 0.288925 0.000000
O O12 0.000000 0.170699 0.500000
O O13 0.615936 0.911594 0.862320
O O14 0.500000 0.864613 0.000000
O O15 0.259397 0.000000 0.205495
O O16 0.170916 0.909549 0.045919
O O17 0.082436 0.000000 0.881314
#
# Coordination Sequence:
#
# PCOD9213607 Si02
#       7
#     8   8   8   8   8   8   8
#     4  11  23  42  67  96 130 173 227 276 327 397
#     4  11  25  44  67 100 133 174 222 276 338 397
#     4  11  22  38  65 100 130 172 213 271 337 397
#     4  11  26  47  70  93 129 178 229 280 330 391
#     4  11  23  38  66 102 141 177 221 267 334 409
#     4  11  24  40  64 100 142 181 215 270 340 401
#     4  10  22  38  61  97 138 176 215 270 334 396
#
# _framework density 20.323134
#
# number of rings (size 3 to 8) (size 9 to 14) (size 15 to 20)
#    0.000    1.143    4.286    1.286    4.000    2.857 
#    0.000    0.000    0.000    2.143    0.000    0.000 
#    0.000    0.000    0.000    0.000    0.000    0.000 
#
# Total GULP energy -156476.028202 kJ/mol
# GULP energy per Si atom -5588.429579 kJ/mol
# Density = 2.027688 g / cm^3
# Si number density = 20.323134 Si / 1000 Ang^3
#
#
#
# Elastic Constant Matrix: (Units=GPa)
#
#
# Indices 1 2 3 4 5 6 
#
# 1 60.7093 37.6819 23.8186 0.0000 20.8217 0.0000
# 2 37.6819 142.3814 44.3936 0.0000 10.9008 0.0000
# 3 23.8186 44.3936 96.2486 0.0000 9.3128 0.0000
# 4 0.0000 0.0000 0.0000 17.4397 0.0000 1.5229
# 5 20.8217 10.9008 9.3128 0.0000 35.3696 0.0000
# 6 0.0000 0.0000 0.0000 1.5229 0.0000 30.8859
#
#
#
# Elastic Compliance Matrix: (Units=1/GPa)
#
#
# Indices 1 2 3 4 5 6 
#
# 1 0.024737 -0.004746 -0.002735 0.000000 -0.012379 0.000000
# 2 -0.004746 0.009200 -0.003145 0.000000 0.000787 0.000000
# 3 -0.002735 -0.003145 0.012588 0.000000 -0.000735 0.000000
# 4 0.000000 0.000000 0.000000 0.057588 0.000000 -0.002839
# 5 -0.012379 0.000787 -0.000735 0.000000 0.035512 0.000000
# 6 0.000000 0.000000 0.000000 -0.002839 0.000000 0.032517
#
#
# Mechanical properties :
#
#
# Convention : Reuss Voigt Hill
#
# Bulk Modulus (GPa) = 39.56768 56.79194 48.17981
# Shear Modulus (GPa) = 24.77481 29.63538 27.20510
#
# Velocity S-wave (km/s) = 3.49527 3.82279 3.66269
# Velocity P-wave (km/s) = 5.98337 6.89131 6.45333
#
# Compressibility (1/GPa) = 0.02527315
#
# Stress axis : x y z
#
# Youngs Moduli (GPa) = 40.42587 108.69765 79.43948
#
# Poissons Ratio (x) = 0.51591 0.21724
# Poissons Ratio (y) = 0.19187 0.24983
# Poissons Ratio (z) = 0.11055 0.34184
#
# Static dielectric constant tensor:
#      x y z
#    x 1.714440 0.000000 -0.005320 
#    y 0.000000 1.737170 0.000000 
#    z -0.005320 0.000000 1.701890 
# 
# From -- ./inp_files/145672.got.cif
#   From: 2010.05.17/outbox.cif.g08.bks.cpg/sg12_73_cif.got.tgz:145672.got - 2010.06.03 13:09:07.
