data_PCOD9213576
_publ_section_title
;
Structure prediction by ZEFSAII (Michael W. Deem and Ramdas Pophale) SiO2 
 PCOD9213576
Probable space group: C 2/M
;
_chemical_formula_sum "Si O2"
_cell_formula_units_Z 32
_cell_length_a 17.141730
_cell_length_b 20.916058
_cell_length_c 4.919066
_cell_angle_alpha 90.000000
_cell_angle_beta 58.042194
_cell_angle_gamma 90.000000
_cell_volume 1496.364188
_symmetry_space_group_name_H-M "C 2/M"
_symmetry_group_IT_number 12
_symmetry_cell_setting 'monoclinic'
loop_
_space_group_symop_operation_xyz
x,y,z
-x,y,-z
-x,-y,-z
x,-y,z
1/2+x,1/2+y,z
1/2-x,1/2+y,-z
1/2-x,1/2-y,-z
1/2+x,1/2-y,z
loop_
_atom_site_type_symbol
_atom_site_label
_atom_site_fract_x
_atom_site_fract_y
_atom_site_fract_z
Si Si1 0.938184 0.313151 0.376478
Si Si2 0.248080 0.851672 0.516075
Si Si3 0.653873 0.690094 0.182676
Si Si4 0.411980 0.427805 0.968863
O O1 0.851420 0.353718 0.430318
O O2 0.898991 0.248417 0.587219
O O3 0.000000 0.344161 0.500000
O O4 0.000000 0.297480 0.000000
O O5 0.235989 0.831892 0.228431
O O6 0.183348 0.913022 0.692713
O O7 0.195299 0.799435 0.805961
O O8 0.593134 0.626931 0.248785
O O9 0.412493 0.500000 0.863478
O O10 0.500000 0.418911 0.000000
#
# Coordination Sequence:
#
# PCOD9213576 Si02
#       4
#     8   8   8   8
#     4  12  24  37  63  93 128 165 207 256 312 374
#     4  10  22  40  62  90 127 163 207 257 311 369
#     4  10  22  38  61  88 128 162 204 256 309 371
#     4   9  22  41  67  94 123 163 211 257 309 372
#
# _framework density 21.385166000000002
#
# number of rings (size 3 to 8) (size 9 to 14) (size 15 to 20)
#    1.500    0.250    0.000    4.500    3.500    1.000 
#    0.000    2.500    0.000    2.250    0.000    0.000 
#    0.000    0.000    0.000    0.000    0.000    0.000 
#
# Total GULP energy -89288.134378 kJ/mol
# GULP energy per Si atom -5580.508399 kJ/mol
# Density = 2.133649 g / cm^3
# Si number density = 21.385166 Si / 1000 Ang^3
#
#
#
# Elastic Constant Matrix: (Units=GPa)
#
#
# Indices 1 2 3 4 5 6 
#
# 1 168.0132 43.9906 8.4331 0.0000 -18.3469 0.0000
# 2 43.9906 82.2437 7.4839 0.0000 -14.8011 0.0000
# 3 8.4331 7.4839 76.5531 0.0000 0.2348 0.0000
# 4 0.0000 0.0000 0.0000 -7.3571 0.0000 -2.2245
# 5 -18.3469 -14.8011 0.2348 0.0000 39.8657 0.0000
# 6 0.0000 0.0000 0.0000 -2.2245 0.0000 27.0802
#
#
#
# Elastic Compliance Matrix: (Units=1/GPa)
#
#
# Indices 1 2 3 4 5 6 
#
# 1 0.007080 -0.003385 -0.000455 0.000000 0.002004 0.000000
# 2 -0.003385 0.014776 -0.001084 0.000000 0.003935 0.000000
# 3 -0.000455 -0.001084 0.013221 0.000000 -0.000690 0.000000
# 4 0.000000 0.000000 0.000000 -0.132629 0.000000 -0.010895
# 5 0.002004 0.003935 -0.000690 0.000000 0.027472 0.000000
# 6 0.000000 0.000000 0.000000 -0.010895 0.000000 0.036032
#
#
# Mechanical properties :
#
#
# Convention : Reuss Voigt Hill
#
# Bulk Modulus (GPa) = 39.63580 49.62502 44.63041
# Shear Modulus (GPa) = -316.64710 29.71123 -143.46794
#
# Velocity S-wave (km/s) = -12.18154 3.73143 -8.19959
# Velocity P-wave (km/s) = 13.38951 6.46687 8.29031
#
# Compressibility (1/GPa) = 0.02522972
#
# Stress axis : x y z
#
# Youngs Moduli (GPa) = 141.24592 67.67658 75.63702
#
# Poissons Ratio (x) = 0.22907 0.03443
# Poissons Ratio (y) = 0.47808 0.08197
# Poissons Ratio (z) = 0.06429 0.07334
#
# Static dielectric constant tensor:
#      x y z
#    x 1.806000 0.000000 -0.029470 
#    y 0.000000 1.749020 0.000000 
#    z -0.029470 0.000000 1.845010 
# 
# From -- ./inp_files/11082.got.cif
#   From: 2010.05.17/outbox.cif.g08.bks.cpg/sg12_6_cif.got.tgz:11082.got - 2010.06.03 13:09:07.
