data_PCOD9213057
_publ_section_title
;
Structure prediction by ZEFSAII (Michael W. Deem and Ramdas Pophale) SiO2 
 PCOD9213057
Probable space group: C 2/M
;
_chemical_formula_sum "Si O2"
_cell_formula_units_Z 40
_cell_length_a 20.121784
_cell_length_b 10.114131
_cell_length_c 17.397512
_cell_angle_alpha 90.000000
_cell_angle_beta 141.516766
_cell_angle_gamma 90.000000
_cell_volume 2203.291476
_symmetry_space_group_name_H-M "C 2/M"
_symmetry_group_IT_number 12
_symmetry_cell_setting 'monoclinic'
loop_
_space_group_symop_operation_xyz
x,y,z
-x,y,-z
-x,-y,-z
x,-y,z
1/2+x,1/2+y,z
1/2-x,1/2+y,-z
1/2-x,1/2-y,-z
1/2+x,1/2-y,z
loop_
_atom_site_type_symbol
_atom_site_label
_atom_site_fract_x
_atom_site_fract_y
_atom_site_fract_z
Si Si1 0.375133 0.000000 0.408182
Si Si2 0.184501 0.725448 0.758517
Si Si3 0.827725 0.842571 0.019791
Si Si4 0.501669 0.749462 0.287558
Si Si5 0.637012 0.500000 0.464497
Si Si6 0.356299 0.000000 0.574264
Si Si7 0.371293 0.500000 0.369161
O O1 0.500000 0.000000 0.500000
O O2 0.327022 0.127942 0.323280
O O3 0.357666 0.000000 0.482872
O O4 0.088543 0.700939 0.733301
O O5 0.165929 0.872666 0.711724
O O6 0.294014 0.696479 0.903099
O O7 0.942845 0.805571 0.158321
O O8 0.809334 0.000000 0.013904
O O9 0.750000 0.750000 0.000000
O O10 0.565422 0.629270 0.384203
O O11 0.580196 0.869835 0.341984
O O12 0.737608 0.500000 0.499425
O O13 0.674936 0.500000 0.586850
O O14 0.500000 0.500000 0.500000
#
# Coordination Sequence:
#
# PCOD9213057 Si02
#       7
#     4   8   8   8   4   4   4
#     4  12  20  37  59  85 125 152 192 250 293 344
#     4  11  21  36  62  91 119 152 196 247 300 347
#     4  10  22  36  59  91 122 154 196 248 301 350
#     4  11  21  39  61  86 126 156 197 249 294 352
#     4  12  24  41  59  87 125 162 200 239 301 358
#     4  12  26  37  61  91 119 164 200 241 297 362
#     4  12  22  37  61  87 123 156 192 250 299 348
#
# _framework density 18.154655999999999
#
# number of rings (size 3 to 8) (size 9 to 14) (size 15 to 20)
#    0.000    0.800    6.000    2.400    8.400    0.000 
#    0.000    0.000    0.000    7.200    0.000    0.000 
#    0.000    0.000    0.000    0.000    0.000    0.000 
#
# Total GULP energy -111682.583455 kJ/mol
# GULP energy per Si atom -5584.129173 kJ/mol
# Density = 1.811334 g / cm^3
# Si number density = 18.154656 Si / 1000 Ang^3
#
#
#
# Elastic Constant Matrix: (Units=GPa)
#
#
# Indices 1 2 3 4 5 6 
#
# 1 68.1476 -5.6548 24.3952 0.0000 -5.2395 0.0000
# 2 -5.6548 133.7094 46.4208 0.0000 -7.8825 0.0000
# 3 24.3952 46.4208 115.0297 0.0000 -20.9623 0.0000
# 4 0.0000 0.0000 0.0000 47.4908 0.0000 -7.2149
# 5 -5.2395 -7.8825 -20.9623 0.0000 17.9658 0.0000
# 6 0.0000 0.0000 0.0000 -7.2149 0.0000 8.8473
#
#
#
# Elastic Compliance Matrix: (Units=1/GPa)
#
#
# Indices 1 2 3 4 5 6 
#
# 1 0.016434 0.002211 -0.004226 0.000000 0.000832 0.000000
# 2 0.002211 0.008997 -0.004144 0.000000 -0.000243 0.000000
# 3 -0.004226 -0.004144 0.013597 0.000000 0.012814 0.000000
# 4 0.000000 0.000000 0.000000 0.024034 0.000000 0.019600
# 5 0.000832 -0.000243 0.012814 0.000000 0.070749 0.000000
# 6 0.000000 0.000000 0.000000 0.019600 0.000000 0.129013
#
#
# Mechanical properties :
#
#
# Convention : Reuss Voigt Hill
#
# Bulk Modulus (GPa) = 37.43788 49.68988 43.56388
# Shear Modulus (GPa) = 17.60279 31.64247 24.62263
#
# Velocity S-wave (km/s) = 3.11722 4.17938 3.68675
# Velocity P-wave (km/s) = 5.79849 7.12175 6.49392
#
# Compressibility (1/GPa) = 0.02671091
#
# Stress axis : x y z
#
# Youngs Moduli (GPa) = 60.84817 111.15082 73.54456
#
# Poissons Ratio (x) = -0.24579 0.31081
# Poissons Ratio (y) = -0.13455 0.30476
# Poissons Ratio (z) = 0.25715 0.46060
#
# Static dielectric constant tensor:
#      x y z
#    x 1.602080 0.000000 -0.009170 
#    y 0.000000 1.618010 0.000000 
#    z -0.009170 0.000000 1.661060 
# 
# From -- ./inp_files/281919.got.cif
#   From: 2010.05.17/outbox.cif.g08.bks.cpg/sg12_141_cif.got.tgz:281919.got - 2010.06.03 13:09:07.
