data_PCOD9213518
_publ_section_title
;
Structure prediction by ZEFSAII (Michael W. Deem and Ramdas Pophale) SiO2 
 PCOD9213518
Probable space group: C 2/M
;
_chemical_formula_sum "Si O2"
_cell_formula_units_Z 56
_cell_length_a 5.286159
_cell_length_b 28.323596
_cell_length_c 18.998311
_cell_angle_alpha 90.000000
_cell_angle_beta 66.053809
_cell_angle_gamma 90.000000
_cell_volume 2599.651502
_symmetry_space_group_name_H-M "C 2/M"
_symmetry_group_IT_number 12
_symmetry_cell_setting 'monoclinic'
loop_
_space_group_symop_operation_xyz
x,y,z
-x,y,-z
-x,-y,-z
x,-y,z
1/2+x,1/2+y,z
1/2-x,1/2+y,-z
1/2-x,1/2-y,-z
1/2+x,1/2-y,z
loop_
_atom_site_type_symbol
_atom_site_label
_atom_site_fract_x
_atom_site_fract_y
_atom_site_fract_z
Si Si1 0.164818 0.236175 0.725664
Si Si2 0.689060 0.916494 0.174141
Si Si3 0.784103 0.906116 0.427503
Si Si4 0.850113 0.359802 0.690613
Si Si5 0.203536 0.443242 0.911272
Si Si6 0.269300 0.000000 0.717763
Si Si7 0.397604 0.500000 0.623101
Si Si8 0.599175 0.307811 0.415138
O O1 0.375140 0.238798 0.766578
O O2 0.122097 0.181208 0.715300
O O3 0.353564 0.265492 0.646699
O O4 0.594474 0.873938 0.235618
O O5 0.465187 0.928019 0.139688
O O6 0.718761 0.957286 0.228667
O O7 0.006981 0.915344 0.111128
O O8 0.500000 0.913639 0.500000
O O9 0.734847 0.902692 0.349405
O O10 0.895365 0.853226 0.430791
O O11 0.982014 0.950467 0.419485
O O12 0.108898 0.334855 0.623592
O O13 0.258650 0.500000 0.901498
O O14 0.000000 0.435667 0.000000
O O15 0.012559 0.000000 0.691777
O O16 0.570832 0.000000 0.646921
O O17 0.500000 0.285899 0.500000
#
# Coordination Sequence:
#
# PCOD9213518 Si02
#       8
#     8   8   8   8   8   4   4   8
#     4  10  22  38  60  86 116 152 201 262 323 380
#     4  12  23  38  64  91 129 165 206 251 308 372
#     4  12  24  41  56  83 114 169 215 276 312 370
#     4  11  24  38  58  88 122 161 210 259 317 382
#     4  11  23  41  65  96 129 166 209 251 302 373
#     4  12  22  40  60  90 114 165 209 256 300 366
#     4  12  27  40  60  78 125 163 227 264 303 359
#     4  11  23  40  62  84 121 164 214 278 331 375
#
# _framework density 21.541349
#
# number of rings (size 3 to 8) (size 9 to 14) (size 15 to 20)
#    0.000    0.714    5.714    2.357    2.000    4.000 
#    0.000    1.071    0.000    0.000    0.000    0.000 
#    0.000   45.714    0.000    0.000    0.000    0.000 
#
# Total GULP energy -156193.745242 kJ/mol
# GULP energy per Si atom -5578.348044 kJ/mol
# Density = 2.149232 g / cm^3
# Si number density = 21.541349 Si / 1000 Ang^3
#
#
#
# Elastic Constant Matrix: (Units=GPa)
#
#
# Indices 1 2 3 4 5 6 
#
# 1 64.6943 -7.3917 10.5753 0.0000 -10.5077 0.0000
# 2 -7.3917 60.4916 12.6596 0.0000 0.7687 0.0000
# 3 10.5753 12.6596 31.9368 0.0000 8.0298 0.0000
# 4 0.0000 0.0000 0.0000 2.6042 0.0000 18.0290
# 5 -10.5077 0.7687 8.0298 0.0000 31.5390 0.0000
# 6 0.0000 0.0000 0.0000 18.0290 0.0000 15.8751
#
#
#
# Elastic Compliance Matrix: (Units=1/GPa)
#
#
# Indices 1 2 3 4 5 6 
#
# 1 0.019077 0.004369 -0.010278 0.000000 0.008866 0.000000
# 2 0.004369 0.019092 -0.009897 0.000000 0.003510 0.000000
# 3 -0.010278 -0.009897 0.042136 0.000000 -0.013911 0.000000
# 4 0.000000 0.000000 0.000000 -0.055956 0.000000 0.063549
# 5 0.008866 0.003510 -0.013911 0.000000 0.038117 0.000000
# 6 0.000000 0.000000 0.000000 0.063549 0.000000 -0.009179
#
#
# Mechanical properties :
#
#
# Convention : Reuss Voigt Hill
#
# Bulk Modulus (GPa) = 20.53704 20.97880 20.75792
# Shear Modulus (GPa) = 49.44202 19.42229 34.43215
#
# Velocity S-wave (km/s) = 4.79604 3.00597 4.00236
# Velocity P-wave (km/s) = 6.34222 4.66988 5.56918
#
# Compressibility (1/GPa) = 0.04869251
#
# Stress axis : x y z
#
# Youngs Moduli (GPa) = 52.42010 52.37849 23.73269
#
# Poissons Ratio (x) = -0.22886 0.24392
# Poissons Ratio (y) = -0.22904 0.23489
# Poissons Ratio (z) = 0.53877 0.51841
#
# Static dielectric constant tensor:
#      x y z
#    x 1.904120 0.000000 0.044090 
#    y 0.000000 1.858960 0.000000 
#    z 0.044090 0.000000 1.828670 
# 
# From -- ./inp_files/253980.got.cif
#   From: 2010.05.17/outbox.cif.g08.bks.cpg/sg12_127_cif.got.tgz:253980.got - 2010.06.03 13:09:07.
