data_PCOD9213165
_publ_section_title
;
Structure prediction by ZEFSAII (Michael W. Deem and Ramdas Pophale) SiO2 
 PCOD9213165
Probable space group: C 2/M
;
_chemical_formula_sum "Si O2"
_cell_formula_units_Z 50
_cell_length_a 16.791633
_cell_length_b 14.970437
_cell_length_c 29.066378
_cell_angle_alpha 90.000000
_cell_angle_beta 158.784025
_cell_angle_gamma 90.000000
_cell_volume 2644.163553
_symmetry_space_group_name_H-M "C 2/M"
_symmetry_group_IT_number 12
_symmetry_cell_setting 'monoclinic'
loop_
_space_group_symop_operation_xyz
x,y,z
-x,y,-z
-x,-y,-z
x,-y,z
1/2+x,1/2+y,z
1/2-x,1/2+y,-z
1/2-x,1/2-y,-z
1/2+x,1/2-y,z
loop_
_atom_site_type_symbol
_atom_site_label
_atom_site_fract_x
_atom_site_fract_y
_atom_site_fract_z
Si Si1 0.021718 0.338201 0.708318
Si Si2 0.164296 0.901131 0.198975
Si Si3 0.000000 0.500000 0.000000
Si Si4 0.799673 0.399630 0.098156
Si Si5 0.970751 0.895424 0.539387
Si Si6 0.335402 0.182172 0.874729
Si Si7 0.392623 0.211438 0.800855
O O1 0.121565 0.383397 0.716564
O O2 0.133507 0.382003 0.813537
O O3 0.107553 0.235991 0.752926
O O4 0.763373 0.353334 0.573476
O O5 0.133310 0.818169 0.216484
O O6 0.166015 0.000000 0.220742
O O7 0.957484 0.897435 0.052373
O O8 0.160264 0.579958 0.107141
O O9 0.879683 0.500000 0.128914
O O10 0.920700 0.328084 0.131199
O O11 0.000000 0.892012 0.500000
O O12 0.168542 0.839481 0.667590
O O13 0.977573 0.000000 0.556624
O O14 0.434672 0.190530 0.877188
O O15 0.500000 0.228331 0.000000
#
# Coordination Sequence:
#
# PCOD9213165 Si02
#       7
#     8   8   2   8   8   8   8
#     4  11  20  38  60  86 122 154 194 248 300 350
#     4  10  22  37  56  87 119 154 193 241 307 366
#     4   8  20  40  60  88 122 164 202 236 282 370
#     4  11  21  34  61  91 119 151 192 248 308 357
#     4  11  23  38  60  89 118 155 200 251 301 350
#     4   9  21  37  61  88 122 156 196 240 291 353
#     4  11  22  38  61  86 118 156 201 247 292 352
#
# _framework density 18.909572000000001
#
# number of rings (size 3 to 8) (size 9 to 14) (size 15 to 20)
#    0.480    1.120    1.600    4.800    2.240    3.840 
#    0.000    0.000    1.760    0.480    0.000    0.000 
#    0.000    0.000    0.000    0.000    0.000    0.000 
#
# Total GULP energy -139258.871149 kJ/mol
# GULP energy per Si atom -5570.354846 kJ/mol
# Density = 1.886653 g / cm^3
# Si number density = 18.909572 Si / 1000 Ang^3
#
#
#
# Elastic Constant Matrix: (Units=GPa)
#
#
# Indices 1 2 3 4 5 6 
#
# 1 50.1886 19.6641 -4.9192 0.0028 7.4841 0.0001
# 2 19.6641 156.2704 10.1674 0.0070 2.4971 -0.0024
# 3 -4.9192 10.1674 40.1655 0.0079 10.6646 -0.0036
# 4 0.0028 0.0070 0.0079 16.6452 -0.0028 -2.2384
# 5 7.4841 2.4971 10.6646 -0.0028 33.6473 0.0012
# 6 0.0001 -0.0024 -0.0036 -2.2384 0.0012 10.6914
#
#
#
# Elastic Compliance Matrix: (Units=1/GPa)
#
#
# Indices 1 2 3 4 5 6 
#
# 1 0.022615 -0.003085 0.005269 -0.000006 -0.006471 0.000000
# 2 -0.003085 0.006927 -0.002377 -0.000001 0.000926 0.000000
# 3 0.005269 -0.002377 0.028835 -0.000014 -0.010135 0.000007
# 4 -0.000006 -0.000001 -0.000014 0.061818 0.000011 0.012942
# 5 -0.006471 0.000926 -0.010135 0.000011 0.034303 -0.000005
# 6 0.000000 0.000000 0.000007 0.012942 -0.000005 0.096243
#
#
# Mechanical properties :
#
#
# Convention : Reuss Voigt Hill
#
# Bulk Modulus (GPa) = 17.24414 32.93877 25.09145
# Shear Modulus (GPa) = 18.48712 26.97758 22.73235
#
# Velocity S-wave (km/s) = 3.13015 3.78122 3.47098
# Velocity P-wave (km/s) = 4.71199 6.04321 5.41863
#
# Compressibility (1/GPa) = 0.05799073
#
# Stress axis : x y z
#
# Youngs Moduli (GPa) = 44.21830 144.35736 34.68001
#
# Poissons Ratio (x) = 0.44536 -0.18273
# Poissons Ratio (y) = 0.13642 0.08244
# Poissons Ratio (z) = -0.23299 0.34316
#
# Static dielectric constant tensor:
#      x y z
#    x 1.647770 0.000000 -0.000650 
#    y 0.000000 1.686480 0.000000 
#    z -0.000650 0.000000 1.654910 
# 
# From -- ./inp_files/379476.got.cif
#   From: 2010.05.17/outbox.cif.g08.bks.cpg/sg12_190_cif.got.tgz:379476.got - 2010.06.03 13:09:07.
