data_PCOD9213850
_publ_section_title
;
Structure prediction by ZEFSAII (Michael W. Deem and Ramdas Pophale) SiO2 
 PCOD9213850
Probable space group: C 2/M
;
_chemical_formula_sum "Si O2"
_cell_formula_units_Z 42
_cell_length_a 15.250613
_cell_length_b 12.187107
_cell_length_c 11.579836
_cell_angle_alpha 90.000000
_cell_angle_beta 85.393559
_cell_angle_gamma 90.000000
_cell_volume 2145.286152
_symmetry_space_group_name_H-M "C 2/M"
_symmetry_group_IT_number 12
_symmetry_cell_setting 'monoclinic'
loop_
_space_group_symop_operation_xyz
x,y,z
-x,y,-z
-x,-y,-z
x,-y,z
1/2+x,1/2+y,z
1/2-x,1/2+y,-z
1/2-x,1/2-y,-z
1/2+x,1/2-y,z
loop_
_atom_site_type_symbol
_atom_site_label
_atom_site_fract_x
_atom_site_fract_y
_atom_site_fract_z
Si Si1 0.629928 0.500000 0.084445
Si Si2 0.605797 0.626388 0.482772
Si Si3 0.830459 0.206346 0.772343
Si Si4 0.480377 0.879363 0.739556
Si Si5 0.141463 0.777228 0.711978
Si Si6 0.923928 0.000000 0.168761
Si Si7 0.500000 0.000000 0.500000
O O1 0.670801 0.610560 0.132682
O O2 0.527876 0.500000 0.134996
O O3 0.627208 0.500000 0.947047
O O4 0.500000 0.635047 0.500000
O O5 0.629842 0.500000 0.506691
O O6 0.637426 0.652590 0.351273
O O7 0.647483 0.706725 0.573247
O O8 0.901849 0.301222 0.788496
O O9 0.734768 0.255484 0.759494
O O10 0.572822 0.818780 0.747795
O O11 0.477523 0.000000 0.795577
O O12 0.476185 0.906084 0.602040
O O13 0.100635 0.890922 0.760294
#
# Coordination Sequence:
#
# PCOD9213850 Si02
#       7
#     4   8   8   8   8   4   2
#     4  11  24  46  73  95 121 169 225 276 329 372
#     4  11  20  36  63  96 132 168 213 263 322 390
#     4  12  24  41  66  96 131 169 215 266 321 386
#     4  10  22  39  58  87 133 171 201 249 314 381
#     4  12  24  41  66  96 131 169 215 266 321 386
#     4  11  24  46  73  95 121 169 225 276 329 372
#     4   8  20  36  60  78 134 182 204 228 306 398
#
# _framework density 19.577808000000001
#
# number of rings (size 3 to 8) (size 9 to 14) (size 15 to 20)
#    0.571    0.381    5.714    1.714    2.667    0.762 
#    3.429    0.000    0.000    1.143    0.000    0.000 
#    0.000    0.000    0.000    0.000    0.000    0.000 
#
# Total GULP energy -117051.826299 kJ/mol
# GULP energy per Si atom -5573.896490 kJ/mol
# Density = 1.953325 g / cm^3
# Si number density = 19.577808 Si / 1000 Ang^3
#
#
#
# Elastic Constant Matrix: (Units=GPa)
#
#
# Indices 1 2 3 4 5 6 
#
# 1 55.0222 9.4278 -21.9550 0.0000 -3.4178 0.0000
# 2 9.4278 105.0225 -5.5440 0.0000 -3.1684 0.0000
# 3 -21.9550 -5.5440 31.0204 0.0000 9.1647 0.0000
# 4 0.0000 0.0000 0.0000 9.3544 0.0000 16.2474
# 5 -3.4178 -3.1684 9.1647 0.0000 14.0339 0.0000
# 6 0.0000 0.0000 0.0000 16.2474 0.0000 22.9244
#
#
#
# Elastic Compliance Matrix: (Units=1/GPa)
#
#
# Indices 1 2 3 4 5 6 
#
# 1 0.026100 -0.001488 0.020355 0.000000 -0.007272 0.000000
# 2 -0.001488 0.009716 0.000176 0.000000 0.001716 0.000000
# 3 0.020355 0.000176 0.056004 0.000000 -0.031576 0.000000
# 4 0.000000 0.000000 0.000000 -0.462788 0.000000 0.327996
# 5 -0.007272 0.001716 -0.031576 0.000000 0.090493 0.000000
# 6 0.000000 0.000000 0.000000 0.327996 0.000000 -0.188842
#
#
# Mechanical properties :
#
#
# Convention : Reuss Voigt Hill
#
# Bulk Modulus (GPa) = 7.69780 17.21365 12.45573
# Shear Modulus (GPa) = -10.77349 23.20494 6.21572
#
# Velocity S-wave (km/s) = -2.34837 3.44651 1.78375
# Velocity P-wave (km/s) = 1.84735 4.96482 3.25858
#
# Compressibility (1/GPa) = 0.12990719
#
# Stress axis : x y z
#
# Youngs Moduli (GPa) = 38.31453 102.91860 17.85597
#
# Poissons Ratio (x) = 0.15313 -0.36346
# Poissons Ratio (y) = 0.05701 -0.00315
# Poissons Ratio (z) = -0.77989 -0.01816
#
# Static dielectric constant tensor:
#      x y z
#    x 1.664160 0.000000 0.019730 
#    y 0.000000 1.695330 0.000000 
#    z 0.019730 0.000000 1.677450 
# 
# From -- ./inp_files/140999.got.cif
#   From: 2010.05.17/outbox.cif.g08.bks.cpg/sg12_71_cif.got.tgz:140999.got - 2010.06.03 13:09:07.
