data_PCOD9213407
_publ_section_title
;
Structure prediction by ZEFSAII (Michael W. Deem and Ramdas Pophale) SiO2 
 PCOD9213407
Probable space group: C 2/M
;
_chemical_formula_sum "Si O2"
_cell_formula_units_Z 40
_cell_length_a 20.837754
_cell_length_b 16.344815
_cell_length_c 12.449874
_cell_angle_alpha 90.000000
_cell_angle_beta 156.330575
_cell_angle_gamma 90.000000
_cell_volume 1702.304191
_symmetry_space_group_name_H-M "C 2/M"
_symmetry_group_IT_number 12
_symmetry_cell_setting 'monoclinic'
loop_
_space_group_symop_operation_xyz
x,y,z
-x,y,-z
-x,-y,-z
x,-y,z
1/2+x,1/2+y,z
1/2-x,1/2+y,-z
1/2-x,1/2-y,-z
1/2+x,1/2-y,z
loop_
_atom_site_type_symbol
_atom_site_label
_atom_site_fract_x
_atom_site_fract_y
_atom_site_fract_z
Si Si1 0.896142 0.089411 0.609009
Si Si2 0.527709 0.097999 0.661159
Si Si3 0.898809 0.409526 0.680215
Si Si4 0.173655 0.097313 0.741751
Si Si5 0.942403 0.237486 0.797996
O O1 0.762848 0.085577 0.498942
O O2 0.814670 0.101395 0.369096
O O3 0.992053 0.171362 0.785362
O O4 0.979202 0.000000 0.734320
O O5 0.500000 0.132587 0.500000
O O6 0.385814 0.106361 0.532199
O O7 0.547604 0.000000 0.678812
O O8 0.685028 0.129200 0.965508
O O9 0.976386 0.500000 0.811226
O O10 0.996724 0.331147 0.870045
O O11 0.000000 0.133959 0.500000
O O12 0.166530 0.000000 0.755566
O O13 0.750000 0.250000 0.500000
O O14 0.000000 0.205408 0.000000
#
# Coordination Sequence:
#
# PCOD9213407 Si02
#       5
#     8   8   8   8   8
#     4   9  19  37  60  87 118 155 198 238 287 349
#     4   9  18  33  56  86 117 149 190 240 291 342
#     4   9  19  35  61  90 116 148 194 243 291 343
#     4   9  18  34  56  83 117 155 190 233 289 349
#     4  10  22  38  57  86 123 152 186 243 299 345
#
# _framework density 23.497563
#
# number of rings (size 3 to 8) (size 9 to 14) (size 15 to 20)
#    0.000    2.800    0.000    0.000    5.600    0.800 
#    7.200    1.000    0.000    2.400    0.000    0.000 
#    0.000    0.000    0.000    0.000    0.000    0.000 
#
# Total GULP energy -111362.985022 kJ/mol
# GULP energy per Si atom -5568.149251 kJ/mol
# Density = 2.344408 g / cm^3
# Si number density = 23.497563 Si / 1000 Ang^3
#
#
#
# Elastic Constant Matrix: (Units=GPa)
#
#
# Indices 1 2 3 4 5 6 
#
# 1 137.5990 -8.2257 53.1656 0.0000 -31.1188 0.0000
# 2 -8.2257 120.7865 0.5305 0.0000 -12.4411 0.0000
# 3 53.1656 0.5305 79.4606 0.0000 -27.0329 0.0000
# 4 0.0000 0.0000 0.0000 10.1986 0.0000 -6.4622
# 5 -31.1188 -12.4411 -27.0329 0.0000 37.2249 0.0000
# 6 0.0000 0.0000 0.0000 -6.4622 0.0000 -2.0407
#
#
#
# Elastic Compliance Matrix: (Units=1/GPa)
#
#
# Indices 1 2 3 4 5 6 
#
# 1 0.010616 0.001314 -0.005237 0.000000 0.005510 0.000000
# 2 0.001314 0.008827 0.000584 0.000000 0.004472 0.000000
# 3 -0.005237 0.000584 0.019473 0.000000 0.009958 0.000000
# 4 0.000000 0.000000 0.000000 0.032614 0.000000 -0.103276
# 5 0.005510 0.004472 0.009958 0.000000 0.040197 0.000000
# 6 0.000000 0.000000 0.000000 -0.103276 0.000000 -0.162990
#
#
# Mechanical properties :
#
#
# Convention : Reuss Voigt Hill
#
# Bulk Modulus (GPa) = 31.02183 47.64298 39.33240
# Shear Modulus (GPa) = -147.75483 28.56825 -59.59329
#
# Velocity S-wave (km/s) = -7.93835 3.49061 -5.04148
# Velocity P-wave (km/s) = 8.41382 6.04694 4.13684
#
# Compressibility (1/GPa) = 0.03223537
#
# Stress axis : x y z
#
# Youngs Moduli (GPa) = 94.20089 113.29443 51.35379
#
# Poissons Ratio (x) = -0.14881 0.26893
# Poissons Ratio (y) = -0.12373 -0.02997
# Poissons Ratio (z) = 0.49332 -0.06611
#
# Static dielectric constant tensor:
#      x y z
#    x 1.979330 0.000000 0.041670 
#    y 0.000000 2.008670 0.000000 
#    z 0.041670 0.000000 1.901690 
# 
# From -- ./inp_files/168884.got.cif
#   From: 2010.05.17/outbox.cif.g08.bks.cpg/sg12_85_cif.got.tgz:168884.got - 2010.06.03 13:09:07.
