data_PCOD9213782
_publ_section_title
;
Structure prediction by ZEFSAII (Michael W. Deem and Ramdas Pophale) SiO2 
 PCOD9213782
Probable space group: C 2/M
;
_chemical_formula_sum "Si O2"
_cell_formula_units_Z 64
_cell_length_a 31.428309
_cell_length_b 7.965855
_cell_length_c 23.319219
_cell_angle_alpha 90.000000
_cell_angle_beta 148.471434
_cell_angle_gamma 90.000000
_cell_volume 3052.851333
_symmetry_space_group_name_H-M "C 2/M"
_symmetry_group_IT_number 12
_symmetry_cell_setting 'monoclinic'
loop_
_space_group_symop_operation_xyz
x,y,z
-x,y,-z
-x,-y,-z
x,-y,z
1/2+x,1/2+y,z
1/2-x,1/2+y,-z
1/2-x,1/2-y,-z
1/2+x,1/2-y,z
loop_
_atom_site_type_symbol
_atom_site_label
_atom_site_fract_x
_atom_site_fract_y
_atom_site_fract_z
Si Si1 0.030546 0.705559 0.659259
Si Si2 0.127653 0.801996 0.987910
Si Si3 0.505688 0.199325 0.254560
Si Si4 0.190667 0.705473 0.777420
Si Si5 0.288268 0.698294 0.697373
Si Si6 0.364848 0.205250 0.412978
Si Si7 0.918772 0.298254 0.940030
Si Si8 0.334726 0.802269 0.625830
O O1 0.031706 0.500000 0.660805
O O2 0.011094 0.765874 0.701033
O O3 0.117813 0.758592 0.735440
O O4 0.956367 0.756452 0.532655
O O5 0.072295 0.722773 0.875396
O O6 0.131459 0.000000 0.981005
O O7 0.220155 0.736984 0.100504
O O8 0.086098 0.771962 0.001766
O O9 0.585776 0.271151 0.314643
O O10 0.518676 0.000000 0.276752
O O11 0.193045 0.500000 0.779223
O O12 0.167890 0.759335 0.686646
O O13 0.282344 0.500000 0.682113
O O14 0.197924 0.760988 0.609536
O O15 0.343270 0.736301 0.815640
O O16 0.328894 0.767249 0.686731
O O17 0.363676 0.000000 0.411247
O O18 0.917262 0.500000 0.941312
O O19 0.000000 0.245877 0.000000
O O20 0.250000 0.750000 0.500000
O O21 0.340739 0.000000 0.626233
#
# Coordination Sequence:
#
# PCOD9213782 Si02
#       8
#     8   8   8   8   8   8   8   8
#     4   9  17  31  55  82 111 149 190 234 287 339
#     4  11  22  37  57  84 116 150 188 237 288 341
#     4  10  22  39  56  81 115 153 196 239 282 340
#     4   9  17  31  53  85 116 143 186 239 286 338
#     4  11  21  35  57  86 117 148 187 233 285 342
#     4   9  16  30  53  84 117 145 180 234 289 340
#     4  11  23  38  56  80 110 147 190 234 282 339
#     4  11  23  39  58  83 117 154 197 242 286 338
#
# _framework density 20.964006999999999
#
# number of rings (size 3 to 8) (size 9 to 14) (size 15 to 20)
#    0.000    1.875    1.250    3.375    0.000    9.000 
#    0.000    0.000    0.000    0.750    0.000    0.875 
#    0.000    0.000    0.000    0.000    0.000    0.000 
#
# Total GULP energy -178789.356835 kJ/mol
# GULP energy per Si atom -5587.167401 kJ/mol
# Density = 2.091629 g / cm^3
# Si number density = 20.964007 Si / 1000 Ang^3
#
#
#
# Elastic Constant Matrix: (Units=GPa)
#
#
# Indices 1 2 3 4 5 6 
#
# 1 139.8602 7.8705 61.0169 0.0000 17.6454 0.0000
# 2 7.8705 17.4115 -6.6939 0.0000 5.8907 0.0000
# 3 61.0169 -6.6939 111.9052 0.0000 15.3330 0.0000
# 4 0.0000 0.0000 0.0000 25.5086 0.0000 -7.1932
# 5 17.6454 5.8907 15.3330 0.0000 42.5726 0.0000
# 6 0.0000 0.0000 0.0000 -7.1932 0.0000 12.8183
#
#
#
# Elastic Compliance Matrix: (Units=1/GPa)
#
#
# Indices 1 2 3 4 5 6 
#
# 1 0.010182 -0.006391 -0.005761 0.000000 -0.001261 0.000000
# 2 -0.006391 0.067040 0.008839 0.000000 -0.009811 0.000000
# 3 -0.005761 0.008839 0.013093 0.000000 -0.003551 0.000000
# 4 0.000000 0.000000 0.000000 0.046572 0.000000 0.026135
# 5 -0.001261 -0.009811 -0.003551 0.000000 0.026648 0.000000
# 6 0.000000 0.000000 0.000000 0.026135 0.000000 0.092680
#
#
# Mechanical properties :
#
#
# Convention : Reuss Voigt Hill
#
# Bulk Modulus (GPa) = 11.94913 43.72932 27.83923
# Shear Modulus (GPa) = 17.19760 29.97879 23.58819
#
# Velocity S-wave (km/s) = 2.86726 3.78565 3.35800
# Velocity P-wave (km/s) = 4.08336 6.32556 5.32384
#
# Compressibility (1/GPa) = 0.08368809
#
# Stress axis : x y z
#
# Youngs Moduli (GPa) = 98.20965 14.91653 76.37764
#
# Poissons Ratio (x) = 0.09533 0.44005
# Poissons Ratio (y) = 0.62767 -0.67511
# Poissons Ratio (z) = 0.56583 -0.13185
#
# Static dielectric constant tensor:
#      x y z
#    x 1.717720 0.000000 0.020980 
#    y 0.000000 1.767170 0.000000 
#    z 0.020980 0.000000 1.732570 
# 
# From -- ./inp_files/353488.got.cif
#   From: 2010.05.17/outbox.cif.g08.bks.cpg/sg12_177_cif.got.tgz:353488.got - 2010.06.03 13:09:07.
