data_PCOD9213411
_publ_section_title
;
Structure prediction by ZEFSAII (Michael W. Deem and Ramdas Pophale) SiO2 
 PCOD9213411
Probable space group: C 2/M
;
_chemical_formula_sum "Si O2"
_cell_formula_units_Z 56
_cell_length_a 20.408349
_cell_length_b 7.680028
_cell_length_c 17.271688
_cell_angle_alpha 90.000000
_cell_angle_beta 122.731544
_cell_angle_gamma 90.000000
_cell_volume 2277.254415
_symmetry_space_group_name_H-M "C 2/M"
_symmetry_group_IT_number 12
_symmetry_cell_setting 'monoclinic'
loop_
_space_group_symop_operation_xyz
x,y,z
-x,y,-z
-x,-y,-z
x,-y,z
1/2+x,1/2+y,z
1/2-x,1/2+y,-z
1/2-x,1/2-y,-z
1/2+x,1/2-y,z
loop_
_atom_site_type_symbol
_atom_site_label
_atom_site_fract_x
_atom_site_fract_y
_atom_site_fract_z
Si Si1 0.538141 0.200002 0.848081
Si Si2 0.684984 0.707070 0.394804
Si Si3 0.342147 0.298096 0.950857
Si Si4 0.626376 0.796517 0.202152
Si Si5 0.390075 0.289973 0.367877
Si Si6 0.673575 0.205472 0.830191
Si Si7 0.934515 0.787855 0.561187
O O1 0.454519 0.278880 0.814926
O O2 0.595909 0.280555 0.820590
O O3 0.523055 0.000000 0.815233
O O4 0.590283 0.204284 0.958982
O O5 0.682372 0.500000 0.384774
O O6 0.750000 0.750000 0.500000
O O7 0.688973 0.782491 0.311335
O O8 0.605788 0.771807 0.386356
O O9 0.344689 0.500000 0.976487
O O10 0.354035 0.290069 0.866393
O O11 0.255992 0.222323 0.911363
O O12 0.614910 0.000000 0.177004
O O13 0.387094 0.500000 0.365622
O O14 0.332103 0.225229 0.265702
O O15 0.385378 0.232319 0.453949
O O16 0.476746 0.234673 0.395334
O O17 0.674438 0.000000 0.848722
O O18 0.934144 0.000000 0.561268
#
# Coordination Sequence:
#
# PCOD9213411 Si02
#       7
#     8   8   8   8   8   8   8
#     4  10  22  42  65  88 119 158 202 250 299 358
#     4  11  23  39  59  86 121 159 199 244 294 351
#     4  11  24  40  61  91 125 158 197 248 303 359
#     4  11  24  42  64  89 119 160 205 248 300 357
#     4   9  17  33  58  84 110 149 194 238 288 349
#     4  10  22  38  57  87 124 154 191 244 301 354
#     4   8  17  34  55  81 113 147 193 242 287 341
#
# _framework density 24.591018999999999
#
# number of rings (size 3 to 8) (size 9 to 14) (size 15 to 20)
#    0.000    2.000    0.000    3.857    2.000    4.571 
#    0.000    2.857    0.000    0.000    0.000    0.000 
#    0.000    0.000    0.000    0.000    0.000    0.000 
#
# Total GULP energy -156597.344104 kJ/mol
# GULP energy per Si atom -5592.762289 kJ/mol
# Density = 2.453505 g / cm^3
# Si number density = 24.591019 Si / 1000 Ang^3
#
#
#
# Elastic Constant Matrix: (Units=GPa)
#
#
# Indices 1 2 3 4 5 6 
#
# 1 66.7950 -0.7715 17.4162 0.0000 -10.6738 0.0000
# 2 -0.7715 61.7351 -12.1916 0.0000 1.6112 0.0000
# 3 17.4162 -12.1916 129.5488 0.0000 -12.1176 0.0000
# 4 0.0000 0.0000 0.0000 28.4400 0.0000 -2.2245
# 5 -10.6738 1.6112 -12.1176 0.0000 43.0649 0.0000
# 6 0.0000 0.0000 0.0000 -2.2245 0.0000 -8.8436
#
#
#
# Elastic Compliance Matrix: (Units=1/GPa)
#
#
# Indices 1 2 3 4 5 6 
#
# 1 0.016003 -0.000256 -0.001852 0.000000 0.003455 0.000000
# 2 -0.000256 0.016511 0.001566 0.000000 -0.000241 0.000000
# 3 -0.001852 0.001566 0.008285 0.000000 0.001814 0.000000
# 4 0.000000 0.000000 0.000000 0.034483 0.000000 -0.008674
# 5 0.003455 -0.000241 0.001814 0.000000 0.024596 0.000000
# 6 0.000000 0.000000 0.000000 -0.008674 0.000000 -0.110895
#
#
# Mechanical properties :
#
#
# Convention : Reuss Voigt Hill
#
# Bulk Modulus (GPa) = 25.18034 29.66502 27.42268
# Shear Modulus (GPa) = 1512.00309 29.44067 770.72188
#
# Velocity S-wave (km/s) = 24.82327 3.46383 17.72277
# Velocity P-wave (km/s) = 28.84189 5.29972 20.73574
#
# Compressibility (1/GPa) = 0.03971353
#
# Stress axis : x y z
#
# Youngs Moduli (GPa) = 62.48719 60.56749 120.69854
#
# Poissons Ratio (x) = 0.01550 0.22358
# Poissons Ratio (y) = 0.01600 -0.18897
# Poissons Ratio (z) = 0.11575 -0.09483
#
# Static dielectric constant tensor:
#      x y z
#    x 2.000910 0.000000 0.016960 
#    y 0.000000 1.915740 0.000000 
#    z 0.016960 0.000000 1.934630 
# 
# From -- ./inp_files/288437.got.cif
#   From: 2010.05.17/outbox.cif.g08.bks.cpg/sg12_145_cif.got.tgz:288437.got - 2010.06.03 13:09:07.
