data_PCOD9213838
_publ_section_title
;
Structure prediction by ZEFSAII (Michael W. Deem and Ramdas Pophale) SiO2 
 PCOD9213838
Probable space group: C 2/M
;
_chemical_formula_sum "Si O2"
_cell_formula_units_Z 64
_cell_length_a 9.236485
_cell_length_b 35.415367
_cell_length_c 14.517093
_cell_angle_alpha 90.000000
_cell_angle_beta 132.504377
_cell_angle_gamma 90.000000
_cell_volume 3500.891214
_symmetry_space_group_name_H-M "C 2/M"
_symmetry_group_IT_number 12
_symmetry_cell_setting 'monoclinic'
loop_
_space_group_symop_operation_xyz
x,y,z
-x,y,-z
-x,-y,-z
x,-y,z
1/2+x,1/2+y,z
1/2-x,1/2+y,-z
1/2-x,1/2-y,-z
1/2+x,1/2-y,z
loop_
_atom_site_type_symbol
_atom_site_label
_atom_site_fract_x
_atom_site_fract_y
_atom_site_fract_z
Si Si1 0.773837 0.212771 0.369840
Si Si2 0.138329 0.848114 0.144035
Si Si3 0.077531 0.287215 0.637949
Si Si4 0.691465 0.372159 0.647900
Si Si5 0.531465 0.399993 0.773491
Si Si6 0.197367 0.542562 0.643068
Si Si7 0.677832 0.957739 0.004993
Si Si8 0.422089 0.083159 0.223777
O O1 0.787888 0.249631 0.311958
O O2 0.616428 0.219174 0.383318
O O3 0.734387 0.171218 0.312927
O O4 0.000000 0.210614 0.500000
O O5 0.290037 0.818626 0.255001
O O6 0.018285 0.865887 0.178368
O O7 0.265293 0.882799 0.157923
O O8 0.000000 0.834268 0.000000
O O9 0.000000 0.296752 0.500000
O O10 0.500000 0.373382 0.500000
O O11 0.633181 0.386162 0.724199
O O12 0.863595 0.397878 0.679588
O O13 0.338849 0.424565 0.666768
O O14 0.662979 0.429542 0.885801
O O15 0.282666 0.500000 0.678642
O O16 0.134692 0.555788 0.717460
O O17 0.000000 0.541853 0.500000
O O18 0.596868 0.940490 0.876684
O O19 0.756114 0.000000 0.024472
O O20 0.500000 0.959407 0.000000
#
# Coordination Sequence:
#
# PCOD9213838 Si02
#       8
#     8   8   8   8   8   8   8   8
#     4  10  22  39  63  95 126 159 215 257 307 365
#     4  11  24  40  63  92 129 161 205 258 314 365
#     4  11  23  40  67  93 127 167 212 262 306 370
#     4  11  23  38  63  94 124 155 205 257 310 374
#     4  11  23  38  63  86 121 160 202 254 307 366
#     4  10  22  39  58  84 120 156 196 249 312 373
#     4  11  22  38  62  89 117 157 209 255 300 364
#     4  11  21  41  60  88 119 159 202 254 308 362
#
# _framework density 18.28106
#
# number of rings (size 3 to 8) (size 9 to 14) (size 15 to 20)
#    0.000    1.250    3.750    3.000    5.250    2.000 
#    0.000    2.500    2.750    3.000    0.000    0.000 
#    0.000    0.000    0.000    0.000    0.000    0.000 
#
# Total GULP energy -178537.375777 kJ/mol
# GULP energy per Si atom -5579.292993 kJ/mol
# Density = 1.823945 g / cm^3
# Si number density = 18.281060 Si / 1000 Ang^3
#
#
#
# Elastic Constant Matrix: (Units=GPa)
#
#
# Indices 1 2 3 4 5 6 
#
# 1 84.1973 19.9299 0.4691 0.0000 -3.9850 0.0000
# 2 19.9299 88.6590 25.6631 0.0000 -12.2415 0.0000
# 3 0.4691 25.6631 64.4143 0.0000 0.9458 0.0000
# 4 0.0000 0.0000 0.0000 13.8740 0.0000 11.2814
# 5 -3.9850 -12.2415 0.9458 0.0000 24.0429 0.0000
# 6 0.0000 0.0000 0.0000 11.2814 0.0000 33.2284
#
#
#
# Elastic Compliance Matrix: (Units=1/GPa)
#
#
# Indices 1 2 3 4 5 6 
#
# 1 0.012627 -0.003103 0.001137 0.000000 0.000468 0.000000
# 2 -0.003103 0.014689 -0.005935 0.000000 0.007198 0.000000
# 3 0.001137 -0.005935 0.017933 0.000000 -0.003539 0.000000
# 4 0.000000 0.000000 0.000000 0.099564 0.000000 -0.033803
# 5 0.000468 0.007198 -0.003539 0.000000 0.045474 0.000000
# 6 0.000000 0.000000 0.000000 -0.033803 0.000000 0.041571
#
#
# Mechanical properties :
#
#
# Convention : Reuss Voigt Hill
#
# Bulk Modulus (GPa) = 33.95930 36.59943 35.27937
# Shear Modulus (GPa) = 19.41936 26.97627 23.19782
#
# Velocity S-wave (km/s) = 3.26278 3.84557 3.56610
# Velocity P-wave (km/s) = 5.72808 6.30728 6.02464
#
# Compressibility (1/GPa) = 0.02944701
#
# Stress axis : x y z
#
# Youngs Moduli (GPa) = 79.19405 68.08033 55.76384
#
# Poissons Ratio (x) = 0.21126 -0.06343
# Poissons Ratio (y) = 0.24575 0.33096
# Poissons Ratio (z) = -0.09008 0.40406
#
# Static dielectric constant tensor:
#      x y z
#    x 1.622020 0.000000 0.011880 
#    y 0.000000 1.650620 0.000000 
#    z 0.011880 0.000000 1.598930 
# 
# From -- ./inp_files/201333.got.cif
#   From: 2010.05.17/outbox.cif.g08.bks.cpg/sg12_101_cif.got.tgz:201333.got - 2010.06.03 13:09:07.
