data_PCOD9213046
_publ_section_title
;
Structure prediction by ZEFSAII (Michael W. Deem and Ramdas Pophale) SiO2 
 PCOD9213046
Probable space group: C 2/M
;
_chemical_formula_sum "Si O2"
_cell_formula_units_Z 32
_cell_length_a 16.068966
_cell_length_b 10.854730
_cell_length_c 8.083617
_cell_angle_alpha 90.000000
_cell_angle_beta 76.596903
_cell_angle_gamma 90.000000
_cell_volume 1371.576026
_symmetry_space_group_name_H-M "C 2/M"
_symmetry_group_IT_number 12
_symmetry_cell_setting 'monoclinic'
loop_
_space_group_symop_operation_xyz
x,y,z
-x,y,-z
-x,-y,-z
x,-y,z
1/2+x,1/2+y,z
1/2-x,1/2+y,-z
1/2-x,1/2-y,-z
1/2+x,1/2-y,z
loop_
_atom_site_type_symbol
_atom_site_label
_atom_site_fract_x
_atom_site_fract_y
_atom_site_fract_z
Si Si1 0.444111 0.000000 0.261049
Si Si2 0.629808 0.000000 0.334193
Si Si3 0.178528 0.140517 0.543071
Si Si4 0.865561 0.730736 0.121581
Si Si5 0.332110 0.730302 0.783551
O O1 0.541415 0.000000 0.273189
O O2 0.393445 0.000000 0.460297
O O3 0.419810 0.117783 0.164136
O O4 0.675234 0.124751 0.257464
O O5 0.250000 0.250000 0.500000
O O6 0.130890 0.168577 0.735144
O O7 0.128340 0.164872 0.395075
O O8 0.209504 0.000000 0.527040
O O9 0.765869 0.684303 0.151909
O O10 0.883202 0.780267 0.930396
#
# Coordination Sequence:
#
# PCOD9213046 Si02
#       5
#     4   4   8   8   8
#     4  11  23  41  67 100 136 179 227 275 333 399
#     4  11  23  41  67 100 136 179 227 275 333 399
#     4  10  22  36  58  89 131 171 209 269 329 383
#     4  10  22  36  60  93 129 169 219 271 325 387
#     4  10  22  36  60  93 129 169 219 271 325 387
#
# _framework density 23.330825000000001
#
# number of rings (size 3 to 8) (size 9 to 14) (size 15 to 20)
#    0.000    1.750    2.500    0.750   14.000    3.000 
#    0.000    0.000    0.000    3.000    0.000    3.500 
#    0.000    0.000    0.000    0.000    0.000    0.000 
#
# Total GULP energy -89405.558653 kJ/mol
# GULP energy per Si atom -5587.847416 kJ/mol
# Density = 2.327772 g / cm^3
# Si number density = 23.330825 Si / 1000 Ang^3
#
#
#
# Elastic Constant Matrix: (Units=GPa)
#
#
# Indices 1 2 3 4 5 6 
#
# 1 72.9256 34.8165 35.5419 0.0000 21.3244 0.0000
# 2 34.8165 144.6123 52.5717 0.0000 14.5625 0.0000
# 3 35.5419 52.5717 211.8638 0.0000 58.1079 0.0000
# 4 0.0000 0.0000 0.0000 23.4710 0.0000 12.2386
# 5 21.3244 14.5625 58.1079 0.0000 35.0419 0.0000
# 6 0.0000 0.0000 0.0000 12.2386 0.0000 17.0251
#
#
#
# Elastic Compliance Matrix: (Units=1/GPa)
#
#
# Indices 1 2 3 4 5 6 
#
# 1 0.018233 -0.003591 0.000855 0.000000 -0.011021 0.000000
# 2 -0.003591 0.008308 -0.002039 0.000000 0.002113 0.000000
# 3 0.000855 -0.002039 0.009158 0.000000 -0.014859 0.000000
# 4 0.000000 0.000000 0.000000 0.068152 0.000000 -0.048991
# 5 -0.011021 0.002113 -0.014859 0.000000 0.059006 0.000000
# 6 0.000000 0.000000 0.000000 -0.048991 0.000000 0.093954
#
#
# Mechanical properties :
#
#
# Convention : Reuss Voigt Hill
#
# Bulk Modulus (GPa) = 38.24123 75.02910 56.63517
# Shear Modulus (GPa) = 18.17680 35.53902 26.85791
#
# Velocity S-wave (km/s) = 2.79425 3.90714 3.39658
# Velocity P-wave (km/s) = 5.18043 7.25141 6.30158
#
# Compressibility (1/GPa) = 0.02614979
#
# Stress axis : x y z
#
# Youngs Moduli (GPa) = 54.84588 120.36760 109.19573
#
# Poissons Ratio (x) = 0.43221 -0.09337
# Poissons Ratio (y) = 0.19694 0.22262
# Poissons Ratio (z) = -0.04690 0.24540
#
# Static dielectric constant tensor:
#      x y z
#    x 1.926500 0.000000 0.017640 
#    y 0.000000 1.835380 0.000000 
#    z 0.017640 0.000000 2.014250 
# 
# From -- ./inp_files/37658.got.cif
#   From: 2010.05.17/outbox.cif.g08.bks.cpg/sg12_19_cif.got.tgz:37658.got - 2010.06.03 13:09:07.
