data_PCOD9213169
_publ_section_title
;
Structure prediction by ZEFSAII (Michael W. Deem and Ramdas Pophale) SiO2 
 PCOD9213169
Probable space group: C 2/M
;
_chemical_formula_sum "Si O2"
_cell_formula_units_Z 48
_cell_length_a 21.706538
_cell_length_b 20.837152
_cell_length_c 6.322089
_cell_angle_alpha 90.000000
_cell_angle_beta 48.321305
_cell_angle_gamma 90.000000
_cell_volume 2135.716246
_symmetry_space_group_name_H-M "C 2/M"
_symmetry_group_IT_number 12
_symmetry_cell_setting 'monoclinic'
loop_
_space_group_symop_operation_xyz
x,y,z
-x,y,-z
-x,-y,-z
x,-y,z
1/2+x,1/2+y,z
1/2-x,1/2+y,-z
1/2-x,1/2-y,-z
1/2+x,1/2-y,z
loop_
_atom_site_type_symbol
_atom_site_label
_atom_site_fract_x
_atom_site_fract_y
_atom_site_fract_z
Si Si1 0.153659 0.356489 0.153780
Si Si2 0.576687 0.198154 0.696513
Si Si3 0.125167 0.430944 0.830578
Si Si4 0.312950 0.679740 0.543799
Si Si5 0.910202 0.926905 0.609149
Si Si6 0.722955 0.398113 0.757768
O O1 0.080050 0.319990 0.440623
O O2 0.212144 0.380447 0.208542
O O3 0.120400 0.414285 0.087838
O O4 0.219819 0.319877 0.852674
O O5 0.590509 0.131352 0.790845
O O6 0.648715 0.250276 0.536189
O O7 0.500000 0.227467 0.000000
O O8 0.089033 0.500000 0.860849
O O9 0.221439 0.433511 0.543372
O O10 0.368803 0.626899 0.547639
O O11 0.311261 0.659919 0.302846
O O12 0.000000 0.909527 0.500000
O O13 0.914148 0.000000 0.507764
O O14 0.850569 0.930011 0.948965
#
# Coordination Sequence:
#
# PCOD9213169 Si02
#       6
#     8   8   8   8   8   8
#     4   9  21  41  61  90 119 158 202 252 302 366
#     4  11  25  41  62  93 124 161 205 257 310 366
#     4  10  22  41  65  90 120 160 207 258 311 368
#     4  10  22  40  65  90 124 165 205 251 302 362
#     4  10  22  37  56  89 129 166 202 246 301 361
#     4   9  20  37  64  90 119 158 204 250 299 362
#
# _framework density 22.474898
#
# number of rings (size 3 to 8) (size 9 to 14) (size 15 to 20)
#    0.000    2.167    0.000    1.000    2.333   19.000 
#    0.000    2.500    0.000    0.000    0.000    0.000 
#    0.000    0.000    0.000    0.000    0.000    0.000 
#
# Total GULP energy -133699.956902 kJ/mol
# GULP energy per Si atom -5570.831538 kJ/mol
# Density = 2.242374 g / cm^3
# Si number density = 22.474898 Si / 1000 Ang^3
#
#
#
# Elastic Constant Matrix: (Units=GPa)
#
#
# Indices 1 2 3 4 5 6 
#
# 1 75.0692 29.8105 25.7875 0.0000 -4.6108 0.0000
# 2 29.8105 117.4836 12.8574 0.0000 16.6470 0.0000
# 3 25.7875 12.8574 100.2475 0.0000 -4.0999 0.0000
# 4 0.0000 0.0000 0.0000 5.9590 0.0000 7.5829
# 5 -4.6108 16.6470 -4.0999 0.0000 30.8212 0.0000
# 6 0.0000 0.0000 0.0000 7.5829 0.0000 20.2712
#
#
#
# Elastic Compliance Matrix: (Units=1/GPa)
#
#
# Indices 1 2 3 4 5 6 
#
# 1 0.016562 -0.004443 -0.003510 0.000000 0.004411 0.000000
# 2 -0.004443 0.010607 -0.000482 0.000000 -0.006458 0.000000
# 3 -0.003510 -0.000482 0.010989 0.000000 0.001197 0.000000
# 4 0.000000 0.000000 0.000000 0.320257 0.000000 -0.119799
# 5 0.004411 -0.006458 0.001197 0.000000 0.036752 0.000000
# 6 0.000000 0.000000 0.000000 -0.119799 0.000000 0.094144
#
#
# Mechanical properties :
#
#
# Convention : Reuss Voigt Hill
#
# Bulk Modulus (GPa) = 46.97454 47.74569 47.36011
# Shear Modulus (GPa) = 9.74131 26.36661 18.05396
#
# Velocity S-wave (km/s) = 2.08416 3.42886 2.83732
# Velocity P-wave (km/s) = 5.17087 6.07998 5.64376
#
# Compressibility (1/GPa) = 0.02128813
#
# Stress axis : x y z
#
# Youngs Moduli (GPa) = 60.37833 94.27704 91.00033
#
# Poissons Ratio (x) = 0.41891 0.31943
# Poissons Ratio (y) = 0.26828 0.04382
# Poissons Ratio (z) = 0.21194 0.04540
#
# Static dielectric constant tensor:
#      x y z
#    x 1.878360 0.000000 -0.027730 
#    y 0.000000 1.900560 0.000000 
#    z -0.027730 0.000000 1.877760 
# 
# From -- ./inp_files/25532.got.cif
#   From: 2010.05.17/outbox.cif.g08.bks.cpg/sg12_13_cif.got.tgz:25532.got - 2010.06.03 13:09:07.
