data_PCOD9213711
_publ_section_title
;
Structure prediction by ZEFSAII (Michael W. Deem and Ramdas Pophale) SiO2 
 PCOD9213711
Probable space group: C 2/M
;
_chemical_formula_sum "Si O2"
_cell_formula_units_Z 56
_cell_length_a 10.299218
_cell_length_b 17.892136
_cell_length_c 17.535262
_cell_angle_alpha 90.000000
_cell_angle_beta 127.744487
_cell_angle_gamma 90.000000
_cell_volume 2555.153910
_symmetry_space_group_name_H-M "C 2/M"
_symmetry_group_IT_number 12
_symmetry_cell_setting 'monoclinic'
loop_
_space_group_symop_operation_xyz
x,y,z
-x,y,-z
-x,-y,-z
x,-y,z
1/2+x,1/2+y,z
1/2-x,1/2+y,-z
1/2-x,1/2-y,-z
1/2+x,1/2-y,z
loop_
_atom_site_type_symbol
_atom_site_label
_atom_site_fract_x
_atom_site_fract_y
_atom_site_fract_z
Si Si1 0.837538 0.803056 0.634594
Si Si2 0.892802 0.686630 0.322783
Si Si3 0.321881 0.086429 0.716008
Si Si4 0.084618 0.082955 0.766473
Si Si5 0.664512 0.085349 0.456912
Si Si6 0.146806 0.680411 0.859380
Si Si7 0.190834 0.660717 0.043877
O O1 0.701934 0.772960 0.643525
O O2 0.760081 0.855024 0.542087
O O3 0.956680 0.740423 0.645638
O O4 0.942861 0.857815 0.725973
O O5 0.798215 0.670335 0.209270
O O6 0.974095 0.611388 0.385285
O O7 0.164201 0.096665 0.712122
O O8 0.282020 0.090023 0.612357
O O9 0.461050 0.147185 0.787555
O O10 0.381489 0.000000 0.751420
O O11 0.232526 0.095703 0.877969
O O12 0.019526 0.000000 0.747596
O O13 0.683954 0.000000 0.489916
O O14 0.199532 0.766028 0.896048
O O15 0.208655 0.643502 0.960428
O O16 0.000000 0.673893 0.000000
#
# Coordination Sequence:
#
# PCOD9213711 Si02
#       7
#     8   8   8   8   8   8   8
#     4  12  26  44  68  99 134 175 222 279 327 388
#     4  11  26  43  71  96 135 176 221 272 328 397
#     4   9  20  41  66  97 132 172 216 272 330 392
#     4  11  24  41  67 100 132 170 221 274 334 390
#     4  10  23  44  69  98 136 180 223 267 330 395
#     4  10  22  38  65  94 130 169 220 262 327 393
#     4  11  22  37  64  96 131 174 214 272 331 391
#
# _framework density 21.916488000000001
#
# number of rings (size 3 to 8) (size 9 to 14) (size 15 to 20)
#    0.000    1.429    2.857    1.286    6.000    3.143 
#    0.000    2.143    0.000    1.286    0.000    0.000 
#    0.000    0.000    0.000    0.000    0.000    0.000 
#
# Total GULP energy -156236.169059 kJ/mol
# GULP energy per Si atom -5579.863181 kJ/mol
# Density = 2.186660 g / cm^3
# Si number density = 21.916488 Si / 1000 Ang^3
#
#
#
# Elastic Constant Matrix: (Units=GPa)
#
#
# Indices 1 2 3 4 5 6 
#
# 1 78.1582 23.4385 19.1661 0.0000 -18.6092 0.0000
# 2 23.4385 70.8425 19.2601 0.0000 0.7751 0.0000
# 3 19.1661 19.2601 109.6518 0.0000 -9.7219 0.0000
# 4 0.0000 0.0000 0.0000 0.6149 0.0000 -10.5997
# 5 -18.6092 0.7751 -9.7219 0.0000 16.5848 0.0000
# 6 0.0000 0.0000 0.0000 -10.5997 0.0000 12.2366
#
#
#
# Elastic Compliance Matrix: (Units=1/GPa)
#
#
# Indices 1 2 3 4 5 6 
#
# 1 0.020446 -0.006933 -0.000309 0.000000 0.023084 0.000000
# 2 -0.006933 0.017261 -0.002723 0.000000 -0.010182 0.000000
# 3 -0.000309 -0.002723 0.010161 0.000000 0.005736 0.000000
# 4 0.000000 0.000000 0.000000 -0.116728 0.000000 -0.101114
# 5 0.023084 -0.010182 0.005736 0.000000 0.090037 0.000000
# 6 0.000000 0.000000 0.000000 -0.101114 0.000000 -0.005866
#
#
# Mechanical properties :
#
#
# Convention : Reuss Voigt Hill
#
# Bulk Modulus (GPa) = 35.79424 42.48688 39.14056
# Shear Modulus (GPa) = 112.22651 19.00645 65.61648
#
# Velocity S-wave (km/s) = 7.16363 2.94806 5.47762
# Velocity P-wave (km/s) = 9.20820 5.56920 7.60943
#
# Compressibility (1/GPa) = 0.02793746
#
# Stress axis : x y z
#
# Youngs Moduli (GPa) = 48.90997 57.93311 98.41847
#
# Poissons Ratio (x) = 0.40165 0.03044
# Poissons Ratio (y) = 0.33909 0.26798
# Poissons Ratio (z) = 0.01513 0.15774
#
# Static dielectric constant tensor:
#      x y z
#    x 1.838970 0.000000 -0.014310 
#    y 0.000000 1.816450 0.000000 
#    z -0.014310 0.000000 1.832090 
# 
# From -- ./inp_files/264293.got.cif
#   From: 2010.05.17/outbox.cif.g08.bks.cpg/sg12_133_cif.got.tgz:264293.got - 2010.06.03 13:09:07.
