data_PCOD9213728
_publ_section_title
;
Structure prediction by ZEFSAII (Michael W. Deem and Ramdas Pophale) SiO2 
 PCOD9213728
Probable space group: C 2/M
;
_chemical_formula_sum "Si O2"
_cell_formula_units_Z 36
_cell_length_a 14.724275
_cell_length_b 10.353944
_cell_length_c 21.252369
_cell_angle_alpha 90.000000
_cell_angle_beta 146.637893
_cell_angle_gamma 90.000000
_cell_volume 1781.776787
_symmetry_space_group_name_H-M "C 2/M"
_symmetry_group_IT_number 12
_symmetry_cell_setting 'monoclinic'
loop_
_space_group_symop_operation_xyz
x,y,z
-x,y,-z
-x,-y,-z
x,-y,z
1/2+x,1/2+y,z
1/2-x,1/2+y,-z
1/2-x,1/2-y,-z
1/2+x,1/2-y,z
loop_
_atom_site_type_symbol
_atom_site_label
_atom_site_fract_x
_atom_site_fract_y
_atom_site_fract_z
Si Si1 0.469296 0.753752 0.289372
Si Si2 0.123040 0.643992 0.901405
Si Si3 0.023393 0.500000 0.402026
Si Si4 0.145805 0.000000 0.344694
Si Si5 0.870696 0.000000 0.810396
Si Si6 0.102776 0.278320 0.121534
O O1 0.425546 0.817882 0.196998
O O2 0.547378 0.868400 0.375883
O O3 0.578919 0.628610 0.339556
O O4 0.296540 0.708094 0.220400
O O5 0.194634 0.500000 0.943927
O O6 0.967119 0.649139 0.858161
O O7 0.250000 0.750000 0.000000
O O8 0.156176 0.500000 0.534447
O O9 0.829618 0.500000 0.306102
O O10 0.082838 0.000000 0.236209
O O11 0.926083 0.872528 0.878859
O O12 0.000000 0.315055 0.000000
#
# Coordination Sequence:
#
# PCOD9213728 Si02
#       6
#     8   8   4   4   4   8
#     4  11  24  42  65  95 129 167 211 261 320 373
#     4  12  26  41  64  93 132 170 208 254 316 380
#     4  10  23  45  64  91 126 172 211 275 313 367
#     4  12  23  41  69  92 122 167 227 262 318 364
#     4  10  22  38  66  95 123 163 218 264 312 374
#     4  11  23  39  62  93 133 166 202 256 318 387
#
# _framework density 20.204552
#
# number of rings (size 3 to 8) (size 9 to 14) (size 15 to 20)
#    0.000    0.889    5.556    1.333    4.667    0.444 
#    0.000    0.000    0.000    1.333    0.000    0.000 
#    0.000    0.000    0.000    0.000    0.000    0.000 
#
# Total GULP energy -100654.356183 kJ/mol
# GULP energy per Si atom -5591.908677 kJ/mol
# Density = 2.015857 g / cm^3
# Si number density = 20.204552 Si / 1000 Ang^3
#
#
#
# Elastic Constant Matrix: (Units=GPa)
#
#
# Indices 1 2 3 4 5 6 
#
# 1 99.8086 11.9064 8.6149 0.0000 0.5179 0.0000
# 2 11.9064 120.9455 5.5577 0.0000 8.2956 0.0000
# 3 8.6149 5.5577 54.3383 0.0002 -6.6661 0.0001
# 4 0.0000 0.0000 0.0002 20.3904 0.0001 9.5575
# 5 0.5179 8.2956 -6.6661 0.0001 27.2163 0.0000
# 6 0.0000 0.0000 0.0001 9.5575 0.0000 9.9976
#
#
#
# Elastic Compliance Matrix: (Units=1/GPa)
#
#
# Indices 1 2 3 4 5 6 
#
# 1 0.010266 -0.000918 -0.001571 0.000000 -0.000300 0.000000
# 2 -0.000918 0.008605 -0.001087 0.000000 -0.002872 0.000000
# 3 -0.001571 -0.001087 0.019390 0.000000 0.005110 0.000000
# 4 0.000000 0.000000 0.000000 0.088860 0.000000 -0.084949
# 5 -0.000300 -0.002872 0.005110 0.000000 0.038875 0.000000
# 6 0.000000 0.000000 0.000000 -0.084949 0.000000 0.181233
#
#
# Mechanical properties :
#
#
# Convention : Reuss Voigt Hill
#
# Bulk Modulus (GPa) = 32.14301 36.36116 34.25209
# Shear Modulus (GPa) = 13.70796 28.12176 20.91486
#
# Velocity S-wave (km/s) = 2.60755 3.73480 3.22087
# Velocity P-wave (km/s) = 5.00091 6.05260 5.55171
#
# Compressibility (1/GPa) = 0.03111096
#
# Stress axis : x y z
#
# Youngs Moduli (GPa) = 97.41099 116.20523 51.57208
#
# Poissons Ratio (x) = 0.10666 0.08100
# Poissons Ratio (y) = 0.08941 0.05606
# Poissons Ratio (z) = 0.15299 0.12631
#
# Static dielectric constant tensor:
#      x y z
#    x 1.730910 0.000000 0.023570 
#    y 0.000000 1.708790 0.000000 
#    z 0.023570 0.000000 1.683240 
# 
# From -- ./inp_files/140202.got.cif
#   From: 2010.05.17/outbox.cif.g08.bks.cpg/sg12_71_cif.got.tgz:140202.got - 2010.06.03 13:09:07.
