data_PCOD9213532
_publ_section_title
;
Structure prediction by ZEFSAII (Michael W. Deem and Ramdas Pophale) SiO2 
 PCOD9213532
Probable space group: C 2/M
;
_chemical_formula_sum "Si O2"
_cell_formula_units_Z 48
_cell_length_a 17.998075
_cell_length_b 15.045530
_cell_length_c 11.017034
_cell_angle_alpha 90.000000
_cell_angle_beta 50.118401
_cell_angle_gamma 90.000000
_cell_volume 2289.305164
_symmetry_space_group_name_H-M "C 2/M"
_symmetry_group_IT_number 12
_symmetry_cell_setting 'monoclinic'
loop_
_space_group_symop_operation_xyz
x,y,z
-x,y,-z
-x,-y,-z
x,-y,z
1/2+x,1/2+y,z
1/2-x,1/2+y,-z
1/2-x,1/2-y,-z
1/2+x,1/2-y,z
loop_
_atom_site_type_symbol
_atom_site_label
_atom_site_fract_x
_atom_site_fract_y
_atom_site_fract_z
Si Si1 0.958482 0.744054 0.665754
Si Si2 0.090820 0.000000 0.735709
Si Si3 0.250514 0.328449 0.178142
Si Si4 0.047079 0.599437 0.719796
Si Si5 0.052283 0.755452 0.059343
Si Si6 0.367351 0.500000 0.016587
Si Si7 0.245235 0.853817 0.542393
O O1 0.848548 0.710579 0.768596
O O2 0.966028 0.794563 0.786705
O O3 0.000000 0.786818 0.500000
O O4 0.022025 0.655415 0.624753
O O5 0.149027 0.913013 0.624152
O O6 0.974244 0.000000 0.844355
O O7 0.111122 0.000000 0.860412
O O8 0.237143 0.355148 0.331703
O O9 0.334826 0.254967 0.084793
O O10 0.300818 0.413445 0.061532
O O11 0.011391 0.500000 0.750167
O O12 0.161713 0.602590 0.617616
O O13 0.993623 0.658593 0.875852
O O14 0.000000 0.801729 0.000000
O O15 0.250000 0.750000 0.500000
#
# Coordination Sequence:
#
# PCOD9213532 Si02
#       7
#     8   4   8   8   8   4   8
#     4  10  22  39  59  91 121 159 200 254 305 362
#     4   9  20  36  51  86 127 155 204 262 301 364
#     4  11  21  37  59  87 123 158 202 250 311 363
#     4  10  22  38  60  88 122 157 202 253 305 366
#     4  10  23  38  59  88 123 159 200 246 300 367
#     4   9  22  32  56  85 119 153 196 258 308 350
#     4  11  21  35  60  87 123 164 205 253 309 363
#
# _framework density 20.967061000000001
#
# number of rings (size 3 to 8) (size 9 to 14) (size 15 to 20)
#    1.000    0.833    2.500    1.500    8.167    0.667 
#    0.000    0.000    0.000    0.000    0.000    0.583 
#    0.000    0.167    0.000    0.000    0.000    0.000 
#
# Total GULP energy -133680.603566 kJ/mol
# GULP energy per Si atom -5570.025149 kJ/mol
# Density = 2.091934 g / cm^3
# Si number density = 20.967061 Si / 1000 Ang^3
#
#
#
# Elastic Constant Matrix: (Units=GPa)
#
#
# Indices 1 2 3 4 5 6 
#
# 1 97.6948 14.8485 46.7093 0.0000 -24.3388 0.0000
# 2 14.8485 84.4030 34.7119 0.0000 -20.1325 0.0000
# 3 46.7093 34.7119 85.0569 0.0000 -29.1590 0.0000
# 4 0.0000 0.0000 0.0000 25.5429 0.0000 -12.1354
# 5 -24.3388 -20.1325 -29.1590 0.0000 52.0344 0.0000
# 6 0.0000 0.0000 0.0000 -12.1354 0.0000 8.2934
#
#
#
# Elastic Compliance Matrix: (Units=1/GPa)
#
#
# Indices 1 2 3 4 5 6 
#
# 1 0.014307 0.001218 -0.007301 0.000000 0.003072 0.000000
# 2 0.001218 0.014676 -0.005590 0.000000 0.003115 0.000000
# 3 -0.007301 -0.005590 0.019972 0.000000 0.005614 0.000000
# 4 0.000000 0.000000 0.000000 0.128439 0.000000 0.187939
# 5 0.003072 0.003115 0.005614 0.000000 0.025006 0.000000
# 6 0.000000 0.000000 0.000000 0.187939 0.000000 0.395580
#
#
# Mechanical properties :
#
#
# Convention : Reuss Voigt Hill
#
# Bulk Modulus (GPa) = 39.04807 51.07713 45.06260
# Shear Modulus (GPa) = 7.93826 28.56648 18.25237
#
# Velocity S-wave (km/s) = 1.94789 3.69514 2.95367
# Velocity P-wave (km/s) = 4.87063 6.52832 5.75942
#
# Compressibility (1/GPa) = 0.02560946
#
# Stress axis : x y z
#
# Youngs Moduli (GPa) = 69.89751 68.13949 50.07002
#
# Poissons Ratio (x) = -0.08302 0.36554
# Poissons Ratio (y) = -0.08516 0.27991
# Poissons Ratio (z) = 0.51029 0.38092
#
# Static dielectric constant tensor:
#      x y z
#    x 1.675590 0.000000 -0.141280 
#    y 0.000000 1.777050 0.000000 
#    z -0.141280 0.000000 1.564930 
# 
# From -- ./inp_files/167984.got.cif
#   From: 2010.05.17/outbox.cif.g08.bks.cpg/sg12_84_cif.got.tgz:167984.got - 2010.06.03 13:09:07.
