data_PCOD9213928
_publ_section_title
;
Structure prediction by ZEFSAII (Michael W. Deem and Ramdas Pophale) SiO2 
 PCOD9213928
Probable space group: C 2/M
;
_chemical_formula_sum "Si O2"
_cell_formula_units_Z 48
_cell_length_a 20.863448
_cell_length_b 8.179149
_cell_length_c 30.133209
_cell_angle_alpha 90.000000
_cell_angle_beta 23.355847
_cell_angle_gamma 90.000000
_cell_volume 2038.532516
_symmetry_space_group_name_H-M "C 2/M"
_symmetry_group_IT_number 12
_symmetry_cell_setting 'monoclinic'
loop_
_space_group_symop_operation_xyz
x,y,z
-x,y,-z
-x,-y,-z
x,-y,z
1/2+x,1/2+y,z
1/2-x,1/2+y,-z
1/2-x,1/2-y,-z
1/2+x,1/2-y,z
loop_
_atom_site_type_symbol
_atom_site_label
_atom_site_fract_x
_atom_site_fract_y
_atom_site_fract_z
Si Si1 0.868836 0.187250 0.386930
Si Si2 0.730470 0.197127 0.250560
Si Si3 0.329387 0.305758 0.904000
Si Si4 0.893091 0.191912 0.509200
Si Si5 0.328068 0.697922 0.281825
Si Si6 0.722825 0.186821 0.157832
O O1 0.750000 0.250000 0.500000
O O2 0.751432 0.200975 0.419899
O O3 0.027604 0.297032 0.284587
O O4 0.921433 0.000000 0.359799
O O5 0.555331 0.253528 0.380597
O O6 0.847592 0.238871 0.217068
O O7 0.774184 0.259431 0.173310
O O8 0.722708 0.000000 0.251669
O O9 0.340843 0.500000 0.896328
O O10 0.514083 0.243256 0.792012
O O11 0.244359 0.257139 0.911954
O O12 0.250000 0.250000 0.000000
O O13 0.837947 0.221037 0.595325
O O14 0.873358 0.000000 0.512614
O O15 0.312391 0.500000 0.294118
O O16 0.777560 0.000000 0.121897
#
# Coordination Sequence:
#
# PCOD9213928 Si02
#       6
#     8   8   8   8   8   8
#     4  12  22  34  54  84 122 163 204 248 294 351
#     4  10  22  39  60  87 125 167 203 242 295 362
#     4  11  24  43  68  91 116 151 200 256 310 364
#     4  12  23  34  55  88 126 167 206 246 294 351
#     4  10  22  41  62  86 120 164 206 248 301 359
#     4  11  22  38  62  90 120 155 198 248 303 361
#
# _framework density 23.546351000000001
#
# number of rings (size 3 to 8) (size 9 to 14) (size 15 to 20)
#    0.000    1.000    3.333    4.500    0.000    4.000 
#    0.000    0.833    0.000    5.000    0.000    0.000 
#    0.000    0.000    0.000    0.000    0.000    0.000 
#
# Total GULP energy -133933.371289 kJ/mol
# GULP energy per Si atom -5580.557137 kJ/mol
# Density = 2.349276 g / cm^3
# Si number density = 23.546351 Si / 1000 Ang^3
#
#
#
# Elastic Constant Matrix: (Units=GPa)
#
#
# Indices 1 2 3 4 5 6 
#
# 1 113.1914 19.8838 17.6348 0.0048 51.6339 0.0374
# 2 19.8838 48.8131 3.3578 -0.0026 10.6893 0.0007
# 3 17.6348 3.3578 78.5837 0.0163 41.8354 -0.0026
# 4 0.0048 -0.0026 0.0163 24.9545 -0.0055 11.2902
# 5 51.6339 10.6893 41.8354 -0.0055 46.2800 -0.0058
# 6 0.0374 0.0007 -0.0026 11.2902 -0.0058 19.0206
#
#
#
# Elastic Compliance Matrix: (Units=1/GPa)
#
#
# Indices 1 2 3 4 5 6 
#
# 1 0.028875 -0.002206 0.020229 0.000002 -0.049992 -0.000070
# 2 -0.002206 0.022210 0.001863 -0.000001 -0.004353 0.000003
# 3 0.020229 0.001863 0.039229 -0.000025 -0.058461 -0.000037
# 4 0.000002 -0.000001 -0.000025 0.054786 0.000023 -0.032520
# 5 -0.049992 -0.004353 -0.058461 0.000023 0.131235 0.000117
# 6 -0.000070 0.000003 -0.000037 -0.032520 0.000117 0.071878
#
#
# Mechanical properties :
#
#
# Convention : Reuss Voigt Hill
#
# Bulk Modulus (GPa) = 7.68723 35.81567 21.75145
# Shear Modulus (GPa) = 14.21248 31.36514 22.78881
#
# Velocity S-wave (km/s) = 2.45948 3.65370 3.11437
# Velocity P-wave (km/s) = 3.36708 5.74831 4.71064
#
# Compressibility (1/GPa) = 0.13008586
#
# Stress axis : x y z
#
# Youngs Moduli (GPa) = 34.63157 45.02472 25.49144
#
# Poissons Ratio (x) = 0.09934 -0.51566
# Poissons Ratio (y) = 0.07641 -0.04750
# Poissons Ratio (z) = -0.70055 -0.08390
#
# Static dielectric constant tensor:
#      x y z
#    x 1.847480 -0.000020 0.000610 
#    y -0.000020 1.826060 -0.000010 
#    z 0.000610 -0.000010 1.893540 
# 
# From -- ./inp_files/230451.got.cif
#   From: 2010.05.17/outbox.cif.g08.bks.cpg/sg12_116_cif.got.tgz:230451.got - 2010.06.03 13:09:07.
