data_PCOD9213574
_publ_section_title
;
Structure prediction by ZEFSAII (Michael W. Deem and Ramdas Pophale) SiO2 
 PCOD9213574
Probable space group: C 2/M
;
_chemical_formula_sum "Si O2"
_cell_formula_units_Z 48
_cell_length_a 11.956757
_cell_length_b 16.524858
_cell_length_c 21.443003
_cell_angle_alpha 90.000000
_cell_angle_beta 143.820934
_cell_angle_gamma 90.000000
_cell_volume 2501.021748
_symmetry_space_group_name_H-M "C 2/M"
_symmetry_group_IT_number 12
_symmetry_cell_setting 'monoclinic'
loop_
_space_group_symop_operation_xyz
x,y,z
-x,y,-z
-x,-y,-z
x,-y,z
1/2+x,1/2+y,z
1/2-x,1/2+y,-z
1/2-x,1/2-y,-z
1/2+x,1/2-y,z
loop_
_atom_site_type_symbol
_atom_site_label
_atom_site_fract_x
_atom_site_fract_y
_atom_site_fract_z
Si Si1 0.146777 0.091449 0.194765
Si Si2 0.074165 0.794367 0.386737
Si Si3 0.548693 0.148109 0.755799
Si Si4 0.854372 0.091764 0.376863
Si Si5 0.140822 0.794228 0.008353
Si Si6 0.287036 0.097150 0.390964
O O1 0.340981 0.092070 0.243335
O O2 0.200400 0.126245 0.286553
O O3 0.997737 0.143623 0.089236
O O4 0.076201 0.000000 0.170372
O O5 0.250000 0.750000 0.500000
O O6 0.160149 0.870342 0.388988
O O7 0.990801 0.730861 0.299875
O O8 0.919796 0.834244 0.362506
O O9 0.354317 0.110248 0.691745
O O10 0.691492 0.165062 0.876599
O O11 0.000000 0.092362 0.500000
O O12 0.860503 0.000000 0.352319
O O13 0.250000 0.750000 0.000000
O O14 0.000000 0.755580 0.000000
O O15 0.500000 0.126780 0.500000
O O16 0.292352 0.000000 0.390820
#
# Coordination Sequence:
#
# PCOD9213574 Si02
#       6
#     8   8   8   8   8   8
#     4  10  22  42  66  92 123 162 206 257 315 377
#     4  12  24  37  61  89 125 166 208 255 314 379
#     4  11  24  38  66  92 122 160 212 261 308 374
#     4  11  25  42  59  88 130 169 207 258 318 378
#     4  10  23  41  65  93 125 163 209 263 315 372
#     4  10  22  38  61  88 123 162 203 252 311 380
#
# _framework density 19.192155
#
# number of rings (size 3 to 8) (size 9 to 14) (size 15 to 20)
#    0.000    1.333    1.667    3.000    9.333    3.667 
#    0.000    0.000    0.000    0.500    0.000    0.000 
#    0.000    0.000    0.000    0.000    0.000    0.000 
#
# Total GULP energy -133896.568689 kJ/mol
# GULP energy per Si atom -5579.023695 kJ/mol
# Density = 1.914847 g / cm^3
# Si number density = 19.192155 Si / 1000 Ang^3
#
#
#
# Elastic Constant Matrix: (Units=GPa)
#
#
# Indices 1 2 3 4 5 6 
#
# 1 109.8134 22.8866 37.5685 0.0000 10.6097 0.0000
# 2 22.8866 54.0505 22.9783 0.0000 4.4167 0.0000
# 3 37.5685 22.9783 124.5567 0.0002 3.6604 0.0003
# 4 0.0000 0.0000 0.0002 10.6015 0.0000 -0.7069
# 5 10.6097 4.4167 3.6604 0.0000 34.0398 0.0001
# 6 0.0000 0.0000 0.0003 -0.7069 0.0001 34.8583
#
#
#
# Elastic Compliance Matrix: (Units=1/GPa)
#
#
# Indices 1 2 3 4 5 6 
#
# 1 0.010950 -0.003305 -0.002614 0.000000 -0.002703 0.000000
# 2 -0.003305 0.021241 -0.002880 0.000000 -0.001416 0.000000
# 3 -0.002614 -0.002880 0.009343 0.000000 0.000184 0.000000
# 4 0.000000 0.000000 0.000000 0.094454 0.000000 0.001915
# 5 -0.002703 -0.001416 0.000184 0.000000 0.030384 0.000000
# 6 0.000000 0.000000 0.000000 0.001915 0.000000 0.028726
#
#
# Mechanical properties :
#
#
# Convention : Reuss Voigt Hill
#
# Bulk Modulus (GPa) = 41.77673 50.58747 46.18210
# Shear Modulus (GPa) = 22.65783 29.56573 26.11178
#
# Velocity S-wave (km/s) = 3.43968 3.92919 3.69256
# Velocity P-wave (km/s) = 6.13107 6.85568 6.50348
#
# Compressibility (1/GPa) = 0.02393677
#
# Stress axis : x y z
#
# Youngs Moduli (GPa) = 91.32023 47.07950 107.03474
#
# Poissons Ratio (x) = 0.15558 0.27976
# Poissons Ratio (y) = 0.30178 0.30827
# Poissons Ratio (z) = 0.23869 0.13559
#
# Static dielectric constant tensor:
#      x y z
#    x 1.679330 0.000000 -0.005360 
#    y 0.000000 1.668030 0.000000 
#    z -0.005360 0.000000 1.638610 
# 
# From -- ./inp_files/131761.got.cif
#   From: 2010.05.17/outbox.cif.g08.bks.cpg/sg12_66_cif.got.tgz:131761.got - 2010.06.03 13:09:07.
