data_PCOD9213030
_publ_section_title
;
Structure prediction by ZEFSAII (Michael W. Deem and Ramdas Pophale) SiO2 
 PCOD9213030
Probable space group: C 2/M
;
_chemical_formula_sum "Si O2"
_cell_formula_units_Z 56
_cell_length_a 17.857008
_cell_length_b 14.198875
_cell_length_c 21.047975
_cell_angle_alpha 90.000000
_cell_angle_beta 33.049519
_cell_angle_gamma 90.000000
_cell_volume 2910.443354
_symmetry_space_group_name_H-M "C 2/M"
_symmetry_group_IT_number 12
_symmetry_cell_setting 'monoclinic'
loop_
_space_group_symop_operation_xyz
x,y,z
-x,y,-z
-x,-y,-z
x,-y,z
1/2+x,1/2+y,z
1/2-x,1/2+y,-z
1/2-x,1/2-y,-z
1/2+x,1/2-y,z
loop_
_atom_site_type_symbol
_atom_site_label
_atom_site_fract_x
_atom_site_fract_y
_atom_site_fract_z
Si Si1 0.352821 0.390802 0.276713
Si Si2 0.703468 0.392262 0.532205
Si Si3 0.525476 0.787180 0.651616
Si Si4 0.407844 0.744343 0.868870
Si Si5 0.226732 0.393269 0.816748
Si Si6 0.376366 0.773145 0.637201
Si Si7 0.558905 0.894943 0.055727
O O1 0.352559 0.500000 0.257142
O O2 0.308470 0.386642 0.382432
O O3 0.505459 0.346018 0.169318
O O4 0.246060 0.329689 0.310804
O O5 0.674911 0.500000 0.533147
O O6 0.603287 0.310743 0.577213
O O7 0.857219 0.358507 0.408338
O O8 0.432187 0.760519 0.777461
O O9 0.444100 0.826674 0.649211
O O10 0.469705 0.830283 0.864601
O O11 0.250000 0.750000 0.000000
O O12 0.283856 0.500000 0.779682
O O13 0.317907 0.320671 0.712696
O O14 0.081710 0.398569 0.883502
O O15 0.179638 0.363153 0.921315
O O16 0.500000 0.755406 0.500000
O O17 0.596829 0.000000 0.048940
#
# Coordination Sequence:
#
# PCOD9213030 Si02
#       7
#     8   8   8   8   8   8   8
#     4  10  22  41  63  87 120 164 210 252 299 361
#     4   9  19  39  61  82 116 160 202 250 302 358
#     4  10  22  36  57  91 121 152 206 250 305 366
#     4  11  22  39  62  89 119 160 202 255 307 363
#     4   9  19  35  58  88 118 153 196 240 301 368
#     4  12  22  37  61  91 126 162 201 254 306 365
#     4   9  18  36  61  84 113 155 198 242 298 362
#
# _framework density 19.241056
#
# number of rings (size 3 to 8) (size 9 to 14) (size 15 to 20)
#    0.000    2.000    2.857    1.714    0.000    2.857 
#    0.000    4.286    0.000    6.000    0.000    0.000 
#    0.000    0.000    0.000    0.000    0.000    0.000 
#
# Total GULP energy -156099.547547 kJ/mol
# GULP energy per Si atom -5574.983841 kJ/mol
# Density = 1.919726 g / cm^3
# Si number density = 19.241056 Si / 1000 Ang^3
#
#
#
# Elastic Constant Matrix: (Units=GPa)
#
#
# Indices 1 2 3 4 5 6 
#
# 1 55.3710 4.0373 15.2811 0.0001 -4.8059 0.0001
# 2 4.0373 69.9951 26.7733 0.0005 -1.9328 0.0002
# 3 15.2811 26.7733 107.7999 0.0004 -12.3890 0.0000
# 4 0.0001 0.0005 0.0004 44.9755 -0.0004 27.2143
# 5 -4.8059 -1.9328 -12.3890 -0.0004 20.9929 -0.0001
# 6 0.0001 0.0002 0.0000 27.2143 -0.0001 30.8016
#
#
#
# Elastic Compliance Matrix: (Units=1/GPa)
#
#
# Indices 1 2 3 4 5 6 
#
# 1 0.018966 -0.000126 -0.002317 0.000000 0.002963 0.000000
# 2 -0.000126 0.015804 -0.004016 0.000000 -0.000944 0.000000
# 3 -0.002317 -0.004016 0.011263 0.000000 0.005747 0.000000
# 4 0.000000 0.000000 0.000000 0.047777 0.000001 -0.042212
# 5 0.002963 -0.000944 0.005747 0.000001 0.051618 0.000000
# 6 0.000000 0.000000 0.000000 -0.042212 0.000000 0.069762
#
#
# Mechanical properties :
#
#
# Convention : Reuss Voigt Hill
#
# Bulk Modulus (GPa) = 30.19725 36.14993 33.17359
# Shear Modulus (GPa) = 20.90792 31.82562 26.36677
#
# Velocity S-wave (km/s) = 3.29998 4.07141 3.70582
# Velocity P-wave (km/s) = 5.49983 6.39770 5.96568
#
# Compressibility (1/GPa) = 0.03311560
#
# Stress axis : x y z
#
# Youngs Moduli (GPa) = 52.72682 63.27537 88.78936
#
# Poissons Ratio (x) = 0.00797 0.20569
# Poissons Ratio (y) = 0.00664 0.35655
# Poissons Ratio (z) = 0.12215 0.25409
#
# Static dielectric constant tensor:
#      x y z
#    x 1.742100 0.000000 -0.028200 
#    y 0.000000 1.687850 0.000000 
#    z -0.028200 0.000000 1.676370 
# 
# From -- ./inp_files/316716.got.cif
#   From: 2010.05.17/outbox.cif.g08.bks.cpg/sg12_159_cif.got.tgz:316716.got - 2010.06.03 13:09:07.
