data_PCOD9213085
_publ_section_title
;
Structure prediction by ZEFSAII (Michael W. Deem and Ramdas Pophale) SiO2 
 PCOD9213085
Probable space group: C 2/M
;
_chemical_formula_sum "Si O2"
_cell_formula_units_Z 48
_cell_length_a 8.304802
_cell_length_b 20.744831
_cell_length_c 15.630858
_cell_angle_alpha 90.000000
_cell_angle_beta 53.261102
_cell_angle_gamma 90.000000
_cell_volume 2158.017375
_symmetry_space_group_name_H-M "C 2/M"
_symmetry_group_IT_number 12
_symmetry_cell_setting 'monoclinic'
loop_
_space_group_symop_operation_xyz
x,y,z
-x,y,-z
-x,-y,-z
x,-y,z
1/2+x,1/2+y,z
1/2-x,1/2+y,-z
1/2-x,1/2-y,-z
1/2+x,1/2-y,z
loop_
_atom_site_type_symbol
_atom_site_label
_atom_site_fract_x
_atom_site_fract_y
_atom_site_fract_z
Si Si1 0.299939 0.238514 0.268801
Si Si2 0.542307 0.424911 0.797185
Si Si3 0.142181 0.806451 0.582730
Si Si4 0.268435 0.932623 0.544794
Si Si5 0.702447 0.839306 0.169239
Si Si6 0.280620 0.825055 0.025480
O O1 0.283132 0.295463 0.343949
O O2 0.478622 0.190676 0.236563
O O3 0.318173 0.276456 0.172918
O O4 0.093755 0.200845 0.337922
O O5 0.485857 0.500000 0.837130
O O6 0.623072 0.428567 0.674013
O O7 0.730477 0.398811 0.793719
O O8 0.371612 0.368872 0.867322
O O9 0.250000 0.750000 0.500000
O O10 0.212764 0.869698 0.512288
O O11 0.500000 0.928792 0.500000
O O12 0.238086 0.000000 0.509247
O O13 0.744176 0.858643 0.058943
O O14 0.500000 0.829401 0.000000
O O15 0.250000 0.750000 0.000000
#
# Coordination Sequence:
#
# PCOD9213085 Si02
#       6
#     8   8   8   8   8   8
#     4  10  22  36  62  96 135 172 224 284 349 406
#     4  11  25  46  69  97 140 187 233 283 345 419
#     4  11  21  37  64  98 133 174 227 290 343 403
#     4  10  22  41  67  96 134 184 229 273 338 415
#     4  11  22  39  63  93 134 176 224 284 340 411
#     4  12  26  42  70 103 134 178 230 289 348 410
#
# _framework density 22.242637999999999
#
# number of rings (size 3 to 8) (size 9 to 14) (size 15 to 20)
#    0.000    1.167    1.667    5.000    7.000    1.667 
#    0.000    0.833    0.000    2.000    0.000    0.000 
#    0.000    0.000    0.000    0.000    0.000    0.000 
#
# Total GULP energy -133750.405755 kJ/mol
# GULP energy per Si atom -5572.933573 kJ/mol
# Density = 2.219201 g / cm^3
# Si number density = 22.242638 Si / 1000 Ang^3
#
#
#
# Elastic Constant Matrix: (Units=GPa)
#
#
# Indices 1 2 3 4 5 6 
#
# 1 93.8232 35.0465 15.0974 0.0000 -8.6255 0.0000
# 2 35.0465 164.9025 26.9184 0.0000 -32.3245 0.0000
# 3 15.0974 26.9184 76.2956 0.0000 -7.4574 0.0000
# 4 0.0000 0.0000 0.0000 27.2302 0.0000 3.5405
# 5 -8.6255 -32.3245 -7.4574 0.0000 30.5917 0.0000
# 6 0.0000 0.0000 0.0000 3.5405 0.0000 18.0700
#
#
#
# Elastic Compliance Matrix: (Units=1/GPa)
#
#
# Indices 1 2 3 4 5 6 
#
# 1 0.011756 -0.002112 -0.001511 0.000000 0.000715 0.000000
# 2 -0.002112 0.008323 -0.001759 0.000000 0.007771 0.000000
# 3 -0.001511 -0.001759 0.014140 0.000000 0.001162 0.000000
# 4 0.000000 0.000000 0.000000 0.037684 0.000000 -0.007383
# 5 0.000715 0.007771 0.001162 0.000000 0.041384 0.000000
# 6 0.000000 0.000000 0.000000 -0.007383 0.000000 0.056787
#
#
# Mechanical properties :
#
#
# Convention : Reuss Voigt Hill
#
# Bulk Modulus (GPa) = 42.63457 54.34953 48.49205
# Shear Modulus (GPa) = 26.50303 32.37565 29.43934
#
# Velocity S-wave (km/s) = 3.45562 3.81933 3.64202
# Velocity P-wave (km/s) = 5.92716 6.62854 6.28764
#
# Compressibility (1/GPa) = 0.02345514
#
# Stress axis : x y z
#
# Youngs Moduli (GPa) = 85.06257 120.14405 70.72009
#
# Poissons Ratio (x) = 0.25370 0.10689
# Poissons Ratio (y) = 0.17962 0.12441
# Poissons Ratio (z) = 0.12856 0.21136
#
# Static dielectric constant tensor:
#      x y z
#    x 1.861230 0.000000 0.026750 
#    y 0.000000 1.950470 0.000000 
#    z 0.026750 0.000000 1.921900 
# 
# From -- ./inp_files/257919.got.cif
#   From: 2010.05.17/outbox.cif.g08.bks.cpg/sg12_129_cif.got.tgz:257919.got - 2010.06.03 13:09:07.
