data_PCOD9213493
_publ_section_title
;
Structure prediction by ZEFSAII (Michael W. Deem and Ramdas Pophale) SiO2 
 PCOD9213493
Probable space group: C 2/M
;
_chemical_formula_sum "Si O2"
_cell_formula_units_Z 48
_cell_length_a 9.320454
_cell_length_b 29.909558
_cell_length_c 16.364717
_cell_angle_alpha 90.000000
_cell_angle_beta 148.864484
_cell_angle_gamma 90.000000
_cell_volume 2358.847516
_symmetry_space_group_name_H-M "C 2/M"
_symmetry_group_IT_number 12
_symmetry_cell_setting 'monoclinic'
loop_
_space_group_symop_operation_xyz
x,y,z
-x,y,-z
-x,-y,-z
x,-y,z
1/2+x,1/2+y,z
1/2-x,1/2+y,-z
1/2-x,1/2-y,-z
1/2+x,1/2-y,z
loop_
_atom_site_type_symbol
_atom_site_label
_atom_site_fract_x
_atom_site_fract_y
_atom_site_fract_z
Si Si1 0.713198 0.279874 0.175260
Si Si2 0.833799 0.217660 0.663923
Si Si3 0.417796 0.949428 0.652461
Si Si4 0.870873 0.883139 0.852344
Si Si5 0.692916 0.632739 0.846235
Si Si6 0.697981 0.551350 0.722848
O O1 0.591507 0.271359 0.205472
O O2 0.744128 0.333443 0.186601
O O3 0.005767 0.254964 0.309229
O O4 0.500000 0.266614 0.000000
O O5 0.500000 0.216355 0.500000
O O6 0.970505 0.169783 0.708499
O O7 0.620805 0.915373 0.708040
O O8 0.378261 0.938565 0.729454
O O9 0.117025 0.948384 0.464240
O O10 0.524570 0.000000 0.699075
O O11 0.090713 0.880592 0.886685
O O12 0.000000 0.899752 0.000000
O O13 0.718986 0.589318 0.801403
O O14 0.000000 0.653589 0.000000
O O15 0.759902 0.500000 0.779659
#
# Coordination Sequence:
#
# PCOD9213493 Si02
#       6
#     8   8   8   8   8   8
#     4  10  22  41  62  87 123 163 201 246 301 367
#     4  11  24  41  63  91 124 155 204 255 301 361
#     4   9  19  38  61  88 121 158 198 247 301 357
#     4  10  22  38  59  88 121 158 206 245 296 359
#     4  11  24  39  62  88 122 161 200 248 303 357
#     4   9  20  38  61  88 120 158 200 244 300 360
#
# _framework density 20.348922000000002
#
# number of rings (size 3 to 8) (size 9 to 14) (size 15 to 20)
#    0.000    2.000    0.000    3.500    4.667    5.333 
#    3.000    1.667    0.000    0.000    0.000    0.000 
#    0.000    0.000    0.000    0.000    0.000    0.000 
#
# Total GULP energy -133999.180875 kJ/mol
# GULP energy per Si atom -5583.299203 kJ/mol
# Density = 2.030261 g / cm^3
# Si number density = 20.348922 Si / 1000 Ang^3
#
#
#
# Elastic Constant Matrix: (Units=GPa)
#
#
# Indices 1 2 3 4 5 6 
#
# 1 58.5547 43.1854 26.7711 0.0000 12.9622 0.0000
# 2 43.1854 73.2281 39.6552 0.0000 14.1873 0.0000
# 3 26.7711 39.6552 68.5514 0.0000 21.4187 0.0000
# 4 0.0000 0.0000 0.0000 20.8539 0.0000 -12.4690
# 5 12.9622 14.1873 21.4187 0.0000 39.1282 0.0000
# 6 0.0000 0.0000 0.0000 -12.4690 0.0000 -16.3711
#
#
#
# Elastic Compliance Matrix: (Units=1/GPa)
#
#
# Indices 1 2 3 4 5 6 
#
# 1 0.030825 -0.016856 -0.001214 0.000000 -0.003435 0.000000
# 2 -0.016856 0.029142 -0.010517 0.000000 0.000775 0.000000
# 3 -0.001214 -0.010517 0.023919 0.000000 -0.008878 0.000000
# 4 0.000000 0.000000 0.000000 0.032948 0.000000 -0.025095
# 5 -0.003435 0.000775 -0.008878 0.000000 0.031274 0.000000
# 6 0.000000 0.000000 0.000000 -0.025095 0.000000 -0.041970
#
#
# Mechanical properties :
#
#
# Convention : Reuss Voigt Hill
#
# Bulk Modulus (GPa) = 37.43569 46.61752 42.02661
# Shear Modulus (GPa) = 29.03331 14.77036 21.90183
#
# Velocity S-wave (km/s) = 3.78136 2.69709 3.28428
# Velocity P-wave (km/s) = 6.12387 5.71471 5.92282
#
# Compressibility (1/GPa) = 0.02671247
#
# Stress axis : x y z
#
# Youngs Moduli (GPa) = 32.44120 34.31514 41.80694
#
# Poissons Ratio (x) = 0.57840 0.05076
# Poissons Ratio (y) = 0.54682 0.43969
# Poissons Ratio (z) = 0.03938 0.36090
#
# Static dielectric constant tensor:
#      x y z
#    x 1.699020 0.000000 -0.033730 
#    y 0.000000 1.720630 0.000000 
#    z -0.033730 0.000000 1.747030 
# 
# From -- ./inp_files/200242.got.cif
#   From: 2010.05.17/outbox.cif.g08.bks.cpg/sg12_101_cif.got.tgz:200242.got - 2010.06.03 13:09:07.
