data_PCOD9213240
_publ_section_title
;
Structure prediction by ZEFSAII (Michael W. Deem and Ramdas Pophale) SiO2 
 PCOD9213240
Probable space group: C 2/M
;
_chemical_formula_sum "Si O2"
_cell_formula_units_Z 42
_cell_length_a 22.221661
_cell_length_b 13.993696
_cell_length_c 9.010136
_cell_angle_alpha 90.000000
_cell_angle_beta 46.034987
_cell_angle_gamma 90.000000
_cell_volume 2016.649071
_symmetry_space_group_name_H-M "C 2/M"
_symmetry_group_IT_number 12
_symmetry_cell_setting 'monoclinic'
loop_
_space_group_symop_operation_xyz
x,y,z
-x,y,-z
-x,-y,-z
x,-y,z
1/2+x,1/2+y,z
1/2-x,1/2+y,-z
1/2-x,1/2-y,-z
1/2+x,1/2-y,z
loop_
_atom_site_type_symbol
_atom_site_label
_atom_site_fract_x
_atom_site_fract_y
_atom_site_fract_z
Si Si1 0.669786 0.113983 0.209338
Si Si2 0.681745 0.256769 0.935587
Si Si3 0.255993 0.103000 0.389685
Si Si4 0.912228 0.155617 0.173231
Si Si5 0.412443 0.149291 0.337219
Si Si6 0.000000 0.500000 0.000000
O O1 0.761245 0.159586 0.092214
O O2 0.611483 0.131967 0.452187
O O3 0.673199 0.000000 0.174321
O O4 0.643194 0.183151 0.119921
O O5 0.740294 0.189679 0.731431
O O6 0.616165 0.301746 0.935718
O O7 0.168719 0.103551 0.624327
O O8 0.331030 0.116676 0.378701
O O9 0.269723 0.000000 0.292413
O O10 0.927280 0.242666 0.262271
O O11 0.000000 0.104699 0.000000
O O12 0.485912 0.083146 0.150904
#
# Coordination Sequence:
#
# PCOD9213240 Si02
#       6
#     8   8   8   8   8   2
#     4  11  20  37  62  90 122 160 204 252 307 385
#     4  10  22  37  60  91 120 162 206 250 311 363
#     4  11  20  37  61  87 120 162 208 252 303 363
#     4  11  22  38  59  85 123 162 204 254 305 358
#     4  11  20  36  60  88 122 157 201 250 318 366
#     4  12  20  32  64  94 112 164 200 254 322 368
#
# _framework density 20.826629000000001
#
# number of rings (size 3 to 8) (size 9 to 14) (size 15 to 20)
#    0.000    1.143    6.667    1.714    0.000    0.381 
#    0.000    0.952    0.000    5.714    0.000    4.000 
#    0.000    0.000    0.000    0.000    0.000    0.000 
#
# Total GULP energy -117024.860310 kJ/mol
# GULP energy per Si atom -5572.612396 kJ/mol
# Density = 2.077923 g / cm^3
# Si number density = 20.826629 Si / 1000 Ang^3
#
#
#
# Elastic Constant Matrix: (Units=GPa)
#
#
# Indices 1 2 3 4 5 6 
#
# 1 24.4425 12.2621 24.6845 0.0000 5.3591 0.0000
# 2 12.2621 112.4403 17.0839 0.0000 12.7470 0.0000
# 3 24.6845 17.0839 73.7707 0.0000 26.5441 0.0000
# 4 0.0000 0.0000 0.0000 93.7817 0.0000 -33.9167
# 5 5.3591 12.7470 26.5441 0.0000 34.5009 0.0000
# 6 0.0000 0.0000 0.0000 -33.9167 0.0000 26.0987
#
#
#
# Elastic Compliance Matrix: (Units=1/GPa)
#
#
# Indices 1 2 3 4 5 6 
#
# 1 0.065956 -0.004621 -0.024790 0.000000 0.010535 0.000000
# 2 -0.004621 0.009692 0.000459 0.000000 -0.003216 0.000000
# 3 -0.024790 0.000459 0.028237 0.000000 -0.018043 0.000000
# 4 0.000000 0.000000 0.000000 0.020119 0.000000 0.026145
# 5 0.010535 -0.003216 -0.018043 0.000000 0.042419 0.000000
# 6 0.000000 0.000000 0.000000 0.026145 0.000000 0.072294
#
#
# Mechanical properties :
#
#
# Convention : Reuss Voigt Hill
#
# Bulk Modulus (GPa) = 21.74805 35.41274 28.58040
# Shear Modulus (GPa) = 16.02830 41.31779 28.67304
#
# Velocity S-wave (km/s) = 2.77719 4.45892 3.71448
# Velocity P-wave (km/s) = 4.55508 6.59923 5.67004
#
# Compressibility (1/GPa) = 0.04598113
#
# Stress axis : x y z
#
# Youngs Moduli (GPa) = 15.16152 103.17350 35.41477
#
# Poissons Ratio (x) = 0.47672 0.87795
# Poissons Ratio (y) = 0.07006 -0.01625
# Poissons Ratio (z) = 0.37586 -0.04734
#
# Static dielectric constant tensor:
#      x y z
#    x 1.770890 0.000000 -0.025080 
#    y 0.000000 1.710220 0.000000 
#    z -0.025080 0.000000 1.773630 
# 
# From -- ./inp_files/104306.got.cif
#   From: 2010.05.17/outbox.cif.g08.bks.cpg/sg12_53_cif.got.tgz:104306.got - 2010.06.03 13:09:07.
