data_PCOD9213937
_publ_section_title
;
Structure prediction by ZEFSAII (Michael W. Deem and Ramdas Pophale) SiO2 
 PCOD9213937
Probable space group: C 2/M
;
_chemical_formula_sum "Si O2"
_cell_formula_units_Z 64
_cell_length_a 17.930724
_cell_length_b 19.004074
_cell_length_c 14.246393
_cell_angle_alpha 90.000000
_cell_angle_beta 139.126832
_cell_angle_gamma 90.000000
_cell_volume 3176.756813
_symmetry_space_group_name_H-M "C 2/M"
_symmetry_group_IT_number 12
_symmetry_cell_setting 'monoclinic'
loop_
_space_group_symop_operation_xyz
x,y,z
-x,y,-z
-x,-y,-z
x,-y,z
1/2+x,1/2+y,z
1/2-x,1/2+y,-z
1/2-x,1/2-y,-z
1/2+x,1/2-y,z
loop_
_atom_site_type_symbol
_atom_site_label
_atom_site_fract_x
_atom_site_fract_y
_atom_site_fract_z
Si Si1 0.338744 0.078602 0.680137
Si Si2 0.843524 0.833269 0.411128
Si Si3 0.131288 0.679712 0.622787
Si Si4 0.720829 0.416678 0.365796
Si Si5 0.898947 0.576917 0.091565
Si Si6 0.011558 0.855893 0.272731
Si Si7 0.362457 0.778802 0.158029
Si Si8 0.837827 0.921184 0.225860
O O1 0.282705 0.140493 0.685871
O O2 0.302767 0.089273 0.536520
O O3 0.472986 0.077941 0.823820
O O4 0.294195 0.000000 0.663888
O O5 0.861599 0.750306 0.433070
O O6 0.872151 0.865114 0.337216
O O7 0.916034 0.867151 0.563387
O O8 0.215631 0.622524 0.658965
O O9 0.159123 0.710270 0.752163
O O10 0.000000 0.654572 0.500000
O O11 0.704004 0.500000 0.333317
O O12 0.599639 0.379659 0.276332
O O13 0.883192 0.500000 0.123213
O O14 0.889777 0.643623 0.148745
O O15 0.797458 0.582810 0.919980
O O16 0.962864 0.776433 0.227544
O O17 0.900011 0.903103 0.186726
O O18 0.250000 0.750000 0.000000
O O19 0.868380 0.000000 0.284173
#
# Coordination Sequence:
#
# PCOD9213937 Si02
#       8
#     8   8   8   8   8   8   8   8
#     4   9  20  37  59  90 129 170 212 263 328 391
#     4  11  21  36  58  94 128 162 211 269 329 388
#     4  12  23  40  64  96 125 163 219 270 321 381
#     4  10  24  42  64  96 129 169 218 270 328 386
#     4  10  22  39  60  88 125 173 221 263 327 393
#     4  11  22  40  65  92 129 167 213 271 327 394
#     4  12  23  42  66  94 129 172 218 268 327 390
#     4  11  21  37  62  91 126 171 216 269 328 394
#
# _framework density 20.146332999999998
#
# number of rings (size 3 to 8) (size 9 to 14) (size 15 to 20)
#    0.000    1.250    3.750    1.875    1.750    4.250 
#    0.000    2.500    0.000    0.750    0.000    0.000 
#    0.000    0.000    0.000    0.000    0.000    0.000 
#
# Total GULP energy -178536.802607 kJ/mol
# GULP energy per Si atom -5579.275081 kJ/mol
# Density = 2.010048 g / cm^3
# Si number density = 20.146333 Si / 1000 Ang^3
#
#
#
# Elastic Constant Matrix: (Units=GPa)
#
#
# Indices 1 2 3 4 5 6 
#
# 1 108.3335 64.4949 36.9894 0.0000 15.6733 0.0000
# 2 64.4949 126.4582 15.6519 0.0000 11.5560 0.0000
# 3 36.9894 15.6519 67.6777 0.0000 20.5243 0.0000
# 4 0.0000 0.0000 0.0000 12.7707 0.0000 38.3245
# 5 15.6733 11.5560 20.5243 0.0000 26.2052 0.0000
# 6 0.0000 0.0000 0.0000 38.3245 0.0000 -40.6716
#
#
#
# Elastic Compliance Matrix: (Units=1/GPa)
#
#
# Indices 1 2 3 4 5 6 
#
# 1 0.015988 -0.007220 -0.006733 0.000000 -0.001105 0.000000
# 2 -0.007220 0.011558 0.001979 0.000000 -0.002329 0.000000
# 3 -0.006733 0.001979 0.022350 0.000000 -0.014351 0.000000
# 4 0.000000 0.000000 0.000000 0.020457 0.000000 0.019276
# 5 -0.001105 -0.002329 -0.014351 0.000000 0.051088 0.000000
# 6 0.000000 0.000000 0.000000 0.019276 0.000000 -0.006423
#
#
# Mechanical properties :
#
#
# Convention : Reuss Voigt Hill
#
# Bulk Modulus (GPa) = 38.53821 59.63797 49.08809
# Shear Modulus (GPa) = 33.87211 12.01640 22.94426
#
# Velocity S-wave (km/s) = 4.10482 2.44489 3.37839
# Velocity P-wave (km/s) = 6.45265 6.13487 6.29577
#
# Compressibility (1/GPa) = 0.02594828
#
# Stress axis : x y z
#
# Youngs Moduli (GPa) = 62.54812 86.52295 44.74185
#
# Poissons Ratio (x) = 0.62465 0.30126
# Poissons Ratio (y) = 0.45157 -0.08855
# Poissons Ratio (z) = 0.42116 -0.17124
#
# Static dielectric constant tensor:
#      x y z
#    x 1.779980 0.000000 0.035940 
#    y 0.000000 1.733700 0.000000 
#    z 0.035940 0.000000 1.751250 
# 
# From -- ./inp_files/226862.got.cif
#   From: 2010.05.17/outbox.cif.g08.bks.cpg/sg12_114_cif.got.tgz:226862.got - 2010.06.03 13:09:07.
