data_PCOD9213562
_publ_section_title
;
Structure prediction by ZEFSAII (Michael W. Deem and Ramdas Pophale) SiO2 
 PCOD9213562
Probable space group: C 2/M
;
_chemical_formula_sum "Si O2"
_cell_formula_units_Z 48
_cell_length_a 13.382920
_cell_length_b 20.819387
_cell_length_c 8.301847
_cell_angle_alpha 90.000000
_cell_angle_beta 99.322295
_cell_angle_gamma 90.000000
_cell_volume 2282.545791
_symmetry_space_group_name_H-M "C 2/M"
_symmetry_group_IT_number 12
_symmetry_cell_setting 'monoclinic'
loop_
_space_group_symop_operation_xyz
x,y,z
-x,y,-z
-x,-y,-z
x,-y,z
1/2+x,1/2+y,z
1/2-x,1/2+y,-z
1/2-x,1/2-y,-z
1/2+x,1/2-y,z
loop_
_atom_site_type_symbol
_atom_site_label
_atom_site_fract_x
_atom_site_fract_y
_atom_site_fract_z
Si Si1 0.476972 0.289669 0.664666
Si Si2 0.337930 0.167738 0.614434
Si Si3 0.001991 0.424437 0.814525
Si Si4 0.603261 0.390416 0.091999
Si Si5 0.687807 0.294153 0.860294
Si Si6 0.207522 0.571264 0.670039
O O1 0.500000 0.323986 0.500000
O O2 0.400565 0.232602 0.599856
O O3 0.430687 0.335373 0.789080
O O4 0.582600 0.264050 0.768192
O O5 0.420264 0.117188 0.700253
O O6 0.256280 0.185571 0.728140
O O7 0.289012 0.131127 0.450995
O O8 0.976006 0.500000 0.801213
O O9 0.111883 0.417462 0.762290
O O10 0.000000 0.404099 0.000000
O O11 0.689176 0.429901 0.203018
O O12 0.500000 0.421823 0.000000
O O13 0.654962 0.356182 0.953293
O O14 0.750000 0.250000 0.000000
O O15 0.192899 0.500000 0.590441
#
# Coordination Sequence:
#
# PCOD9213562 Si02
#       6
#     8   8   8   8   8   8
#     4  11  24  38  60  94 130 165 207 263 323 388
#     4  12  24  37  66  91 133 172 206 263 326 390
#     4  10  22  38  60  93 129 169 219 267 313 373
#     4  10  23  43  64  91 129 167 214 271 318 376
#     4  11  24  40  61  93 131 168 217 257 318 392
#     4  11  24  43  66  95 130 172 222 267 316 378
#
# _framework density 21.029150999999999
#
# number of rings (size 3 to 8) (size 9 to 14) (size 15 to 20)
#    0.000    1.167    1.667    4.000    7.000    3.000 
#    0.000    0.833    0.000   10.500    0.000    0.000 
#    0.000    0.000    0.000    0.000    0.000    0.000 
#
# Total GULP energy -134203.099885 kJ/mol
# GULP energy per Si atom -5591.795829 kJ/mol
# Density = 2.098129 g / cm^3
# Si number density = 21.029151 Si / 1000 Ang^3
#
#
#
# Elastic Constant Matrix: (Units=GPa)
#
#
# Indices 1 2 3 4 5 6 
#
# 1 128.5181 39.0980 45.2023 0.0000 0.5477 0.0000
# 2 39.0980 64.3962 32.4683 0.0000 -0.1940 0.0000
# 3 45.2023 32.4683 99.0479 0.0000 -3.0013 0.0000
# 4 0.0000 0.0000 0.0000 31.6849 0.0000 2.3737
# 5 0.5477 -0.1940 -3.0013 0.0000 43.3028 0.0000
# 6 0.0000 0.0000 0.0000 2.3737 0.0000 17.1263
#
#
#
# Elastic Compliance Matrix: (Units=1/GPa)
#
#
# Indices 1 2 3 4 5 6 
#
# 1 0.010324 -0.004658 -0.003196 0.000000 -0.000373 0.000000
# 2 -0.004658 0.020710 -0.004668 0.000000 -0.000172 0.000000
# 3 -0.003196 -0.004668 0.013113 0.000000 0.000928 0.000000
# 4 0.000000 0.000000 0.000000 0.031892 0.000000 -0.004420
# 5 -0.000373 -0.000172 0.000928 0.000000 0.023162 0.000000
# 6 0.000000 0.000000 0.000000 -0.004420 0.000000 0.059002
#
#
# Mechanical properties :
#
#
# Convention : Reuss Voigt Hill
#
# Bulk Modulus (GPa) = 52.34847 58.38883 55.36865
# Shear Modulus (GPa) = 26.36936 30.10237 28.23586
#
# Velocity S-wave (km/s) = 3.54495 3.78757 3.66826
# Velocity P-wave (km/s) = 6.45778 6.85226 6.65794
#
# Compressibility (1/GPa) = 0.01910276
#
# Stress axis : x y z
#
# Youngs Moduli (GPa) = 96.86516 48.28571 76.25982
#
# Poissons Ratio (x) = 0.22490 0.24372
# Poissons Ratio (y) = 0.45117 0.35601
# Poissons Ratio (z) = 0.30957 0.22542
#
# Static dielectric constant tensor:
#      x y z
#    x 1.753030 0.000000 0.024620 
#    y 0.000000 1.696860 0.000000 
#    z 0.024620 0.000000 1.820590 
# 
# From -- ./inp_files/50801.got.cif
#   From: 2010.05.17/outbox.cif.g08.bks.cpg/sg12_26_cif.got.tgz:50801.got - 2010.06.03 13:09:07.
