data_PCOD9213797
_publ_section_title
;
Structure prediction by ZEFSAII (Michael W. Deem and Ramdas Pophale) SiO2 
 PCOD9213797
Probable space group: C 2/M
;
_chemical_formula_sum "Si O2"
_cell_formula_units_Z 48
_cell_length_a 29.273894
_cell_length_b 9.386809
_cell_length_c 15.338866
_cell_angle_alpha 90.000000
_cell_angle_beta 148.453017
_cell_angle_gamma 90.000000
_cell_volume 2205.248021
_symmetry_space_group_name_H-M "C 2/M"
_symmetry_group_IT_number 12
_symmetry_cell_setting 'monoclinic'
loop_
_space_group_symop_operation_xyz
x,y,z
-x,y,-z
-x,-y,-z
x,-y,z
1/2+x,1/2+y,z
1/2-x,1/2+y,-z
1/2-x,1/2-y,-z
1/2+x,1/2-y,z
loop_
_atom_site_type_symbol
_atom_site_label
_atom_site_fract_x
_atom_site_fract_y
_atom_site_fract_z
Si Si1 0.203354 0.832599 0.799000
Si Si2 0.427673 0.162464 0.304007
Si Si3 0.858685 0.331892 0.931283
Si Si4 0.681084 0.167498 0.328246
Si Si5 0.535694 0.666864 0.183571
Si Si6 0.059269 0.837266 0.414868
O O1 0.157805 0.743298 0.800967
O O2 0.297501 0.792660 0.913471
O O3 0.137736 0.814884 0.609699
O O4 0.204049 0.000000 0.822568
O O5 0.500000 0.166231 0.500000
O O6 0.479603 0.235457 0.310292
O O7 0.406577 0.000000 0.250271
O O8 0.883183 0.500000 0.979168
O O9 0.805299 0.320456 0.753352
O O10 0.941580 0.231968 0.051988
O O11 0.750000 0.250000 0.500000
O O12 0.588298 0.239907 0.200111
O O13 0.680587 0.000000 0.349338
O O14 0.531599 0.500000 0.153161
O O15 0.585729 0.678135 0.357809
O O16 0.028714 0.000000 0.377576
#
# Coordination Sequence:
#
# PCOD9213797 Si02
#       6
#     8   8   8   8   8   8
#     4   9  17  33  56  77 103 142 184 224 270 325
#     4   9  17  29  49  80 111 136 173 227 278 321
#     4  10  22  39  57  80 112 149 185 223 273 331
#     4  11  23  40  62  86 112 143 183 228 273 325
#     4  11  23  38  57  83 114 147 185 227 273 327
#     4   9  18  34  55  78 106 143 185 225 269 325
#
# _framework density 21.766259999999999
#
# number of rings (size 3 to 8) (size 9 to 14) (size 15 to 20)
#    0.000    2.167    0.000    3.000    0.000   10.000 
#    0.000    4.167    0.000    0.000    0.000    0.000 
#    0.000    0.000    0.000    0.000    0.000    0.000 
#
# Total GULP energy -134182.766210 kJ/mol
# GULP energy per Si atom -5590.948592 kJ/mol
# Density = 2.171672 g / cm^3
# Si number density = 21.766260 Si / 1000 Ang^3
#
#
#
# Elastic Constant Matrix: (Units=GPa)
#
#
# Indices 1 2 3 4 5 6 
#
# 1 105.8788 50.7226 12.2726 0.0000 22.1380 0.0000
# 2 50.7226 97.7699 34.1263 0.0000 26.0746 0.0000
# 3 12.2726 34.1263 73.1625 0.0000 14.5246 0.0000
# 4 0.0000 0.0000 0.0000 28.1942 0.0000 9.1227
# 5 22.1380 26.0746 14.5246 0.0000 44.4009 0.0000
# 6 0.0000 0.0000 0.0000 9.1227 0.0000 28.4131
#
#
#
# Elastic Compliance Matrix: (Units=1/GPa)
#
#
# Indices 1 2 3 4 5 6 
#
# 1 0.013013 -0.006399 0.001437 0.000000 -0.003200 0.000000
# 2 -0.006399 0.016868 -0.005841 0.000000 -0.004805 0.000000
# 3 0.001437 -0.005841 0.016697 0.000000 -0.002749 0.000000
# 4 0.000000 0.000000 0.000000 0.039580 0.000000 -0.012708
# 5 -0.003200 -0.004805 -0.002749 0.000000 0.027838 0.000000
# 6 0.000000 0.000000 0.000000 -0.012708 0.000000 0.039275
#
#
# Mechanical properties :
#
#
# Convention : Reuss Voigt Hill
#
# Bulk Modulus (GPa) = 40.04332 52.33935 46.19133
# Shear Modulus (GPa) = 27.29233 32.18094 29.73664
#
# Velocity S-wave (km/s) = 3.54486 3.84927 3.70020
# Velocity P-wave (km/s) = 5.93225 6.62225 6.28672
#
# Compressibility (1/GPa) = 0.02497296
#
# Stress axis : x y z
#
# Youngs Moduli (GPa) = 76.84645 59.28369 59.89041
#
# Poissons Ratio (x) = 0.37937 -0.08609
# Poissons Ratio (y) = 0.49176 0.34980
# Poissons Ratio (z) = -0.11046 0.34626
#
# Static dielectric constant tensor:
#      x y z
#    x 1.779940 0.000000 -0.041850 
#    y 0.000000 1.726850 0.000000 
#    z -0.041850 0.000000 1.852730 
# 
# From -- ./inp_files/274033.got.cif
#   From: 2010.05.17/outbox.cif.g08.bks.cpg/sg12_138_cif.got.tgz:274033.got - 2010.06.03 13:09:07.
