data_PCOD9213858
_publ_section_title
;
Structure prediction by ZEFSAII (Michael W. Deem and Ramdas Pophale) SiO2 
 PCOD9213858
Probable space group: C 2/M
;
_chemical_formula_sum "Si O2"
_cell_formula_units_Z 64
_cell_length_a 25.373459
_cell_length_b 7.843795
_cell_length_c 15.888353
_cell_angle_alpha 90.000000
_cell_angle_beta 69.439874
_cell_angle_gamma 90.000000
_cell_volume 2960.750062
_symmetry_space_group_name_H-M "C 2/M"
_symmetry_group_IT_number 12
_symmetry_cell_setting 'monoclinic'
loop_
_space_group_symop_operation_xyz
x,y,z
-x,y,-z
-x,-y,-z
x,-y,z
1/2+x,1/2+y,z
1/2-x,1/2+y,-z
1/2-x,1/2-y,-z
1/2+x,1/2-y,z
loop_
_atom_site_type_symbol
_atom_site_label
_atom_site_fract_x
_atom_site_fract_y
_atom_site_fract_z
Si Si1 0.687462 0.296862 0.295996
Si Si2 0.827258 0.805444 0.514446
Si Si3 0.149078 0.201622 0.682806
Si Si4 0.449725 0.804885 0.473573
Si Si5 0.099368 0.300311 0.212292
Si Si6 0.314744 0.704815 0.981156
Si Si7 0.022697 0.307180 0.736552
Si Si8 0.803770 0.200994 0.170406
O O1 0.694050 0.500000 0.296964
O O2 0.696789 0.225782 0.385960
O O3 0.628241 0.263842 0.282483
O O4 0.736546 0.222281 0.210500
O O5 0.827161 0.726855 0.420226
O O6 0.893387 0.803108 0.501155
O O7 0.806676 0.000000 0.519602
O O8 0.081530 0.220392 0.727678
O O9 0.174655 0.276946 0.753715
O O10 0.161526 0.000000 0.671827
O O11 0.500000 0.732856 0.500000
O O12 0.472191 0.817836 0.366858
O O13 0.436569 0.000000 0.509953
O O14 0.089034 0.500000 0.231626
O O15 0.143952 0.275206 0.112707
O O16 0.038934 0.226178 0.217002
O O17 0.319644 0.500000 0.976494
O O18 0.250000 0.750000 0.000000
O O19 0.327149 0.768642 0.069143
O O20 0.023950 0.500000 0.771480
O O21 0.817203 0.000000 0.164514
#
# Coordination Sequence:
#
# PCOD9213858 Si02
#       8
#     8   8   8   8   8   8   8   8
#     4  11  22  34  53  83 115 146 184 230 279 329
#     4   9  19  33  49  75 109 143 182 226 269 318
#     4   9  19  38  59  78 108 150 190 226 269 325
#     4   9  16  28  47  71 101 140 183 224 269 322
#     4  11  22  37  58  84 115 147 181 228 281 333
#     4  11  22  38  60  86 113 142 180 226 281 337
#     4   9  19  34  53  79 109 143 184 228 274 324
#     4  10  22  39  59  81 108 145 185 227 278 334
#
# _framework density 21.616143000000001
#
# number of rings (size 3 to 8) (size 9 to 14) (size 15 to 20)
#    0.000    2.125    1.250    1.875    0.000    4.750 
#    0.000    3.125    0.000    3.750    0.000    0.000 
#    0.000    0.000    0.000    0.000    0.000    0.000 
#
# Total GULP energy -178446.518800 kJ/mol
# GULP energy per Si atom -5576.453712 kJ/mol
# Density = 2.156694 g / cm^3
# Si number density = 21.616143 Si / 1000 Ang^3
#
#
#
# Elastic Constant Matrix: (Units=GPa)
#
#
# Indices 1 2 3 4 5 6 
#
# 1 47.0985 -5.2424 32.6835 0.0000 7.1806 0.0000
# 2 -5.2424 33.3040 4.1444 0.0000 7.7298 0.0000
# 3 32.6835 4.1444 118.2778 0.0000 13.4416 0.0000
# 4 0.0000 0.0000 0.0000 16.9339 0.0000 -3.7062
# 5 7.1806 7.7298 13.4416 0.0000 37.1545 0.0000
# 6 0.0000 0.0000 0.0000 -3.7062 0.0000 18.6757
#
#
#
# Elastic Compliance Matrix: (Units=1/GPa)
#
#
# Indices 1 2 3 4 5 6 
#
# 1 0.027669 0.006196 -0.007413 0.000000 -0.003954 0.000000
# 2 0.006196 0.032953 -0.002035 0.000000 -0.007317 0.000000
# 3 -0.007413 -0.002035 0.010808 0.000000 -0.002054 0.000000
# 4 0.000000 0.000000 0.000000 0.061734 0.000000 0.012251
# 5 -0.003954 -0.007317 -0.002054 0.000000 0.029944 0.000000
# 6 0.000000 0.000000 0.000000 0.012251 0.000000 0.055977
#
#
# Mechanical properties :
#
#
# Convention : Reuss Voigt Hill
#
# Bulk Modulus (GPa) = 15.40253 29.09460 22.24856
# Shear Modulus (GPa) = 20.22386 25.69249 22.95817
#
# Velocity S-wave (km/s) = 3.06206 3.45132 3.26250
# Velocity P-wave (km/s) = 4.43199 5.41950 4.95043
#
# Compressibility (1/GPa) = 0.06492439
#
# Stress axis : x y z
#
# Youngs Moduli (GPa) = 36.14144 30.34606 92.52460
#
# Poissons Ratio (x) = -0.18802 0.68593
# Poissons Ratio (y) = -0.22392 0.18831
# Poissons Ratio (z) = 0.26793 0.06176
#
# Static dielectric constant tensor:
#      x y z
#    x 1.811850 0.000000 0.032370 
#    y 0.000000 1.808960 0.000000 
#    z 0.032370 0.000000 1.778280 
# 
# From -- ./inp_files/243743.got.cif
#   From: 2010.05.17/outbox.cif.g08.bks.cpg/sg12_122_cif.got.tgz:243743.got - 2010.06.03 13:09:07.
