data_PCOD9213448
_publ_section_title
;
Structure prediction by ZEFSAII (Michael W. Deem and Ramdas Pophale) SiO2 
 PCOD9213448
Probable space group: C 2/M
;
_chemical_formula_sum "Si O2"
_cell_formula_units_Z 32
_cell_length_a 23.249107
_cell_length_b 11.302440
_cell_length_c 5.090253
_cell_angle_alpha 90.000000
_cell_angle_beta 89.209147
_cell_angle_gamma 90.000000
_cell_volume 1337.446696
_symmetry_space_group_name_H-M "C 2/M"
_symmetry_group_IT_number 12
_symmetry_cell_setting 'monoclinic'
loop_
_space_group_symop_operation_xyz
x,y,z
-x,y,-z
-x,-y,-z
x,-y,z
1/2+x,1/2+y,z
1/2-x,1/2+y,-z
1/2-x,1/2-y,-z
1/2+x,1/2-y,z
loop_
_atom_site_type_symbol
_atom_site_label
_atom_site_fract_x
_atom_site_fract_y
_atom_site_fract_z
Si Si1 0.041825 0.000000 0.243881
Si Si2 0.566597 0.252581 0.412803
Si Si3 0.541964 0.000000 0.246811
Si Si4 0.173722 0.751551 0.705064
Si Si5 0.216765 0.371971 0.196770
O O1 0.076103 0.875702 0.256112
O O2 0.000000 0.000000 0.500000
O O3 0.000000 0.000000 0.000000
O O4 0.500000 0.251502 0.500000
O O5 0.606086 0.261388 0.669464
O O6 0.575637 0.125540 0.267435
O O7 0.500000 0.000000 0.500000
O O8 0.500000 0.000000 0.000000
O O9 0.193224 0.722496 0.405857
O O10 0.213994 0.857531 0.802957
O O11 0.192279 0.651190 0.909729
O O12 0.200540 0.500000 0.295666
#
# Coordination Sequence:
#
# PCOD9213448 Si02
#       5
#     4   8   4   8   8
#     4  10  22  40  62  86 126 168 206 250 307 372
#     4  10  23  42  65  96 130 166 209 259 316 385
#     4  10  22  38  58  86 126 164 202 246 301 368
#     4  10  23  40  63  96 120 169 208 260 318 374
#     4  10  22  41  65  89 127 161 216 262 314 368
#
# _framework density 23.926186000000001
#
# number of rings (size 3 to 8) (size 9 to 14) (size 15 to 20)
#    0.000    2.000    0.000    1.500    5.250    8.000 
#    0.000    0.000    0.000    0.000    0.000    0.000 
#    0.000    0.000    0.000    0.000    0.000    0.000 
#
# Total GULP energy -89317.817913 kJ/mol
# GULP energy per Si atom -5582.363620 kJ/mol
# Density = 2.387173 g / cm^3
# Si number density = 23.926186 Si / 1000 Ang^3
#
#
#
# Elastic Constant Matrix: (Units=GPa)
#
#
# Indices 1 2 3 4 5 6 
#
# 1 110.4080 12.5905 42.4409 0.0000 46.3023 0.0000
# 2 12.5905 191.7402 40.0562 0.0000 26.9291 0.0000
# 3 42.4409 40.0562 166.6321 0.0000 40.7514 0.0000
# 4 0.0000 0.0000 0.0000 5.2033 0.0000 -7.9544
# 5 46.3023 26.9291 40.7514 0.0000 59.9206 0.0000
# 6 0.0000 0.0000 0.0000 -7.9544 0.0000 12.4216
#
#
#
# Elastic Compliance Matrix: (Units=1/GPa)
#
#
# Indices 1 2 3 4 5 6 
#
# 1 0.013660 0.000770 -0.001197 0.000000 -0.010087 0.000000
# 2 0.000770 0.005718 -0.000956 0.000000 -0.002515 0.000000
# 3 -0.001197 -0.000956 0.007442 0.000000 -0.003707 0.000000
# 4 0.000000 0.000000 0.000000 9.134388 0.000000 5.849384
# 5 -0.010087 -0.002515 -0.003707 0.000000 0.028135 0.000000
# 6 0.000000 0.000000 0.000000 5.849384 0.000000 3.826272
#
#
# Mechanical properties :
#
#
# Convention : Reuss Voigt Hill
#
# Bulk Modulus (GPa) = 41.57293 73.21728 57.39511
# Shear Modulus (GPa) = 0.38384 40.42194 20.40289
#
# Velocity S-wave (km/s) = 0.40097 4.11474 2.92334
# Velocity P-wave (km/s) = 4.19852 7.29675 5.95274
#
# Compressibility (1/GPa) = 0.02405411
#
# Stress axis : x y z
#
# Youngs Moduli (GPa) = 73.20584 174.89767 134.36408
#
# Poissons Ratio (x) = -0.13465 0.16088
# Poissons Ratio (y) = -0.05636 0.12839
# Poissons Ratio (z) = 0.08765 0.16712
#
# Static dielectric constant tensor:
#      x y z
#    x 2.016320 0.000000 -0.030160 
#    y 0.000000 2.000610 0.000000 
#    z -0.030160 0.000000 1.840080 
# 
# From -- ./inp_files/23431.got.cif
#   From: 2010.05.17/outbox.cif.g08.bks.cpg/sg12_12_cif.got.tgz:23431.got - 2010.06.03 13:09:07.
