data_PCOD9213270
_publ_section_title
;
Structure prediction by ZEFSAII (Michael W. Deem and Ramdas Pophale) SiO2 
 PCOD9213270
Probable space group: C 2/M
;
_chemical_formula_sum "Si O2"
_cell_formula_units_Z 48
_cell_length_a 12.586149
_cell_length_b 22.516021
_cell_length_c 9.257396
_cell_angle_alpha 90.000000
_cell_angle_beta 110.406259
_cell_angle_gamma 90.000000
_cell_volume 2458.815719
_symmetry_space_group_name_H-M "C 2/M"
_symmetry_group_IT_number 12
_symmetry_cell_setting 'monoclinic'
loop_
_space_group_symop_operation_xyz
x,y,z
-x,y,-z
-x,-y,-z
x,-y,z
1/2+x,1/2+y,z
1/2-x,1/2+y,-z
1/2-x,1/2-y,-z
1/2+x,1/2-y,z
loop_
_atom_site_type_symbol
_atom_site_label
_atom_site_fract_x
_atom_site_fract_y
_atom_site_fract_z
Si Si1 0.871102 0.307675 0.463884
Si Si2 0.083214 0.933542 0.350477
Si Si3 0.683862 0.671262 0.587548
Si Si4 0.168422 0.500000 0.172804
Si Si5 0.230328 0.399057 0.791009
Si Si6 0.830708 0.101545 0.158185
Si Si7 0.564820 0.000000 0.799121
O O1 0.809652 0.331802 0.578715
O O2 0.862101 0.236584 0.468728
O O3 0.801982 0.336816 0.298560
O O4 0.000000 0.325060 0.500000
O O5 0.113281 0.881236 0.476856
O O6 0.176470 0.928493 0.268797
O O7 0.958672 0.922383 0.225931
O O8 0.088852 0.000000 0.416025
O O9 0.676800 0.661711 0.754579
O O10 0.249234 0.556938 0.208412
O O11 0.070907 0.500000 0.247668
O O12 0.110648 0.500000 0.986295
O O13 0.121033 0.442168 0.752526
O O14 0.284370 0.393288 0.974935
#
# Coordination Sequence:
#
# PCOD9213270 Si02
#       7
#     8   8   8   4   8   8   4
#     4  10  22  44  61  80 117 162 197 246 296 347
#     4  11  21  37  60  90 124 157 193 239 298 359
#     4  10  24  40  60  87 118 155 201 243 295 350
#     4   9  20  31  53  83 124 150 178 240 299 336
#     4  10  22  37  62  87 118 156 198 244 296 349
#     4  11  21  36  59  92 118 154 195 244 296 349
#     4   9  18  37  51  82 120 151 188 238 289 350
#
# _framework density 19.521592999999999
#
# number of rings (size 3 to 8) (size 9 to 14) (size 15 to 20)
#    0.000    1.833    1.667    2.000    3.500    2.000 
#    0.000    0.417    0.000    0.000    0.000    0.000 
#    0.000    0.000    0.000    0.000    0.000    0.000 
#
# Total GULP energy -133974.584828 kJ/mol
# GULP energy per Si atom -5582.274368 kJ/mol
# Density = 1.947716 g / cm^3
# Si number density = 19.521593 Si / 1000 Ang^3
#
#
#
# Elastic Constant Matrix: (Units=GPa)
#
#
# Indices 1 2 3 4 5 6 
#
# 1 158.8481 26.5709 24.2378 0.0000 -5.4735 0.0000
# 2 26.5709 103.1199 40.7334 0.0000 1.1562 0.0000
# 3 24.2378 40.7334 65.7272 0.0000 -9.4715 0.0000
# 4 0.0000 0.0000 0.0000 23.6639 0.0000 -4.8693
# 5 -5.4735 1.1562 -9.4715 0.0000 29.6895 0.0000
# 6 0.0000 0.0000 0.0000 -4.8693 0.0000 17.8162
#
#
#
# Elastic Compliance Matrix: (Units=1/GPa)
#
#
# Indices 1 2 3 4 5 6 
#
# 1 0.006763 -0.001070 -0.001725 0.000000 0.000738 0.000000
# 2 -0.001070 0.013304 -0.008337 0.000000 -0.003375 0.000000
# 3 -0.001725 -0.008337 0.022031 0.000000 0.007035 0.000000
# 4 0.000000 0.000000 0.000000 0.044777 0.000000 0.012238
# 5 0.000738 -0.003375 0.007035 0.000000 0.036194 0.000000
# 6 0.000000 0.000000 0.000000 0.012238 0.000000 0.059473
#
#
# Mechanical properties :
#
#
# Convention : Reuss Voigt Hill
#
# Bulk Modulus (GPa) = 50.41485 56.75329 53.58407
# Shear Modulus (GPa) = 23.65015 29.97747 26.81381
#
# Velocity S-wave (km/s) = 3.48442 3.92293 3.71016
# Velocity P-wave (km/s) = 6.48610 7.04659 6.77214
#
# Compressibility (1/GPa) = 0.01983543
#
# Stress axis : x y z
#
# Youngs Moduli (GPa) = 147.86712 75.16512 45.39103
#
# Poissons Ratio (x) = 0.08040 0.07828
# Poissons Ratio (y) = 0.15816 0.37842
# Poissons Ratio (z) = 0.25502 0.62664
#
# Static dielectric constant tensor:
#      x y z
#    x 1.703920 0.000000 -0.002560 
#    y 0.000000 1.693950 0.000000 
#    z -0.002560 0.000000 1.660270 
# 
# From -- ./inp_files/51485.got.cif
#   From: 2010.05.17/outbox.cif.g08.bks.cpg/sg12_26_cif.got.tgz:51485.got - 2010.06.03 13:09:07.
