data_PCOD9213310
_publ_section_title
;
Structure prediction by ZEFSAII (Michael W. Deem and Ramdas Pophale) SiO2 
 PCOD9213310
Probable space group: C 2/M
;
_chemical_formula_sum "Si O2"
_cell_formula_units_Z 56
_cell_length_a 18.407861
_cell_length_b 18.272932
_cell_length_c 9.119500
_cell_angle_alpha 90.000000
_cell_angle_beta 119.947156
_cell_angle_gamma 90.000000
_cell_volume 2657.934262
_symmetry_space_group_name_H-M "C 2/M"
_symmetry_group_IT_number 12
_symmetry_cell_setting 'monoclinic'
loop_
_space_group_symop_operation_xyz
x,y,z
-x,y,-z
-x,-y,-z
x,-y,z
1/2+x,1/2+y,z
1/2-x,1/2+y,-z
1/2-x,1/2-y,-z
1/2+x,1/2-y,z
loop_
_atom_site_type_symbol
_atom_site_label
_atom_site_fract_x
_atom_site_fract_y
_atom_site_fract_z
Si Si1 0.449042 0.585651 0.795381
Si Si2 0.345958 0.206990 0.225155
Si Si3 0.409129 0.917801 0.486359
Si Si4 0.586927 0.914518 0.159126
Si Si5 0.217508 0.688178 0.144119
Si Si6 0.330896 0.713770 0.662557
Si Si7 0.502586 0.282919 0.328113
O O1 0.441006 0.500000 0.753641
O O2 0.358192 0.627944 0.697413
O O3 0.503483 0.634626 0.737420
O O4 0.500000 0.592920 0.000000
O O5 0.355889 0.145915 0.357486
O O6 0.313036 0.284075 0.258434
O O7 0.429625 0.226415 0.220345
O O8 0.288706 0.178284 0.035695
O O9 0.500000 0.912457 0.500000
O O10 0.416390 0.910319 0.668209
O O11 0.376690 0.000000 0.423021
O O12 0.670699 0.876125 0.181619
O O13 0.591496 0.000000 0.122846
O O14 0.500000 0.885449 0.000000
O O15 0.172452 0.758331 0.173987
O O16 0.250000 0.750000 0.500000
O O17 0.412128 0.744539 0.660141
O O18 0.500000 0.282216 0.500000
#
# Coordination Sequence:
#
# PCOD9213310 Si02
#       7
#     8   8   8   8   8   8   8
#     4   9  20  40  67  97 131 176 226 274 337 411
#     4  11  24  41  61  97 130 173 223 275 343 402
#     4  10  22  39  64  96 131 172 218 274 335 406
#     4  10  23  41  65  97 132 175 223 276 343 411
#     4  11  25  39  64  94 131 169 223 284 332 405
#     4  10  23  39  65  97 133 170 222 281 338 402
#     4  10  22  37  65  94 129 171 215 268 335 403
#
# _framework density 21.068995000000001
#
# number of rings (size 3 to 8) (size 9 to 14) (size 15 to 20)
#    0.857    1.000    0.000    3.000    8.000    2.000 
#    0.000    2.143    0.000    2.571    0.000    0.000 
#    0.000    0.000    0.000    0.000    0.000    0.000 
#
# Total GULP energy -155879.431061 kJ/mol
# GULP energy per Si atom -5567.122538 kJ/mol
# Density = 2.102104 g / cm^3
# Si number density = 21.068995 Si / 1000 Ang^3
#
#
#
# Elastic Constant Matrix: (Units=GPa)
#
#
# Indices 1 2 3 4 5 6 
#
# 1 105.0931 22.9026 21.3256 0.0000 -0.0925 0.0000
# 2 22.9026 126.3304 27.3290 0.0000 19.1629 0.0000
# 3 21.3256 27.3290 88.4378 0.0000 0.2860 0.0000
# 4 0.0000 0.0000 0.0000 31.4114 0.0000 -2.4284
# 5 -0.0925 19.1629 0.2860 0.0000 31.5859 0.0000
# 6 0.0000 0.0000 0.0000 -2.4284 0.0000 32.0061
#
#
#
# Elastic Compliance Matrix: (Units=1/GPa)
#
#
# Indices 1 2 3 4 5 6 
#
# 1 0.010265 -0.001584 -0.001989 0.000000 0.001009 0.000000
# 2 -0.001584 0.009646 -0.002580 0.000000 -0.005833 0.000000
# 3 -0.001989 -0.002580 0.012580 0.000000 0.001446 0.000000
# 4 0.000000 0.000000 0.000000 0.032023 0.000000 0.002430
# 5 0.001009 -0.005833 0.001446 0.000000 0.035189 0.000000
# 6 0.000000 0.000000 0.000000 0.002430 0.000000 0.031428
#
#
# Mechanical properties :
#
#
# Convention : Reuss Voigt Hill
#
# Bulk Modulus (GPa) = 49.54218 51.44177 50.49198
# Shear Modulus (GPa) = 33.29672 35.55428 34.42550
#
# Velocity S-wave (km/s) = 3.97969 4.11240 4.04659
# Velocity P-wave (km/s) = 6.68450 6.85696 6.77128
#
# Compressibility (1/GPa) = 0.02018482
#
# Stress axis : x y z
#
# Youngs Moduli (GPa) = 97.41817 103.67162 79.49351
#
# Poissons Ratio (x) = 0.16418 0.15812
# Poissons Ratio (y) = 0.15428 0.20509
# Poissons Ratio (z) = 0.19378 0.26747
#
# Static dielectric constant tensor:
#      x y z
#    x 1.850070 0.000000 0.062930 
#    y 0.000000 1.775820 0.000000 
#    z 0.062930 0.000000 1.834280 
# 
# From -- ./inp_files/97841.got.cif
#   From: 2010.05.17/outbox.cif.g08.bks.cpg/sg12_49_cif.got.tgz:97841.got - 2010.06.03 13:09:07.
