data_PCOD9213900
_publ_section_title
;
Structure prediction by ZEFSAII (Michael W. Deem and Ramdas Pophale) SiO2 
 PCOD9213900
Probable space group: C 2/M
;
_chemical_formula_sum "Si O2"
_cell_formula_units_Z 64
_cell_length_a 29.829185
_cell_length_b 17.157941
_cell_length_c 22.912179
_cell_angle_alpha 90.000000
_cell_angle_beta 163.211195
_cell_angle_gamma 90.000000
_cell_volume 3387.173292
_symmetry_space_group_name_H-M "C 2/M"
_symmetry_group_IT_number 12
_symmetry_cell_setting 'monoclinic'
loop_
_space_group_symop_operation_xyz
x,y,z
-x,y,-z
-x,-y,-z
x,-y,z
1/2+x,1/2+y,z
1/2-x,1/2+y,-z
1/2-x,1/2-y,-z
1/2+x,1/2-y,z
loop_
_atom_site_type_symbol
_atom_site_label
_atom_site_fract_x
_atom_site_fract_y
_atom_site_fract_z
Si Si1 0.458309 0.588902 0.613267
Si Si2 0.298946 0.800337 0.193139
Si Si3 0.944826 0.088523 0.132967
Si Si4 0.228210 0.679538 0.019034
Si Si5 0.850634 0.318632 0.392762
Si Si6 0.172413 0.798238 0.350981
Si Si7 0.159161 0.693617 0.223775
Si Si8 0.081973 0.407753 0.409525
O O1 0.453786 0.500000 0.587474
O O2 0.474445 0.589841 0.703601
O O3 0.613373 0.630327 0.782920
O O4 0.300148 0.633304 0.402210
O O5 0.206302 0.724762 0.053686
O O6 0.301687 0.824916 0.264357
O O7 0.475361 0.784162 0.394107
O O8 0.226030 0.875951 0.071298
O O9 0.033085 0.148672 0.201189
O O10 0.942321 0.000000 0.107974
O O11 0.250000 0.750000 0.000000
O O12 0.083501 0.628127 0.817024
O O13 0.725489 0.262377 0.265779
O O14 0.875810 0.389381 0.469830
O O15 0.250000 0.750000 0.500000
O O16 0.128271 0.734954 0.247186
O O17 0.294270 0.858199 0.473777
O O18 0.000000 0.660907 0.000000
O O19 0.087598 0.500000 0.405971
#
# Coordination Sequence:
#
# PCOD9213900 Si02
#       8
#     8   8   8   8   8   8   8   8
#     4  11  22  37  59  88 122 155 192 255 313 354
#     4  11  21  36  64  89 120 164 204 250 295 359
#     4  11  22  36  57  91 125 154 196 247 304 359
#     4  12  19  38  63  91 120 159 212 252 299 361
#     4  10  22  39  59  90 122 160 207 246 299 363
#     4  11  21  39  62  88 117 162 206 249 296 360
#     4  11  22  40  62  86 115 158 207 249 298 363
#     4  11  23  38  61  93 130 164 198 253 313 365
#
# _framework density 18.894812000000002
#
# number of rings (size 3 to 8) (size 9 to 14) (size 15 to 20)
#    0.000    1.000    5.000    3.000    0.000    2.250 
#    0.000    1.250    0.000    6.375    0.000    0.000 
#    0.000    0.000    0.000    0.000    0.000    0.000 
#
# Total GULP energy -178519.621515 kJ/mol
# GULP energy per Si atom -5578.738172 kJ/mol
# Density = 1.885181 g / cm^3
# Si number density = 18.894812 Si / 1000 Ang^3
#
#
#
# Elastic Constant Matrix: (Units=GPa)
#
#
# Indices 1 2 3 4 5 6 
#
# 1 71.4214 23.2696 20.0984 -0.0008 -6.6467 -0.0004
# 2 23.2696 115.7236 43.8229 -0.0020 -6.4530 -0.0020
# 3 20.0984 43.8229 112.9531 -0.0054 -7.6319 -0.0035
# 4 -0.0008 -0.0020 -0.0054 17.6413 -0.0039 5.4854
# 5 -6.6467 -6.4530 -7.6319 -0.0039 26.3241 -0.0028
# 6 -0.0004 -0.0020 -0.0035 5.4854 -0.0028 22.2855
#
#
#
# Elastic Compliance Matrix: (Units=1/GPa)
#
#
# Indices 1 2 3 4 5 6 
#
# 1 0.015493 -0.002327 -0.001661 0.000001 0.002860 0.000000
# 2 -0.002327 0.010528 -0.003606 0.000000 0.000948 0.000000
# 3 -0.001661 -0.003606 0.010669 0.000003 0.001790 0.000001
# 4 0.000001 0.000000 0.000003 0.061383 0.000009 -0.015109
# 5 0.002860 0.000948 0.001790 0.000009 0.039461 0.000003
# 6 0.000000 0.000000 0.000001 -0.015109 0.000003 0.048591
#
#
# Mechanical properties :
#
#
# Convention : Reuss Voigt Hill
#
# Bulk Modulus (GPa) = 46.50854 52.71999 49.61427
# Shear Modulus (GPa) = 23.98305 27.44399 25.71352
#
# Velocity S-wave (km/s) = 3.56658 3.81525 3.69301
# Velocity P-wave (km/s) = 6.45202 6.88263 6.67080
#
# Compressibility (1/GPa) = 0.02150143
#
# Stress axis : x y z
#
# Youngs Moduli (GPa) = 64.54515 94.98734 93.73074
#
# Poissons Ratio (x) = 0.22103 0.15566
# Poissons Ratio (y) = 0.15019 0.33803
# Poissons Ratio (z) = 0.10719 0.34256
#
# Static dielectric constant tensor:
#      x y z
#    x 1.695620 0.000000 -0.007550 
#    y 0.000000 1.631600 0.000000 
#    z -0.007550 0.000000 1.687580 
# 
# From -- ./inp_files/328643.got.cif
#   From: 2010.05.17/outbox.cif.g08.bks.cpg/sg12_165_cif.got.tgz:328643.got - 2010.06.03 13:09:07.
