data_PCOD9213934
_publ_section_title
;
Structure prediction by ZEFSAII (Michael W. Deem and Ramdas Pophale) SiO2 
 PCOD9213934
Probable space group: C 2/M
;
_chemical_formula_sum "Si O2"
_cell_formula_units_Z 40
_cell_length_a 9.098626
_cell_length_b 10.813175
_cell_length_c 19.378173
_cell_angle_alpha 90.000000
_cell_angle_beta 70.583976
_cell_angle_gamma 90.000000
_cell_volume 1798.097789
_symmetry_space_group_name_H-M "C 2/M"
_symmetry_group_IT_number 12
_symmetry_cell_setting 'monoclinic'
loop_
_space_group_symop_operation_xyz
x,y,z
-x,y,-z
-x,-y,-z
x,-y,z
1/2+x,1/2+y,z
1/2-x,1/2+y,-z
1/2-x,1/2-y,-z
1/2+x,1/2-y,z
loop_
_atom_site_type_symbol
_atom_site_label
_atom_site_fract_x
_atom_site_fract_y
_atom_site_fract_z
Si Si1 0.867821 0.139811 0.579539
Si Si2 0.551763 0.694627 0.067873
Si Si3 0.201356 0.361359 0.871359
Si Si4 0.360950 0.359372 0.362924
Si Si5 0.293030 0.367943 0.212222
O O1 0.744732 0.249227 0.590988
O O2 0.000000 0.146744 0.500000
O O3 0.964897 0.155798 0.635327
O O4 0.800726 0.000000 0.588301
O O5 0.724918 0.667394 0.065124
O O6 0.482447 0.831887 0.092267
O O7 0.446113 0.624516 0.140684
O O8 0.500000 0.655994 0.000000
O O9 0.229898 0.500000 0.844896
O O10 0.276079 0.258097 0.809011
O O11 0.312614 0.500000 0.391575
O O12 0.341685 0.352712 0.283685
O O13 0.206092 0.500000 0.219306
#
# Coordination Sequence:
#
# PCOD9213934 Si02
#       5
#     8   8   8   8   8
#     4  10  22  40  63  91 121 154 194 240 290 347
#     4  10  22  41  60  85 118 157 196 247 297 347
#     4  10  23  39  60  86 113 151 200 245 295 351
#     4  10  22  39  60  88 122 157 195 240 290 347
#     4   9  22  39  59  86 120 156 196 244 294 346
#
# _framework density 22.245732
#
# number of rings (size 3 to 8) (size 9 to 14) (size 15 to 20)
#    1.200    1.000    0.000    1.800    2.800    4.800 
#    0.000    0.000    0.000    0.000    0.000    0.000 
#    0.000    0.000    0.000    0.000    0.000    0.000 
#
# Total GULP energy -111406.952177 kJ/mol
# GULP energy per Si atom -5570.347609 kJ/mol
# Density = 2.219510 g / cm^3
# Si number density = 22.245732 Si / 1000 Ang^3
#
#
#
# Elastic Constant Matrix: (Units=GPa)
#
#
# Indices 1 2 3 4 5 6 
#
# 1 44.9822 46.0189 -5.1243 0.0000 6.6524 0.0000
# 2 46.0189 169.4001 17.4084 0.0000 10.7639 0.0000
# 3 -5.1243 17.4084 80.6226 0.0000 10.3902 0.0000
# 4 0.0000 0.0000 0.0000 -48.9585 0.0000 7.1363
# 5 6.6524 10.7639 10.3902 0.0000 26.9889 0.0000
# 6 0.0000 0.0000 0.0000 7.1363 0.0000 21.8604
#
#
#
# Elastic Compliance Matrix: (Units=1/GPa)
#
#
# Indices 1 2 3 4 5 6 
#
# 1 0.033002 -0.009060 0.004879 0.000000 -0.006399 0.000000
# 2 -0.009060 0.008629 -0.002403 0.000000 -0.000283 0.000000
# 3 0.004879 -0.002403 0.013956 0.000000 -0.005617 0.000000
# 4 0.000000 0.000000 0.000000 -0.019498 0.000000 0.006365
# 5 -0.006399 -0.000283 -0.005617 0.000000 0.040905 0.000000
# 6 0.000000 0.000000 0.000000 0.006365 0.000000 0.043667
#
#
# Mechanical properties :
#
#
# Convention : Reuss Voigt Hill
#
# Bulk Modulus (GPa) = 23.57407 45.73454 34.65431
# Shear Modulus (GPa) = 33.79070 15.75829 24.77450
#
# Velocity S-wave (km/s) = 3.90163 2.66442 3.34080
# Velocity P-wave (km/s) = 5.56031 5.48351 5.52205
#
# Compressibility (1/GPa) = 0.04241949
#
# Stress axis : x y z
#
# Youngs Moduli (GPa) = 30.30128 115.88412 71.65255
#
# Poissons Ratio (x) = 1.04990 -0.34956
# Poissons Ratio (y) = 0.27453 0.17215
# Poissons Ratio (z) = -0.14783 0.27842
#
# Static dielectric constant tensor:
#      x y z
#    x 1.854450 0.000000 -0.011980 
#    y 0.000000 1.865250 0.000000 
#    z -0.011980 0.000000 1.853180 
# 
# From -- ./inp_files/299049.got.cif
#   From: 2010.05.17/outbox.cif.g08.bks.cpg/sg12_150_cif.got.tgz:299049.got - 2010.06.03 13:09:07.
