data_PCOD9213426
_publ_section_title
;
Structure prediction by ZEFSAII (Michael W. Deem and Ramdas Pophale) SiO2 
 PCOD9213426
Probable space group: C 2/M
;
_chemical_formula_sum "Si O2"
_cell_formula_units_Z 52
_cell_length_a 11.824909
_cell_length_b 27.952803
_cell_length_c 8.552916
_cell_angle_alpha 90.000000
_cell_angle_beta 67.710212
_cell_angle_gamma 90.000000
_cell_volume 2615.828710
_symmetry_space_group_name_H-M "C 2/M"
_symmetry_group_IT_number 12
_symmetry_cell_setting 'monoclinic'
loop_
_space_group_symop_operation_xyz
x,y,z
-x,y,-z
-x,-y,-z
x,-y,z
1/2+x,1/2+y,z
1/2-x,1/2+y,-z
1/2-x,1/2-y,-z
1/2+x,1/2-y,z
loop_
_atom_site_type_symbol
_atom_site_label
_atom_site_fract_x
_atom_site_fract_y
_atom_site_fract_z
Si Si1 0.688966 0.555705 0.325692
Si Si2 0.556326 0.555561 0.728853
Si Si3 0.813548 0.725325 0.247428
Si Si4 0.696790 0.371896 0.871753
Si Si5 0.644683 0.125683 0.921881
Si Si6 0.500000 0.704971 0.000000
Si Si7 0.144704 0.304317 0.422250
O O1 0.721951 0.500000 0.283447
O O2 0.635451 0.559725 0.528076
O O3 0.579966 0.567776 0.259996
O O4 0.797587 0.592239 0.240743
O O5 0.556886 0.500000 0.776521
O O6 0.613461 0.588750 0.831079
O O7 0.823116 0.681222 0.125261
O O8 0.929799 0.760422 0.158319
O O9 0.817095 0.703953 0.419105
O O10 0.691610 0.757469 0.302218
O O11 0.779618 0.346814 0.695612
O O12 0.790743 0.390004 0.951900
O O13 0.607685 0.331414 0.993539
O O14 0.500000 0.121430 0.000000
O O15 0.000000 0.310867 0.500000
#
# Coordination Sequence:
#
# PCOD9213426 Si02
#       7
#     8   8   8   8   8   4   8
#     4   9  20  40  67  92 119 154 194 248 303 363
#     4   9  19  41  67  92 118 149 198 252 305 353
#     4  10  22  39  56  82 114 159 202 245 300 348
#     4  11  23  37  61  91 120 158 201 254 297 359
#     4  12  24  38  58  85 126 164 198 243 302 362
#     4  10  22  38  61  84 119 148 210 250 304 346
#     4  10  22  38  58  80 115 156 203 247 289 356
#
# _framework density 19.878979000000001
#
# number of rings (size 3 to 8) (size 9 to 14) (size 15 to 20)
#    0.000    1.846    0.769    3.692    2.154    2.154 
#    5.538    1.923    0.000    2.308    0.000    0.000 
#    0.000    0.000    0.000    0.000    0.000    0.000 
#
# Total GULP energy -145178.949327 kJ/mol
# GULP energy per Si atom -5583.805743 kJ/mol
# Density = 1.983373 g / cm^3
# Si number density = 19.878979 Si / 1000 Ang^3
#
#
#
# Elastic Constant Matrix: (Units=GPa)
#
#
# Indices 1 2 3 4 5 6 
#
# 1 96.8695 48.0901 40.8157 0.0000 -17.4117 0.0000
# 2 48.0901 86.6152 35.5534 0.0000 -11.5816 0.0000
# 3 40.8157 35.5534 67.7464 0.0000 -15.5929 0.0000
# 4 0.0000 0.0000 0.0000 26.6805 0.0000 -2.3836
# 5 -17.4117 -11.5816 -15.5929 0.0000 39.2682 0.0000
# 6 0.0000 0.0000 0.0000 -2.3836 0.0000 15.6097
#
#
#
# Elastic Compliance Matrix: (Units=1/GPa)
#
#
# Indices 1 2 3 4 5 6 
#
# 1 0.016514 -0.006326 -0.005914 0.000000 0.003108 0.000000
# 2 -0.006326 0.017209 -0.005170 0.000000 0.000218 0.000000
# 3 -0.005914 -0.005170 0.022103 0.000000 0.004630 0.000000
# 4 0.000000 0.000000 0.000000 0.037999 0.000000 0.005802
# 5 0.003108 0.000218 0.004630 0.000000 0.028747 0.000000
# 6 0.000000 0.000000 0.000000 0.005802 0.000000 0.064949
#
#
# Mechanical properties :
#
#
# Convention : Reuss Voigt Hill
#
# Bulk Modulus (GPa) = 47.60550 55.57219 51.58885
# Shear Modulus (GPa) = 21.80151 24.76313 23.28232
#
# Velocity S-wave (km/s) = 3.31526 3.53327 3.42600
# Velocity P-wave (km/s) = 6.21725 6.68291 6.45428
#
# Compressibility (1/GPa) = 0.02100598
#
# Stress axis : x y z
#
# Youngs Moduli (GPa) = 60.55418 58.11026 45.24281
#
# Poissons Ratio (x) = 0.36758 0.26758
# Poissons Ratio (y) = 0.38304 0.23390
# Poissons Ratio (z) = 0.35814 0.30043
#
# Static dielectric constant tensor:
#      x y z
#    x 1.678770 0.000000 0.004150 
#    y 0.000000 1.699070 0.000000 
#    z 0.004150 0.000000 1.710170 
# 
# From -- ./inp_files/52524.got.cif
#   From: 2010.05.17/outbox.cif.g08.bks.cpg/sg12_27_cif.got.tgz:52524.got - 2010.06.03 13:09:07.
