data_PCOD9213397
_publ_section_title
;
Structure prediction by ZEFSAII (Michael W. Deem and Ramdas Pophale) SiO2 
 PCOD9213397
Probable space group: C 2/M
;
_chemical_formula_sum "Si O2"
_cell_formula_units_Z 40
_cell_length_a 16.632331
_cell_length_b 19.748042
_cell_length_c 13.073576
_cell_angle_alpha 90.000000
_cell_angle_beta 155.079160
_cell_angle_gamma 90.000000
_cell_volume 1809.383974
_symmetry_space_group_name_H-M "C 2/M"
_symmetry_group_IT_number 12
_symmetry_cell_setting 'monoclinic'
loop_
_space_group_symop_operation_xyz
x,y,z
-x,y,-z
-x,-y,-z
x,-y,z
1/2+x,1/2+y,z
1/2-x,1/2+y,-z
1/2-x,1/2-y,-z
1/2+x,1/2-y,z
loop_
_atom_site_type_symbol
_atom_site_label
_atom_site_fract_x
_atom_site_fract_y
_atom_site_fract_z
Si Si1 0.452740 0.075703 0.575771
Si Si2 0.538910 0.781086 0.747002
Si Si3 0.332364 0.423781 0.556170
Si Si4 0.114457 0.919113 0.038132
Si Si5 0.669373 0.204443 0.275183
O O1 0.564293 0.143214 0.732699
O O2 0.302084 0.073772 0.497920
O O3 0.325650 0.083840 0.326403
O O4 0.542867 0.000000 0.682735
O O5 0.436197 0.779910 0.739194
O O6 0.364886 0.746553 0.481344
O O7 0.750000 0.750000 0.000000
O O8 0.354373 0.500000 0.541796
O O9 0.242701 0.372685 0.372448
O O10 0.529496 0.395454 0.832639
O O11 0.069260 0.000000 0.982986
O O12 0.000000 0.885750 0.000000
O O13 0.500000 0.212877 0.000000
#
# Coordination Sequence:
#
# PCOD9213397 Si02
#       5
#     8   8   8   8   8
#     4   8  14  27  51  80 109 142 182 232 285 335
#     4  10  22  39  58  83 116 151 188 235 289 340
#     4   8  14  27  49  78 113 149 187 231 276 327
#     4   7  10  19  41  74 104 133 173 221 274 323
#     4  10  22  38  57  83 114 152 195 233 280 342
#
# _framework density 22.106971000000001
#
# number of rings (size 3 to 8) (size 9 to 14) (size 15 to 20)
#    0.000    3.400    0.000    2.400    0.000    6.800 
#    0.000    1.000    0.000    1.200    0.000   12.600 
#    0.000    0.000    0.000    0.000    0.000    0.000 
#
# Total GULP energy -111440.310807 kJ/mol
# GULP energy per Si atom -5572.015540 kJ/mol
# Density = 2.205665 g / cm^3
# Si number density = 22.106971 Si / 1000 Ang^3
#
#
#
# Elastic Constant Matrix: (Units=GPa)
#
#
# Indices 1 2 3 4 5 6 
#
# 1 33.1214 31.4747 28.1652 0.0000 12.4929 0.0000
# 2 31.4747 146.9067 93.9441 0.0000 13.6531 0.0000
# 3 28.1652 93.9441 175.2799 0.0000 13.7374 0.0000
# 4 0.0000 0.0000 0.0000 38.6185 0.0000 2.5855
# 5 12.4929 13.6531 13.7374 0.0000 39.0226 0.0000
# 6 0.0000 0.0000 0.0000 2.5855 0.0000 15.5236
#
#
#
# Elastic Compliance Matrix: (Units=1/GPa)
#
#
# Indices 1 2 3 4 5 6 
#
# 1 0.042457 -0.006523 -0.002509 0.000000 -0.010427 0.000000
# 2 -0.006523 0.011472 -0.005090 0.000000 -0.000134 0.000000
# 3 -0.002509 -0.005090 0.008879 0.000000 -0.000542 0.000000
# 4 0.000000 0.000000 0.000000 0.026186 0.000000 -0.004361
# 5 -0.010427 -0.000134 -0.000542 0.000000 0.029202 0.000000
# 6 0.000000 0.000000 0.000000 -0.004361 0.000000 0.065145
#
#
# Mechanical properties :
#
#
# Convention : Reuss Voigt Hill
#
# Bulk Modulus (GPa) = 28.93178 73.60844 51.27011
# Shear Modulus (GPa) = 22.41092 32.08120 27.24606
#
# Velocity S-wave (km/s) = 3.18740 3.81357 3.51446
# Velocity P-wave (km/s) = 5.16349 7.26360 6.30164
#
# Compressibility (1/GPa) = 0.03456407
#
# Stress axis : x y z
#
# Youngs Moduli (GPa) = 23.55318 87.16950 112.62768
#
# Poissons Ratio (x) = 0.56860 0.28259
# Poissons Ratio (y) = 0.15363 0.57327
# Poissons Ratio (z) = 0.05910 0.44369
#
# Static dielectric constant tensor:
#      x y z
#    x 1.949970 0.000000 0.092940 
#    y 0.000000 1.831660 0.000000 
#    z 0.092940 0.000000 1.898130 
# 
# From -- ./inp_files/235229.got.cif
#   From: 2010.05.17/outbox.cif.g08.bks.cpg/sg12_118_cif.got.tgz:235229.got - 2010.06.03 13:09:07.
