data_PCOD9213409
_publ_section_title
;
Structure prediction by ZEFSAII (Michael W. Deem and Ramdas Pophale) SiO2 
 PCOD9213409
Probable space group: C 2/M
;
_chemical_formula_sum "Si O2"
_cell_formula_units_Z 64
_cell_length_a 20.391835
_cell_length_b 25.651774
_cell_length_c 5.603127
_cell_angle_alpha 90.000000
_cell_angle_beta 76.364655
_cell_angle_gamma 90.000000
_cell_volume 2848.315658
_symmetry_space_group_name_H-M "C 2/M"
_symmetry_group_IT_number 12
_symmetry_cell_setting 'monoclinic'
loop_
_space_group_symop_operation_xyz
x,y,z
-x,y,-z
-x,-y,-z
x,-y,z
1/2+x,1/2+y,z
1/2-x,1/2+y,-z
1/2-x,1/2-y,-z
1/2+x,1/2-y,z
loop_
_atom_site_type_symbol
_atom_site_label
_atom_site_fract_x
_atom_site_fract_y
_atom_site_fract_z
Si Si1 0.140660 0.114287 0.504679
Si Si2 0.573921 0.742665 0.979319
Si Si3 0.681640 0.901063 0.250351
Si Si4 0.438406 0.057933 0.364221
Si Si5 0.399029 0.146228 0.076254
Si Si6 0.670729 0.560530 0.978771
Si Si7 0.230417 0.311550 0.530875
Si Si8 0.424282 0.288573 0.528405
O O1 0.141664 0.087262 0.762517
O O2 0.203319 0.155323 0.453467
O O3 0.076090 0.150833 0.531860
O O4 0.148016 0.080827 0.258324
O O5 0.565260 0.802849 0.053922
O O6 0.604265 0.738022 0.686736
O O7 0.500000 0.717946 0.000000
O O8 0.609332 0.718312 0.181002
O O9 0.639249 0.934346 0.477915
O O10 0.749029 0.929102 0.109744
O O11 0.703763 0.842590 0.317240
O O12 0.626614 0.894016 0.094898
O O13 0.500000 0.058127 0.500000
O O14 0.443157 0.112168 0.217498
O O15 0.441309 0.000000 0.246431
O O16 0.329451 0.171526 0.239035
O O17 0.655790 0.500000 0.976320
O O18 0.250000 0.250000 0.500000
O O19 0.500000 0.267821 0.500000
#
# Coordination Sequence:
#
# PCOD9213409 Si02
#       8
#     8   8   8   8   8   8   8   8
#     4  11  22  40  64  96 122 164 209 254 314 377
#     4  10  23  37  61  90 124 172 208 247 306 373
#     4  10  23  40  58  90 117 163 210 257 320 372
#     4  10  24  42  61  84 116 163 219 275 328 373
#     4  11  23  38  58  87 120 160 206 267 314 373
#     4  11  23  42  65  92 127 164 211 261 312 374
#     4  10  22  38  57  86 124 161 200 257 317 379
#     4  10  22  42  64  94 128 166 206 247 305 379
#
# _framework density 22.469421000000001
#
# number of rings (size 3 to 8) (size 9 to 14) (size 15 to 20)
#    0.000    1.625    1.250    2.250    7.000    3.000 
#    0.000    1.250    0.000    2.250    0.000    0.000 
#    0.000    0.000    0.000    0.000    0.000    0.000 
#
# Total GULP energy -178280.867644 kJ/mol
# GULP energy per Si atom -5571.277114 kJ/mol
# Density = 2.241828 g / cm^3
# Si number density = 22.469421 Si / 1000 Ang^3
#
#
#
# Elastic Constant Matrix: (Units=GPa)
#
#
# Indices 1 2 3 4 5 6 
#
# 1 50.5901 18.2114 16.4902 0.0000 7.9915 0.0000
# 2 18.2114 138.4246 34.8154 0.0000 22.4985 0.0000
# 3 16.4902 34.8154 108.9139 0.0000 33.5699 0.0000
# 4 0.0000 0.0000 0.0000 -13.2929 0.0000 3.5746
# 5 7.9915 22.4985 33.5699 0.0000 34.8684 0.0000
# 6 0.0000 0.0000 0.0000 3.5746 0.0000 26.0240
#
#
#
# Elastic Compliance Matrix: (Units=1/GPa)
#
#
# Indices 1 2 3 4 5 6 
#
# 1 0.021435 -0.002034 -0.002112 0.000000 -0.001567 0.000000
# 2 -0.002034 0.008413 -0.001211 0.000000 -0.003796 0.000000
# 3 -0.002112 -0.001211 0.013506 0.000000 -0.011738 0.000000
# 4 0.000000 0.000000 0.000000 -0.072549 0.000000 0.009965
# 5 -0.001567 -0.003796 -0.011738 0.000000 0.042788 0.000000
# 6 0.000000 0.000000 0.000000 0.009965 0.000000 0.037057
#
#
# Mechanical properties :
#
#
# Convention : Reuss Voigt Hill
#
# Bulk Modulus (GPa) = 30.63798 48.55140 39.59469
# Shear Modulus (GPa) = 69.20665 24.74733 46.97699
#
# Velocity S-wave (km/s) = 5.55583 3.32230 4.57739
# Velocity P-wave (km/s) = 7.40414 6.03089 6.75252
#
# Compressibility (1/GPa) = 0.03263923
#
# Stress axis : x y z
#
# Youngs Moduli (GPa) = 46.65280 118.85727 74.03854
#
# Poissons Ratio (x) = 0.24177 0.15639
# Poissons Ratio (y) = 0.09490 0.08969
# Poissons Ratio (z) = 0.09855 0.14398
#
# Static dielectric constant tensor:
#      x y z
#    x 1.860420 0.000000 -0.003810 
#    y 0.000000 1.808390 0.000000 
#    z -0.003810 0.000000 1.926410 
# 
# From -- ./inp_files/26051.got.cif
#   From: 2010.05.17/outbox.cif.g08.bks.cpg/sg12_14_cif.got.tgz:26051.got - 2010.06.03 13:09:07.
