data_PCOD9213422
_publ_section_title
;
Structure prediction by ZEFSAII (Michael W. Deem and Ramdas Pophale) SiO2 
 PCOD9213422
Probable space group: C 2/M
;
_chemical_formula_sum "Si O2"
_cell_formula_units_Z 40
_cell_length_a 20.957104
_cell_length_b 22.283000
_cell_length_c 12.348391
_cell_angle_alpha 90.000000
_cell_angle_beta 20.701353
_cell_angle_gamma 90.000000
_cell_volume 2038.454172
_symmetry_space_group_name_H-M "C 2/M"
_symmetry_group_IT_number 12
_symmetry_cell_setting 'monoclinic'
loop_
_space_group_symop_operation_xyz
x,y,z
-x,y,-z
-x,-y,-z
x,-y,z
1/2+x,1/2+y,z
1/2-x,1/2+y,-z
1/2-x,1/2-y,-z
1/2+x,1/2-y,z
loop_
_atom_site_type_symbol
_atom_site_label
_atom_site_fract_x
_atom_site_fract_y
_atom_site_fract_z
Si Si1 0.984896 0.290481 0.353288
Si Si2 0.141700 0.687693 0.677443
Si Si3 0.499366 0.569480 0.377299
Si Si4 0.216430 0.433474 0.648052
Si Si5 0.201274 0.176343 0.981505
O O1 0.156315 0.315405 0.146923
O O2 0.960360 0.318081 0.274520
O O3 0.808107 0.302964 0.705403
O O4 0.030671 0.219974 0.269804
O O5 0.250000 0.750000 0.500000
O O6 0.256865 0.627149 0.516873
O O7 0.000000 0.693173 0.000000
O O8 0.500000 0.592304 0.500000
O O9 0.554308 0.500000 0.293578
O O10 0.307670 0.573042 0.621053
O O11 0.633458 0.608878 0.092494
O O12 0.274214 0.500000 0.514842
O O13 0.000000 0.434934 0.000000
#
# Coordination Sequence:
#
# PCOD9213422 Si02
#       5
#     8   8   8   8   8
#     4  10  22  38  57  93 121 165 201 250 316 355
#     4  11  22  35  59  86 121 156 198 246 302 364
#     4  10  22  38  62  90 121 163 208 254 300 363
#     4   9  20  38  58  86 119 157 203 248 301 360
#     4  10  22  38  62  86 125 159 206 256 300 368
#
# _framework density 19.622712
#
# number of rings (size 3 to 8) (size 9 to 14) (size 15 to 20)
#    0.000    2.000    0.000    2.400   11.200    0.000 
#    0.000    3.000    0.000    3.000    0.000    0.000 
#    0.000    0.000    0.000    0.000    0.000    0.000 
#
# Total GULP energy -111573.762841 kJ/mol
# GULP energy per Si atom -5578.688142 kJ/mol
# Density = 1.957805 g / cm^3
# Si number density = 19.622712 Si / 1000 Ang^3
#
#
#
# Elastic Constant Matrix: (Units=GPa)
#
#
# Indices 1 2 3 4 5 6 
#
# 1 130.7422 36.5195 33.7382 0.0019 16.3878 -0.0040
# 2 36.5195 132.0035 44.4845 -0.0065 7.4415 0.0055
# 3 33.7382 44.4845 78.5475 0.0030 16.7920 0.0111
# 4 0.0019 -0.0065 0.0030 17.5779 0.0004 -9.1408
# 5 16.3878 7.4415 16.7920 0.0004 22.2623 0.0020
# 6 -0.0040 0.0055 0.0111 -9.1408 0.0020 20.4571
#
#
#
# Elastic Compliance Matrix: (Units=1/GPa)
#
#
# Indices 1 2 3 4 5 6 
#
# 1 0.009212 -0.001593 -0.002049 0.000001 -0.004703 0.000004
# 2 -0.001593 0.009658 -0.005182 0.000006 0.001853 0.000002
# 3 -0.002049 -0.005182 0.018901 -0.000012 -0.011016 -0.000013
# 4 0.000001 0.000006 -0.000012 0.074109 0.000002 0.033114
# 5 -0.004703 0.001853 -0.011016 0.000002 0.056071 0.000000
# 6 0.000004 0.000002 -0.000013 0.033114 0.000000 0.063679
#
#
# Mechanical properties :
#
#
# Convention : Reuss Voigt Hill
#
# Bulk Modulus (GPa) = 49.69324 63.41973 56.55648
# Shear Modulus (GPa) = 19.53243 27.16287 23.34765
#
# Velocity S-wave (km/s) = 3.15842 3.72460 3.45313
# Velocity P-wave (km/s) = 6.21933 7.13348 6.69204
#
# Compressibility (1/GPa) = 0.02012346
#
# Stress axis : x y z
#
# Youngs Moduli (GPa) = 108.55585 103.54176 52.90748
#
# Poissons Ratio (x) = 0.16492 0.10842
# Poissons Ratio (y) = 0.17291 0.27414
# Poissons Ratio (z) = 0.22246 0.53651
#
# Static dielectric constant tensor:
#      x y z
#    x 1.706720 0.000000 -0.017740 
#    y 0.000000 1.738890 0.000010 
#    z -0.017740 0.000010 1.672790 
# 
# From -- ./inp_files/170256.got.cif
#   From: 2010.05.17/outbox.cif.g08.bks.cpg/sg12_86_cif.got.tgz:170256.got - 2010.06.03 13:09:07.
