data_PCOD9213813
_publ_section_title
;
Structure prediction by ZEFSAII (Michael W. Deem and Ramdas Pophale) SiO2 
 PCOD9213813
Probable space group: C 2/M
;
_chemical_formula_sum "Si O2"
_cell_formula_units_Z 40
_cell_length_a 15.522629
_cell_length_b 16.976727
_cell_length_c 15.445625
_cell_angle_alpha 90.000000
_cell_angle_beta 151.887633
_cell_angle_gamma 90.000000
_cell_volume 1917.927144
_symmetry_space_group_name_H-M "C 2/M"
_symmetry_group_IT_number 12
_symmetry_cell_setting 'monoclinic'
loop_
_space_group_symop_operation_xyz
x,y,z
-x,y,-z
-x,-y,-z
x,-y,z
1/2+x,1/2+y,z
1/2-x,1/2+y,-z
1/2-x,1/2-y,-z
1/2+x,1/2-y,z
loop_
_atom_site_type_symbol
_atom_site_label
_atom_site_fract_x
_atom_site_fract_y
_atom_site_fract_z
Si Si1 0.634894 0.909524 0.540143
Si Si2 0.865883 0.407898 0.649977
Si Si3 0.936240 0.910099 0.230359
Si Si4 0.511244 0.360026 0.913556
Si Si5 0.904897 0.681276 0.005237
O O1 0.500000 0.905678 0.500000
O O2 0.548730 0.897026 0.370082
O O3 0.798135 0.849694 0.700663
O O4 0.711506 0.000000 0.604746
O O5 0.890057 0.500000 0.696603
O O6 0.648135 0.394055 0.443296
O O7 0.962778 0.350441 0.802030
O O8 0.913698 0.902148 0.105906
O O9 0.896715 0.000000 0.219282
O O10 0.793554 0.854617 0.152201
O O11 0.605488 0.275692 0.004806
O O12 0.500000 0.397931 0.000000
O O13 0.000000 0.656263 0.000000
#
# Coordination Sequence:
#
# PCOD9213813 Si02
#       5
#     8   8   8   8   8
#     4   9  19  36  59  91 122 153 196 241 297 364
#     4   9  20  39  61  88 117 155 203 247 298 351
#     4  10  22  40  63  88 117 156 202 252 299 351
#     4  10  22  39  57  91 125 155 195 242 303 365
#     4  11  24  41  58  88 122 163 204 245 293 353
#
# _framework density 20.85585
#
# number of rings (size 3 to 8) (size 9 to 14) (size 15 to 20)
#    0.000    2.200    0.000    3.000    2.800    7.200 
#    7.200    2.000    0.000    0.000    0.000    0.000 
#    0.000    0.000    0.000    0.000    0.000    0.000 
#
# Total GULP energy -111620.211027 kJ/mol
# GULP energy per Si atom -5581.010551 kJ/mol
# Density = 2.080838 g / cm^3
# Si number density = 20.855850 Si / 1000 Ang^3
#
#
#
# Elastic Constant Matrix: (Units=GPa)
#
#
# Indices 1 2 3 4 5 6 
#
# 1 93.6226 13.4245 4.9625 -0.0006 -0.5227 -0.0010
# 2 13.4245 37.4750 5.4599 0.0067 8.8641 0.0026
# 3 4.9625 5.4599 38.1624 0.0014 -6.2014 0.0018
# 4 -0.0006 0.0067 0.0014 25.7984 0.0025 17.8525
# 5 -0.5227 8.8641 -6.2014 0.0025 32.2731 0.0015
# 6 -0.0010 0.0026 0.0018 17.8525 0.0015 31.1715
#
#
#
# Elastic Compliance Matrix: (Units=1/GPa)
#
#
# Indices 1 2 3 4 5 6 
#
# 1 0.011333 -0.004252 -0.000667 0.000001 0.001223 0.000000
# 2 -0.004252 0.031311 -0.005507 -0.000009 -0.009727 0.000003
# 3 -0.000667 -0.005507 0.028203 0.000000 0.006921 -0.000002
# 4 0.000001 -0.000009 0.000000 0.064210 -0.000001 -0.036774
# 5 0.001223 -0.009727 0.006921 -0.000001 0.035007 -0.000001
# 6 0.000000 0.000003 -0.000002 -0.036774 -0.000001 0.053142
#
#
# Mechanical properties :
#
#
# Convention : Reuss Voigt Hill
#
# Bulk Modulus (GPa) = 20.00199 24.10598 22.05398
# Shear Modulus (GPa) = 19.17747 27.54280 23.36013
#
# Velocity S-wave (km/s) = 3.03566 3.63799 3.35038
# Velocity P-wave (km/s) = 4.67957 5.40648 5.05611
#
# Compressibility (1/GPa) = 0.04999503
#
# Stress axis : x y z
#
# Youngs Moduli (GPa) = 88.23762 31.93789 35.45701
#
# Poissons Ratio (x) = 0.13580 0.02363
# Poissons Ratio (y) = 0.37519 0.19528
# Poissons Ratio (z) = 0.05882 0.17589
#
# Static dielectric constant tensor:
#      x y z
#    x 1.767170 0.000000 -0.008070 
#    y 0.000000 1.738970 0.000000 
#    z -0.008070 0.000000 1.751050 
# 
# From -- ./inp_files/58954.got.cif
#   From: 2010.05.17/outbox.cif.g08.bks.cpg/sg12_30_cif.got.tgz:58954.got - 2010.06.03 13:09:07.
