data_PCOD9213830
_publ_section_title
;
Structure prediction by ZEFSAII (Michael W. Deem and Ramdas Pophale) SiO2 
 PCOD9213830
Probable space group: C 2/M
;
_chemical_formula_sum "Si O2"
_cell_formula_units_Z 60
_cell_length_a 20.326964
_cell_length_b 28.845573
_cell_length_c 7.234398
_cell_angle_alpha 90.000000
_cell_angle_beta 135.653430
_cell_angle_gamma 90.000000
_cell_volume 2965.031112
_symmetry_space_group_name_H-M "C 2/M"
_symmetry_group_IT_number 12
_symmetry_cell_setting 'monoclinic'
loop_
_space_group_symop_operation_xyz
x,y,z
-x,y,-z
-x,-y,-z
x,-y,z
1/2+x,1/2+y,z
1/2-x,1/2+y,-z
1/2-x,1/2-y,-z
1/2+x,1/2-y,z
loop_
_atom_site_type_symbol
_atom_site_label
_atom_site_fract_x
_atom_site_fract_y
_atom_site_fract_z
Si Si1 0.260381 0.139712 0.337549
Si Si2 0.693724 0.140561 0.999024
Si Si3 0.203724 0.948234 0.760950
Si Si4 0.586778 0.787508 0.310398
Si Si5 0.000000 0.317049 0.500000
Si Si6 0.654235 0.313953 0.427985
Si Si7 0.658928 0.447257 0.109925
Si Si8 0.023643 0.110894 0.328686
O O1 0.262656 0.145001 0.120556
O O2 0.354275 0.165266 0.593805
O O3 0.177471 0.167542 0.270707
O O4 0.242414 0.085973 0.350896
O O5 0.584681 0.153966 0.764118
O O6 0.710887 0.087380 0.089811
O O7 0.758152 0.171109 0.264542
O O8 0.178958 0.950812 0.929820
O O9 0.112604 0.923848 0.490341
O O10 0.220381 0.000000 0.727619
O O11 0.548954 0.787031 0.442334
O O12 0.645264 0.740910 0.402804
O O13 0.500000 0.786862 0.000000
O O14 0.562415 0.341116 0.321148
O O15 0.651340 0.500000 0.164263
O O16 0.564334 0.416472 0.935535
O O17 0.000000 0.117502 0.500000
#
# Coordination Sequence:
#
# PCOD9213830 Si02
#       8
#     8   8   8   8   4   8   8   8
#     4  10  22  39  58  82 115 151 189 240 279 340
#     4   9  20  39  58  84 113 148 189 234 288 333
#     4   8  14  29  54  81 113 152 188 226 280 337
#     4  11  25  40  60  85 111 152 193 238 289 338
#     4  10  22  40  61  82 112 146 187 244 286 338
#     4  11  23  37  58  82 116 153 192 235 281 340
#     4   9  17  32  55  81 114 153 188 230 284 338
#     4   9  18  31  51  83 119 151 187 233 279 338
#
# _framework density 20.235873999999999
#
# number of rings (size 3 to 8) (size 9 to 14) (size 15 to 20)
#    0.000    2.400    0.000    2.400    2.800    4.800 
#    0.000    4.333    0.000    1.200    0.000    0.000 
#    0.000    0.000    0.000    0.000    0.000    0.000 
#
# Total GULP energy -167439.133113 kJ/mol
# GULP energy per Si atom -5581.304437 kJ/mol
# Density = 2.018982 g / cm^3
# Si number density = 20.235874 Si / 1000 Ang^3
#
#
#
# Elastic Constant Matrix: (Units=GPa)
#
#
# Indices 1 2 3 4 5 6 
#
# 1 63.2164 6.8803 8.6371 0.0000 0.7694 0.0000
# 2 6.8803 98.9188 62.3147 0.0000 13.5999 0.0000
# 3 8.6371 62.3147 84.7068 0.0000 8.7664 0.0000
# 4 0.0000 0.0000 0.0000 16.4704 0.0000 6.0238
# 5 0.7694 13.5999 8.7664 0.0000 20.6130 0.0000
# 6 0.0000 0.0000 0.0000 6.0238 0.0000 65.8047
#
#
#
# Elastic Compliance Matrix: (Units=1/GPa)
#
#
# Indices 1 2 3 4 5 6 
#
# 1 0.016044 -0.000182 -0.001520 0.000000 0.000167 0.000000
# 2 -0.000182 0.019811 -0.013811 0.000000 -0.007190 0.000000
# 3 -0.001520 -0.013811 0.022147 0.000000 -0.000249 0.000000
# 4 0.000000 0.000000 0.000000 0.062818 0.000000 -0.005750
# 5 0.000167 -0.007190 -0.000249 0.000000 0.053357 0.000000
# 6 0.000000 0.000000 0.000000 -0.005750 0.000000 0.015723
#
#
# Mechanical properties :
#
#
# Convention : Reuss Voigt Hill
#
# Bulk Modulus (GPa) = 37.06948 44.72291 40.89620
# Shear Modulus (GPa) = 21.74696 31.84495 26.79595
#
# Velocity S-wave (km/s) = 3.28178 3.97128 3.64288
# Velocity P-wave (km/s) = 5.72001 6.57091 6.16017
#
# Compressibility (1/GPa) = 0.02697637
#
# Stress axis : x y z
#
# Youngs Moduli (GPa) = 62.32850 50.47670 45.15367
#
# Poissons Ratio (x) = 0.00917 0.06862
# Poissons Ratio (y) = 0.01132 0.62364
# Poissons Ratio (z) = 0.09471 0.69716
#
# Static dielectric constant tensor:
#      x y z
#    x 1.772270 0.000000 -0.035020 
#    y 0.000000 1.704710 0.000000 
#    z -0.035020 0.000000 1.738620 
# 
# From -- ./inp_files/91250.got.cif
#   From: 2010.05.17/outbox.cif.g08.bks.cpg/sg12_46_cif.got.tgz:91250.got - 2010.06.03 13:09:07.
