data_PCOD9213531
_publ_section_title
;
Structure prediction by ZEFSAII (Michael W. Deem and Ramdas Pophale) SiO2 
 PCOD9213531
Probable space group: C 2/M
;
_chemical_formula_sum "Si O2"
_cell_formula_units_Z 52
_cell_length_a 23.710316
_cell_length_b 20.853548
_cell_length_c 4.871334
_cell_angle_alpha 90.000000
_cell_angle_beta 101.990109
_cell_angle_gamma 90.000000
_cell_volume 2356.055567
_symmetry_space_group_name_H-M "C 2/M"
_symmetry_group_IT_number 12
_symmetry_cell_setting 'monoclinic'
loop_
_space_group_symop_operation_xyz
x,y,z
-x,y,-z
-x,-y,-z
x,-y,z
1/2+x,1/2+y,z
1/2-x,1/2+y,-z
1/2-x,1/2-y,-z
1/2+x,1/2-y,z
loop_
_atom_site_type_symbol
_atom_site_label
_atom_site_fract_x
_atom_site_fract_y
_atom_site_fract_z
Si Si1 0.372955 0.701652 0.414136
Si Si2 0.271814 0.500000 0.951073
Si Si3 0.283551 0.198376 0.224869
Si Si4 0.129106 0.610542 0.007927
Si Si5 0.690447 0.000000 0.379758
Si Si6 0.674287 0.631822 0.166379
Si Si7 0.536796 0.213936 0.781150
Si Si8 0.544187 0.000000 0.786095
O O1 0.332262 0.763359 0.441685
O O2 0.373381 0.651379 0.660631
O O3 0.431477 0.730977 0.358918
O O4 0.343376 0.666858 0.129030
O O5 0.213860 0.500000 0.709205
O O6 0.309582 0.560738 0.902543
O O7 0.246719 0.500000 0.234459
O O8 0.316478 0.143808 0.084444
O O9 0.233907 0.162656 0.342580
O O10 0.250000 0.250000 0.000000
O O11 0.084791 0.670059 0.982372
O O12 0.087225 0.560071 0.815768
O O13 0.154399 0.564682 0.273693
O O14 0.500000 0.179343 0.500000
O O15 0.500000 0.238198 0.000000
O O16 0.500000 0.000000 0.500000
O O17 0.500000 0.000000 0.000000
#
# Coordination Sequence:
#
# PCOD9213531 Si02
#       8
#     8   4   8   8   4   8   8   4
#     4  10  22  38  60  88 120 158 197 250 313 370
#     4  12  24  37  62  85 126 167 204 242 290 357
#     4   9  19  36  58  86 122 160 198 247 307 373
#     4  10  22  39  61  87 125 166 212 256 306 364
#     4  11  24  40  54  89 124 173 210 245 293 351
#     4  11  21  39  58  88 123 158 200 244 305 372
#     4  11  23  41  64  92 119 157 209 264 312 362
#     4  11  24  43  60  84 116 168 220 269 301 343
#
# _framework density 22.070784
#
# number of rings (size 3 to 8) (size 9 to 14) (size 15 to 20)
#    0.000    1.538    1.538    3.231    2.154    3.692 
#    2.769    0.000    0.000    0.000    0.000   10.769 
#    0.000    0.000    0.000    0.000    0.000    0.000 
#
# Total GULP energy -145216.633190 kJ/mol
# GULP energy per Si atom -5585.255123 kJ/mol
# Density = 2.202055 g / cm^3
# Si number density = 22.070784 Si / 1000 Ang^3
#
#
#
# Elastic Constant Matrix: (Units=GPa)
#
#
# Indices 1 2 3 4 5 6 
#
# 1 57.0775 108.4543 -6.7925 0.0000 -29.3820 0.0000
# 2 108.4543 26.7865 42.0307 0.0000 3.4095 0.0000
# 3 -6.7925 42.0307 60.5967 0.0000 -12.2136 0.0000
# 4 0.0000 0.0000 0.0000 12.7921 0.0000 11.7765
# 5 -29.3820 3.4095 -12.2136 0.0000 34.9716 0.0000
# 6 0.0000 0.0000 0.0000 11.7765 0.0000 43.9430
#
#
#
# Elastic Compliance Matrix: (Units=1/GPa)
#
#
# Indices 1 2 3 4 5 6 
#
# 1 0.000428 0.007945 -0.005966 0.000000 -0.002498 0.000000
# 2 0.007945 -0.001739 0.003739 0.000000 0.008150 0.000000
# 3 -0.005966 0.003739 0.013077 0.000000 -0.000810 0.000000
# 4 0.000000 0.000000 0.000000 0.103776 0.000000 -0.027811
# 5 -0.002498 0.008150 -0.000810 0.000000 0.025418 0.000000
# 6 0.000000 0.000000 0.000000 -0.027811 0.000000 0.030210
#
#
# Mechanical properties :
#
#
# Convention : Reuss Voigt Hill
#
# Bulk Modulus (GPa) = 43.09904 47.98286 45.54095
# Shear Modulus (GPa) = 29.85622 18.39257 24.12439
#
# Velocity S-wave (km/s) = 3.68196 2.88990 3.30971
# Velocity P-wave (km/s) = 6.13562 5.73786 5.94007
#
# Compressibility (1/GPa) = 0.02320237
#
# Stress axis : x y z
#
# Youngs Moduli (GPa) = 2334.17240 -575.09241 76.47081
#
# Poissons Ratio (x) = 4.56886 0.45622
# Poissons Ratio (y) = -18.54397 -0.28595
# Poissons Ratio (z) = 13.92557 2.15047
#
# Static dielectric constant tensor:
#      x y z
#    x 1.840190 0.000000 0.026320 
#    y 0.000000 1.779760 0.000000 
#    z 0.026320 0.000000 1.830540 
# 
# From -- ./inp_files/21269.got.cif
#   From: 2010.05.17/outbox.cif.g08.bks.cpg/sg12_11_cif.got.tgz:21269.got - 2010.06.03 13:09:07.
