data_PCOD9213471
_publ_section_title
;
Structure prediction by ZEFSAII (Michael W. Deem and Ramdas Pophale) SiO2 
 PCOD9213471
Probable space group: C 2/M
;
_chemical_formula_sum "Si O2"
_cell_formula_units_Z 40
_cell_length_a 21.449019
_cell_length_b 18.415321
_cell_length_c 10.862103
_cell_angle_alpha 90.000000
_cell_angle_beta 31.600566
_cell_angle_gamma 90.000000
_cell_volume 2248.160035
_symmetry_space_group_name_H-M "C 2/M"
_symmetry_group_IT_number 12
_symmetry_cell_setting 'monoclinic'
loop_
_space_group_symop_operation_xyz
x,y,z
-x,y,-z
-x,-y,-z
x,-y,z
1/2+x,1/2+y,z
1/2-x,1/2+y,-z
1/2-x,1/2-y,-z
1/2+x,1/2-y,z
loop_
_atom_site_type_symbol
_atom_site_label
_atom_site_fract_x
_atom_site_fract_y
_atom_site_fract_z
Si Si1 0.500000 0.248027 0.500000
Si Si2 0.000000 0.124053 0.000000
Si Si3 0.101124 0.000000 0.519388
Si Si4 0.320785 0.119806 0.762957
Si Si5 0.189456 0.000000 0.641536
Si Si6 0.680036 0.000000 0.026741
Si Si7 0.043831 0.146865 0.196466
Si Si8 0.918382 0.500000 0.413622
O O1 0.388162 0.194739 0.671412
O O2 0.486046 0.296312 0.646019
O O3 0.999355 0.165364 0.870388
O O4 0.113894 0.069926 0.813461
O O5 0.019290 0.071084 0.661363
O O6 0.177853 0.000000 0.515063
O O7 0.804706 0.000000 0.747744
O O8 0.324136 0.070488 0.879293
O O9 0.386392 0.070470 0.550362
O O10 0.184840 0.134162 0.956867
O O11 0.323144 0.000000 0.464459
O O12 0.558801 0.000000 0.150878
#
# Coordination Sequence:
#
# PCOD9213471 Si02
#       8
#     4   4   4   8   4   4   8   4
#     4  12  24  38  54  90 124 154 188 232 292 348
#     4   9  18  36  60  90 110 147 196 238 288 337
#     4  10  22  38  58  94 109 142 201 245 288 331
#     4  11  21  38  59  86 111 156 194 233 291 342
#     4   9  17  33  63  86 112 142 192 245 289 336
#     4  11  21  35  61  83 123 144 191 247 286 337
#     4  11  22  38  64  84 118 150 193 247 283 337
#     4  11  18  36  64  85 110 153 191 242 282 345
#
# _framework density 17.792328000000001
#
# number of rings (size 3 to 8) (size 9 to 14) (size 15 to 20)
#    0.000    1.400    4.000    4.200    0.000    1.600 
#    0.000    1.000    4.400    0.000    0.000    0.000 
#    0.000    0.000    0.000    0.000    0.000    0.000 
#
# Total GULP energy -111648.625793 kJ/mol
# GULP energy per Si atom -5582.431290 kJ/mol
# Density = 1.775183 g / cm^3
# Si number density = 17.792328 Si / 1000 Ang^3
#
#
#
# Elastic Constant Matrix: (Units=GPa)
#
#
# Indices 1 2 3 4 5 6 
#
# 1 117.4810 65.9987 48.5436 0.0000 -15.7767 0.0000
# 2 65.9987 100.7247 35.7124 0.0000 9.1391 0.0000
# 3 48.5436 35.7124 94.4159 -0.0001 -15.5013 0.0000
# 4 0.0000 0.0000 -0.0001 -36.0928 0.0001 -5.0786
# 5 -15.7767 9.1391 -15.5013 0.0001 27.9140 0.0000
# 6 0.0000 0.0000 0.0000 -5.0786 0.0000 12.3924
#
#
#
# Elastic Compliance Matrix: (Units=1/GPa)
#
#
# Indices 1 2 3 4 5 6 
#
# 1 0.018094 -0.012068 -0.002652 0.000000 0.012705 0.000000
# 2 -0.012068 0.020813 -0.004298 0.000000 -0.016022 0.000000
# 3 -0.002652 -0.004298 0.014927 0.000000 0.008197 0.000000
# 4 0.000000 0.000000 0.000000 -0.026196 0.000000 -0.010735
# 5 0.012705 -0.016022 0.008197 0.000000 0.052803 0.000000
# 6 0.000000 0.000000 0.000000 -0.010735 0.000000 0.076295
#
#
# Mechanical properties :
#
#
# Convention : Reuss Voigt Hill
#
# Bulk Modulus (GPa) = 63.30519 68.12565 65.71542
# Shear Modulus (GPa) = 24.99528 11.66718 18.33123
#
# Velocity S-wave (km/s) = 3.75218 2.56352 3.21329
# Velocity P-wave (km/s) = 7.37761 6.86547 7.12614
#
# Compressibility (1/GPa) = 0.01579649
#
# Stress axis : x y z
#
# Youngs Moduli (GPa) = 55.26811 48.04654 66.99391
#
# Poissons Ratio (x) = 0.57983 0.17769
# Poissons Ratio (y) = 0.66698 0.28796
# Poissons Ratio (z) = 0.14659 0.20652
#
# Static dielectric constant tensor:
#      x y z
#    x 1.631060 0.000000 0.009950 
#    y 0.000000 1.583730 0.000000 
#    z 0.009950 0.000000 1.605490 
# 
# From -- ./inp_files/159052.got.cif
#   From: 2010.05.17/outbox.cif.g08.bks.cpg/sg12_80_cif.got.tgz:159052.got - 2010.06.03 13:09:07.
