data_PCOD9213805
_publ_section_title
;
Structure prediction by ZEFSAII (Michael W. Deem and Ramdas Pophale) SiO2 
 PCOD9213805
Probable space group: C 2/M
;
_chemical_formula_sum "Si O2"
_cell_formula_units_Z 48
_cell_length_a 21.904073
_cell_length_b 24.427046
_cell_length_c 5.280351
_cell_angle_alpha 90.000000
_cell_angle_beta 59.731974
_cell_angle_gamma 90.000000
_cell_volume 2440.113116
_symmetry_space_group_name_H-M "C 2/M"
_symmetry_group_IT_number 12
_symmetry_cell_setting 'monoclinic'
loop_
_space_group_symop_operation_xyz
x,y,z
-x,y,-z
-x,-y,-z
x,-y,z
1/2+x,1/2+y,z
1/2-x,1/2+y,-z
1/2-x,1/2-y,-z
1/2+x,1/2-y,z
loop_
_atom_site_type_symbol
_atom_site_label
_atom_site_fract_x
_atom_site_fract_y
_atom_site_fract_z
Si Si1 0.269836 0.938111 0.121530
Si Si2 0.309076 0.731337 0.578578
Si Si3 0.824413 0.061785 0.183013
Si Si4 0.322103 0.175801 0.926475
Si Si5 0.543857 0.225961 0.169938
Si Si6 0.075811 0.838149 0.957351
O O1 0.229916 0.925726 0.471196
O O2 0.299291 0.000000 0.081050
O O3 0.215157 0.938555 0.002454
O O4 0.322716 0.889457 0.935315
O O5 0.250000 0.750000 0.500000
O O6 0.338304 0.785734 0.652157
O O7 0.371472 0.694151 0.342202
O O8 0.259831 0.693239 0.859140
O O9 0.884055 0.107656 0.045902
O O10 0.851212 0.000000 0.176117
O O11 0.380846 0.196005 0.002243
O O12 0.500000 0.203784 0.500000
O O13 0.500000 0.223406 0.000000
O O14 0.561861 0.289844 0.187444
O O15 0.000000 0.851939 0.000000
#
# Coordination Sequence:
#
# PCOD9213805 Si02
#       6
#     8   8   8   8   8   8
#     4  10  22  39  62  88 115 152 202 249 292 346
#     4  11  21  36  57  94 117 156 201 248 300 354
#     4  10  22  39  57  83 119 158 201 245 284 339
#     4  11  22  35  64  84 122 155 197 250 303 358
#     4  11  25  40  57  89 124 157 194 243 310 366
#     4  11  22  38  59  85 126 159 199 240 295 353
#
# _framework density 19.671220999999999
#
# number of rings (size 3 to 8) (size 9 to 14) (size 15 to 20)
#    0.000    1.333    3.333    3.000    2.333    3.000 
#    0.000    0.000    0.000    4.500    0.000    0.000 
#    0.000    0.667    0.000    0.000    0.000    0.000 
#
# Total GULP energy -133857.141468 kJ/mol
# GULP energy per Si atom -5577.380894 kJ/mol
# Density = 1.962645 g / cm^3
# Si number density = 19.671221 Si / 1000 Ang^3
#
#
#
# Elastic Constant Matrix: (Units=GPa)
#
#
# Indices 1 2 3 4 5 6 
#
# 1 89.5188 41.3385 20.9002 0.0000 -5.0275 0.0000
# 2 41.3385 118.4087 -9.0797 0.0000 -10.8493 0.0000
# 3 20.9002 -9.0797 72.6023 0.0000 -3.9567 0.0000
# 4 0.0000 0.0000 0.0000 25.2809 0.0000 -5.3394
# 5 -5.0275 -10.8493 -3.9567 0.0000 28.9054 0.0000
# 6 0.0000 0.0000 0.0000 -5.3394 0.0000 28.1398
#
#
#
# Elastic Compliance Matrix: (Units=1/GPa)
#
#
# Indices 1 2 3 4 5 6 
#
# 1 0.014920 -0.005611 -0.005007 0.000000 -0.000196 0.000000
# 2 -0.005611 0.010976 0.003183 0.000000 0.003580 0.000000
# 3 -0.005007 0.003183 0.015748 0.000000 0.002479 0.000000
# 4 0.000000 0.000000 0.000000 0.041207 0.000000 0.007819
# 5 -0.000196 0.003580 0.002479 0.000000 0.036244 0.000000
# 6 0.000000 0.000000 0.000000 0.007819 0.000000 0.037020
#
#
# Mechanical properties :
#
#
# Convention : Reuss Voigt Hill
#
# Bulk Modulus (GPa) = 37.34966 42.98309 40.16637
# Shear Modulus (GPa) = 27.79149 31.62327 29.70738
#
# Velocity S-wave (km/s) = 3.76280 4.01383 3.89034
# Velocity P-wave (km/s) = 6.15682 6.58629 6.37517
#
# Compressibility (1/GPa) = 0.02677400
#
# Stress axis : x y z
#
# Youngs Moduli (GPa) = 67.02485 91.10640 63.49880
#
# Poissons Ratio (x) = 0.51117 0.31796
# Poissons Ratio (y) = 0.37606 -0.20211
# Poissons Ratio (z) = 0.33562 -0.28999
#
# Static dielectric constant tensor:
#      x y z
#    x 1.708310 0.000000 0.009170 
#    y 0.000000 1.717780 0.000000 
#    z 0.009170 0.000000 1.796900 
# 
# From -- ./inp_files/16631.got.cif
#   From: 2010.05.17/outbox.cif.g08.bks.cpg/sg12_9_cif.got.tgz:16631.got - 2010.06.03 13:09:07.
