data_PCOD9213645
_publ_section_title
;
Structure prediction by ZEFSAII (Michael W. Deem and Ramdas Pophale) SiO2 
 PCOD9213645
Probable space group: C 2/M
;
_chemical_formula_sum "Si O2"
_cell_formula_units_Z 40
_cell_length_a 22.908316
_cell_length_b 18.028032
_cell_length_c 11.377095
_cell_angle_alpha 90.000000
_cell_angle_beta 153.766833
_cell_angle_gamma 90.000000
_cell_volume 2076.920521
_symmetry_space_group_name_H-M "C 2/M"
_symmetry_group_IT_number 12
_symmetry_cell_setting 'monoclinic'
loop_
_space_group_symop_operation_xyz
x,y,z
-x,y,-z
-x,-y,-z
x,-y,z
1/2+x,1/2+y,z
1/2-x,1/2+y,-z
1/2-x,1/2-y,-z
1/2+x,1/2-y,z
loop_
_atom_site_type_symbol
_atom_site_label
_atom_site_fract_x
_atom_site_fract_y
_atom_site_fract_z
Si Si1 0.000459 0.176041 0.629988
Si Si2 0.647382 0.086434 0.797925
Si Si3 0.291074 0.791043 0.907554
Si Si4 0.657727 0.414380 0.074474
Si Si5 0.352873 0.275801 0.783779
O O1 0.000000 0.141147 0.500000
O O2 0.125834 0.230736 0.868493
O O3 0.021836 0.115151 0.769175
O O4 0.864755 0.221339 0.394445
O O5 0.500000 0.111943 0.500000
O O6 0.696438 0.133910 0.996601
O O7 0.642011 0.000000 0.820753
O O8 0.737724 0.091569 0.844461
O O9 0.353754 0.783732 0.891904
O O10 0.651648 0.500000 0.100805
O O11 0.687888 0.354282 0.229522
O O12 0.250000 0.250000 0.500000
O O13 0.500000 0.283507 0.000000
#
# Coordination Sequence:
#
# PCOD9213645 Si02
#       5
#     8   8   8   8   8
#     4  11  21  34  59  96 124 160 190 243 316 370
#     4  10  22  38  62  96 127 158 192 246 326 382
#     4  11  23  38  63  89 127 157 204 258 305 362
#     4  10  23  41  64  91 125 159 201 255 311 370
#     4  11  25  43  62  88 117 165 217 253 293 351
#
# _framework density 19.259283
#
# number of rings (size 3 to 8) (size 9 to 14) (size 15 to 20)
#    0.000    1.400    2.000    3.600   11.200    1.600 
#    0.000    1.000    0.000    1.200    0.000    0.000 
#    0.000    0.000    0.000    0.000    0.000    0.000 
#
# Total GULP energy -111606.629148 kJ/mol
# GULP energy per Si atom -5580.331457 kJ/mol
# Density = 1.921545 g / cm^3
# Si number density = 19.259283 Si / 1000 Ang^3
#
#
#
# Elastic Constant Matrix: (Units=GPa)
#
#
# Indices 1 2 3 4 5 6 
#
# 1 96.5333 53.2471 32.1868 0.0000 -16.0207 0.0000
# 2 53.2471 111.0278 55.2239 0.0000 -13.8277 0.0000
# 3 32.1868 55.2239 116.3264 0.0000 -5.9115 0.0000
# 4 0.0000 0.0000 0.0000 22.8886 0.0000 -6.6761
# 5 -16.0207 -13.8277 -5.9115 0.0000 42.4779 0.0000
# 6 0.0000 0.0000 0.0000 -6.6761 0.0000 33.3018
#
#
#
# Elastic Compliance Matrix: (Units=1/GPa)
#
#
# Indices 1 2 3 4 5 6 
#
# 1 0.014612 -0.006101 -0.000975 0.000000 0.003389 0.000000
# 2 -0.006101 0.014753 -0.005225 0.000000 0.001774 0.000000
# 3 -0.000975 -0.005225 0.011322 0.000000 -0.000493 0.000000
# 4 0.000000 0.000000 0.000000 0.046403 0.000000 0.009303
# 5 0.003389 0.001774 -0.000493 0.000000 0.025329 0.000000
# 6 0.000000 0.000000 0.000000 0.009303 0.000000 0.031893
#
#
# Mechanical properties :
#
#
# Convention : Reuss Voigt Hill
#
# Bulk Modulus (GPa) = 62.17030 67.24479 64.70755
# Shear Modulus (GPa) = 28.69045 31.94898 30.31972
#
# Velocity S-wave (km/s) = 3.86384 4.07736 3.97204
# Velocity P-wave (km/s) = 7.22886 7.56028 7.39643
#
# Compressibility (1/GPa) = 0.01608485
#
# Stress axis : x y z
#
# Youngs Moduli (GPa) = 68.43867 67.78506 88.32579
#
# Poissons Ratio (x) = 0.41353 0.08608
# Poissons Ratio (y) = 0.41752 0.46153
# Poissons Ratio (z) = 0.06669 0.35420
#
# Static dielectric constant tensor:
#      x y z
#    x 1.704010 0.000000 0.024400 
#    y 0.000000 1.689750 0.000000 
#    z 0.024400 0.000000 1.715560 
# 
# From -- ./inp_files/177981.got.cif
#   From: 2010.05.17/outbox.cif.g08.bks.cpg/sg12_89_cif.got.tgz:177981.got - 2010.06.03 13:09:07.
