data_PCOD9213006
_publ_section_title
;
Structure prediction by ZEFSAII (Michael W. Deem and Ramdas Pophale) SiO2 
 PCOD9213006
Probable space group: C 2/M
;
_chemical_formula_sum "Si O2"
_cell_formula_units_Z 48
_cell_length_a 14.192502
_cell_length_b 26.245909
_cell_length_c 11.231582
_cell_angle_alpha 90.000000
_cell_angle_beta 33.462181
_cell_angle_gamma 90.000000
_cell_volume 2306.840676
_symmetry_space_group_name_H-M "C 2/M"
_symmetry_group_IT_number 12
_symmetry_cell_setting 'monoclinic'
loop_
_space_group_symop_operation_xyz
x,y,z
-x,y,-z
-x,-y,-z
x,-y,z
1/2+x,1/2+y,z
1/2-x,1/2+y,-z
1/2-x,1/2-y,-z
1/2+x,1/2-y,z
loop_
_atom_site_type_symbol
_atom_site_label
_atom_site_fract_x
_atom_site_fract_y
_atom_site_fract_z
Si Si1 0.147005 0.778796 0.747776
Si Si2 0.927754 0.389762 0.707254
Si Si3 0.198416 0.181467 0.314375
Si Si4 0.247618 0.120468 0.498907
Si Si5 0.441814 0.560748 0.925081
Si Si6 0.390917 0.209173 0.882311
O O1 0.280082 0.740524 0.668671
O O2 0.211677 0.830931 0.623603
O O3 0.054045 0.742270 0.748888
O O4 0.000000 0.790546 0.000000
O O5 0.908080 0.329999 0.757205
O O6 0.000000 0.398598 0.500000
O O7 0.077031 0.405497 0.642323
O O8 0.742821 0.415484 0.909072
O O9 0.258228 0.144410 0.356813
O O10 0.000000 0.171373 0.500000
O O11 0.319092 0.177750 0.071613
O O12 0.086272 0.084110 0.687524
O O13 0.433174 0.500000 0.923764
O O14 0.500000 0.572781 0.000000
O O15 0.250000 0.250000 0.000000
#
# Coordination Sequence:
#
# PCOD9213006 Si02
#       6
#     8   8   8   8   8   8
#     4  10  22  36  55  90 136 171 215 258 309 376
#     4  12  26  40  68  96 127 172 221 272 334 398
#     4  11  23  38  61  91 136 185 219 262 316 381
#     4  12  24  42  66  99 131 176 224 270 330 397
#     4  11  25  47  68  97 133 163 215 291 352 407
#     4  11  24  39  58  92 137 182 221 261 311 384
#
# _framework density 20.807679
#
# number of rings (size 3 to 8) (size 9 to 14) (size 15 to 20)
#    0.000    0.833    3.333    4.000    7.000    1.000 
#    0.000    0.000    0.000    4.500    0.000    5.833 
#    0.000    0.000    0.000    0.000    0.000    0.000 
#
# Total GULP energy -134319.517836 kJ/mol
# GULP energy per Si atom -5596.646576 kJ/mol
# Density = 2.076032 g / cm^3
# Si number density = 20.807679 Si / 1000 Ang^3
#
#
#
# Elastic Constant Matrix: (Units=GPa)
#
#
# Indices 1 2 3 4 5 6 
#
# 1 111.5186 29.5580 49.2069 0.0000 -25.1699 0.0000
# 2 29.5580 70.9732 29.2275 0.0000 -19.3098 0.0000
# 3 49.2069 29.2275 97.0360 0.0000 -27.5238 0.0001
# 4 0.0000 0.0000 0.0000 13.5013 0.0000 -0.8502
# 5 -25.1699 -19.3098 -27.5238 0.0000 45.6322 -0.0001
# 6 0.0000 0.0000 0.0001 -0.8502 -0.0001 21.8597
#
#
#
# Elastic Compliance Matrix: (Units=1/GPa)
#
#
# Indices 1 2 3 4 5 6 
#
# 1 0.012344 -0.002401 -0.004697 0.000000 0.002960 0.000000
# 2 -0.002401 0.017428 -0.002793 0.000000 0.004365 0.000000
# 3 -0.004697 -0.002793 0.015030 0.000000 0.005293 0.000000
# 4 0.000000 0.000000 0.000000 0.074249 0.000000 0.002888
# 5 0.002960 0.004365 0.005293 0.000000 0.028587 0.000000
# 6 0.000000 0.000000 0.000000 0.002888 0.000000 0.045859
#
#
# Mechanical properties :
#
#
# Convention : Reuss Voigt Hill
#
# Bulk Modulus (GPa) = 39.97036 55.05698 47.51367
# Shear Modulus (GPa) = 22.56128 27.63433 25.09780
#
# Velocity S-wave (km/s) = 3.29641 3.64824 3.47678
# Velocity P-wave (km/s) = 5.80857 6.65309 6.24512
#
# Compressibility (1/GPa) = 0.02501854
#
# Stress axis : x y z
#
# Youngs Moduli (GPa) = 81.01059 57.37894 66.53421
#
# Poissons Ratio (x) = 0.13779 0.31250
# Poissons Ratio (y) = 0.19454 0.18585
# Poissons Ratio (z) = 0.38050 0.16028
#
# Static dielectric constant tensor:
#      x y z
#    x 1.795040 0.000000 -0.012770 
#    y 0.000000 1.693990 0.000000 
#    z -0.012770 0.000000 1.810680 
# 
# From -- ./inp_files/149645.got.cif
#   From: 2010.05.17/outbox.cif.g08.bks.cpg/sg12_75_cif.got.tgz:149645.got - 2010.06.03 13:09:07.
