data_PCOD9213699
_publ_section_title
;
Structure prediction by ZEFSAII (Michael W. Deem and Ramdas Pophale) SiO2 
 PCOD9213699
Probable space group: C 2/M
;
_chemical_formula_sum "Si O2"
_cell_formula_units_Z 40
_cell_length_a 12.466955
_cell_length_b 30.104683
_cell_length_c 8.484392
_cell_angle_alpha 90.000000
_cell_angle_beta 146.483020
_cell_angle_gamma 90.000000
_cell_volume 1758.324650
_symmetry_space_group_name_H-M "C 2/M"
_symmetry_group_IT_number 12
_symmetry_cell_setting 'monoclinic'
loop_
_space_group_symop_operation_xyz
x,y,z
-x,y,-z
-x,-y,-z
x,-y,z
1/2+x,1/2+y,z
1/2-x,1/2+y,-z
1/2-x,1/2-y,-z
1/2+x,1/2-y,z
loop_
_atom_site_type_symbol
_atom_site_label
_atom_site_fract_x
_atom_site_fract_y
_atom_site_fract_z
Si Si1 0.590321 0.733208 0.425300
Si Si2 0.634195 0.551548 0.019977
Si Si3 0.221937 0.693838 0.025525
Si Si4 0.750924 0.551474 0.617729
Si Si5 0.087309 0.593828 0.866122
O O1 0.750000 0.750000 0.500000
O O2 0.427996 0.695607 0.183565
O O3 0.708901 0.714202 0.720666
O O4 0.441741 0.775239 0.253922
O O5 0.685661 0.500000 0.115966
O O6 0.477747 0.553421 0.686960
O O7 0.818393 0.577240 0.180205
O O8 0.500000 0.567309 0.000000
O O9 0.133691 0.645594 0.937955
O O10 0.808107 0.500000 0.666599
O O11 0.811969 0.569026 0.862534
O O12 0.865180 0.580391 0.626563
#
# Coordination Sequence:
#
# PCOD9213699 Si02
#       5
#     8   8   8   8   8
#     4  10  22  41  64  87 125 164 208 268 332 387
#     4  10  22  40  61  92 134 175 209 258 324 382
#     4  10  24  41  65  96 120 166 222 260 331 388
#     4  10  22  38  64  98 131 172 212 261 324 378
#     4  11  22  38  67  94 129 162 223 272 307 388
#
# _framework density 22.748929
#
# number of rings (size 3 to 8) (size 9 to 14) (size 15 to 20)
#    0.000    1.800    0.000    3.600   11.200    2.400 
#    0.000   17.000    0.000    0.000    0.000    0.000 
#    0.000    0.000    0.000    0.000    0.000    0.000 
#
# Total GULP energy -111590.284777 kJ/mol
# GULP energy per Si atom -5579.514239 kJ/mol
# Density = 2.269715 g / cm^3
# Si number density = 22.748929 Si / 1000 Ang^3
#
#
#
# Elastic Constant Matrix: (Units=GPa)
#
#
# Indices 1 2 3 4 5 6 
#
# 1 145.7570 53.1290 28.3158 0.0000 26.7950 0.0000
# 2 53.1290 147.4344 49.8710 0.0000 16.5155 0.0000
# 3 28.3158 49.8710 102.7515 0.0000 14.9572 0.0000
# 4 0.0000 0.0000 0.0000 -203.4979 0.0000 80.8349
# 5 26.7950 16.5155 14.9572 0.0000 32.3127 0.0000
# 6 0.0000 0.0000 0.0000 80.8349 0.0000 -4.7823
#
#
#
# Elastic Compliance Matrix: (Units=1/GPa)
#
#
# Indices 1 2 3 4 5 6 
#
# 1 0.008916 -0.002401 -0.000422 0.000000 -0.005970 0.000000
# 2 -0.002401 0.008953 -0.003546 0.000000 -0.000943 0.000000
# 3 -0.000422 -0.003546 0.012068 0.000000 -0.003423 0.000000
# 4 0.000000 0.000000 0.000000 0.000860 0.000000 0.014536
# 5 -0.005970 -0.000943 -0.003423 0.000000 0.037965 0.000000
# 6 0.000000 0.000000 0.000000 0.014536 0.000000 0.036593
#
#
# Mechanical properties :
#
#
# Convention : Reuss Voigt Hill
#
# Bulk Modulus (GPa) = 58.14963 73.17493 65.66228
# Shear Modulus (GPa) = 40.37870 -17.55167 11.41351
#
# Velocity S-wave (km/s) = 4.21761 -2.78067 2.24233
# Velocity P-wave (km/s) = 7.02386 4.68259 5.96914
#
# Compressibility (1/GPa) = 0.01719701
#
# Stress axis : x y z
#
# Youngs Moduli (GPa) = 112.16347 111.69136 82.86193
#
# Poissons Ratio (x) = 0.26818 0.03500
# Poissons Ratio (y) = 0.26932 0.29387
# Poissons Ratio (z) = 0.04738 0.39611
#
# Static dielectric constant tensor:
#      x y z
#    x 1.934600 0.000000 -0.013690 
#    y 0.000000 1.828760 0.000000 
#    z -0.013690 0.000000 1.879670 
# 
# From -- ./inp_files/54451.got.cif
#   From: 2010.05.17/outbox.cif.g08.bks.cpg/sg12_28_cif.got.tgz:54451.got - 2010.06.03 13:09:07.
