data_PCOD9213507
_publ_section_title
;
Structure prediction by ZEFSAII (Michael W. Deem and Ramdas Pophale) SiO2 
 PCOD9213507
Probable space group: C 2/M
;
_chemical_formula_sum "Si O2"
_cell_formula_units_Z 56
_cell_length_a 18.281738
_cell_length_b 21.812896
_cell_length_c 16.385069
_cell_angle_alpha 90.000000
_cell_angle_beta 155.719135
_cell_angle_gamma 90.000000
_cell_volume 2686.845563
_symmetry_space_group_name_H-M "C 2/M"
_symmetry_group_IT_number 12
_symmetry_cell_setting 'monoclinic'
loop_
_space_group_symop_operation_xyz
x,y,z
-x,y,-z
-x,-y,-z
x,-y,z
1/2+x,1/2+y,z
1/2-x,1/2+y,-z
1/2-x,1/2-y,-z
1/2+x,1/2-y,z
loop_
_atom_site_type_symbol
_atom_site_label
_atom_site_fract_x
_atom_site_fract_y
_atom_site_fract_z
Si Si1 0.040766 0.634911 0.372863
Si Si2 0.535895 0.756294 0.269396
Si Si3 0.867374 0.070037 0.632546
Si Si4 0.385579 0.429395 0.467370
Si Si5 0.657662 0.358378 0.006106
Si Si6 0.380486 0.815657 0.802326
Si Si7 0.694957 0.194343 0.676548
O O1 0.984891 0.705745 0.296903
O O2 0.185187 0.608779 0.457136
O O3 0.143891 0.639005 0.563485
O O4 0.843705 0.608006 0.172983
O O5 0.750000 0.750000 0.500000
O O6 0.509172 0.802896 0.167109
O O7 0.425101 0.695641 0.136595
O O8 0.959658 0.074654 0.636384
O O9 0.816848 0.000000 0.592869
O O10 0.001986 0.092556 0.838608
O O11 0.500000 0.422571 0.500000
O O12 0.312852 0.500000 0.388728
O O13 0.254245 0.371770 0.337978
O O14 0.696364 0.328906 0.134328
O O15 0.295346 0.748909 0.733257
O O16 0.500000 0.830192 0.000000
O O17 0.500000 0.219814 0.500000
#
# Coordination Sequence:
#
# PCOD9213507 Si02
#       7
#     8   8   8   8   8   8   8
#     4  11  23  40  64  92 131 168 213 267 320 383
#     4  12  20  36  61  92 128 168 207 263 322 382
#     4  11  24  44  68  93 126 171 219 268 317 377
#     4  10  23  44  64  85 122 170 215 261 315 374
#     4  11  23  41  65  94 131 169 214 261 326 382
#     4  12  21  34  61  91 126 160 207 258 317 377
#     4  10  22  38  59  93 128 166 205 261 320 386
#
# _framework density 20.842285
#
# number of rings (size 3 to 8) (size 9 to 14) (size 15 to 20)
#    0.000    1.000    5.714    0.857    0.000    2.000 
#    0.000    1.429    0.000    2.571    0.000    0.000 
#    0.000    0.000    0.000    0.000    0.000    0.000 
#
# Total GULP energy -155874.109132 kJ/mol
# GULP energy per Si atom -5566.932469 kJ/mol
# Density = 2.079485 g / cm^3
# Si number density = 20.842285 Si / 1000 Ang^3
#
#
#
# Elastic Constant Matrix: (Units=GPa)
#
#
# Indices 1 2 3 4 5 6 
#
# 1 78.9017 14.8813 31.3442 0.0000 -5.3769 0.0000
# 2 14.8813 60.1599 24.6985 0.0000 -3.4155 0.0000
# 3 31.3442 24.6985 105.5942 0.0001 -11.3545 -0.0002
# 4 0.0000 0.0000 0.0001 47.5853 0.0000 -61.2812
# 5 -5.3769 -3.4155 -11.3545 0.0000 34.9899 0.0000
# 6 0.0000 0.0000 -0.0002 -61.2812 0.0000 124.0254
#
#
#
# Elastic Compliance Matrix: (Units=1/GPa)
#
#
# Indices 1 2 3 4 5 6 
#
# 1 0.014611 -0.002017 -0.003777 0.000000 0.000823 0.000000
# 2 -0.002017 0.018672 -0.003736 0.000000 0.000300 0.000000
# 3 -0.003777 -0.003736 0.011775 0.000000 0.002876 0.000000
# 4 0.000000 0.000000 0.000000 0.057783 0.000000 0.028551
# 5 0.000823 0.000300 0.002876 0.000000 0.029669 0.000000
# 6 0.000000 0.000000 0.000000 0.028551 0.000000 0.022170
#
#
# Mechanical properties :
#
#
# Convention : Reuss Voigt Hill
#
# Bulk Modulus (GPa) = 38.46556 42.94486 40.70521
# Shear Modulus (GPa) = 27.41143 52.90222 40.15682
#
# Velocity S-wave (km/s) = 3.63048 5.04354 4.39418
# Velocity P-wave (km/s) = 6.00578 7.38686 6.73184
#
# Compressibility (1/GPa) = 0.02599728
#
# Stress axis : x y z
#
# Youngs Moduli (GPa) = 68.44238 53.55518 84.92920
#
# Poissons Ratio (x) = 0.10802 0.32076
# Poissons Ratio (y) = 0.13804 0.31734
# Poissons Ratio (z) = 0.25849 0.20011
#
# Static dielectric constant tensor:
#      x y z
#    x 1.841950 0.000000 0.010790 
#    y 0.000000 1.736180 0.000000 
#    z 0.010790 0.000000 1.793210 
# 
# From -- ./inp_files/286104.got.cif
#   From: 2010.05.17/outbox.cif.g08.bks.cpg/sg12_144_cif.got.tgz:286104.got - 2010.06.03 13:09:07.
