data_PCOD9213457
_publ_section_title
;
Structure prediction by ZEFSAII (Michael W. Deem and Ramdas Pophale) SiO2 
 PCOD9213457
Probable space group: C 2/M
;
_chemical_formula_sum "Si O2"
_cell_formula_units_Z 56
_cell_length_a 25.876191
_cell_length_b 7.661946
_cell_length_c 15.077366
_cell_angle_alpha 90.000000
_cell_angle_beta 59.722312
_cell_angle_gamma 90.000000
_cell_volume 2581.508155
_symmetry_space_group_name_H-M "C 2/M"
_symmetry_group_IT_number 12
_symmetry_cell_setting 'monoclinic'
loop_
_space_group_symop_operation_xyz
x,y,z
-x,y,-z
-x,-y,-z
x,-y,z
1/2+x,1/2+y,z
1/2-x,1/2+y,-z
1/2-x,1/2-y,-z
1/2+x,1/2-y,z
loop_
_atom_site_type_symbol
_atom_site_label
_atom_site_fract_x
_atom_site_fract_y
_atom_site_fract_z
Si Si1 0.178395 0.286953 0.805737
Si Si2 0.956411 0.285875 0.116917
Si Si3 0.725519 0.291750 0.424260
Si Si4 0.738415 0.709340 0.111769
Si Si5 0.893484 0.202617 0.727057
Si Si6 0.592984 0.201300 0.485453
Si Si7 0.512732 0.797733 0.713270
O O1 0.176437 0.500000 0.807234
O O2 0.111255 0.229282 0.844854
O O3 0.224752 0.233901 0.689310
O O4 0.207851 0.227398 0.872238
O O5 0.957899 0.500000 0.115804
O O6 0.976074 0.225894 0.198079
O O7 0.000000 0.229424 0.000000
O O8 0.718004 0.500000 0.420927
O O9 0.750000 0.250000 0.500000
O O10 0.661183 0.210211 0.460170
O O11 0.736780 0.500000 0.124345
O O12 0.673385 0.774837 0.199891
O O13 0.750000 0.750000 0.000000
O O14 0.909695 0.215240 0.609244
O O15 0.944054 0.290242 0.742990
O O16 0.893156 0.000000 0.752952
O O17 0.551419 0.280260 0.598734
O O18 0.574889 0.000000 0.487519
O O19 0.532301 0.000000 0.701282
#
# Coordination Sequence:
#
# PCOD9213457 Si02
#       7
#     8   8   8   8   8   8   8
#     4   9  18  36  57  81 117 151 187 242 294 341
#     4   9  18  33  57  86 112 145 192 240 289 345
#     4  11  21  36  58  85 121 160 199 244 297 356
#     4  10  22  39  60  87 117 152 195 243 297 353
#     4  11  23  40  60  87 120 157 197 242 297 360
#     4  11  22  38  59  87 121 155 197 249 302 356
#     4  10  22  38  58  88 120 153 197 248 298 354
#
# _framework density 21.692744000000001
#
# number of rings (size 3 to 8) (size 9 to 14) (size 15 to 20)
#    0.000    1.857    1.429    2.571    2.000    6.286 
#    0.000    0.000    0.000    1.286    0.000    0.000 
#    0.000    0.000    0.000    0.000    0.000    0.000 
#
# Total GULP energy -156500.633704 kJ/mol
# GULP energy per Si atom -5589.308347 kJ/mol
# Density = 2.164337 g / cm^3
# Si number density = 21.692744 Si / 1000 Ang^3
#
#
#
# Elastic Constant Matrix: (Units=GPa)
#
#
# Indices 1 2 3 4 5 6 
#
# 1 179.7563 -7.9460 80.4656 0.0000 17.1185 0.0000
# 2 -7.9460 39.5543 2.3682 0.0000 -4.4966 -0.0002
# 3 80.4656 2.3682 130.0308 0.0000 23.3838 0.0000
# 4 0.0000 0.0000 0.0000 11.3876 0.0000 2.5502
# 5 17.1185 -4.4966 23.3838 0.0000 38.1973 0.0000
# 6 0.0000 -0.0002 0.0000 2.5502 0.0000 22.7992
#
#
#
# Elastic Compliance Matrix: (Units=1/GPa)
#
#
# Indices 1 2 3 4 5 6 
#
# 1 0.007834 0.001823 -0.004818 0.000000 -0.000346 0.000000
# 2 0.001823 0.026198 -0.002262 0.000000 0.003652 0.000000
# 3 -0.004818 -0.002262 0.011656 0.000000 -0.005243 0.000000
# 4 0.000000 0.000000 0.000000 0.090071 0.000000 -0.010075
# 5 -0.000346 0.003652 -0.005243 0.000000 0.029974 0.000000
# 6 0.000000 0.000000 0.000000 -0.010075 0.000000 0.044988
#
#
# Mechanical properties :
#
#
# Convention : Reuss Voigt Hill
#
# Bulk Modulus (GPa) = 28.43074 55.45745 41.94409
# Shear Modulus (GPa) = 21.46279 32.77371 27.11825
#
# Velocity S-wave (km/s) = 3.14888 3.89114 3.53952
# Velocity P-wave (km/s) = 5.13373 6.76819 6.00681
#
# Compressibility (1/GPa) = 0.03517320
#
# Stress axis : x y z
#
# Youngs Moduli (GPa) = 127.65554 38.17017 85.79082
#
# Poissons Ratio (x) = -0.06958 0.41338
# Poissons Ratio (y) = -0.23269 0.19405
# Poissons Ratio (z) = 0.61511 0.08634
#
# Static dielectric constant tensor:
#      x y z
#    x 1.804520 0.000000 0.023310 
#    y 0.000000 1.808050 0.000000 
#    z 0.023310 0.000000 1.776540 
# 
# From -- ./inp_files/238229.got.cif
#   From: 2010.05.17/outbox.cif.g08.bks.cpg/sg12_120_cif.got.tgz:238229.got - 2010.06.03 13:09:07.
