data_PCOD9213029
_publ_section_title
;
Structure prediction by ZEFSAII (Michael W. Deem and Ramdas Pophale) SiO2 
 PCOD9213029
Probable space group: C 2/M
;
_chemical_formula_sum "Si O2"
_cell_formula_units_Z 64
_cell_length_a 16.811668
_cell_length_b 28.519167
_cell_length_c 11.162492
_cell_angle_alpha 90.000000
_cell_angle_beta 149.774595
_cell_angle_gamma 90.000000
_cell_volume 2694.168180
_symmetry_space_group_name_H-M "C 2/M"
_symmetry_group_IT_number 12
_symmetry_cell_setting 'monoclinic'
loop_
_space_group_symop_operation_xyz
x,y,z
-x,y,-z
-x,-y,-z
x,-y,z
1/2+x,1/2+y,z
1/2-x,1/2+y,-z
1/2-x,1/2-y,-z
1/2+x,1/2-y,z
loop_
_atom_site_type_symbol
_atom_site_label
_atom_site_fract_x
_atom_site_fract_y
_atom_site_fract_z
Si Si1 0.993984 0.246815 0.628367
Si Si2 0.261509 0.612598 0.535870
Si Si3 0.260080 0.322349 0.940020
Si Si4 0.184300 0.447700 0.215632
Si Si5 0.858528 0.089700 0.224796
Si Si6 0.452999 0.449723 0.103354
Si Si7 0.685763 0.299691 0.253815
Si Si8 0.611974 0.946063 0.538330
O O1 0.092031 0.211930 0.838679
O O2 0.000000 0.228397 0.500000
O O3 0.812559 0.257636 0.422379
O O4 0.099170 0.294638 0.762666
O O5 0.240230 0.594703 0.373485
O O6 0.431816 0.590828 0.788480
O O7 0.275377 0.666768 0.584191
O O8 0.130596 0.587014 0.447824
O O9 0.285775 0.367408 0.055226
O O10 0.267794 0.328728 0.806997
O O11 0.246833 0.500000 0.326924
O O12 0.231159 0.435748 0.141756
O O13 0.000000 0.449754 0.000000
O O14 0.925400 0.055896 0.209128
O O15 0.000000 0.103382 0.500000
O O16 0.527976 0.500000 0.172745
O O17 0.284457 0.447902 0.822140
O O18 0.500000 0.287544 0.000000
O O19 0.500000 0.928853 0.500000
O O20 0.565381 0.000000 0.446305
#
# Coordination Sequence:
#
# PCOD9213029 Si02
#       8
#     8   8   8   8   8   8   8   8
#     4   9  21  44  71  99 133 175 217 274 350 425
#     4  12  23  41  64  91 135 181 224 279 337 403
#     4  10  22  43  72  99 132 174 224 279 346 410
#     4  11  27  45  64  95 140 190 232 285 347 401
#     4  12  24  40  67  98 128 175 232 289 331 414
#     4  11  23  40  62  89 126 174 226 280 337 399
#     4  11  24  40  68 104 139 174 224 281 344 412
#     4  10  22  36  57  87 120 166 222 281 338 394
#
# _framework density 23.755013999999999
#
# number of rings (size 3 to 8) (size 9 to 14) (size 15 to 20)
#    0.000    1.250    1.250    4.500    3.500    3.500 
#    0.000    0.000    2.750    0.000    0.000    0.000 
#    0.000    0.000    0.000    0.000    0.000    0.000 
#
# Total GULP energy -179122.130616 kJ/mol
# GULP energy per Si atom -5597.566582 kJ/mol
# Density = 2.370095 g / cm^3
# Si number density = 23.755014 Si / 1000 Ang^3
#
#
#
# Elastic Constant Matrix: (Units=GPa)
#
#
# Indices 1 2 3 4 5 6 
#
# 1 139.2400 25.5093 20.6155 0.0000 9.9669 0.0000
# 2 25.5093 59.3365 17.7239 0.0000 1.1943 0.0000
# 3 20.6155 17.7239 81.9933 0.0000 5.1026 0.0000
# 4 0.0000 0.0000 0.0000 98.7153 0.0000 -27.1962
# 5 9.9669 1.1943 5.1026 0.0000 47.6446 0.0000
# 6 0.0000 0.0000 0.0000 -27.1962 0.0000 26.8491
#
#
#
# Elastic Compliance Matrix: (Units=1/GPa)
#
#
# Indices 1 2 3 4 5 6 
#
# 1 0.008033 -0.003044 -0.001270 0.000000 -0.001468 0.000000
# 2 -0.003044 0.019170 -0.003411 0.000000 0.000522 0.000000
# 3 -0.001270 -0.003411 0.013320 0.000000 -0.001075 0.000000
# 4 0.000000 0.000000 0.000000 0.014051 0.000000 0.014233
# 5 -0.001468 0.000522 -0.001075 0.000000 0.021398 0.000000
# 6 0.000000 0.000000 0.000000 0.014233 0.000000 0.051662
#
#
# Mechanical properties :
#
#
# Convention : Reuss Voigt Hill
#
# Bulk Modulus (GPa) = 39.88572 45.36302 42.62437
# Shear Modulus (GPa) = 33.01585 49.08988 41.05286
#
# Velocity S-wave (km/s) = 3.73211 4.55082 4.16164
# Velocity P-wave (km/s) = 5.94966 6.83746 6.40895
#
# Compressibility (1/GPa) = 0.02507163
#
# Stress axis : x y z
#
# Youngs Moduli (GPa) = 124.49066 52.16438 75.07665
#
# Poissons Ratio (x) = 0.15881 0.09536
# Poissons Ratio (y) = 0.37900 0.25608
# Poissons Ratio (z) = 0.15813 0.17793
#
# Static dielectric constant tensor:
#      x y z
#    x 1.893630 0.000000 -0.003710 
#    y 0.000000 1.876630 0.000000 
#    z -0.003710 0.000000 1.923340 
# 
# From -- ./inp_files/161219.got.cif
#   From: 2010.05.17/outbox.cif.g08.bks.cpg/sg12_81_cif.got.tgz:161219.got - 2010.06.03 13:09:07.
