data_PCOD9213161
_publ_section_title
;
Structure prediction by ZEFSAII (Michael W. Deem and Ramdas Pophale) SiO2 
 PCOD9213161
Probable space group: C 2/M
;
_chemical_formula_sum "Si O2"
_cell_formula_units_Z 40
_cell_length_a 23.564474
_cell_length_b 10.984976
_cell_length_c 19.869147
_cell_angle_alpha 90.000000
_cell_angle_beta 157.009936
_cell_angle_gamma 90.000000
_cell_volume 2008.799661
_symmetry_space_group_name_H-M "C 2/M"
_symmetry_group_IT_number 12
_symmetry_cell_setting 'monoclinic'
loop_
_space_group_symop_operation_xyz
x,y,z
-x,y,-z
-x,-y,-z
x,-y,z
1/2+x,1/2+y,z
1/2-x,1/2+y,-z
1/2-x,1/2-y,-z
1/2+x,1/2-y,z
loop_
_atom_site_type_symbol
_atom_site_label
_atom_site_fract_x
_atom_site_fract_y
_atom_site_fract_z
Si Si1 0.344081 0.132576 0.293308
Si Si2 0.248341 0.863838 0.047601
Si Si3 0.749543 0.636752 0.593417
Si Si4 0.834476 0.868665 0.346333
Si Si5 0.419819 0.635118 0.731701
O O1 0.500000 0.128062 0.500000
O O2 0.362110 0.148440 0.232856
O O3 0.264788 0.250152 0.236616
O O4 0.274126 0.000000 0.227750
O O5 0.265028 0.000000 0.034950
O O6 0.250000 0.750000 0.000000
O O7 0.092484 0.861474 0.914069
O O8 0.816321 0.500000 0.662674
O O9 0.669484 0.644061 0.577588
O O10 0.641457 0.645287 0.411727
O O11 0.857446 0.750348 0.703716
O O12 0.000000 0.872800 0.500000
O O13 0.766837 0.000000 0.255328
O O14 0.375293 0.500000 0.708298
#
# Coordination Sequence:
#
# PCOD9213161 Si02
#       5
#     8   8   8   8   8
#     4   9  19  35  52  77 112 146 183 225 274 335
#     4  10  22  37  56  84 116 148 187 236 285 331
#     4   9  18  34  55  82 111 144 187 231 275 334
#     4   9  18  31  53  81 108 141 183 228 278 330
#     4   9  19  35  55  79 111 148 187 229 279 332
#
# _framework density 19.912389000000001
#
# number of rings (size 3 to 8) (size 9 to 14) (size 15 to 20)
#    0.000    2.800    0.000    0.000    5.600    2.400 
#    0.000    1.000    0.000    6.000    0.000    0.000 
#    0.000    0.000    0.000    0.000    0.000    0.000 
#
# Total GULP energy -111344.145810 kJ/mol
# GULP energy per Si atom -5567.207291 kJ/mol
# Density = 1.986707 g / cm^3
# Si number density = 19.912389 Si / 1000 Ang^3
#
#
#
# Elastic Constant Matrix: (Units=GPa)
#
#
# Indices 1 2 3 4 5 6 
#
# 1 82.9082 79.0729 10.7223 0.0000 -8.1444 0.0000
# 2 79.0729 224.0240 34.0875 0.0000 -18.8154 0.0000
# 3 10.7223 34.0875 47.6892 0.0000 -8.1994 0.0000
# 4 0.0000 0.0000 0.0000 17.3847 0.0000 -5.3446
# 5 -8.1444 -18.8154 -8.1994 0.0000 18.1374 0.0000
# 6 0.0000 0.0000 0.0000 -5.3446 0.0000 38.2655
#
#
#
# Elastic Compliance Matrix: (Units=1/GPa)
#
#
# Indices 1 2 3 4 5 6 
#
# 1 0.018254 -0.006404 0.000803 0.000000 0.001916 0.000000
# 2 -0.006404 0.007520 -0.003349 0.000000 0.003412 0.000000
# 3 0.000803 -0.003349 0.024556 0.000000 0.007987 0.000000
# 4 0.000000 0.000000 0.000000 0.060103 0.000000 0.008395
# 5 0.001916 0.003412 0.007987 0.000000 0.063145 0.000000
# 6 0.000000 0.000000 0.000000 0.008395 0.000000 0.027306
#
#
# Mechanical properties :
#
#
# Convention : Reuss Voigt Hill
#
# Bulk Modulus (GPa) = 30.83615 66.93185 48.88400
# Shear Modulus (GPa) = 21.77757 30.14010 25.95883
#
# Velocity S-wave (km/s) = 3.31066 3.89477 3.61453
# Velocity P-wave (km/s) = 5.48939 7.34246 6.48248
#
# Compressibility (1/GPa) = 0.03242947
#
# Stress axis : x y z
#
# Youngs Moduli (GPa) = 54.78277 132.97110 40.72378
#
# Poissons Ratio (x) = 0.85158 -0.03270
# Poissons Ratio (y) = 0.35084 0.13638
# Poissons Ratio (z) = -0.04399 0.44532
#
# Static dielectric constant tensor:
#      x y z
#    x 1.673560 0.000000 -0.029000 
#    y 0.000000 1.810700 0.000000 
#    z -0.029000 0.000000 1.710880 
# 
# From -- ./inp_files/283158.got.cif
#   From: 2010.05.17/outbox.cif.g08.bks.cpg/sg12_142_cif.got.tgz:283158.got - 2010.06.03 13:09:07.
