data_PCOD9213670
_publ_section_title
;
Structure prediction by ZEFSAII (Michael W. Deem and Ramdas Pophale) SiO2 
 PCOD9213670
Probable space group: C 2/M
;
_chemical_formula_sum "Si O2"
_cell_formula_units_Z 44
_cell_length_a 8.999907
_cell_length_b 23.444171
_cell_length_c 18.503857
_cell_angle_alpha 90.000000
_cell_angle_beta 146.926763
_cell_angle_gamma 90.000000
_cell_volume 2130.578578
_symmetry_space_group_name_H-M "C 2/M"
_symmetry_group_IT_number 12
_symmetry_cell_setting 'monoclinic'
loop_
_space_group_symop_operation_xyz
x,y,z
-x,y,-z
-x,-y,-z
x,-y,z
1/2+x,1/2+y,z
1/2-x,1/2+y,-z
1/2-x,1/2-y,-z
1/2+x,1/2-y,z
loop_
_atom_site_type_symbol
_atom_site_label
_atom_site_fract_x
_atom_site_fract_y
_atom_site_fract_z
Si Si1 0.552914 0.250923 0.703104
Si Si2 0.000000 0.108628 0.000000
Si Si3 0.874003 0.709637 0.113155
Si Si4 0.257202 0.434232 0.755232
Si Si5 0.723344 0.361606 0.530274
Si Si6 0.683055 0.632432 0.359842
O O1 0.693475 0.226689 0.832217
O O2 0.387682 0.199785 0.596375
O O3 0.361198 0.299971 0.657951
O O4 0.798888 0.281603 0.760426
O O5 0.236736 0.147489 0.058365
O O6 0.111752 0.073365 0.113022
O O7 0.750000 0.750000 0.000000
O O8 0.249043 0.500000 0.730080
O O9 0.399588 0.397845 0.748028
O O10 0.957785 0.407110 0.641214
O O11 0.500000 0.356294 0.500000
O O12 0.575878 0.381614 0.396151
O O13 0.000000 0.619218 0.500000
#
# Coordination Sequence:
#
# PCOD9213670 Si02
#       6
#     8   4   8   8   8   8
#     4  12  21  36  61  98 137 166 206 257 330 410
#     4  12  23  44  66  92 126 172 235 270 326 380
#     4  12  21  35  59  91 133 172 208 260 322 399
#     4  11  25  46  68  90 124 180 234 275 321 378
#     4  11  22  40  66 103 136 171 212 265 330 399
#     4  10  22  38  63  95 133 169 209 263 329 392
#
# _framework density 20.651668000000001
#
# number of rings (size 3 to 8) (size 9 to 14) (size 15 to 20)
#    0.000    0.727    3.636    5.727    0.000    3.636 
#    0.000    0.000    0.000    1.091    0.000    0.000 
#    0.000    0.000    0.000    0.000    0.000    0.000 
#
# Total GULP energy -122562.530652 kJ/mol
# GULP energy per Si atom -5571.024121 kJ/mol
# Density = 2.060466 g / cm^3
# Si number density = 20.651668 Si / 1000 Ang^3
#
#
#
# Elastic Constant Matrix: (Units=GPa)
#
#
# Indices 1 2 3 4 5 6 
#
# 1 121.0154 33.3116 38.1687 -0.0004 9.3095 0.0006
# 2 33.3116 102.0949 27.7920 0.0010 -10.4924 0.0001
# 3 38.1687 27.7920 75.1805 0.0073 -34.2241 -0.0014
# 4 -0.0004 0.0010 0.0073 15.7361 0.0013 2.8846
# 5 9.3095 -10.4924 -34.2241 0.0013 33.0558 -0.0006
# 6 0.0006 0.0001 -0.0014 2.8846 -0.0006 14.3584
#
#
#
# Elastic Compliance Matrix: (Units=1/GPa)
#
#
# Indices 1 2 3 4 5 6 
#
# 1 0.017203 -0.002989 -0.019419 0.000013 -0.025899 -0.000006
# 2 -0.002989 0.011442 -0.001279 -0.000001 0.003150 0.000000
# 3 -0.019419 -0.001279 0.049061 -0.000030 0.055858 0.000014
# 4 0.000013 -0.000001 -0.000030 0.065978 -0.000038 -0.013255
# 5 -0.025899 0.003150 0.055858 -0.000038 0.096378 0.000018
# 6 -0.000006 0.000000 0.000014 -0.013255 0.000018 0.072309
#
#
# Mechanical properties :
#
#
# Convention : Reuss Voigt Hill
#
# Bulk Modulus (GPa) = 32.96688 55.20393 44.08540
# Shear Modulus (GPa) = 13.51884 25.89796 19.70840
#
# Velocity S-wave (km/s) = 2.56132 3.54508 3.09257
# Velocity P-wave (km/s) = 4.97444 6.59892 5.84341
#
# Compressibility (1/GPa) = 0.03033347
#
# Stress axis : x y z
#
# Youngs Moduli (GPa) = 58.12846 87.40000 20.38278
#
# Poissons Ratio (x) = 0.26120 0.39582
# Poissons Ratio (y) = 0.17372 0.02606
# Poissons Ratio (z) = 1.12880 0.11175
#
# Static dielectric constant tensor:
#      x y z
#    x 1.825520 0.000000 -0.037010 
#    y 0.000000 1.770190 0.000000 
#    z -0.037010 0.000000 1.816770 
# 
# From -- ./inp_files/259296.got.cif
#   From: 2010.05.17/outbox.cif.g08.bks.cpg/sg12_130_cif.got.tgz:259296.got - 2010.06.03 13:09:07.
