data_PCOD9213894
_publ_section_title
;
Structure prediction by ZEFSAII (Michael W. Deem and Ramdas Pophale) SiO2 
 PCOD9213894
Probable space group: C 2/M
;
_chemical_formula_sum "Si O2"
_cell_formula_units_Z 48
_cell_length_a 15.458467
_cell_length_b 27.123845
_cell_length_c 10.104682
_cell_angle_alpha 90.000000
_cell_angle_beta 36.868259
_cell_angle_gamma 90.000000
_cell_volume 2541.996900
_symmetry_space_group_name_H-M "C 2/M"
_symmetry_group_IT_number 12
_symmetry_cell_setting 'monoclinic'
loop_
_space_group_symop_operation_xyz
x,y,z
-x,y,-z
-x,-y,-z
x,-y,z
1/2+x,1/2+y,z
1/2-x,1/2+y,-z
1/2-x,1/2-y,-z
1/2+x,1/2-y,z
loop_
_atom_site_type_symbol
_atom_site_label
_atom_site_fract_x
_atom_site_fract_y
_atom_site_fract_z
Si Si1 0.221921 0.555564 0.323745
Si Si2 0.393388 0.056844 0.828092
Si Si3 0.124602 0.720676 0.571035
Si Si4 0.903714 0.650546 0.996435
Si Si5 0.103355 0.821386 0.485494
Si Si6 0.633647 0.649205 0.751500
O O1 0.271620 0.500000 0.283430
O O2 0.193844 0.563095 0.201987
O O3 0.331222 0.593852 0.251619
O O4 0.063568 0.560368 0.583994
O O5 0.362012 0.103079 0.960472
O O6 0.368244 0.000000 0.906301
O O7 0.250000 0.750000 0.500000
O O8 0.059447 0.764569 0.565315
O O9 0.222560 0.679193 0.383567
O O10 0.002452 0.691061 0.800287
O O11 0.763356 0.675857 0.230035
O O12 0.000000 0.631628 0.000000
O O13 0.104986 0.845869 0.629417
O O14 0.000000 0.843532 0.500000
O O15 0.500000 0.668645 0.000000
#
# Coordination Sequence:
#
# PCOD9213894 Si02
#       6
#     8   8   8   8   8   8
#     4   9  18  37  61  91 123 158 207 259 308 373
#     4   9  19  35  61  96 125 152 208 269 309 365
#     4  10  22  39  59  88 120 163 208 250 308 361
#     4  12  21  40  68  87 126 173 207 259 315 375
#     4  11  27  42  60  94 130 162 210 263 314 367
#     4  11  23  39  63  88 124 165 208 256 307 377
#
# _framework density 18.882791999999998
#
# number of rings (size 3 to 8) (size 9 to 14) (size 15 to 20)
#    0.000    1.667    5.000    1.000    7.000    2.667 
#    0.000    0.833    0.000    1.000    0.000    0.000 
#    0.000    0.000    0.000    0.000    0.000    0.000 
#
# Total GULP energy -133776.564761 kJ/mol
# GULP energy per Si atom -5574.023532 kJ/mol
# Density = 1.883981 g / cm^3
# Si number density = 18.882792 Si / 1000 Ang^3
#
#
#
# Elastic Constant Matrix: (Units=GPa)
#
#
# Indices 1 2 3 4 5 6 
#
# 1 58.5127 31.5739 21.4833 0.0000 4.1555 0.0000
# 2 31.5739 111.0571 39.7976 0.0000 20.2413 0.0000
# 3 21.4833 39.7976 121.0282 0.0000 1.0407 0.0000
# 4 0.0000 0.0000 0.0000 9.8285 0.0000 5.4481
# 5 4.1555 20.2413 1.0407 0.0000 19.0607 0.0000
# 6 0.0000 0.0000 0.0000 5.4481 0.0000 25.4796
#
#
#
# Elastic Compliance Matrix: (Units=1/GPa)
#
#
# Indices 1 2 3 4 5 6 
#
# 1 0.020619 -0.005439 -0.001883 0.000000 0.001384 0.000000
# 2 -0.005439 0.014391 -0.003647 0.000000 -0.013897 0.000000
# 3 -0.001883 -0.003647 0.009764 0.000000 0.003750 0.000000
# 4 0.000000 0.000000 0.000000 0.115426 0.000000 -0.024681
# 5 0.001384 -0.013897 0.003750 0.000000 0.066715 0.000000
# 6 0.000000 0.000000 0.000000 -0.024681 0.000000 0.044524
#
#
# Mechanical properties :
#
#
# Convention : Reuss Voigt Hill
#
# Bulk Modulus (GPa) = 43.79469 52.92308 48.35888
# Shear Modulus (GPa) = 16.61192 24.05665 20.33428
#
# Velocity S-wave (km/s) = 2.96926 3.57318 3.28513
# Velocity P-wave (km/s) = 5.91596 6.71651 6.32891
#
# Compressibility (1/GPa) = 0.02283382
#
# Stress axis : x y z
#
# Youngs Moduli (GPa) = 48.50006 69.49005 102.41888
#
# Poissons Ratio (x) = 0.37798 0.19288
# Poissons Ratio (y) = 0.26381 0.37352
# Poissons Ratio (z) = 0.09134 0.25343
#
# Static dielectric constant tensor:
#      x y z
#    x 1.672710 0.000000 0.005970 
#    y 0.000000 1.702340 0.000000 
#    z 0.005970 0.000000 1.663990 
# 
# From -- ./inp_files/67318.got.cif
#   From: 2010.05.17/outbox.cif.g08.bks.cpg/sg12_34_cif.got.tgz:67318.got - 2010.06.03 13:09:07.
