data_PCOD9213424
_publ_section_title
;
Structure prediction by ZEFSAII (Michael W. Deem and Ramdas Pophale) SiO2 
 PCOD9213424
Probable space group: C 2/M
;
_chemical_formula_sum "Si O2"
_cell_formula_units_Z 58
_cell_length_a 17.958575
_cell_length_b 9.556810
_cell_length_c 19.032292
_cell_angle_alpha 90.000000
_cell_angle_beta 47.813657
_cell_angle_gamma 90.000000
_cell_volume 2420.323553
_symmetry_space_group_name_H-M "C 2/M"
_symmetry_group_IT_number 12
_symmetry_cell_setting 'monoclinic'
loop_
_space_group_symop_operation_xyz
x,y,z
-x,y,-z
-x,-y,-z
x,-y,z
1/2+x,1/2+y,z
1/2-x,1/2+y,-z
1/2-x,1/2-y,-z
1/2+x,1/2-y,z
loop_
_atom_site_type_symbol
_atom_site_label
_atom_site_fract_x
_atom_site_fract_y
_atom_site_fract_z
Si Si1 0.672644 0.152265 0.471718
Si Si2 0.791939 0.340279 0.063691
Si Si3 0.000000 0.000000 0.500000
Si Si4 0.980971 0.158467 0.927185
Si Si5 0.118281 0.249450 0.363067
Si Si6 0.339246 0.152425 0.200198
Si Si7 0.900047 0.162736 0.356256
Si Si8 0.904673 0.336833 0.781847
O O1 0.617337 0.155978 0.432693
O O2 0.792411 0.169263 0.385533
O O3 0.632058 0.273017 0.547797
O O4 0.657169 0.000000 0.516269
O O5 0.778873 0.500000 0.046116
O O6 0.823559 0.350870 0.125824
O O7 0.690935 0.247852 0.127027
O O8 0.885742 0.256229 0.972131
O O9 0.956971 0.877831 0.579835
O O10 0.081757 0.227182 0.833901
O O11 0.965177 0.000000 0.913032
O O12 0.000000 0.154019 0.000000
O O13 0.228555 0.179668 0.297717
O O14 0.107166 0.325531 0.295946
O O15 0.377455 0.000000 0.198709
O O16 0.991264 0.255861 0.269836
O O17 0.929733 0.000000 0.341429
O O18 0.905210 0.500000 0.801665
#
# Coordination Sequence:
#
# PCOD9213424 Si02
#       8
#     8   8   2   8   8   8   8   8
#     4  10  22  40  57  78 105 142 187 234 282 330
#     4   9  17  29  48  73 107 144 180 221 270 328
#     4  12  24  36  50  84 106 144 182 226 284 324
#     4   9  16  26  44  70 103 142 180 218 271 326
#     4  11  23  35  57  79 111 144 186 228 279 331
#     4   9  17  30  45  70 103 138 181 223 266 324
#     4  10  22  38  58  77 104 143 187 231 278 336
#     4  11  22  35  54  82 115 146 182 232 283 330
#
# _framework density 23.963739
#
# number of rings (size 3 to 8) (size 9 to 14) (size 15 to 20)
#    0.000    2.069    0.690    2.897    4.828    6.069 
#    0.000    2.069    0.000    0.000    0.000    0.966 
#    0.000    0.000    0.000    0.000    0.000    0.000 
#
# Total GULP energy -161978.499830 kJ/mol
# GULP energy per Si atom -5585.465511 kJ/mol
# Density = 2.390920 g / cm^3
# Si number density = 23.963739 Si / 1000 Ang^3
#
#
#
# Elastic Constant Matrix: (Units=GPa)
#
#
# Indices 1 2 3 4 5 6 
#
# 1 103.5081 45.7385 26.3535 0.0000 -7.7015 0.0000
# 2 45.7385 218.2036 52.6396 0.0000 -42.9476 0.0000
# 3 26.3535 52.6396 76.1356 0.0000 -41.3152 0.0000
# 4 0.0000 0.0000 0.0000 15.8349 0.0000 -16.1468
# 5 -7.7015 -42.9476 -41.3152 0.0000 48.2068 0.0000
# 6 0.0000 0.0000 0.0000 -16.1468 0.0000 13.8913
#
#
#
# Elastic Compliance Matrix: (Units=1/GPa)
#
#
# Indices 1 2 3 4 5 6 
#
# 1 0.011482 -0.002061 -0.004767 0.000000 -0.004088 0.000000
# 2 -0.002061 0.006124 -0.001381 0.000000 0.003943 0.000000
# 3 -0.004767 -0.001381 0.027403 0.000000 0.021493 0.000000
# 4 0.000000 0.000000 0.000000 -0.340876 0.000000 -0.396223
# 5 -0.004088 0.003943 0.021493 0.000000 0.042025 0.000000
# 6 0.000000 0.000000 0.000000 -0.396223 0.000000 -0.388569
#
#
# Mechanical properties :
#
#
# Convention : Reuss Voigt Hill
#
# Bulk Modulus (GPa) = 34.97791 71.92342 53.45066
# Shear Modulus (GPa) = -8.11079 33.79432 12.84177
#
# Velocity S-wave (km/s) = -1.84173 3.75937 2.31743
# Velocity P-wave (km/s) = 3.17888 6.99446 5.43267
#
# Compressibility (1/GPa) = 0.02858947
#
# Stress axis : x y z
#
# Youngs Moduli (GPa) = 87.09642 163.28685 36.49245
#
# Poissons Ratio (x) = 0.33656 0.17398
# Poissons Ratio (y) = 0.17952 0.05039
# Poissons Ratio (z) = 0.41523 0.22549
#
# Static dielectric constant tensor:
#      x y z
#    x 1.930440 0.000000 0.032450 
#    y 0.000000 1.854780 0.000000 
#    z 0.032450 0.000000 1.914860 
# 
# From -- ./inp_files/346450.got.cif
#   From: 2010.05.17/outbox.cif.g08.bks.cpg/sg12_174_cif.got.tgz:346450.got - 2010.06.03 13:09:07.
