data_PCOD9213577
_publ_section_title
;
Structure prediction by ZEFSAII (Michael W. Deem and Ramdas Pophale) SiO2 
 PCOD9213577
Probable space group: C 2/M
;
_chemical_formula_sum "Si O2"
_cell_formula_units_Z 64
_cell_length_a 15.993628
_cell_length_b 18.685856
_cell_length_c 15.387432
_cell_angle_alpha 90.000000
_cell_angle_beta 134.166241
_cell_angle_gamma 90.000000
_cell_volume 3298.677328
_symmetry_space_group_name_H-M "C 2/M"
_symmetry_group_IT_number 12
_symmetry_cell_setting 'monoclinic'
loop_
_space_group_symop_operation_xyz
x,y,z
-x,y,-z
-x,-y,-z
x,-y,z
1/2+x,1/2+y,z
1/2-x,1/2+y,-z
1/2-x,1/2-y,-z
1/2+x,1/2-y,z
loop_
_atom_site_type_symbol
_atom_site_label
_atom_site_fract_x
_atom_site_fract_y
_atom_site_fract_z
Si Si1 0.242881 0.085093 0.309414
Si Si2 0.840622 0.308912 0.691399
Si Si3 0.962362 0.836079 0.741811
Si Si4 0.567601 0.864356 0.418613
Si Si5 0.925644 0.790963 0.523825
Si Si6 0.789935 0.086850 0.075263
Si Si7 0.677659 0.083624 0.814640
Si Si8 0.632374 0.082872 0.129986
O O1 0.130381 0.116054 0.274731
O O2 0.356847 0.102618 0.449522
O O3 0.256247 0.115308 0.221253
O O4 0.233523 0.000000 0.297822
O O5 0.934860 0.244615 0.755989
O O6 0.853285 0.349071 0.608363
O O7 0.709139 0.278638 0.598412
O O8 0.855042 0.363063 0.781075
O O9 0.933166 0.834539 0.618166
O O10 0.090828 0.868501 0.843801
O O11 0.522361 0.786979 0.417150
O O12 0.457853 0.908382 0.305885
O O13 0.000000 0.824111 0.500000
O O14 0.719351 0.100283 0.113252
O O15 0.810963 0.000000 0.087677
O O16 0.713036 0.109548 0.935648
O O17 0.706334 0.000000 0.837338
O O18 0.654217 0.000000 0.172380
O O19 0.500000 0.086480 0.000000
#
# Coordination Sequence:
#
# PCOD9213577 Si02
#       8
#     8   8   8   8   8   8   8   8
#     4  11  21  36  60  89 122 159 205 254 306 366
#     4  11  22  40  61  93 126 161 206 251 319 380
#     4  11  22  41  59  90 129 165 203 251 312 377
#     4  11  20  37  59  89 122 157 201 257 310 362
#     4  11  21  38  62  86 123 163 201 252 314 371
#     4  10  22  43  65  89 126 169 214 259 308 368
#     4  10  22  38  61  89 118 161 212 259 305 358
#     4  10  22  43  68  93 123 163 214 266 311 362
#
# _framework density 19.401714999999999
#
# number of rings (size 3 to 8) (size 9 to 14) (size 15 to 20)
#    0.000    1.375    2.500    4.125    0.000    3.500 
#    2.250    5.000    0.000    2.625    0.000    0.000 
#    0.000    0.000    0.000    0.000    0.000    0.000 
#
# Total GULP energy -178634.004896 kJ/mol
# GULP energy per Si atom -5582.312653 kJ/mol
# Density = 1.935756 g / cm^3
# Si number density = 19.401715 Si / 1000 Ang^3
#
#
#
# Elastic Constant Matrix: (Units=GPa)
#
#
# Indices 1 2 3 4 5 6 
#
# 1 119.4730 28.0687 30.9819 0.0000 -7.9290 0.0000
# 2 28.0687 43.0532 25.3509 0.0000 -14.6512 0.0000
# 3 30.9819 25.3509 75.7269 0.0000 -7.8458 0.0000
# 4 0.0000 0.0000 0.0000 24.0009 0.0000 2.1459
# 5 -7.9290 -14.6512 -7.8458 0.0000 33.3493 0.0000
# 6 0.0000 0.0000 0.0000 2.1459 0.0000 25.7863
#
#
#
# Elastic Compliance Matrix: (Units=1/GPa)
#
#
# Indices 1 2 3 4 5 6 
#
# 1 0.010239 -0.005423 -0.002428 0.000000 -0.000519 0.000000
# 2 -0.005423 0.036070 -0.008557 0.000000 0.012544 0.000000
# 3 -0.002428 -0.008557 0.017029 0.000000 -0.000330 0.000000
# 4 0.000000 0.000000 0.000000 0.041977 0.000000 -0.003493
# 5 -0.000519 0.012544 -0.000330 0.000000 0.035295 0.000000
# 6 0.000000 0.000000 0.000000 -0.003493 0.000000 0.039071
#
#
# Mechanical properties :
#
#
# Convention : Reuss Voigt Hill
#
# Bulk Modulus (GPa) = 32.76149 45.22846 38.99497
# Shear Modulus (GPa) = 22.45478 26.88409 24.66943
#
# Velocity S-wave (km/s) = 3.40569 3.72648 3.56969
# Velocity P-wave (km/s) = 5.69100 6.47130 6.09365
#
# Compressibility (1/GPa) = 0.03052364
#
# Stress axis : x y z
#
# Youngs Moduli (GPa) = 97.66442 27.72422 58.72387
#
# Poissons Ratio (x) = 0.15034 0.14255
# Poissons Ratio (y) = 0.52960 0.50249
# Poissons Ratio (z) = 0.23708 0.23723
#
# Static dielectric constant tensor:
#      x y z
#    x 1.690650 0.000000 -0.017350 
#    y 0.000000 1.685220 0.000000 
#    z -0.017350 0.000000 1.660680 
# 
# From -- ./inp_files/216849.got.cif
#   From: 2010.05.17/outbox.cif.g08.bks.cpg/sg12_109_cif.got.tgz:216849.got - 2010.06.03 13:09:07.
