data_PCOD9213106
_publ_section_title
;
Structure prediction by ZEFSAII (Michael W. Deem and Ramdas Pophale) SiO2 
 PCOD9213106
Probable space group: C 2/M
;
_chemical_formula_sum "Si O2"
_cell_formula_units_Z 64
_cell_length_a 24.671193
_cell_length_b 8.964197
_cell_length_c 26.013197
_cell_angle_alpha 90.000000
_cell_angle_beta 44.600104
_cell_angle_gamma 90.000000
_cell_volume 4039.502309
_symmetry_space_group_name_H-M "C 2/M"
_symmetry_group_IT_number 12
_symmetry_cell_setting 'monoclinic'
loop_
_space_group_symop_operation_xyz
x,y,z
-x,y,-z
-x,-y,-z
x,-y,z
1/2+x,1/2+y,z
1/2-x,1/2+y,-z
1/2-x,1/2-y,-z
1/2+x,1/2-y,z
loop_
_atom_site_type_symbol
_atom_site_label
_atom_site_fract_x
_atom_site_fract_y
_atom_site_fract_z
Si Si1 0.058166 0.179319 0.127986
Si Si2 0.587410 0.673399 0.919471
Si Si3 0.659874 0.821334 0.968932
Si Si4 0.595147 0.821415 0.802639
Si Si5 0.657144 0.175147 0.267900
Si Si6 0.266776 0.677406 0.692499
Si Si7 0.920601 0.676733 0.577995
Si Si8 0.837806 0.821874 0.845241
O O1 0.103561 0.220689 0.149263
O O2 0.971865 0.243013 0.184313
O O3 0.057287 0.000000 0.123520
O O4 0.104637 0.248797 0.048709
O O5 0.609577 0.500000 0.896921
O O6 0.639304 0.751195 0.927739
O O7 0.588138 0.761203 0.865551
O O8 0.500000 0.675689 0.000000
O O9 0.749405 0.788355 0.920560
O O10 0.648940 0.000000 0.975066
O O11 0.683017 0.785560 0.726885
O O12 0.585144 0.000000 0.808672
O O13 0.724395 0.254166 0.255920
O O14 0.585110 0.195344 0.356106
O O15 0.646226 0.244601 0.219854
O O16 0.673172 0.000000 0.252995
O O17 0.273482 0.500000 0.691530
O O18 0.341686 0.743878 0.613338
O O19 0.914402 0.500000 0.571698
O O20 0.000000 0.732277 0.500000
O O21 0.842833 0.000000 0.834683
#
# Coordination Sequence:
#
# PCOD9213106 Si02
#       8
#     8   8   8   8   8   8   8   8
#     4  11  23  37  51  68  93 128 171 214 255 295
#     4  11  22  34  50  71  95 124 162 207 253 302
#     4  11  22  36  53  71  93 125 165 211 262 303
#     4  11  22  35  50  70  97 128 164 207 249 294
#     4   9  18  31  51  77 102 132 163 193 239 291
#     4   9  18  31  49  75 104 130 159 194 238 288
#     4   8  16  31  50  78 111 135 159 191 232 287
#     4  10  22  37  51  70  97 128 165 212 254 293
#
# _framework density 15.843536
#
# number of rings (size 3 to 8) (size 9 to 14) (size 15 to 20)
#    0.750    1.250    1.250    3.000    0.000    7.750 
#    0.000    0.000    0.000    0.000    0.000    0.875 
#    0.000    0.000    0.000    0.000    0.000    0.000 
#
# Total GULP energy -178356.040660 kJ/mol
# GULP energy per Si atom -5573.626271 kJ/mol
# Density = 1.580748 g / cm^3
# Si number density = 15.843536 Si / 1000 Ang^3
#
#
#
# Elastic Constant Matrix: (Units=GPa)
#
#
# Indices 1 2 3 4 5 6 
#
# 1 122.8225 45.8183 37.9005 0.0001 -22.7059 -0.0006
# 2 45.8183 52.0593 30.2873 0.0002 -13.6174 -0.0018
# 3 37.9005 30.2873 69.4166 -0.0002 -25.5083 0.0000
# 4 0.0001 0.0002 -0.0002 23.4024 0.0001 -0.5469
# 5 -22.7059 -13.6174 -25.5083 0.0001 19.5575 0.0005
# 6 -0.0006 -0.0018 0.0000 -0.5469 0.0005 20.8752
#
#
#
# Elastic Compliance Matrix: (Units=1/GPa)
#
#
# Indices 1 2 3 4 5 6 
#
# 1 0.013280 -0.009425 0.000222 0.000000 0.009145 -0.000001
# 2 -0.009425 0.032842 -0.009221 0.000000 -0.000102 0.000003
# 3 0.000222 -0.009221 0.030809 0.000000 0.034021 -0.000002
# 4 0.000000 0.000000 0.000000 0.042757 0.000000 0.001120
# 5 0.009145 -0.000102 0.034021 0.000000 0.106050 -0.000002
# 6 -0.000001 0.000003 -0.000002 0.001120 -0.000002 0.047933
#
#
# Mechanical properties :
#
#
# Convention : Reuss Voigt Hill
#
# Bulk Modulus (GPa) = 24.94772 52.47894 38.71333
# Shear Modulus (GPa) = 15.43783 21.45319 18.44551
#
# Velocity S-wave (km/s) = 3.12491 3.68376 3.41578
# Velocity P-wave (km/s) = 5.36662 7.16160 6.32808
#
# Compressibility (1/GPa) = 0.04008382
#
# Stress axis : x y z
#
# Youngs Moduli (GPa) = 75.30228 30.44906 32.45768
#
# Poissons Ratio (x) = 0.28698 -0.00721
# Poissons Ratio (y) = 0.70972 0.29928
# Poissons Ratio (z) = -0.01672 0.28076
#
# Static dielectric constant tensor:
#      x y z
#    x 1.523860 0.000000 -0.026950 
#    y 0.000000 1.530180 0.000000 
#    z -0.026950 0.000000 1.535360 
# 
# From -- ./inp_files/367042.got.cif
#   From: 2010.05.17/outbox.cif.g08.bks.cpg/sg12_184_cif.got.tgz:367042.got - 2010.06.03 13:09:07.
