data_PCOD9213815
_publ_section_title
;
Structure prediction by ZEFSAII (Michael W. Deem and Ramdas Pophale) SiO2 
 PCOD9213815
Probable space group: C 2/M
;
_chemical_formula_sum "Si O2"
_cell_formula_units_Z 56
_cell_length_a 7.511377
_cell_length_b 25.081513
_cell_length_c 15.580095
_cell_angle_alpha 90.000000
_cell_angle_beta 113.549422
_cell_angle_gamma 90.000000
_cell_volume 2690.779439
_symmetry_space_group_name_H-M "C 2/M"
_symmetry_group_IT_number 12
_symmetry_cell_setting 'monoclinic'
loop_
_space_group_symop_operation_xyz
x,y,z
-x,y,-z
-x,-y,-z
x,-y,z
1/2+x,1/2+y,z
1/2-x,1/2+y,-z
1/2-x,1/2-y,-z
1/2+x,1/2-y,z
loop_
_atom_site_type_symbol
_atom_site_label
_atom_site_fract_x
_atom_site_fract_y
_atom_site_fract_z
Si Si1 0.597662 0.677942 0.339736
Si Si2 0.806905 0.387167 0.519740
Si Si3 0.304407 0.602425 0.786743
Si Si4 0.481423 0.936544 0.139173
Si Si5 0.306228 0.289921 0.402041
Si Si6 0.186689 0.063072 0.923871
Si Si7 0.242330 0.500000 0.658600
Si Si8 0.220743 0.500000 0.455295
O O1 0.655828 0.632359 0.419317
O O2 0.655478 0.655085 0.259414
O O3 0.377992 0.692316 0.321932
O O4 0.715508 0.731881 0.381392
O O5 0.831453 0.335323 0.584104
O O6 0.734683 0.438483 0.559486
O O7 0.000000 0.399374 0.500000
O O8 0.102285 0.596886 0.798193
O O9 0.484902 0.593480 0.885237
O O10 0.309468 0.552063 0.722546
O O11 0.690740 0.924206 0.138972
O O12 0.477989 0.000000 0.160871
O O13 0.329280 0.928796 0.031543
O O14 0.500000 0.287600 0.500000
O O15 0.144044 0.000000 0.914768
O O16 0.296129 0.500000 0.568740
O O17 0.009071 0.500000 0.607795
#
# Coordination Sequence:
#
# PCOD9213815 Si02
#       8
#     8   8   8   8   8   8   4   4
#     4  11  22  37  55  80 104 142 197 251 295 334
#     4  11  18  35  59  77 105 150 197 237 284 347
#     4  12  20  34  56  88 120 154 193 245 289 335
#     4   9  18  34  58  86 121 164 189 218 295 356
#     4  10  22  39  58  75 101 145 202 257 294 329
#     4   9  18  34  56  87 125 157 192 229 273 365
#     4  11  20  32  50  78 125 157 196 226 281 345
#     4  11  20  36  50  81 117 169 197 213 288 366
#
# _framework density 20.811813000000001
#
# number of rings (size 3 to 8) (size 9 to 14) (size 15 to 20)
#    0.000    1.571    4.286    4.286    0.000    1.143 
#    7.714    3.929    0.000    0.000    0.000    4.000 
#    0.000    0.000    0.000    0.000    0.000    0.000 
#
# Total GULP energy -156215.539292 kJ/mol
# GULP energy per Si atom -5579.126403 kJ/mol
# Density = 2.076444 g / cm^3
# Si number density = 20.811813 Si / 1000 Ang^3
#
#
#
# Elastic Constant Matrix: (Units=GPa)
#
#
# Indices 1 2 3 4 5 6 
#
# 1 74.7425 23.4056 1.3157 0.0000 -17.9703 0.0000
# 2 23.4056 112.5768 14.9235 0.0000 -9.7820 0.0000
# 3 1.3157 14.9235 26.4877 0.0000 -7.3316 0.0000
# 4 0.0000 0.0000 0.0000 11.0246 0.0000 -13.9322
# 5 -17.9703 -9.7820 -7.3316 0.0000 31.1315 0.0000
# 6 0.0000 0.0000 0.0000 -13.9322 0.0000 19.0577
#
#
#
# Elastic Compliance Matrix: (Units=1/GPa)
#
#
# Indices 1 2 3 4 5 6 
#
# 1 0.016547 -0.003090 0.003524 0.000000 0.009411 0.000000
# 2 -0.003090 0.010279 -0.005603 0.000000 0.000127 0.000000
# 3 0.003524 -0.005603 0.043657 0.000000 0.010555 0.000000
# 4 0.000000 0.000000 0.000000 1.191414 0.000000 0.870989
# 5 0.009411 0.000127 0.010555 0.000000 0.040080 0.000000
# 6 0.000000 0.000000 0.000000 0.870989 0.000000 0.689213
#
#
# Mechanical properties :
#
#
# Convention : Reuss Voigt Hill
#
# Bulk Modulus (GPa) = 16.62641 32.56631 24.59636
# Shear Modulus (GPa) = 2.47332 23.85356 13.16344
#
# Velocity S-wave (km/s) = 1.09133 3.38916 2.51768
# Velocity P-wave (km/s) = 3.09746 5.56751 4.50508
#
# Compressibility (1/GPa) = 0.06014528
#
# Stress axis : x y z
#
# Youngs Moduli (GPa) = 60.43244 97.28632 22.90609
#
# Poissons Ratio (x) = 0.30059 -0.08071
# Poissons Ratio (y) = 0.18672 0.12834
# Poissons Ratio (z) = -0.21294 0.54507
#
# Static dielectric constant tensor:
#      x y z
#    x 1.848880 0.000000 -0.043360 
#    y 0.000000 1.755240 0.000000 
#    z -0.043360 0.000000 1.796450 
# 
# From -- ./inp_files/199020.got.cif
#   From: 2010.05.17/outbox.cif.g08.bks.cpg/sg12_100_cif.got.tgz:199020.got - 2010.06.03 13:09:07.
