data_PCOD9213707
_publ_section_title
;
Structure prediction by ZEFSAII (Michael W. Deem and Ramdas Pophale) SiO2 
 PCOD9213707
Probable space group: C 2/M
;
_chemical_formula_sum "Si O2"
_cell_formula_units_Z 36
_cell_length_a 10.489282
_cell_length_b 22.653806
_cell_length_c 11.819130
_cell_angle_alpha 90.000000
_cell_angle_beta 141.712780
_cell_angle_gamma 90.000000
_cell_volume 1740.149814
_symmetry_space_group_name_H-M "C 2/M"
_symmetry_group_IT_number 12
_symmetry_cell_setting 'monoclinic'
loop_
_space_group_symop_operation_xyz
x,y,z
-x,y,-z
-x,-y,-z
x,-y,z
1/2+x,1/2+y,z
1/2-x,1/2+y,-z
1/2-x,1/2-y,-z
1/2+x,1/2-y,z
loop_
_atom_site_type_symbol
_atom_site_label
_atom_site_fract_x
_atom_site_fract_y
_atom_site_fract_z
Si Si1 0.342003 0.878977 0.993880
Si Si2 0.765176 0.500000 0.060482
Si Si3 0.974030 0.824247 0.613867
Si Si4 0.987125 0.690063 0.303982
Si Si5 0.500000 0.102376 0.500000
Si Si6 0.282959 0.500000 0.701548
O O1 0.399283 0.827413 0.121627
O O2 0.500000 0.878355 0.000000
O O3 0.114531 0.866861 0.786909
O O4 0.358450 0.940665 0.072439
O O5 0.524945 0.500000 0.859789
O O6 0.770419 0.500000 0.200592
O O7 0.052958 0.757177 0.689099
O O8 0.732915 0.821692 0.474867
O O9 0.000000 0.839221 0.500000
O O10 0.902449 0.644807 0.338271
O O11 0.674608 0.057998 0.576598
#
# Coordination Sequence:
#
# PCOD9213707 Si02
#       6
#     8   4   8   8   4   4
#     4  12  24  43  64  90 125 166 207 252 303 368
#     4  11  23  42  58  93 123 161 208 252 309 361
#     4  11  23  42  63  93 128 162 203 254 306 364
#     4  11  23  41  66  93 126 160 205 253 307 370
#     4  11  20  40  66  94 118 163 206 252 314 361
#     4  10  22  38  65  89 127 156 201 265 303 364
#
# _framework density 20.687874000000001
#
# number of rings (size 3 to 8) (size 9 to 14) (size 15 to 20)
#    0.000    0.889    5.556    2.333    0.000    0.000 
#    0.000    0.556    0.000    0.000    0.000    0.000 
#    0.000    0.000    0.000    0.000    0.000    0.000 
#
# Total GULP energy -100638.235948 kJ/mol
# GULP energy per Si atom -5591.013108 kJ/mol
# Density = 2.064079 g / cm^3
# Si number density = 20.687874 Si / 1000 Ang^3
#
#
#
# Elastic Constant Matrix: (Units=GPa)
#
#
# Indices 1 2 3 4 5 6 
#
# 1 27.9195 -11.3205 -2.1933 0.0000 -9.2194 0.0000
# 2 -11.3205 73.5604 6.9573 0.0000 -14.7414 0.0000
# 3 -2.1933 6.9573 78.0318 0.0000 -5.6497 0.0000
# 4 0.0000 0.0000 0.0000 28.9698 0.0000 -2.6683
# 5 -9.2194 -14.7414 -5.6497 0.0000 33.0524 0.0000
# 6 0.0000 0.0000 0.0000 -2.6683 0.0000 12.0393
#
#
#
# Elastic Compliance Matrix: (Units=1/GPa)
#
#
# Indices 1 2 3 4 5 6 
#
# 1 0.046095 0.010510 0.001649 0.000000 0.017827 0.000000
# 2 0.010510 0.017382 -0.000487 0.000000 0.010601 0.000000
# 3 0.001649 -0.000487 0.013085 0.000000 0.002479 0.000000
# 4 0.000000 0.000000 0.000000 0.035238 0.000000 0.007810
# 5 0.017827 0.010601 0.002479 0.000000 0.040379 0.000000
# 6 0.000000 0.000000 0.000000 0.007810 0.000000 0.084792
#
#
# Mechanical properties :
#
#
# Convention : Reuss Voigt Hill
#
# Bulk Modulus (GPa) = 10.00931 18.48875 14.24903
# Shear Modulus (GPa) = 20.24881 27.21688 23.73284
#
# Velocity S-wave (km/s) = 3.13194 3.63105 3.39069
# Velocity P-wave (km/s) = 4.23408 5.15129 4.71504
#
# Compressibility (1/GPa) = 0.09990697
#
# Stress axis : x y z
#
# Youngs Moduli (GPa) = 21.69434 57.53023 76.42593
#
# Poissons Ratio (x) = -0.60466 -0.12605
# Poissons Ratio (y) = -0.22801 0.03721
# Poissons Ratio (z) = -0.03578 0.02801
#
# Static dielectric constant tensor:
#      x y z
#    x 1.727470 0.000000 -0.002900 
#    y 0.000000 1.716770 0.000000 
#    z -0.002900 0.000000 1.712760 
# 
# From -- ./inp_files/46692.got.cif
#   From: 2010.05.17/outbox.cif.g08.bks.cpg/sg12_24_cif.got.tgz:46692.got - 2010.06.03 13:09:07.
