data_PCOD9213300
_publ_section_title
;
Structure prediction by ZEFSAII (Michael W. Deem and Ramdas Pophale) SiO2 
 PCOD9213300
Probable space group: C 2/M
;
_chemical_formula_sum "Si O2"
_cell_formula_units_Z 56
_cell_length_a 21.041173
_cell_length_b 29.541376
_cell_length_c 9.769592
_cell_angle_alpha 90.000000
_cell_angle_beta 153.216942
_cell_angle_gamma 90.000000
_cell_volume 2736.411324
_symmetry_space_group_name_H-M "C 2/M"
_symmetry_group_IT_number 12
_symmetry_cell_setting 'monoclinic'
loop_
_space_group_symop_operation_xyz
x,y,z
-x,y,-z
-x,-y,-z
x,-y,z
1/2+x,1/2+y,z
1/2-x,1/2+y,-z
1/2-x,1/2-y,-z
1/2+x,1/2-y,z
loop_
_atom_site_type_symbol
_atom_site_label
_atom_site_fract_x
_atom_site_fract_y
_atom_site_fract_z
Si Si1 0.965980 0.418827 0.787065
Si Si2 0.697922 0.843489 0.169480
Si Si3 0.536415 0.694894 0.217072
Si Si4 0.470657 0.779696 0.605746
Si Si5 0.329793 0.500000 0.171504
Si Si6 0.080313 0.500000 0.508561
Si Si7 0.743012 0.356986 0.237167
Si Si8 0.332314 0.400256 0.192446
O O1 0.958914 0.456300 0.655780
O O2 0.823377 0.388998 0.499643
O O3 0.089194 0.382248 0.002077
O O4 0.000000 0.439642 0.000000
O O5 0.784557 0.863808 0.209667
O O6 0.812426 0.829382 0.501138
O O7 0.606200 0.801674 0.939813
O O8 0.551407 0.731521 0.365939
O O9 0.500000 0.716290 0.000000
O O10 0.409972 0.660648 0.011529
O O11 0.500000 0.776753 0.500000
O O12 0.340836 0.813542 0.388878
O O13 0.500000 0.500000 0.500000
O O14 0.288750 0.451164 0.153454
O O15 0.247360 0.500000 0.867932
O O16 0.000000 0.500000 0.500000
O O17 0.731213 0.386335 0.075562
O O18 0.500000 0.399629 0.500000
#
# Coordination Sequence:
#
# PCOD9213300 Si02
#       8
#     8   8   8   8   4   4   8   8
#     4  11  25  43  65  94 134 175 212 263 326 391
#     4  11  24  41  67  92 129 167 224 266 324 391
#     4  12  27  44  63  91 130 174 220 273 333 392
#     4  11  25  40  65  96 127 165 221 277 328 384
#     4  10  22  37  64 101 138 157 202 262 323 374
#     4  12  23  41  68 101 132 169 218 268 319 382
#     4  11  23  41  69  92 128 169 223 265 326 388
#     4  11  20  39  66 103 126 167 213 271 323 381
#
# _framework density 20.464759000000001
#
# number of rings (size 3 to 8) (size 9 to 14) (size 15 to 20)
#    0.000    0.857    4.286    2.786    2.000    5.714 
#    0.000    0.000    0.000    0.000    0.000    7.000 
#    0.000    0.000    0.000    0.000    0.000    0.000 
#
# Total GULP energy -156459.509144 kJ/mol
# GULP energy per Si atom -5587.839612 kJ/mol
# Density = 2.041818 g / cm^3
# Si number density = 20.464759 Si / 1000 Ang^3
#
#
#
# Elastic Constant Matrix: (Units=GPa)
#
#
# Indices 1 2 3 4 5 6 
#
# 1 35.7225 13.0229 29.9598 0.0000 -10.2650 0.0000
# 2 13.0229 100.4043 41.9176 0.0000 4.4474 0.0000
# 3 29.9598 41.9176 148.1892 0.0000 -0.1574 0.0000
# 4 0.0000 0.0000 0.0000 29.5439 0.0000 -4.2686
# 5 -10.2650 4.4474 -0.1574 0.0000 37.6024 0.0000
# 6 0.0000 0.0000 0.0000 -4.2686 0.0000 21.3327
#
#
#
# Elastic Compliance Matrix: (Units=1/GPa)
#
#
# Indices 1 2 3 4 5 6 
#
# 1 0.037733 -0.002474 -0.006917 0.000000 0.010564 0.000000
# 2 -0.002474 0.011524 -0.002762 0.000000 -0.002050 0.000000
# 3 -0.006917 -0.002762 0.008926 0.000000 -0.001524 0.000000
# 4 0.000000 0.000000 0.000000 0.034856 0.000000 0.006975
# 5 0.010564 -0.002050 -0.001524 0.000000 0.029714 0.000000
# 6 0.000000 0.000000 0.000000 0.006975 0.000000 0.048272
#
#
# Mechanical properties :
#
#
# Convention : Reuss Voigt Hill
#
# Bulk Modulus (GPa) = 29.51882 50.45739 39.98810
# Shear Modulus (GPa) = 24.19851 30.99018 27.59434
#
# Velocity S-wave (km/s) = 3.44240 3.89565 3.67602
# Velocity P-wave (km/s) = 5.50052 6.70403 6.13187
#
# Compressibility (1/GPa) = 0.03387669
#
# Stress axis : x y z
#
# Youngs Moduli (GPa) = 26.50216 86.77187 112.02893
#
# Poissons Ratio (x) = 0.21468 0.77496
# Poissons Ratio (y) = 0.06557 0.30941
# Poissons Ratio (z) = 0.18333 0.23965
#
# Static dielectric constant tensor:
#      x y z
#    x 1.704100 0.000000 0.015650 
#    y 0.000000 1.719100 0.000000 
#    z 0.015650 0.000000 1.754540 
# 
# From -- ./inp_files/91692.got.cif
#   From: 2010.05.17/outbox.cif.g08.bks.cpg/sg12_46_cif.got.tgz:91692.got - 2010.06.03 13:09:07.
