data_PCOD9213539
_publ_section_title
;
Structure prediction by ZEFSAII (Michael W. Deem and Ramdas Pophale) SiO2 
 PCOD9213539
Probable space group: C 2/M
;
_chemical_formula_sum "Si O2"
_cell_formula_units_Z 40
_cell_length_a 13.252341
_cell_length_b 29.935468
_cell_length_c 7.127641
_cell_angle_alpha 90.000000
_cell_angle_beta 144.042765
_cell_angle_gamma 90.000000
_cell_volume 1660.338537
_symmetry_space_group_name_H-M "C 2/M"
_symmetry_group_IT_number 12
_symmetry_cell_setting 'monoclinic'
loop_
_space_group_symop_operation_xyz
x,y,z
-x,y,-z
-x,-y,-z
x,-y,z
1/2+x,1/2+y,z
1/2-x,1/2+y,-z
1/2-x,1/2-y,-z
1/2+x,1/2-y,z
loop_
_atom_site_type_symbol
_atom_site_label
_atom_site_fract_x
_atom_site_fract_y
_atom_site_fract_z
Si Si1 0.204327 0.283576 0.816044
Si Si2 0.205401 0.384052 0.779277
Si Si3 0.996928 0.051327 0.766209
Si Si4 0.294235 0.881786 0.660640
Si Si5 0.204476 0.281140 0.301102
O O1 0.266178 0.334228 0.926241
O O2 0.238898 0.273971 0.604826
O O3 0.271115 0.230821 0.904173
O O4 0.000000 0.283831 0.500000
O O5 0.225913 0.384192 0.589849
O O6 0.000000 0.389259 0.500000
O O7 0.331522 0.422526 0.039546
O O8 0.829773 0.079508 0.452263
O O9 0.991981 0.000000 0.699469
O O10 0.000000 0.050713 0.000000
O O11 0.230431 0.832194 0.617411
O O12 0.500000 0.886321 0.000000
O O13 0.000000 0.282619 0.000000
#
# Coordination Sequence:
#
# PCOD9213539 Si02
#       5
#     8   8   8   8   8
#     4  11  24  37  54  85 120 160 195 238 291 346
#     4  10  22  39  59  88 122 154 197 245 295 351
#     4   9  20  40  66  89 114 155 202 246 298 351
#     4  10  22  38  60  89 119 155 198 245 292 353
#     4  11  22  35  56  83 116 158 197 233 285 345
#
# _framework density 24.091470999999999
#
# number of rings (size 3 to 8) (size 9 to 14) (size 15 to 20)
#    0.000    1.800    2.000    1.200   14.000    0.800 
#    0.000    1.000    0.000    1.200    0.000    0.000 
#    0.000    0.000    0.000    0.000    0.000    0.000 
#
# Total GULP energy -111461.125056 kJ/mol
# GULP energy per Si atom -5573.056253 kJ/mol
# Density = 2.403664 g / cm^3
# Si number density = 24.091471 Si / 1000 Ang^3
#
#
#
# Elastic Constant Matrix: (Units=GPa)
#
#
# Indices 1 2 3 4 5 6 
#
# 1 138.9708 85.9599 28.9048 0.0000 -17.6066 0.0000
# 2 85.9599 282.5462 107.0704 0.0000 20.1223 0.0000
# 3 28.9048 107.0704 103.0657 0.0000 -0.7036 0.0000
# 4 0.0000 0.0000 0.0000 22.4683 0.0000 -5.9965
# 5 -17.6066 20.1223 -0.7036 0.0000 54.1371 0.0000
# 6 0.0000 0.0000 0.0000 -5.9965 0.0000 2.7602
#
#
#
# Elastic Compliance Matrix: (Units=1/GPa)
#
#
# Indices 1 2 3 4 5 6 
#
# 1 0.009878 -0.003789 0.001198 0.000000 0.004637 0.000000
# 2 -0.003789 0.007578 -0.006838 0.000000 -0.004138 0.000000
# 3 0.001198 -0.006838 0.016492 0.000000 0.003146 0.000000
# 4 0.000000 0.000000 0.000000 0.105923 0.000000 0.230120
# 5 0.004637 -0.004138 0.003146 0.000000 0.021558 0.000000
# 6 0.000000 0.000000 0.000000 0.230120 0.000000 0.862238
#
#
# Mechanical properties :
#
#
# Convention : Reuss Voigt Hill
#
# Bulk Modulus (GPa) = 66.27372 107.60587 86.93979
# Shear Modulus (GPa) = 4.77301 36.04963 20.41132
#
# Velocity S-wave (km/s) = 1.40908 3.87248 2.91390
# Velocity P-wave (km/s) = 5.49693 8.04720 6.89107
#
# Compressibility (1/GPa) = 0.01508894
#
# Stress axis : x y z
#
# Youngs Moduli (GPa) = 101.23606 131.96009 60.63634
#
# Poissons Ratio (x) = 0.50005 -0.07264
# Poissons Ratio (y) = 0.38362 0.41463
# Poissons Ratio (z) = -0.12128 0.90235
#
# Static dielectric constant tensor:
#      x y z
#    x 3.317950 0.000000 -0.725810 
#    y 0.000000 1.863840 0.000000 
#    z -0.725810 0.000000 2.127780 
# 
# From -- ./inp_files/68461.got.cif
#   From: 2010.05.17/outbox.cif.g08.bks.cpg/sg12_35_cif.got.tgz:68461.got - 2010.06.03 13:09:07.
