data_PCOD9213908
_publ_section_title
;
Structure prediction by ZEFSAII (Michael W. Deem and Ramdas Pophale) SiO2 
 PCOD9213908
Probable space group: C 2/M
;
_chemical_formula_sum "Si O2"
_cell_formula_units_Z 64
_cell_length_a 17.016667
_cell_length_b 19.176094
_cell_length_c 9.758647
_cell_angle_alpha 90.000000
_cell_angle_beta 91.275135
_cell_angle_gamma 90.000000
_cell_volume 3183.586813
_symmetry_space_group_name_H-M "C 2/M"
_symmetry_group_IT_number 12
_symmetry_cell_setting 'monoclinic'
loop_
_space_group_symop_operation_xyz
x,y,z
-x,y,-z
-x,-y,-z
x,-y,z
1/2+x,1/2+y,z
1/2-x,1/2+y,-z
1/2-x,1/2-y,-z
1/2+x,1/2-y,z
loop_
_atom_site_type_symbol
_atom_site_label
_atom_site_fract_x
_atom_site_fract_y
_atom_site_fract_z
Si Si1 0.056108 0.847898 0.380548
Si Si2 0.289126 0.578975 0.014577
Si Si3 0.818252 0.422884 0.729977
Si Si4 0.952086 0.128342 0.132504
Si Si5 0.718940 0.829924 0.771512
Si Si6 0.715729 0.420617 0.461133
Si Si7 0.151643 0.272684 0.230123
Si Si8 0.578203 0.213013 0.935773
O O1 0.127000 0.893915 0.442805
O O2 0.098736 0.784083 0.304900
O O3 0.000000 0.823386 0.500000
O O4 0.001882 0.888760 0.268971
O O5 0.298097 0.500000 0.963157
O O6 0.217325 0.580638 0.118709
O O7 0.365519 0.599120 0.105605
O O8 0.272071 0.630664 0.888426
O O9 0.855611 0.500000 0.713705
O O10 0.748338 0.418872 0.616290
O O11 0.864226 0.350444 0.716387
O O12 0.946313 0.212651 0.127952
O O13 0.000000 0.106277 0.000000
O O14 0.730209 0.872040 0.632435
O O15 0.758219 0.753683 0.751941
O O16 0.631267 0.826298 0.827275
O O17 0.720958 0.500000 0.412356
O O18 0.132778 0.271541 0.068573
O O19 0.500000 0.179503 0.000000
#
# Coordination Sequence:
#
# PCOD9213908 Si02
#       8
#     8   8   8   8   8   8   8   8
#     4  11  23  36  59  94 125 159 204 243 291 366
#     4  11  21  34  57  86 116 157 205 246 288 361
#     4  10  22  39  60  82 112 155 205 249 298 354
#     4  11  20  35  53  83 121 158 194 235 307 360
#     4  11  21  35  64  90 115 155 209 250 301 354
#     4  10  23  42  59  86 128 166 198 246 300 351
#     4  11  20  39  63  88 120 158 200 257 300 352
#     4  11  20  36  60  89 118 154 188 253 313 353
#
# _framework density 20.103110999999998
#
# number of rings (size 3 to 8) (size 9 to 14) (size 15 to 20)
#    0.000    1.250    5.000    3.000    0.000    4.000 
#    0.000    0.000    0.000    3.750    0.000    0.000 
#    0.000    0.000    0.000    0.000    0.000    0.000 
#
# Total GULP energy -178640.781489 kJ/mol
# GULP energy per Si atom -5582.524422 kJ/mol
# Density = 2.005736 g / cm^3
# Si number density = 20.103111 Si / 1000 Ang^3
#
#
#
# Elastic Constant Matrix: (Units=GPa)
#
#
# Indices 1 2 3 4 5 6 
#
# 1 48.4245 5.7945 -9.8505 0.0000 -21.7484 0.0000
# 2 5.7945 68.5045 4.0396 0.0000 -2.1762 0.0000
# 3 -9.8505 4.0396 59.4424 0.0000 -8.5155 0.0000
# 4 0.0000 0.0000 0.0000 16.3621 0.0000 4.4394
# 5 -21.7484 -2.1762 -8.5155 0.0000 33.9585 0.0000
# 6 0.0000 0.0000 0.0000 4.4394 0.0000 7.3033
#
#
#
# Elastic Compliance Matrix: (Units=1/GPa)
#
#
# Indices 1 2 3 4 5 6 
#
# 1 0.033343 -0.002610 0.009063 0.000000 0.023460 0.000000
# 2 -0.002610 0.014877 -0.001604 0.000000 -0.001120 0.000000
# 3 0.009063 -0.001604 0.019968 0.000000 0.010709 0.000000
# 4 0.000000 0.000000 0.000000 0.073187 0.000000 -0.044487
# 5 0.023460 -0.001120 0.010709 0.000000 0.047086 0.000000
# 6 0.000000 0.000000 0.000000 -0.044487 0.000000 0.163966
#
#
# Mechanical properties :
#
#
# Convention : Reuss Voigt Hill
#
# Bulk Modulus (GPa) = 12.83892 19.59318 16.21605
# Shear Modulus (GPa) = 13.56152 23.28398 18.42275
#
# Velocity S-wave (km/s) = 2.60012 3.40697 3.03052
# Velocity P-wave (km/s) = 3.92614 5.02435 4.50880
#
# Compressibility (1/GPa) = 0.07788818
#
# Stress axis : x y z
#
# Youngs Moduli (GPa) = 29.99147 67.21645 50.07994
#
# Poissons Ratio (x) = 0.17540 -0.45390
# Poissons Ratio (y) = 0.07826 0.08032
# Poissons Ratio (z) = -0.27183 0.10781
#
# Static dielectric constant tensor:
#      x y z
#    x 1.734160 0.000000 0.005790 
#    y 0.000000 1.744570 0.000000 
#    z 0.005790 0.000000 1.697160 
# 
# From -- ./inp_files/77505.got.cif
#   From: 2010.05.17/outbox.cif.g08.bks.cpg/sg12_39_cif.got.tgz:77505.got - 2010.06.03 13:09:07.
