data_PCOD9213559
_publ_section_title
;
Structure prediction by ZEFSAII (Michael W. Deem and Ramdas Pophale) SiO2 
 PCOD9213559
Probable space group: C 2/M
;
_chemical_formula_sum "Si O2"
_cell_formula_units_Z 64
_cell_length_a 17.801774
_cell_length_b 17.976570
_cell_length_c 16.434069
_cell_angle_alpha 90.000000
_cell_angle_beta 40.920185
_cell_angle_gamma 90.000000
_cell_volume 3444.777676
_symmetry_space_group_name_H-M "C 2/M"
_symmetry_group_IT_number 12
_symmetry_cell_setting 'monoclinic'
loop_
_space_group_symop_operation_xyz
x,y,z
-x,y,-z
-x,-y,-z
x,-y,z
1/2+x,1/2+y,z
1/2-x,1/2+y,-z
1/2-x,1/2-y,-z
1/2+x,1/2-y,z
loop_
_atom_site_type_symbol
_atom_site_label
_atom_site_fract_x
_atom_site_fract_y
_atom_site_fract_z
Si Si1 0.183356 0.585131 0.061666
Si Si2 0.757834 0.216254 0.736078
Si Si3 0.822209 0.283028 0.515579
Si Si4 0.084313 0.718817 0.248347
Si Si5 0.580336 0.650750 0.117757
Si Si6 0.129726 0.587978 0.920632
Si Si7 0.824563 0.086711 0.293050
Si Si8 0.874705 0.158216 0.099942
O O1 0.150963 0.500000 0.106688
O O2 0.133136 0.643756 0.167344
O O3 0.321610 0.590873 0.942023
O O4 0.139626 0.606568 0.007814
O O5 0.808545 0.229086 0.605435
O O6 0.839601 0.254097 0.737092
O O7 0.720825 0.135005 0.794204
O O8 0.641579 0.265852 0.836783
O O9 0.750000 0.250000 0.500000
O O10 0.765623 0.361463 0.586859
O O11 0.954140 0.291514 0.383857
O O12 0.084150 0.783925 0.180573
O O13 0.452699 0.617243 0.211343
O O14 0.629912 0.679067 0.990440
O O15 0.150648 0.500000 0.894367
O O16 0.000000 0.603746 0.000000
O O17 0.802426 0.101492 0.214058
O O18 0.817071 0.000000 0.317349
O O19 0.000000 0.123224 0.000000
#
# Coordination Sequence:
#
# PCOD9213559 Si02
#       8
#     8   8   8   8   8   8   8   8
#     4  11  23  37  61  97 130 157 193 251 314 369
#     4  11  21  40  63  83 120 163 204 250 299 356
#     4  11  25  43  62  87 114 161 217 253 284 354
#     4  12  23  40  63  89 123 165 208 246 298 366
#     4  11  19  37  62  91 124 160 195 243 301 371
#     4  10  22  38  60  93 126 157 199 255 313 362
#     4  10  22  40  63  91 125 159 196 252 310 358
#     4   9  19  32  57  93 119 153 192 236 296 367
#
# _framework density 18.578847
#
# number of rings (size 3 to 8) (size 9 to 14) (size 15 to 20)
#    0.000    1.375    3.750    2.250    1.750    3.250 
#    0.000    0.625    0.000    3.000    0.000    0.000 
#    0.000    0.000    0.000    0.000    0.000    0.000 
#
# Total GULP energy -178334.392392 kJ/mol
# GULP energy per Si atom -5572.949762 kJ/mol
# Density = 1.853656 g / cm^3
# Si number density = 18.578847 Si / 1000 Ang^3
#
#
#
# Elastic Constant Matrix: (Units=GPa)
#
#
# Indices 1 2 3 4 5 6 
#
# 1 94.7973 34.3821 63.1653 0.0000 9.5618 0.0000
# 2 34.3821 101.8288 71.4527 0.0000 6.2290 0.0000
# 3 63.1653 71.4527 137.6641 0.0000 4.2336 0.0000
# 4 0.0000 0.0000 0.0000 20.2076 0.0000 -0.8742
# 5 9.5618 6.2290 4.2336 0.0000 32.2861 0.0000
# 6 0.0000 0.0000 0.0000 -0.8742 0.0000 21.1392
#
#
#
# Elastic Compliance Matrix: (Units=1/GPa)
#
#
# Indices 1 2 3 4 5 6 
#
# 1 0.015624 -0.000156 -0.006975 0.000000 -0.003683 0.000000
# 2 -0.000156 0.015569 -0.007950 0.000000 -0.001915 0.000000
# 3 -0.006975 -0.007950 0.014539 0.000000 0.001693 0.000000
# 4 0.000000 0.000000 0.000000 0.049575 0.000000 0.002050
# 5 -0.003683 -0.001915 0.001693 0.000000 0.032211 0.000000
# 6 0.000000 0.000000 0.000000 0.002050 0.000000 0.047390
#
#
# Mechanical properties :
#
#
# Convention : Reuss Voigt Hill
#
# Bulk Modulus (GPa) = 64.22738 74.69893 69.46315
# Shear Modulus (GPa) = 23.78000 25.74591 24.76296
#
# Velocity S-wave (km/s) = 3.58152 3.72662 3.65479
# Velocity P-wave (km/s) = 7.19363 7.66881 7.43502
#
# Compressibility (1/GPa) = 0.01556968
#
# Stress axis : x y z
#
# Youngs Moduli (GPa) = 64.00304 64.23035 68.78164
#
# Poissons Ratio (x) = 0.01003 0.47973
# Poissons Ratio (y) = 0.00999 0.54684
# Poissons Ratio (z) = 0.44640 0.51065
#
# Static dielectric constant tensor:
#      x y z
#    x 1.750840 0.000000 0.002920 
#    y 0.000000 1.636800 0.000000 
#    z 0.002920 0.000000 1.621680 
# 
# From -- ./inp_files/226855.got.cif
#   From: 2010.05.17/outbox.cif.g08.bks.cpg/sg12_114_cif.got.tgz:226855.got - 2010.06.03 13:09:07.
