data_PCOD9213736
_publ_section_title
;
Structure prediction by ZEFSAII (Michael W. Deem and Ramdas Pophale) SiO2 
 PCOD9213736
Probable space group: C 2/M
;
_chemical_formula_sum "Si O2"
_cell_formula_units_Z 52
_cell_length_a 19.570307
_cell_length_b 20.161740
_cell_length_c 10.768571
_cell_angle_alpha 90.000000
_cell_angle_beta 145.350476
_cell_angle_gamma 90.000000
_cell_volume 2415.773539
_symmetry_space_group_name_H-M "C 2/M"
_symmetry_group_IT_number 12
_symmetry_cell_setting 'monoclinic'
loop_
_space_group_symop_operation_xyz
x,y,z
-x,y,-z
-x,-y,-z
x,-y,z
1/2+x,1/2+y,z
1/2-x,1/2+y,-z
1/2-x,1/2-y,-z
1/2+x,1/2-y,z
loop_
_atom_site_type_symbol
_atom_site_label
_atom_site_fract_x
_atom_site_fract_y
_atom_site_fract_z
Si Si1 0.797368 0.859922 0.300579
Si Si2 0.840898 0.146678 0.871479
Si Si3 0.909856 0.799895 0.704694
Si Si4 0.582422 0.500000 0.999562
Si Si5 0.000000 0.768772 0.500000
Si Si6 0.955300 0.421629 0.076095
Si Si7 0.585053 0.175982 0.423423
Si Si8 0.925280 0.000000 0.514290
O O1 0.819813 0.824891 0.465340
O O2 0.883217 0.816953 0.338047
O O3 0.657973 0.873011 0.067742
O O4 0.849085 0.933430 0.395312
O O5 0.872837 0.169273 0.779294
O O6 0.706946 0.173019 0.686576
O O7 0.843640 0.067737 0.887773
O O8 0.953793 0.174943 0.117379
O O9 0.903991 0.721045 0.684315
O O10 0.500000 0.500000 0.000000
O O11 0.502574 0.500000 0.755725
O O12 0.003026 0.719225 0.622020
O O13 0.928083 0.500000 0.052180
O O14 0.000000 0.414251 0.000000
O O15 0.050260 0.395729 0.320044
O O16 0.000000 0.000000 0.500000
#
# Coordination Sequence:
#
# PCOD9213736 Si02
#       8
#     8   8   8   4   4   8   8   4
#     4  11  21  44  66 100 133 179 232 286 335 414
#     4  11  22  40  67  99 136 176 226 288 351 410
#     4  10  22  38  67 100 132 175 230 285 352 400
#     4  12  22  42  69 107 143 183 238 303 353 417
#     4  10  26  47  69  94 128 184 236 290 328 398
#     4  11  26  44  69 103 140 180 221 280 357 430
#     4  11  26  44  65  96 139 183 228 279 349 421
#     4  12  22  40  66 104 144 180 242 286 358 410
#
# _framework density 21.525196000000001
#
# number of rings (size 3 to 8) (size 9 to 14) (size 15 to 20)
#    0.000    1.077    4.615    1.385    7.538    0.615 
#    5.538    0.385    0.000    0.000    0.000    0.000 
#    0.000    0.000    0.000    0.000    0.000    0.000 
#
# Total GULP energy -145132.871831 kJ/mol
# GULP energy per Si atom -5582.033532 kJ/mol
# Density = 2.147620 g / cm^3
# Si number density = 21.525196 Si / 1000 Ang^3
#
#
#
# Elastic Constant Matrix: (Units=GPa)
#
#
# Indices 1 2 3 4 5 6 
#
# 1 72.2599 24.6299 14.6809 0.0000 2.6685 0.0000
# 2 24.6299 111.4283 30.3357 0.0000 6.9794 0.0000
# 3 14.6809 30.3357 67.7307 0.0000 10.1514 0.0000
# 4 0.0000 0.0000 0.0000 35.7176 0.0000 0.4270
# 5 2.6685 6.9794 10.1514 0.0000 25.1400 0.0000
# 6 0.0000 0.0000 0.0000 0.4270 0.0000 67.3207
#
#
#
# Elastic Compliance Matrix: (Units=1/GPa)
#
#
# Indices 1 2 3 4 5 6 
#
# 1 0.015210 -0.002806 -0.002038 0.000000 -0.000012 0.000000
# 2 -0.002806 0.010765 -0.004055 0.000000 -0.001053 0.000000
# 3 -0.002038 -0.004055 0.017905 0.000000 -0.005888 0.000000
# 4 0.000000 0.000000 0.000000 0.028000 0.000000 -0.000178
# 5 -0.000012 -0.001053 -0.005888 0.000000 0.042448 0.000000
# 6 0.000000 0.000000 0.000000 -0.000178 0.000000 0.014855
#
#
# Mechanical properties :
#
#
# Convention : Reuss Voigt Hill
#
# Bulk Modulus (GPa) = 38.34315 43.41243 40.87779
# Shear Modulus (GPa) = 32.11809 37.75381 34.93595
#
# Velocity S-wave (km/s) = 3.86698 4.19254 4.03305
# Velocity P-wave (km/s) = 6.14735 6.60671 6.38116
#
# Compressibility (1/GPa) = 0.02608028
#
# Stress axis : x y z
#
# Youngs Moduli (GPa) = 65.74613 92.89645 55.85081
#
# Poissons Ratio (x) = 0.26070 0.11383
# Poissons Ratio (y) = 0.18451 0.22649
# Poissons Ratio (z) = 0.13399 0.37672
#
# Static dielectric constant tensor:
#      x y z
#    x 1.835460 0.000000 0.061820 
#    y 0.000000 1.673670 0.000000 
#    z 0.061820 0.000000 1.816120 
# 
# From -- ./inp_files/169905.got.cif
#   From: 2010.05.17/outbox.cif.g08.bks.cpg/sg12_85_cif.got.tgz:169905.got - 2010.06.03 13:09:07.
