data_PCOD9213233
_publ_section_title
;
Structure prediction by ZEFSAII (Michael W. Deem and Ramdas Pophale) SiO2 
 PCOD9213233
Probable space group: C 2/M
;
_chemical_formula_sum "Si O2"
_cell_formula_units_Z 48
_cell_length_a 9.657840
_cell_length_b 25.647282
_cell_length_c 9.813379
_cell_angle_alpha 90.000000
_cell_angle_beta 103.581932
_cell_angle_gamma 90.000000
_cell_volume 2362.772319
_symmetry_space_group_name_H-M "C 2/M"
_symmetry_group_IT_number 12
_symmetry_cell_setting 'monoclinic'
loop_
_space_group_symop_operation_xyz
x,y,z
-x,y,-z
-x,-y,-z
x,-y,z
1/2+x,1/2+y,z
1/2-x,1/2+y,-z
1/2-x,1/2-y,-z
1/2+x,1/2-y,z
loop_
_atom_site_type_symbol
_atom_site_label
_atom_site_fract_x
_atom_site_fract_y
_atom_site_fract_z
Si Si1 0.887286 0.557991 0.851435
Si Si2 0.289674 0.740530 0.764109
Si Si3 0.831982 0.857377 0.298213
Si Si4 0.665960 0.640025 0.380131
Si Si5 0.439329 0.103633 0.335001
Si Si6 0.553482 0.802363 0.866381
O O1 0.824163 0.500000 0.850878
O O2 0.766551 0.602564 0.809283
O O3 0.983163 0.560588 0.736627
O O4 0.000000 0.565507 0.000000
O O5 0.217706 0.797093 0.728108
O O6 0.277889 0.698845 0.639627
O O7 0.216048 0.713176 0.877327
O O8 0.454906 0.752376 0.820699
O O9 0.817083 0.870590 0.455701
O O10 0.999687 0.862730 0.304781
O O11 0.769032 0.603106 0.315338
O O12 0.500000 0.106731 0.500000
O O13 0.476505 0.155603 0.257385
O O14 0.500000 0.821541 0.000000
#
# Coordination Sequence:
#
# PCOD9213233 Si02
#       6
#     8   8   8   8   8   8
#     4  11  25  46  71  95 123 165 214 273 338 390
#     4  11  20  35  56  90 130 174 215 249 310 377
#     4  11  21  40  63  91 134 170 213 266 323 381
#     4  10  22  37  60 100 131 168 212 261 318 378
#     4  11  21  40  65  94 125 165 218 264 319 379
#     4  11  22  35  55  88 131 172 211 255 305 377
#
# _framework density 20.315118999999999
#
# number of rings (size 3 to 8) (size 9 to 14) (size 15 to 20)
#    0.000    1.167    5.000    1.500    0.000    1.667 
#    0.000    3.333    0.000    2.000    0.000    0.000 
#    0.000    0.000    0.000    0.000    0.000    0.000 
#
# Total GULP energy -133856.926725 kJ/mol
# GULP energy per Si atom -5577.371947 kJ/mol
# Density = 2.026888 g / cm^3
# Si number density = 20.315119 Si / 1000 Ang^3
#
#
#
# Elastic Constant Matrix: (Units=GPa)
#
#
# Indices 1 2 3 4 5 6 
#
# 1 126.2597 25.7531 22.7792 0.0000 -8.5971 0.0000
# 2 25.7531 82.0451 22.3277 0.0000 9.5424 0.0000
# 3 22.7792 22.3277 110.7003 0.0000 -4.2232 0.0000
# 4 0.0000 0.0000 0.0000 18.8041 0.0000 0.3619
# 5 -8.5971 9.5424 -4.2232 0.0000 32.7551 0.0000
# 6 0.0000 0.0000 0.0000 0.3619 0.0000 17.3853
#
#
#
# Elastic Compliance Matrix: (Units=1/GPa)
#
#
# Indices 1 2 3 4 5 6 
#
# 1 0.008911 -0.002836 -0.001147 0.000000 0.003017 0.000000
# 2 -0.002836 0.014375 -0.002516 0.000000 -0.005256 0.000000
# 3 -0.001147 -0.002516 0.009842 0.000000 0.001701 0.000000
# 4 0.000000 0.000000 0.000000 0.053201 0.000000 -0.001107
# 5 0.003017 -0.005256 0.001701 0.000000 0.033072 0.000000
# 6 0.000000 0.000000 0.000000 -0.001107 0.000000 0.057543
#
#
# Mechanical properties :
#
#
# Convention : Reuss Voigt Hill
#
# Bulk Modulus (GPa) = 49.67740 51.19168 50.43454
# Shear Modulus (GPa) = 25.42575 30.33192 27.87884
#
# Velocity S-wave (km/s) = 3.54159 3.86822 3.70850
# Velocity P-wave (km/s) = 6.42108 6.72342 6.57399
#
# Compressibility (1/GPa) = 0.02012988
#
# Stress axis : x y z
#
# Youngs Moduli (GPa) = 112.22185 69.56648 101.60807
#
# Poissons Ratio (x) = 0.19729 0.11650
# Poissons Ratio (y) = 0.31825 0.25567
# Poissons Ratio (z) = 0.12867 0.17505
#
# Static dielectric constant tensor:
#      x y z
#    x 1.751500 0.000000 0.012150 
#    y 0.000000 1.740190 0.000000 
#    z 0.012150 0.000000 1.741770 
# 
# From -- ./inp_files/50782.got.cif
#   From: 2010.05.17/outbox.cif.g08.bks.cpg/sg12_26_cif.got.tgz:50782.got - 2010.06.03 13:09:07.
