data_PCOD9213875
_publ_section_title
;
Structure prediction by ZEFSAII (Michael W. Deem and Ramdas Pophale) SiO2 
 PCOD9213875
Probable space group: C 2/M
;
_chemical_formula_sum "Si O2"
_cell_formula_units_Z 48
_cell_length_a 9.216913
_cell_length_b 15.206509
_cell_length_c 30.916017
_cell_angle_alpha 90.000000
_cell_angle_beta 149.998705
_cell_angle_gamma 90.000000
_cell_volume 2166.634002
_symmetry_space_group_name_H-M "C 2/M"
_symmetry_group_IT_number 12
_symmetry_cell_setting 'monoclinic'
loop_
_space_group_symop_operation_xyz
x,y,z
-x,y,-z
-x,-y,-z
x,-y,z
1/2+x,1/2+y,z
1/2-x,1/2+y,-z
1/2-x,1/2-y,-z
1/2+x,1/2-y,z
loop_
_atom_site_type_symbol
_atom_site_label
_atom_site_fract_x
_atom_site_fract_y
_atom_site_fract_z
Si Si1 0.878418 0.401486 0.516078
Si Si2 0.561349 0.205198 0.125803
Si Si3 0.844773 0.310098 0.591968
Si Si4 0.681826 0.094295 0.332477
Si Si5 0.754740 0.895561 0.029539
Si Si6 0.389928 0.219884 0.762078
O O1 0.963241 0.500000 0.552124
O O2 0.956807 0.331681 0.573048
O O3 0.530982 0.399646 0.422051
O O4 0.000000 0.388068 0.500000
O O5 0.370938 0.136175 0.049433
O O6 0.559336 0.186273 0.176488
O O7 0.885094 0.201385 0.188870
O O8 0.451358 0.307609 0.091114
O O9 0.500000 0.294158 0.500000
O O10 0.887294 0.391325 0.635290
O O11 0.049580 0.240614 0.668149
O O12 0.552884 0.160072 0.264876
O O13 0.585606 0.000000 0.292999
O O14 0.856193 0.000000 0.054437
O O15 0.500000 0.893791 0.000000
#
# Coordination Sequence:
#
# PCOD9213875 Si02
#       6
#     8   8   8   8   8   8
#     4   9  19  35  56  84 119 163 219 280 327 371
#     4  11  24  44  67 102 140 169 210 276 330 390
#     4  10  22  40  62  87 124 181 228 267 321 387
#     4  10  22  39  59  84 121 168 220 271 323 384
#     4  10  22  45  76 102 132 175 213 255 330 415
#     4  12  24  41  62  97 135 173 213 277 330 375
#
# _framework density 22.154181999999999
#
# number of rings (size 3 to 8) (size 9 to 14) (size 15 to 20)
#    0.000    1.667    3.333    0.500    2.333    6.667 
#    0.000    2.500    0.000    0.000    0.000    0.000 
#    0.000    0.000    0.000    0.000    0.000    0.000 
#
# Total GULP energy -133759.173447 kJ/mol
# GULP energy per Si atom -5573.298894 kJ/mol
# Density = 2.210376 g / cm^3
# Si number density = 22.154182 Si / 1000 Ang^3
#
#
#
# Elastic Constant Matrix: (Units=GPa)
#
#
# Indices 1 2 3 4 5 6 
#
# 1 121.0455 2.6891 28.8655 0.0000 -31.6929 0.0000
# 2 2.6891 88.3288 27.6717 -0.0002 -14.9577 -0.0001
# 3 28.8655 27.6717 87.6779 -0.0002 -23.7028 0.0003
# 4 0.0000 -0.0002 -0.0002 15.9092 0.0003 -3.5960
# 5 -31.6929 -14.9577 -23.7028 0.0003 40.4779 0.0001
# 6 0.0000 -0.0001 0.0003 -3.5960 0.0001 15.0575
#
#
#
# Elastic Compliance Matrix: (Units=1/GPa)
#
#
# Indices 1 2 3 4 5 6 
#
# 1 0.010747 0.001608 -0.001913 0.000000 0.007889 0.000000
# 2 0.001608 0.013069 -0.003574 0.000000 0.003996 0.000000
# 3 -0.001913 -0.003574 0.014734 0.000000 0.005809 0.000000
# 4 0.000000 0.000000 0.000000 0.066443 -0.000001 0.015868
# 5 0.007889 0.003996 0.005809 -0.000001 0.035760 0.000000
# 6 0.000000 0.000000 0.000000 0.015868 0.000000 0.070201
#
#
# Mechanical properties :
#
#
# Convention : Reuss Voigt Hill
#
# Bulk Modulus (GPa) = 32.47622 46.16718 39.32170
# Shear Modulus (GPa) = 21.83642 30.14399 25.99020
#
# Velocity S-wave (km/s) = 3.14292 3.69269 3.42885
# Velocity P-wave (km/s) = 5.27841 6.25025 5.78477
#
# Compressibility (1/GPa) = 0.03079176
#
# Stress axis : x y z
#
# Youngs Moduli (GPa) = 93.04634 76.51936 67.87226
#
# Poissons Ratio (x) = -0.12305 0.12985
# Poissons Ratio (y) = -0.14962 0.24256
# Poissons Ratio (z) = 0.17801 0.27346
#
# Static dielectric constant tensor:
#      x y z
#    x 1.830280 0.000000 0.051960 
#    y 0.000000 1.926620 0.000000 
#    z 0.051960 0.000000 1.804170 
# 
# From -- ./inp_files/373028.got.cif
#   From: 2010.05.17/outbox.cif.g08.bks.cpg/sg12_187_cif.got.tgz:373028.got - 2010.06.03 13:09:07.
