data_PCOD9213957
_publ_section_title
;
Structure prediction by ZEFSAII (Michael W. Deem and Ramdas Pophale) SiO2 
 PCOD9213957
Probable space group: C 2/M
;
_chemical_formula_sum "Si O2"
_cell_formula_units_Z 48
_cell_length_a 30.992861
_cell_length_b 18.031876
_cell_length_c 9.233894
_cell_angle_alpha 90.000000
_cell_angle_beta 28.443110
_cell_angle_gamma 90.000000
_cell_volume 2457.849121
_symmetry_space_group_name_H-M "C 2/M"
_symmetry_group_IT_number 12
_symmetry_cell_setting 'monoclinic'
loop_
_space_group_symop_operation_xyz
x,y,z
-x,y,-z
-x,-y,-z
x,-y,z
1/2+x,1/2+y,z
1/2-x,1/2+y,-z
1/2-x,1/2-y,-z
1/2+x,1/2-y,z
loop_
_atom_site_type_symbol
_atom_site_label
_atom_site_fract_x
_atom_site_fract_y
_atom_site_fract_z
Si Si1 0.716041 0.139384 0.941515
Si Si2 0.587805 0.302817 0.670710
Si Si3 0.074143 0.416439 0.162022
Si Si4 0.092266 0.359438 0.798191
Si Si5 0.239691 0.913838 0.869362
Si Si6 0.406790 0.286922 0.685994
O O1 0.819093 0.153378 0.593595
O O2 0.667206 0.085312 0.975014
O O3 0.717075 0.110581 0.103366
O O4 0.659333 0.216103 0.099016
O O5 0.600145 0.224317 0.715812
O O6 0.571577 0.289127 0.548812
O O7 0.500000 0.339952 0.000000
O O8 0.051905 0.500000 0.178755
O O9 0.000000 0.393927 0.500000
O O10 0.079905 0.364462 0.006376
O O11 0.181984 0.401185 0.480426
O O12 0.000000 0.390793 0.000000
O O13 0.213717 0.000000 0.951752
O O14 0.154558 0.859132 0.096347
O O15 0.500000 0.283754 0.500000
#
# Coordination Sequence:
#
# PCOD9213957 Si02
#       6
#     8   8   8   8   8   8
#     4  11  21  41  63  89 121 161 205 253 303 360
#     4  10  22  39  60  91 122 153 203 254 305 353
#     4  11  25  39  57  91 128 163 198 245 309 371
#     4  11  22  38  60  89 122 157 202 250 302 364
#     4  11  22  41  65  90 124 165 203 249 306 365
#     4  11  23  40  63  92 125 159 206 255 302 360
#
# _framework density 19.529271000000001
#
# number of rings (size 3 to 8) (size 9 to 14) (size 15 to 20)
#    0.000    1.167    3.333    3.500    7.000    5.000 
#    0.000    0.000    0.000   12.500    0.000    0.000 
#    0.000    0.000    0.000    0.000    0.000    0.000 
#
# Total GULP energy -134124.400645 kJ/mol
# GULP energy per Si atom -5588.516694 kJ/mol
# Density = 1.948482 g / cm^3
# Si number density = 19.529271 Si / 1000 Ang^3
#
#
#
# Elastic Constant Matrix: (Units=GPa)
#
#
# Indices 1 2 3 4 5 6 
#
# 1 99.0492 13.4347 57.2619 0.0000 -3.0078 0.0000
# 2 13.4347 89.5182 33.1686 0.0000 2.6086 0.0000
# 3 57.2619 33.1686 143.4277 0.0000 8.1519 0.0000
# 4 0.0000 0.0000 0.0000 21.3035 0.0000 2.6216
# 5 -3.0078 2.6086 8.1519 0.0000 30.2058 0.0000
# 6 0.0000 0.0000 0.0000 2.6216 0.0000 14.4644
#
#
#
# Elastic Compliance Matrix: (Units=1/GPa)
#
#
# Indices 1 2 3 4 5 6 
#
# 1 0.013357 -0.000056 -0.005479 0.000000 0.002814 0.000000
# 2 -0.000056 0.012221 -0.002786 0.000000 -0.000309 0.000000
# 3 -0.005479 -0.002786 0.009974 0.000000 -0.002997 0.000000
# 4 0.000000 0.000000 0.000000 0.048011 0.000000 -0.008702
# 5 0.002814 -0.000309 -0.002997 0.000000 0.034222 0.000000
# 6 0.000000 0.000000 0.000000 -0.008702 0.000000 0.070712
#
#
# Mechanical properties :
#
#
# Convention : Reuss Voigt Hill
#
# Bulk Modulus (GPa) = 52.88695 59.96950 56.42823
# Shear Modulus (GPa) = 23.64691 28.40340 26.02516
#
# Velocity S-wave (km/s) = 3.48349 3.81780 3.65447
# Velocity P-wave (km/s) = 6.58174 7.08578 6.83841
#
# Compressibility (1/GPa) = 0.01890826
#
# Stress axis : x y z
#
# Youngs Moduli (GPa) = 74.86805 81.82857 100.25665
#
# Poissons Ratio (x) = 0.00461 0.54935
# Poissons Ratio (y) = 0.00421 0.27932
# Poissons Ratio (z) = 0.41024 0.22798
#
# Static dielectric constant tensor:
#      x y z
#    x 1.676080 0.000000 -0.008260 
#    y 0.000000 1.701030 0.000000 
#    z -0.008260 0.000000 1.693540 
# 
# From -- ./inp_files/112722.got.cif
#   From: 2010.05.17/outbox.cif.g08.bks.cpg/sg12_57_cif.got.tgz:112722.got - 2010.06.03 13:09:07.
