data_PCOD9213015
_publ_section_title
;
Structure prediction by ZEFSAII (Michael W. Deem and Ramdas Pophale) SiO2 
 PCOD9213015
Probable space group: C 2/M
;
_chemical_formula_sum "Si O2"
_cell_formula_units_Z 36
_cell_length_a 12.025324
_cell_length_b 9.193481
_cell_length_c 19.948403
_cell_angle_alpha 90.000000
_cell_angle_beta 127.072391
_cell_angle_gamma 90.000000
_cell_volume 1759.622430
_symmetry_space_group_name_H-M "C 2/M"
_symmetry_group_IT_number 12
_symmetry_cell_setting 'monoclinic'
loop_
_space_group_symop_operation_xyz
x,y,z
-x,y,-z
-x,-y,-z
x,-y,z
1/2+x,1/2+y,z
1/2-x,1/2+y,-z
1/2-x,1/2-y,-z
1/2+x,1/2-y,z
loop_
_atom_site_type_symbol
_atom_site_label
_atom_site_fract_x
_atom_site_fract_y
_atom_site_fract_z
Si Si1 0.229799 0.000000 0.097454
Si Si2 0.000000 0.742099 0.500000
Si Si3 0.435198 0.500000 0.686127
Si Si4 0.452199 0.750000 0.202199
Si Si5 0.437057 0.000000 0.686127
Si Si6 0.175067 0.000000 0.500000
Si Si7 0.143810 0.500000 0.643811
Si Si8 0.965108 0.000000 0.097454
O O1 0.321979 0.855790 0.143233
O O2 0.100464 0.000000 0.100464
O O3 0.168061 0.000000 0.000000
O O4 0.081802 0.639492 0.581803
O O5 0.103120 0.852739 0.500001
O O6 0.536436 0.637498 0.731854
O O7 0.345939 0.500000 0.586583
O O8 0.311557 0.500000 0.697413
O O9 0.572727 0.862502 0.268146
O O10 0.464487 0.644210 0.143233
O O11 0.327229 0.000000 0.586583
O O12 0.583270 0.000000 0.697414
#
# Coordination Sequence:
#
# PCOD9213015 Si02
#       8
#     4   4   4   8   4   4   4   4
#     4  10  22  45  73  98 130 167 206 260 330 401
#     4  10  22  36  56  82 112 166 230 276 308 366
#     4  11  23  39  61  88 130 171 218 270 314 367
#     4  10  23  39  64 102 126 170 210 271 313 388
#     4  11  23  39  61  88 130 171 218 270 314 367
#     4  11  22  41  52  86 130 173 222 265 312 370
#     4  11  22  36  60  82 111 170 222 264 319 372
#     4  10  22  45  73  98 130 167 206 260 330 401
#
# _framework density 20.458933999999999
#
# number of rings (size 3 to 8) (size 9 to 14) (size 15 to 20)
#    0.000    1.556    0.000    4.667    6.222    2.667 
#    8.000    3.333    0.000   12.000    0.000    0.000 
#    0.000    0.000    0.000    0.000    0.000    0.000 
#
# Total GULP energy -100446.525893 kJ/mol
# GULP energy per Si atom -5580.362550 kJ/mol
# Density = 2.041237 g / cm^3
# Si number density = 20.458934 Si / 1000 Ang^3
#
#
#
# Elastic Constant Matrix: (Units=GPa)
#
#
# Indices 1 2 3 4 5 6 
#
# 1 71.5079 32.4184 42.1043 0.0000 0.7316 0.0000
# 2 32.4184 175.2160 70.7211 0.0000 1.6893 0.0000
# 3 42.1043 70.7211 179.7030 0.0000 4.0401 0.0000
# 4 0.0000 0.0000 0.0000 37.9951 0.0000 1.3771
# 5 0.7316 1.6893 4.0401 0.0000 23.1464 0.0000
# 6 0.0000 0.0000 0.0000 1.3771 0.0000 6.7709
#
#
#
# Elastic Compliance Matrix: (Units=1/GPa)
#
#
# Indices 1 2 3 4 5 6 
#
# 1 0.016684 -0.001794 -0.003207 0.000000 0.000163 0.000000
# 2 -0.001794 0.006978 -0.002325 0.000000 -0.000047 0.000000
# 3 -0.003207 -0.002325 0.007253 0.000000 -0.000995 0.000000
# 4 0.000000 0.000000 0.000000 0.026515 0.000000 -0.005393
# 5 0.000163 -0.000047 -0.000995 0.000000 0.043375 0.000000
# 6 0.000000 0.000000 0.000000 -0.005393 0.000000 0.148789
#
#
# Mechanical properties :
#
#
# Convention : Reuss Voigt Hill
#
# Bulk Modulus (GPa) = 61.48407 79.65718 70.57062
# Shear Modulus (GPa) = 18.54141 32.32800 25.43470
#
# Velocity S-wave (km/s) = 3.01371 3.97941 3.52974
# Velocity P-wave (km/s) = 6.49827 7.75461 7.15407
#
# Compressibility (1/GPa) = 0.01626438
#
# Stress axis : x y z
#
# Youngs Moduli (GPa) = 59.93646 143.30835 137.86807
#
# Poissons Ratio (x) = 0.25713 0.44210
# Poissons Ratio (y) = 0.10754 0.32050
# Poissons Ratio (z) = 0.19220 0.33315
#
# Static dielectric constant tensor:
#      x y z
#    x 1.755990 0.000000 0.000730 
#    y 0.000000 1.766740 0.000000 
#    z 0.000730 0.000000 1.772570 
# 
# From -- ./inp_files/303503.got.cif
#   From: 2010.05.17/outbox.cif.g08.bks.cpg/sg12_152_cif.got.tgz:303503.got - 2010.06.03 13:09:07.
