data_PCOD9213103
_publ_section_title
;
Structure prediction by ZEFSAII (Michael W. Deem and Ramdas Pophale) SiO2 
 PCOD9213103
Probable space group: C 2/M
;
_chemical_formula_sum "Si O2"
_cell_formula_units_Z 40
_cell_length_a 25.719293
_cell_length_b 13.950222
_cell_length_c 19.598786
_cell_angle_alpha 90.000000
_cell_angle_beta 19.113939
_cell_angle_gamma 90.000000
_cell_volume 2302.562160
_symmetry_space_group_name_H-M "C 2/M"
_symmetry_group_IT_number 12
_symmetry_cell_setting 'monoclinic'
loop_
_space_group_symop_operation_xyz
x,y,z
-x,y,-z
-x,-y,-z
x,-y,z
1/2+x,1/2+y,z
1/2-x,1/2+y,-z
1/2-x,1/2-y,-z
1/2+x,1/2-y,z
loop_
_atom_site_type_symbol
_atom_site_label
_atom_site_fract_x
_atom_site_fract_y
_atom_site_fract_z
Si Si1 0.553091 0.611833 0.151828
Si Si2 0.598183 0.890198 0.309201
Si Si3 0.441149 0.248932 0.395674
Si Si4 0.697445 0.887853 0.549216
Si Si5 0.846753 0.613198 0.237360
O O1 0.543692 0.500000 0.182504
O O2 0.556638 0.676776 0.214423
O O3 0.386655 0.632451 0.320663
O O4 0.714681 0.627033 0.910504
O O5 0.500000 0.884448 0.500000
O O6 0.527684 0.814288 0.344269
O O7 0.583589 0.000000 0.300811
O O8 0.376650 0.178396 0.416448
O O9 0.295638 0.314048 0.603623
O O10 0.628619 0.872904 0.711277
O O11 0.676937 0.000000 0.557910
O O12 0.802498 0.500000 0.284343
O O13 0.000000 0.630217 0.000000
#
# Coordination Sequence:
#
# PCOD9213103 Si02
#       5
#     8   8   8   8   8
#     4   9  18  34  52  71 100 133 162 198 248 299
#     4  10  22  37  50  69 101 135 165 204 253 295
#     4  11  19  31  55  78  96 127 172 209 238 287
#     4   9  18  32  52  77 102 129 164 204 243 289
#     4   9  18  32  50  76 108 133 155 196 253 298
#
# _framework density 17.371953000000001
#
# number of rings (size 3 to 8) (size 9 to 14) (size 15 to 20)
#    0.000    2.400    0.000    5.400    0.000    3.200 
#    0.000    0.000    0.000    8.400    0.000    0.000 
#    0.000    0.000    0.000    0.000    0.000    0.000 
#
# Total GULP energy -111476.131259 kJ/mol
# GULP energy per Si atom -5573.806563 kJ/mol
# Density = 1.733241 g / cm^3
# Si number density = 17.371953 Si / 1000 Ang^3
#
#
#
# Elastic Constant Matrix: (Units=GPa)
#
#
# Indices 1 2 3 4 5 6 
#
# 1 44.7602 17.8412 22.3272 0.0002 -5.3318 0.0000
# 2 17.8412 48.3582 16.1785 0.0001 -2.6024 0.0001
# 3 22.3272 16.1785 122.5000 0.0002 15.0126 0.0001
# 4 0.0002 0.0001 0.0002 10.9673 -0.0001 6.0702
# 5 -5.3318 -2.6024 15.0126 -0.0001 7.5655 -0.0001
# 6 0.0000 0.0001 0.0001 6.0702 -0.0001 28.1210
#
#
#
# Elastic Compliance Matrix: (Units=1/GPa)
#
#
# Indices 1 2 3 4 5 6 
#
# 1 0.036164 -0.007166 -0.011187 0.000000 0.045220 0.000000
# 2 -0.007166 0.024922 -0.003194 0.000000 0.009860 0.000000
# 3 -0.011187 -0.003194 0.015492 0.000000 -0.039724 0.000000
# 4 0.000000 0.000000 0.000000 0.103552 0.000001 -0.022353
# 5 0.045220 0.009860 -0.039724 0.000001 0.246265 0.000000
# 6 0.000000 0.000000 0.000000 -0.022353 0.000000 0.040386
#
#
# Mechanical properties :
#
#
# Convention : Reuss Voigt Hill
#
# Bulk Modulus (GPa) = 29.86380 36.47913 33.17146
# Shear Modulus (GPa) = 9.59625 19.94887 14.77256
#
# Velocity S-wave (km/s) = 2.35287 3.39239 2.91927
# Velocity P-wave (km/s) = 4.96079 6.03232 5.52260
#
# Compressibility (1/GPa) = 0.03348536
#
# Stress axis : x y z
#
# Youngs Moduli (GPa) = 27.65144 40.12522 64.54836
#
# Poissons Ratio (x) = 0.28755 0.72209
# Poissons Ratio (y) = 0.19816 0.20614
# Poissons Ratio (z) = 0.30933 0.12814
#
# Static dielectric constant tensor:
#      x y z
#    x 1.557360 0.000000 -0.006200 
#    y 0.000000 1.615970 0.000000 
#    z -0.006200 0.000000 1.606010 
# 
# From -- ./inp_files/59095.got.cif
#   From: 2010.05.17/outbox.cif.g08.bks.cpg/sg12_30_cif.got.tgz:59095.got - 2010.06.03 13:09:07.
