data_PCOD9213869
_publ_section_title
;
Structure prediction by ZEFSAII (Michael W. Deem and Ramdas Pophale) SiO2 
 PCOD9213869
Probable space group: C 2/M
;
_chemical_formula_sum "Si O2"
_cell_formula_units_Z 56
_cell_length_a 24.365185
_cell_length_b 7.852651
_cell_length_c 16.067169
_cell_angle_alpha 90.000000
_cell_angle_beta 60.473885
_cell_angle_gamma 90.000000
_cell_volume 2674.915663
_symmetry_space_group_name_H-M "C 2/M"
_symmetry_group_IT_number 12
_symmetry_cell_setting 'monoclinic'
loop_
_space_group_symop_operation_xyz
x,y,z
-x,y,-z
-x,-y,-z
x,-y,z
1/2+x,1/2+y,z
1/2-x,1/2+y,-z
1/2-x,1/2-y,-z
1/2+x,1/2-y,z
loop_
_atom_site_type_symbol
_atom_site_label
_atom_site_fract_x
_atom_site_fract_y
_atom_site_fract_z
Si Si1 0.437265 0.801077 0.856801
Si Si2 0.803527 0.705856 0.027260
Si Si3 0.729940 0.705625 0.422229
Si Si4 0.312296 0.799375 0.206719
Si Si5 0.539020 0.706108 0.344154
Si Si6 0.044039 0.198300 0.893152
Si Si7 0.408808 0.707545 0.516785
O O1 0.434006 0.778721 0.760587
O O2 0.500480 0.714890 0.844480
O O3 0.442475 0.000000 0.873740
O O4 0.372858 0.733196 0.946100
O O5 0.806380 0.500000 0.027754
O O6 0.792951 0.769122 0.129812
O O7 0.750000 0.750000 0.000000
O O8 0.729273 0.500000 0.417569
O O9 0.750000 0.750000 0.500000
O O10 0.775507 0.770959 0.314444
O O11 0.659059 0.768404 0.460093
O O12 0.387461 0.780823 0.161962
O O13 0.297617 0.000000 0.214762
O O14 0.540879 0.500000 0.337355
O O15 0.466716 0.760016 0.414845
O O16 0.576040 0.757132 0.399770
O O17 0.055513 0.000000 0.902556
O O18 0.000000 0.270034 0.000000
O O19 0.409211 0.500000 0.515571
#
# Coordination Sequence:
#
# PCOD9213869 Si02
#       7
#     8   8   8   8   8   8   8
#     4  11  23  38  58  87 122 154 186 236 298 351
#     4  10  23  40  60  87 121 158 195 237 287 348
#     4  10  22  39  59  84 116 156 199 241 290 349
#     4  10  22  41  62  85 118 162 198 238 300 356
#     4   9  18  35  61  87 111 147 194 243 289 341
#     4  11  23  39  61  87 113 148 196 245 288 342
#     4   8  17  36  59  83 113 148 192 243 292 339
#
# _framework density 20.935238999999999
#
# number of rings (size 3 to 8) (size 9 to 14) (size 15 to 20)
#    0.000    2.143    1.429    1.714    4.000    2.857 
#    0.000    2.143    0.000    0.000    0.000    0.000 
#    0.000    0.000    0.000    0.000    0.000    0.000 
#
# Total GULP energy -156358.380357 kJ/mol
# GULP energy per Si atom -5584.227870 kJ/mol
# Density = 2.088759 g / cm^3
# Si number density = 20.935239 Si / 1000 Ang^3
#
#
#
# Elastic Constant Matrix: (Units=GPa)
#
#
# Indices 1 2 3 4 5 6 
#
# 1 146.7750 0.3556 76.3032 0.0000 -2.2892 -0.0001
# 2 0.3556 24.6150 8.8012 -0.0001 0.5426 -0.0003
# 3 76.3032 8.8012 159.6122 0.0000 11.3703 0.0000
# 4 0.0000 -0.0001 0.0000 23.2158 0.0000 6.0370
# 5 -2.2892 0.5426 11.3703 0.0000 19.3651 0.0000
# 6 -0.0001 -0.0003 0.0000 6.0370 0.0000 19.1719
#
#
#
# Elastic Compliance Matrix: (Units=1/GPa)
#
#
# Indices 1 2 3 4 5 6 
#
# 1 0.009394 0.001513 -0.004853 0.000000 0.003918 0.000000
# 2 0.001513 0.041687 -0.003080 0.000000 0.000820 0.000001
# 3 -0.004853 -0.003080 0.009174 0.000000 -0.005874 0.000000
# 4 0.000000 0.000000 0.000000 0.046916 0.000000 -0.014773
# 5 0.003918 0.000820 -0.005874 0.000000 0.055528 0.000000
# 6 0.000000 0.000001 0.000000 -0.014773 0.000000 0.056812
#
#
# Mechanical properties :
#
#
# Convention : Reuss Voigt Hill
#
# Bulk Modulus (GPa) = 21.09109 55.76915 38.43012
# Shear Modulus (GPa) = 20.14870 28.72004 24.43437
#
# Velocity S-wave (km/s) = 3.10567 3.70787 3.42005
# Velocity P-wave (km/s) = 4.79130 6.71027 5.83028
#
# Compressibility (1/GPa) = 0.04741339
#
# Stress axis : x y z
#
# Youngs Moduli (GPa) = 106.45585 23.98824 109.00928
#
# Poissons Ratio (x) = -0.03630 0.52904
# Poissons Ratio (y) = -0.16109 0.33580
# Poissons Ratio (z) = 0.51665 0.07389
#
# Static dielectric constant tensor:
#      x y z
#    x 1.727890 0.000000 0.002880 
#    y 0.000000 1.778490 0.000000 
#    z 0.002880 0.000000 1.746830 
# 
# From -- ./inp_files/238258.got.cif
#   From: 2010.05.17/outbox.cif.g08.bks.cpg/sg12_120_cif.got.tgz:238258.got - 2010.06.03 13:09:07.
