data_PCOD9213587
_publ_section_title
;
Structure prediction by ZEFSAII (Michael W. Deem and Ramdas Pophale) SiO2 
 PCOD9213587
Probable space group: C 2/M
;
_chemical_formula_sum "Si O2"
_cell_formula_units_Z 50
_cell_length_a 13.429078
_cell_length_b 25.725558
_cell_length_c 5.813991
_cell_angle_alpha 90.000000
_cell_angle_beta 101.189656
_cell_angle_gamma 90.000000
_cell_volume 1970.380163
_symmetry_space_group_name_H-M "C 2/M"
_symmetry_group_IT_number 12
_symmetry_cell_setting 'monoclinic'
loop_
_space_group_symop_operation_xyz
x,y,z
-x,y,-z
-x,-y,-z
x,-y,z
1/2+x,1/2+y,z
1/2-x,1/2+y,-z
1/2-x,1/2-y,-z
1/2+x,1/2-y,z
loop_
_atom_site_type_symbol
_atom_site_label
_atom_site_fract_x
_atom_site_fract_y
_atom_site_fract_z
Si Si1 0.900537 0.896511 0.345798
Si Si2 0.339011 0.253635 0.777488
Si Si3 0.932704 0.406364 0.771523
Si Si4 0.500000 0.000000 0.500000
Si Si5 0.377977 0.719537 0.290958
Si Si6 0.737342 0.943335 0.985234
Si Si7 0.775062 0.640600 0.395218
O O1 0.924955 0.837532 0.275006
O O2 0.849532 0.930524 0.126704
O O3 0.816674 0.885260 0.502632
O O4 0.000000 0.920336 0.500000
O O5 0.399165 0.257053 0.559170
O O6 0.246332 0.212224 0.742240
O O7 0.270756 0.306716 0.731983
O O8 0.391620 0.252042 0.050898
O O9 0.837052 0.437470 0.833318
O O10 0.880363 0.363472 0.584392
O O11 0.996797 0.453021 0.690969
O O12 0.000000 0.380890 0.000000
O O13 0.729697 0.000000 0.873073
O O14 0.705792 0.898139 0.803653
#
# Coordination Sequence:
#
# PCOD9213587 Si02
#       7
#     8   8   8   2   8   8   8
#     4  10  22  40  61  88 125 169 218 264 312 373
#     4   9  17  34  62  90 121 159 204 259 322 377
#     4  11  24  38  61  90 123 161 206 255 319 394
#     4  12  22  40  60  90 114 164 198 262 314 392
#     4   9  17  34  61  92 118 158 211 260 316 382
#     4  11  23  40  60  89 122 162 212 260 316 384
#     4  10  22  38  61  90 125 168 208 261 318 383
#
# _framework density 25.375816
#
# number of rings (size 3 to 8) (size 9 to 14) (size 15 to 20)
#    0.000    1.920    2.400    1.200    3.360    1.600 
#    0.000    0.800    5.280    0.000    0.000    0.000 
#    0.000    0.000    0.000    0.000    0.000    0.000 
#
# Total GULP energy -139349.504802 kJ/mol
# GULP energy per Si atom -5573.980192 kJ/mol
# Density = 2.531806 g / cm^3
# Si number density = 25.375816 Si / 1000 Ang^3
#
#
#
# Elastic Constant Matrix: (Units=GPa)
#
#
# Indices 1 2 3 4 5 6 
#
# 1 61.5528 12.7665 31.3546 0.0000 19.4347 0.0000
# 2 12.7665 86.6515 10.6550 0.0000 5.3219 0.0000
# 3 31.3546 10.6550 157.8769 0.0000 12.3553 0.0000
# 4 0.0000 0.0000 0.0000 25.9695 0.0000 3.3907
# 5 19.4347 5.3219 12.3553 0.0000 42.1184 0.0000
# 6 0.0000 0.0000 0.0000 3.3907 0.0000 13.7930
#
#
#
# Elastic Compliance Matrix: (Units=1/GPa)
#
#
# Indices 1 2 3 4 5 6 
#
# 1 0.021091 -0.002172 -0.003380 0.000000 -0.008466 0.000000
# 2 -0.002172 0.011927 -0.000342 0.000000 -0.000405 0.000000
# 3 -0.003380 -0.000342 0.007065 0.000000 -0.000470 0.000000
# 4 0.000000 0.000000 0.000000 0.039784 0.000000 -0.009780
# 5 -0.008466 -0.000405 -0.000470 0.000000 0.027838 0.000000
# 6 0.000000 0.000000 0.000000 -0.009780 0.000000 0.074905
#
#
# Mechanical properties :
#
#
# Convention : Reuss Voigt Hill
#
# Bulk Modulus (GPa) = 35.33952 46.18147 40.76049
# Shear Modulus (GPa) = 24.53025 33.12984 28.83005
#
# Velocity S-wave (km/s) = 3.11252 3.61718 3.37430
# Velocity P-wave (km/s) = 5.18399 5.97360 5.59274
#
# Compressibility (1/GPa) = 0.02829694
#
# Stress axis : x y z
#
# Youngs Moduli (GPa) = 47.41263 83.84086 141.54083
#
# Poissons Ratio (x) = 0.18209 0.47836
# Poissons Ratio (y) = 0.10297 0.04840
# Poissons Ratio (z) = 0.16024 0.02867
#
# Static dielectric constant tensor:
#      x y z
#    x 2.040920 0.000000 -0.007810 
#    y 0.000000 2.029130 0.000000 
#    z -0.007810 0.000000 2.112840 
# 
# From -- ./inp_files/13200.got.cif
#   From: 2010.05.17/outbox.cif.g08.bks.cpg/sg12_7_cif.got.tgz:13200.got - 2010.06.03 13:09:07.
