data_PCOD9213867
_publ_section_title
;
Structure prediction by ZEFSAII (Michael W. Deem and Ramdas Pophale) SiO2 
 PCOD9213867
Probable space group: C 2/M
;
_chemical_formula_sum "Si O2"
_cell_formula_units_Z 48
_cell_length_a 9.570539
_cell_length_b 30.527546
_cell_length_c 18.601035
_cell_angle_alpha 90.000000
_cell_angle_beta 29.595911
_cell_angle_gamma 90.000000
_cell_volume 2684.025739
_symmetry_space_group_name_H-M "C 2/M"
_symmetry_group_IT_number 12
_symmetry_cell_setting 'monoclinic'
loop_
_space_group_symop_operation_xyz
x,y,z
-x,y,-z
-x,-y,-z
x,-y,z
1/2+x,1/2+y,z
1/2-x,1/2+y,-z
1/2-x,1/2-y,-z
1/2+x,1/2-y,z
loop_
_atom_site_type_symbol
_atom_site_label
_atom_site_fract_x
_atom_site_fract_y
_atom_site_fract_z
Si Si1 0.831022 0.676918 0.146877
Si Si2 0.667018 0.084054 0.149406
Si Si3 0.314050 0.741117 0.389060
Si Si4 0.655046 0.183926 0.151162
Si Si5 0.352329 0.073892 0.140757
Si Si6 0.485024 0.500000 0.637162
Si Si7 0.586942 0.000000 0.671462
O O1 0.534530 0.701498 0.284027
O O2 0.775138 0.624877 0.167647
O O3 0.032145 0.687302 0.125086
O O4 0.000000 0.690387 0.000000
O O5 0.580064 0.133805 0.207482
O O6 0.560457 0.072947 0.116619
O O7 0.571184 0.045711 0.245173
O O8 0.000000 0.084571 0.000000
O O9 0.250000 0.750000 0.500000
O O10 0.479902 0.781511 0.276927
O O11 0.000000 0.732999 0.500000
O O12 0.000000 0.189741 0.000000
O O13 0.099708 0.042067 0.277921
O O14 0.500000 0.059951 0.000000
O O15 0.298441 0.500000 0.646529
O O16 0.787997 0.500000 0.464505
#
# Coordination Sequence:
#
# PCOD9213867 Si02
#       7
#     8   8   8   8   8   4   4
#     4  10  22  39  60  83 112 150 191 232 277 335
#     4   9  18  34  56  82 108 140 183 226 269 316
#     4  12  25  40  57  84 114 149 186 232 290 338
#     4  10  22  39  59  84 113 149 190 234 278 330
#     4   9  18  34  57  81 106 143 185 224 265 322
#     4   9  17  30  53  81 112 141 182 216 272 323
#     4   9  17  30  51  85 110 143 174 224 267 326
#
# _framework density 17.883583000000002
#
# number of rings (size 3 to 8) (size 9 to 14) (size 15 to 20)
#    0.000    2.167    1.667    1.000    2.333    2.667 
#    3.000    0.000    0.000    1.000    0.000    0.000 
#    0.000    0.000    0.000    0.000    0.000    0.000 
#
# Total GULP energy -133691.078781 kJ/mol
# GULP energy per Si atom -5570.461616 kJ/mol
# Density = 1.784288 g / cm^3
# Si number density = 17.883583 Si / 1000 Ang^3
#
#
#
# Elastic Constant Matrix: (Units=GPa)
#
#
# Indices 1 2 3 4 5 6 
#
# 1 76.9842 50.9552 61.1674 0.0000 2.5826 0.0000
# 2 50.9552 102.6460 82.0320 0.0000 11.6154 0.0000
# 3 61.1674 82.0320 133.3692 -0.0001 16.4922 0.0000
# 4 0.0000 0.0000 -0.0001 0.5618 0.0000 -8.1543
# 5 2.5826 11.6154 16.4922 0.0000 39.2635 0.0000
# 6 0.0000 0.0000 0.0000 -8.1543 0.0000 21.5747
#
#
#
# Elastic Compliance Matrix: (Units=1/GPa)
#
#
# Indices 1 2 3 4 5 6 
#
# 1 0.022345 -0.005799 -0.007079 0.000000 0.003219 0.000000
# 2 -0.005799 0.020687 -0.009867 0.000000 -0.001594 0.000000
# 3 -0.007079 -0.009867 0.017294 -0.000001 -0.003879 0.000000
# 4 0.000000 0.000000 -0.000001 -0.396797 0.000000 -0.149973
# 5 0.003219 -0.001594 -0.003879 0.000000 0.027358 0.000000
# 6 0.000000 0.000000 0.000000 -0.149973 0.000000 -0.010333
#
#
# Mechanical properties :
#
#
# Convention : Reuss Voigt Hill
#
# Bulk Modulus (GPa) = 67.41230 77.92318 72.66774
# Shear Modulus (GPa) = -18.58666 20.20299 0.80816
#
# Velocity S-wave (km/s) = -3.22734 3.36474 0.67297
# Velocity P-wave (km/s) = 4.88767 7.66566 6.42852
#
# Compressibility (1/GPa) = 0.01483409
#
# Stress axis : x y z
#
# Youngs Moduli (GPa) = 44.75298 48.33937 57.82464
#
# Poissons Ratio (x) = 0.28032 0.40936
# Poissons Ratio (y) = 0.25953 0.57058
# Poissons Ratio (z) = 0.31682 0.47698
#
# Static dielectric constant tensor:
#      x y z
#    x 1.575460 0.000000 0.011110 
#    y 0.000000 1.662990 0.000000 
#    z 0.011110 0.000000 1.572020 
# 
# From -- ./inp_files/260263.got.cif
#   From: 2010.05.17/outbox.cif.g08.bks.cpg/sg12_131_cif.got.tgz:260263.got - 2010.06.03 13:09:07.
