data_PCOD9213675
_publ_section_title
;
Structure prediction by ZEFSAII (Michael W. Deem and Ramdas Pophale) SiO2 
 PCOD9213675
Probable space group: C 2/M
;
_chemical_formula_sum "Si O2"
_cell_formula_units_Z 56
_cell_length_a 11.298315
_cell_length_b 19.767672
_cell_length_c 12.294752
_cell_angle_alpha 90.000000
_cell_angle_beta 112.155960
_cell_angle_gamma 90.000000
_cell_volume 2543.169716
_symmetry_space_group_name_H-M "C 2/M"
_symmetry_group_IT_number 12
_symmetry_cell_setting 'monoclinic'
loop_
_space_group_symop_operation_xyz
x,y,z
-x,y,-z
-x,-y,-z
x,-y,z
1/2+x,1/2+y,z
1/2-x,1/2+y,-z
1/2-x,1/2-y,-z
1/2+x,1/2-y,z
loop_
_atom_site_type_symbol
_atom_site_label
_atom_site_fract_x
_atom_site_fract_y
_atom_site_fract_z
Si Si1 0.882595 0.924631 0.693318
Si Si2 0.546212 0.307452 0.640081
Si Si3 0.466768 0.177296 0.722319
Si Si4 0.875999 0.576727 0.532143
Si Si5 0.693099 0.770803 0.152915
Si Si6 0.385713 0.111513 0.036348
Si Si7 0.348784 0.381789 0.922943
O O1 0.751317 0.918601 0.581579
O O2 0.843902 0.917651 0.805289
O O3 0.972983 0.863826 0.686088
O O4 0.937416 0.000000 0.692567
O O5 0.500000 0.322292 0.500000
O O6 0.515571 0.227985 0.647772
O O7 0.688934 0.304294 0.740880
O O8 0.368762 0.128752 0.628003
O O9 0.415786 0.229387 0.794037
O O10 0.554663 0.128099 0.824737
O O11 0.890418 0.500000 0.577895
O O12 0.000000 0.590490 0.500000
O O13 0.703345 0.695224 0.111716
O O14 0.648545 0.820960 0.043340
O O15 0.244469 0.084020 0.019584
O O16 0.500000 0.079961 0.000000
O O17 0.500000 0.378295 0.000000
#
# Coordination Sequence:
#
# PCOD9213675 Si02
#       7
#     8   8   8   8   8   8   8
#     4  11  26  45  64  94 135 183 228 276 344 412
#     4  12  25  39  65  99 134 174 223 292 335 397
#     4  11  21  37  64  95 129 167 224 280 333 393
#     4  10  22  40  63  90 127 174 218 268 338 412
#     4  11  23  38  61  99 131 171 216 272 351 395
#     4  10  22  38  63  99 136 177 214 273 342 410
#     4  12  22  39  69  97 136 178 229 283 336 409
#
# _framework density 22.019765
#
# number of rings (size 3 to 8) (size 9 to 14) (size 15 to 20)
#    0.000    1.000    2.857    4.714    2.000    1.714 
#    0.000    0.714    0.000    8.571    0.000    0.000 
#    0.000    0.000    0.000    0.000    0.000    0.000 
#
# Total GULP energy -156041.009411 kJ/mol
# GULP energy per Si atom -5572.893193 kJ/mol
# Density = 2.196965 g / cm^3
# Si number density = 22.019765 Si / 1000 Ang^3
#
#
#
# Elastic Constant Matrix: (Units=GPa)
#
#
# Indices 1 2 3 4 5 6 
#
# 1 104.0878 13.5888 22.2231 0.0000 -0.5959 0.0000
# 2 13.5888 78.1514 34.5522 0.0000 3.3322 0.0000
# 3 22.2231 34.5522 111.9090 0.0000 3.3307 0.0000
# 4 0.0000 0.0000 0.0000 -63.0692 0.0000 -9.9749
# 5 -0.5959 3.3322 3.3307 0.0000 29.3160 0.0000
# 6 0.0000 0.0000 0.0000 -9.9749 0.0000 11.5347
#
#
#
# Elastic Compliance Matrix: (Units=1/GPa)
#
#
# Indices 1 2 3 4 5 6 
#
# 1 0.010108 -0.001025 -0.001706 0.000000 0.000516 0.000000
# 2 -0.001025 0.014962 -0.004380 0.000000 -0.001224 0.000000
# 3 -0.001706 -0.004380 0.010649 0.000000 -0.000747 0.000000
# 4 0.000000 0.000000 0.000000 -0.013948 0.000000 -0.012062
# 5 0.000516 -0.001224 -0.000747 0.000000 0.034345 0.000000
# 6 0.000000 0.000000 0.000000 -0.012062 0.000000 0.076264
#
#
# Mechanical properties :
#
#
# Convention : Reuss Voigt Hill
#
# Bulk Modulus (GPa) = 46.51654 48.31959 47.41807
# Shear Modulus (GPa) = 32.51618 10.47526 21.49572
#
# Velocity S-wave (km/s) = 3.84693 2.18347 3.12781
# Velocity P-wave (km/s) = 6.39551 5.32429 5.88433
#
# Compressibility (1/GPa) = 0.02149773
#
# Stress axis : x y z
#
# Youngs Moduli (GPa) = 98.92817 66.83391 93.90474
#
# Poissons Ratio (x) = 0.06853 0.16021
# Poissons Ratio (y) = 0.10143 0.41127
# Poissons Ratio (z) = 0.16878 0.29271
#
# Static dielectric constant tensor:
#      x y z
#    x 2.315740 0.000000 -0.094900 
#    y 0.000000 1.759420 0.000000 
#    z -0.094900 0.000000 1.807170 
# 
# From -- ./inp_files/133995.got.cif
#   From: 2010.05.17/outbox.cif.g08.bks.cpg/sg12_67_cif.got.tgz:133995.got - 2010.06.03 13:09:07.
