data_PCOD9213326
_publ_section_title
;
Structure prediction by ZEFSAII (Michael W. Deem and Ramdas Pophale) SiO2 
 PCOD9213326
Probable space group: C 2/M
;
_chemical_formula_sum "Si O2"
_cell_formula_units_Z 64
_cell_length_a 14.505002
_cell_length_b 7.806077
_cell_length_c 25.147765
_cell_angle_alpha 90.000000
_cell_angle_beta 90.505558
_cell_angle_gamma 90.000000
_cell_volume 2847.299230
_symmetry_space_group_name_H-M "C 2/M"
_symmetry_group_IT_number 12
_symmetry_cell_setting 'monoclinic'
loop_
_space_group_symop_operation_xyz
x,y,z
-x,y,-z
-x,-y,-z
x,-y,z
1/2+x,1/2+y,z
1/2-x,1/2+y,-z
1/2-x,1/2-y,-z
1/2+x,1/2-y,z
loop_
_atom_site_type_symbol
_atom_site_label
_atom_site_fract_x
_atom_site_fract_y
_atom_site_fract_z
Si Si1 0.114679 0.802345 0.734698
Si Si2 0.349334 0.706739 0.647535
Si Si3 0.907792 0.702616 0.757257
Si Si4 0.443458 0.294992 0.374386
Si Si5 0.782458 0.706501 0.941472
Si Si6 0.557483 0.205897 0.126667
Si Si7 0.149644 0.202378 0.848672
Si Si8 0.711826 0.203122 0.557207
O O1 0.116646 0.722926 0.675822
O O2 0.156305 0.723540 0.788772
O O3 0.003655 0.799192 0.745190
O O4 0.145945 0.000000 0.731674
O O5 0.348479 0.500000 0.645812
O O6 0.337812 0.757230 0.709277
O O7 0.451877 0.766992 0.630555
O O8 0.277396 0.775378 0.604274
O O9 0.927138 0.500000 0.755056
O O10 0.885712 0.742456 0.818415
O O11 0.446546 0.500000 0.367630
O O12 0.391415 0.258508 0.428643
O O13 0.782852 0.500000 0.938222
O O14 0.883864 0.765070 0.923523
O O15 0.712841 0.773204 0.895820
O O16 0.750000 0.750000 0.000000
O O17 0.456329 0.280835 0.133467
O O18 0.546576 0.000000 0.123767
O O19 0.170837 0.000000 0.843542
O O20 0.750000 0.250000 0.500000
O O21 0.714330 0.000000 0.560984
#
# Coordination Sequence:
#
# PCOD9213326 Si02
#       8
#     8   8   8   8   8   8   8   8
#     4   8  15  30  53  79 108 140 170 204 257 321
#     4   9  20  38  57  78 109 145 173 206 261 320
#     4   9  16  28  52  83 109 133 168 213 258 309
#     4   9  18  35  58  81 106 138 173 210 258 314
#     4  10  22  38  53  73 103 139 181 223 262 309
#     4   9  19  35  54  78 108 138 168 212 268 314
#     4   9  18  34  56  79 104 137 176 215 256 311
#     4  11  24  40  56  77 106 140 181 223 260 304
#
# _framework density 22.477442
#
# number of rings (size 3 to 8) (size 9 to 14) (size 15 to 20)
#    0.000    2.750    0.000    1.500    0.000    6.500 
#    0.000    7.500    0.000    0.000    0.000    0.000 
#    0.000    0.000    0.000    0.000    0.000    0.000 
#
# Total GULP energy -178565.853939 kJ/mol
# GULP energy per Si atom -5580.182936 kJ/mol
# Density = 2.242628 g / cm^3
# Si number density = 22.477442 Si / 1000 Ang^3
#
#
#
# Elastic Constant Matrix: (Units=GPa)
#
#
# Indices 1 2 3 4 5 6 
#
# 1 53.1870 0.1868 27.4181 0.0000 -9.1282 0.0000
# 2 0.1868 36.1355 0.4462 0.0000 0.8294 0.0000
# 3 27.4181 0.4462 87.8553 0.0000 -24.1651 0.0000
# 4 0.0000 0.0000 0.0000 26.5782 0.0000 -2.0167
# 5 -9.1282 0.8294 -24.1651 0.0000 39.2580 0.0000
# 6 0.0000 0.0000 0.0000 -2.0167 0.0000 15.7315
#
#
#
# Elastic Compliance Matrix: (Units=1/GPa)
#
#
# Indices 1 2 3 4 5 6 
#
# 1 0.022445 -0.000058 -0.006704 0.000000 0.001094 0.000000
# 2 -0.000058 0.027697 -0.000346 0.000000 -0.000812 0.000000
# 3 -0.006704 -0.000346 0.015709 0.000000 0.008118 0.000000
# 4 0.000000 0.000000 0.000000 0.037994 0.000000 0.004871
# 5 0.001094 -0.000812 0.008118 0.000000 0.030741 0.000000
# 6 0.000000 0.000000 0.000000 0.004871 0.000000 0.064191
#
#
# Mechanical properties :
#
#
# Convention : Reuss Voigt Hill
#
# Bulk Modulus (GPa) = 19.36637 25.92002 22.64319
# Shear Modulus (GPa) = 21.71976 26.25533 23.98754
#
# Velocity S-wave (km/s) = 3.11190 3.42142 3.27032
# Velocity P-wave (km/s) = 4.64182 5.21198 4.93514
#
# Compressibility (1/GPa) = 0.05163590
#
# Stress axis : x y z
#
# Youngs Moduli (GPa) = 44.55283 36.10527 63.65692
#
# Poissons Ratio (x) = 0.00211 0.42673
# Poissons Ratio (y) = 0.00260 0.02200
# Poissons Ratio (z) = 0.29867 0.01248
#
# Static dielectric constant tensor:
#      x y z
#    x 1.876060 0.000000 -0.007420 
#    y 0.000000 1.859620 0.000000 
#    z -0.007420 0.000000 1.897060 
# 
# From -- ./inp_files/338676.got.cif
#   From: 2010.05.17/outbox.cif.g08.bks.cpg/sg12_170_cif.got.tgz:338676.got - 2010.06.03 13:09:07.
