data_PCOD9213469
_publ_section_title
;
Structure prediction by ZEFSAII (Michael W. Deem and Ramdas Pophale) SiO2 
 PCOD9213469
Probable space group: C 2/M
;
_chemical_formula_sum "Si O2"
_cell_formula_units_Z 58
_cell_length_a 11.771955
_cell_length_b 16.872485
_cell_length_c 20.924015
_cell_angle_alpha 90.000000
_cell_angle_beta 44.546352
_cell_angle_gamma 90.000000
_cell_volume 2915.356747
_symmetry_space_group_name_H-M "C 2/M"
_symmetry_group_IT_number 12
_symmetry_cell_setting 'monoclinic'
loop_
_space_group_symop_operation_xyz
x,y,z
-x,y,-z
-x,-y,-z
x,-y,z
1/2+x,1/2+y,z
1/2-x,1/2+y,-z
1/2-x,1/2-y,-z
1/2+x,1/2-y,z
loop_
_atom_site_type_symbol
_atom_site_label
_atom_site_fract_x
_atom_site_fract_y
_atom_site_fract_z
Si Si1 0.981943 0.816379 0.335285
Si Si2 0.379193 0.412018 0.608150
Si Si3 0.792962 0.314045 0.130446
Si Si4 0.646914 0.832412 0.035221
Si Si5 0.000000 0.000000 0.000000
Si Si6 0.559316 0.871234 0.662144
Si Si7 0.850807 0.408242 0.518540
Si Si8 0.749993 0.125528 0.130394
O O1 0.947012 0.723613 0.343282
O O2 0.812576 0.861712 0.400665
O O3 0.063273 0.842679 0.368890
O O4 0.120694 0.837440 0.228591
O O5 0.500000 0.412892 0.500000
O O6 0.389174 0.500000 0.634965
O O7 0.201635 0.396889 0.652465
O O8 0.789329 0.218629 0.122177
O O9 0.950971 0.325916 0.111663
O O10 0.813905 0.356464 0.053489
O O11 0.694971 0.883692 0.077830
O O12 0.750000 0.750000 0.000000
O O13 0.901570 0.069539 0.078614
O O14 0.600928 0.903816 0.575384
O O15 0.391512 0.894742 0.762965
O O16 0.826072 0.500000 0.545547
O O17 0.000000 0.375916 0.500000
#
# Coordination Sequence:
#
# PCOD9213469 Si02
#       8
#     8   8   8   8   2   8   8   8
#     4  11  23  39  64  99 128 163 223 272 322 393
#     4  11  23  39  65  93 127 173 217 272 329 388
#     4   9  19  37  63  95 120 160 207 262 322 378
#     4   9  16  35  63  86 123 155 198 255 318 371
#     4  12  24  40  60  86 132 164 206 260 320 392
#     4  11  24  40  66  93 129 165 221 272 325 385
#     4  11  25  44  62  87 129 176 213 265 333 398
#     4  10  22  38  58  93 121 162 207 261 312 381
#
# _framework density 19.894648
#
# number of rings (size 3 to 8) (size 9 to 14) (size 15 to 20)
#    0.000    1.655    1.379    3.724    3.862    0.000 
#    7.448    0.000    1.517    0.828    0.000    0.000 
#    0.000    0.000    0.000    0.000    0.000    0.000 
#
# Total GULP energy -161553.754081 kJ/mol
# GULP energy per Si atom -5570.819106 kJ/mol
# Density = 1.984937 g / cm^3
# Si number density = 19.894648 Si / 1000 Ang^3
#
#
#
# Elastic Constant Matrix: (Units=GPa)
#
#
# Indices 1 2 3 4 5 6 
#
# 1 61.5828 -4.2812 15.9454 0.0000 -6.9257 0.0000
# 2 -4.2812 36.5950 36.4323 -0.0001 -1.7828 0.0000
# 3 15.9454 36.4323 125.6023 -0.0003 -21.0615 0.0000
# 4 0.0000 -0.0001 -0.0003 1.1102 0.0001 -11.8324
# 5 -6.9257 -1.7828 -21.0615 0.0001 26.4597 0.0000
# 6 0.0000 0.0000 0.0000 -11.8324 0.0000 22.2871
#
#
#
# Elastic Compliance Matrix: (Units=1/GPa)
#
#
# Indices 1 2 3 4 5 6 
#
# 1 0.017805 0.005723 -0.003548 0.000000 0.002222 0.000000
# 2 0.005723 0.041505 -0.013901 0.000000 -0.006770 0.000000
# 3 -0.003548 -0.013901 0.014000 0.000000 0.009279 0.000000
# 4 0.000000 0.000000 0.000000 -0.193360 0.000000 -0.102656
# 5 0.002222 -0.006770 0.009279 0.000000 0.045304 0.000000
# 6 0.000000 0.000000 0.000000 -0.102656 0.000000 -0.009632
#
#
# Mechanical properties :
#
#
# Convention : Reuss Voigt Hill
#
# Bulk Modulus (GPa) = 20.05663 35.55257 27.80460
# Shear Modulus (GPa) = -112.84678 21.68364 -45.58157
#
# Velocity S-wave (km/s) = -7.53958 3.30498 -4.79179
# Velocity P-wave (km/s) = 8.10496 5.69852 4.07538
#
# Compressibility (1/GPa) = 0.04985883
#
# Stress axis : x y z
#
# Youngs Moduli (GPa) = 56.16498 24.09353 71.42862
#
# Poissons Ratio (x) = -0.13789 0.25342
# Poissons Ratio (y) = -0.32145 0.99292
# Poissons Ratio (z) = 0.19927 0.33492
#
# Static dielectric constant tensor:
#      x y z
#    x 1.716820 0.000000 -0.009140 
#    y 0.000000 1.649290 0.000000 
#    z -0.009140 0.000000 1.712300 
# 
# From -- ./inp_files/306352.got.cif
#   From: 2010.05.17/outbox.cif.g08.bks.cpg/sg12_154_cif.got.tgz:306352.got - 2010.06.03 13:09:07.
