data_PCOD9213590
_publ_section_title
;
Structure prediction by ZEFSAII (Michael W. Deem and Ramdas Pophale) SiO2 
 PCOD9213590
Probable space group: C 2/M
;
_chemical_formula_sum "Si O2"
_cell_formula_units_Z 56
_cell_length_a 29.813496
_cell_length_b 8.904756
_cell_length_c 21.590928
_cell_angle_alpha 90.000000
_cell_angle_beta 29.361137
_cell_angle_gamma 90.000000
_cell_volume 2810.472806
_symmetry_space_group_name_H-M "C 2/M"
_symmetry_group_IT_number 12
_symmetry_cell_setting 'monoclinic'
loop_
_space_group_symop_operation_xyz
x,y,z
-x,y,-z
-x,-y,-z
x,-y,z
1/2+x,1/2+y,z
1/2-x,1/2+y,-z
1/2-x,1/2-y,-z
1/2+x,1/2-y,z
loop_
_atom_site_type_symbol
_atom_site_label
_atom_site_fract_x
_atom_site_fract_y
_atom_site_fract_z
Si Si1 0.850936 0.176404 0.057376
Si Si2 0.307163 0.324568 0.242794
Si Si3 0.959419 0.323227 0.135682
Si Si4 0.127596 0.177264 0.509682
Si Si5 0.034938 0.182031 0.388037
Si Si6 0.780129 0.681767 0.896979
Si Si7 0.649940 0.321227 0.621625
O O1 0.786460 0.195697 0.194946
O O2 0.800508 0.217686 0.055160
O O3 0.875990 0.000000 0.023728
O O4 0.940104 0.267311 0.968489
O O5 0.317250 0.500000 0.243185
O O6 0.402474 0.248496 0.147659
O O7 0.222426 0.259374 0.382062
O O8 0.958350 0.500000 0.128775
O O9 0.902552 0.267853 0.263065
O O10 0.103620 0.199661 0.610338
O O11 0.047479 0.222273 0.559636
O O12 0.144234 0.000000 0.480665
O O13 0.127019 0.254541 0.247515
O O14 0.000000 0.223448 0.500000
O O15 0.047131 0.000000 0.373245
O O16 0.787662 0.500000 0.893043
O O17 0.750000 0.750000 0.000000
O O18 0.653584 0.500000 0.629994
O O19 0.750000 0.250000 0.500000
#
# Coordination Sequence:
#
# PCOD9213590 Si02
#       7
#     8   8   8   8   8   8   8
#     4  10  24  44  64  88 122 164 207 256 312 369
#     4  11  22  39  64  92 124 163 205 252 309 370
#     4  12  25  39  60  91 125 162 206 253 305 369
#     4  10  22  38  61  91 124 162 202 251 310 368
#     4  10  22  42  68  98 131 167 211 266 327 385
#     4  11  25  45  68  95 130 169 216 271 324 381
#     4  11  22  38  59  86 123 163 204 251 303 364
#
# _framework density 19.925473
#
# number of rings (size 3 to 8) (size 9 to 14) (size 15 to 20)
#    0.000    1.286    1.429    3.857    2.000    5.429 
#    0.000    0.000    0.000    0.000    0.000    0.000 
#    0.000    0.000    0.000    0.000    0.000    0.000 
#
# Total GULP energy -156362.722821 kJ/mol
# GULP energy per Si atom -5584.382958 kJ/mol
# Density = 1.988012 g / cm^3
# Si number density = 19.925473 Si / 1000 Ang^3
#
#
#
# Elastic Constant Matrix: (Units=GPa)
#
#
# Indices 1 2 3 4 5 6 
#
# 1 171.2856 59.4653 56.8756 0.0001 10.7921 -0.0007
# 2 59.4653 45.6581 41.4681 0.0075 1.4490 -0.0047
# 3 56.8756 41.4681 109.8129 0.0087 4.6824 -0.0052
# 4 0.0001 0.0075 0.0087 37.3297 -0.0050 -2.9095
# 5 10.7921 1.4490 4.6824 -0.0050 31.2155 0.0025
# 6 -0.0007 -0.0047 -0.0052 -2.9095 0.0025 26.6217
#
#
#
# Elastic Compliance Matrix: (Units=1/GPa)
#
#
# Indices 1 2 3 4 5 6 
#
# 1 0.010960 -0.013911 -0.000291 0.000002 -0.003100 -0.000002
# 2 -0.013911 0.050997 -0.012235 -0.000006 0.004278 0.000005
# 3 -0.000291 -0.012235 0.013938 -0.000001 -0.001422 0.000001
# 4 0.000002 -0.000006 -0.000001 0.027018 0.000004 0.002953
# 5 -0.003100 0.004278 -0.001422 0.000004 0.033122 -0.000002
# 6 -0.000002 0.000005 0.000001 0.002953 -0.000002 0.037886
#
#
# Mechanical properties :
#
#
# Convention : Reuss Voigt Hill
#
# Bulk Modulus (GPa) = 43.44075 71.37499 57.40787
# Shear Modulus (GPa) = 21.32487 30.29656 25.81072
#
# Velocity S-wave (km/s) = 3.27499 3.90358 3.60302
# Velocity P-wave (km/s) = 6.01246 7.49773 6.79580
#
# Compressibility (1/GPa) = 0.02301986
#
# Stress axis : x y z
#
# Youngs Moduli (GPa) = 91.24296 19.60917 71.74691
#
# Poissons Ratio (x) = 0.27279 0.02087
# Poissons Ratio (y) = 1.26932 0.87781
# Poissons Ratio (z) = 0.02654 0.23991
#
# Static dielectric constant tensor:
#      x y z
#    x 1.703380 0.000000 0.024520 
#    y 0.000000 1.679400 0.000000 
#    z 0.024520 0.000000 1.698170 
# 
# From -- ./inp_files/329469.got.cif
#   From: 2010.05.17/outbox.cif.g08.bks.cpg/sg12_165_cif.got.tgz:329469.got - 2010.06.03 13:09:07.
