data_PCOD9213464
_publ_section_title
;
Structure prediction by ZEFSAII (Michael W. Deem and Ramdas Pophale) SiO2 
 PCOD9213464
Probable space group: C 2/M
;
_chemical_formula_sum "Si O2"
_cell_formula_units_Z 48
_cell_length_a 7.867646
_cell_length_b 18.408015
_cell_length_c 27.378268
_cell_angle_alpha 90.000000
_cell_angle_beta 145.196708
_cell_angle_gamma 90.000000
_cell_volume 2263.142177
_symmetry_space_group_name_H-M "C 2/M"
_symmetry_group_IT_number 12
_symmetry_cell_setting 'monoclinic'
loop_
_space_group_symop_operation_xyz
x,y,z
-x,y,-z
-x,-y,-z
x,-y,z
1/2+x,1/2+y,z
1/2-x,1/2+y,-z
1/2-x,1/2-y,-z
1/2+x,1/2-y,z
loop_
_atom_site_type_symbol
_atom_site_label
_atom_site_fract_x
_atom_site_fract_y
_atom_site_fract_z
Si Si1 0.300333 0.819065 0.179628
Si Si2 0.733347 0.140172 0.463221
Si Si3 0.644092 0.420825 0.355582
Si Si4 0.701281 0.173962 0.095452
Si Si5 0.937161 0.785274 0.369735
Si Si6 0.423457 0.917836 0.840579
O O1 0.202376 0.750492 0.124001
O O2 0.585171 0.793115 0.278594
O O3 0.409557 0.877389 0.164884
O O4 0.034350 0.841659 0.153253
O O5 0.490258 0.086113 0.426273
O O6 0.548710 0.202686 0.390493
O O7 0.000000 0.099163 0.500000
O O8 0.923005 0.186403 0.547035
O O9 0.581567 0.500000 0.364977
O O10 0.573732 0.345444 0.365867
O O11 0.424638 0.418757 0.257490
O O12 0.570562 0.119680 0.105338
O O13 0.500000 0.176505 0.000000
O O14 0.533102 0.000000 0.869346
#
# Coordination Sequence:
#
# PCOD9213464 Si02
#       6
#     8   8   8   8   8   8
#     4  11  24  41  70  96 132 175 219 264 329 392
#     4  11  22  33  58  90 126 156 212 261 308 369
#     4  10  22  42  61  84 125 170 207 256 318 375
#     4  12  25  42  71 102 132 167 217 272 330 394
#     4  10  22  38  58  90 121 166 211 260 309 376
#     4  10  24  45  68  97 134 173 218 270 326 388
#
# _framework density 21.20945
#
# number of rings (size 3 to 8) (size 9 to 14) (size 15 to 20)
#    0.000    1.333    1.667    4.000    7.000    2.667 
#    0.000    0.833    0.000    0.000    0.000    0.000 
#    0.000    0.000    0.000    0.000    0.000    0.000 
#
# Total GULP energy -133889.189120 kJ/mol
# GULP energy per Si atom -5578.716213 kJ/mol
# Density = 2.116118 g / cm^3
# Si number density = 21.209450 Si / 1000 Ang^3
#
#
#
# Elastic Constant Matrix: (Units=GPa)
#
#
# Indices 1 2 3 4 5 6 
#
# 1 81.8463 6.1451 19.0894 0.0002 14.3847 0.0003
# 2 6.1451 115.3156 7.0216 -0.0002 -22.5097 -0.0004
# 3 19.0894 7.0216 73.0603 -0.0012 8.9817 -0.0003
# 4 0.0002 -0.0002 -0.0012 11.7568 -0.0003 -4.3267
# 5 14.3847 -22.5097 8.9817 -0.0003 44.8873 0.0004
# 6 0.0003 -0.0004 -0.0003 -4.3267 0.0004 18.6540
#
#
#
# Elastic Compliance Matrix: (Units=1/GPa)
#
#
# Indices 1 2 3 4 5 6 
#
# 1 0.013808 -0.001451 -0.002906 -0.000001 -0.004571 0.000000
# 2 -0.001451 0.009941 -0.001278 0.000000 0.005706 0.000000
# 3 -0.002906 -0.001278 0.014900 0.000002 -0.002691 0.000001
# 4 -0.000001 0.000000 0.000002 0.092995 0.000000 0.021570
# 5 -0.004571 0.005706 -0.002691 0.000000 0.027143 0.000000
# 6 0.000000 0.000000 0.000001 0.021570 0.000000 0.058611
#
#
# Mechanical properties :
#
#
# Convention : Reuss Voigt Hill
#
# Bulk Modulus (GPa) = 36.52459 37.19273 36.85866
# Shear Modulus (GPa) = 21.02650 30.92401 25.97525
#
# Velocity S-wave (km/s) = 3.15203 3.82256 3.50337
# Velocity P-wave (km/s) = 5.52316 6.08741 5.81214
#
# Compressibility (1/GPa) = 0.02737882
#
# Stress axis : x y z
#
# Youngs Moduli (GPa) = 72.42038 100.59616 67.11268
#
# Poissons Ratio (x) = 0.14598 0.19506
# Poissons Ratio (y) = 0.10509 0.08575
# Poissons Ratio (z) = 0.21049 0.12853
#
# Static dielectric constant tensor:
#      x y z
#    x 1.866010 0.000000 -0.003250 
#    y 0.000000 1.684240 0.000000 
#    z -0.003250 0.000000 1.763020 
# 
# From -- ./inp_files/256714.got.cif
#   From: 2010.05.17/outbox.cif.g08.bks.cpg/sg12_129_cif.got.tgz:256714.got - 2010.06.03 13:09:07.
