data_PCOD9213788
_publ_section_title
;
Structure prediction by ZEFSAII (Michael W. Deem and Ramdas Pophale) SiO2 
 PCOD9213788
Probable space group: C 2/M
;
_chemical_formula_sum "Si O2"
_cell_formula_units_Z 56
_cell_length_a 20.019380
_cell_length_b 8.547815
_cell_length_c 18.259186
_cell_angle_alpha 90.000000
_cell_angle_beta 112.074131
_cell_angle_gamma 90.000000
_cell_volume 2895.513299
_symmetry_space_group_name_H-M "C 2/M"
_symmetry_group_IT_number 12
_symmetry_cell_setting 'monoclinic'
loop_
_space_group_symop_operation_xyz
x,y,z
-x,y,-z
-x,-y,-z
x,-y,z
1/2+x,1/2+y,z
1/2-x,1/2+y,-z
1/2-x,1/2-y,-z
1/2+x,1/2-y,z
loop_
_atom_site_type_symbol
_atom_site_label
_atom_site_fract_x
_atom_site_fract_y
_atom_site_fract_z
Si Si1 0.154698 0.314016 0.592595
Si Si2 0.442505 0.691132 0.147675
Si Si3 0.586464 0.682580 0.020791
Si Si4 0.435541 0.811056 0.579537
Si Si5 0.808077 0.313932 0.639670
Si Si6 0.414181 0.313729 0.297182
Si Si7 0.109585 0.189996 0.188721
O O1 0.151462 0.500000 0.593475
O O2 0.090882 0.260805 0.511827
O O3 0.231384 0.262992 0.592600
O O4 0.143579 0.250122 0.669371
O O5 0.440221 0.500000 0.144691
O O6 0.410282 0.744086 0.211636
O O7 0.527544 0.731994 0.178564
O O8 0.404974 0.749508 0.057310
O O9 0.607725 0.500000 0.026159
O O10 0.620543 0.747120 0.109505
O O11 0.500000 0.684879 0.000000
O O12 0.370177 0.771324 0.607476
O O13 0.508268 0.735752 0.638740
O O14 0.445009 0.000000 0.583171
O O15 0.799775 0.500000 0.634616
O O16 0.835925 0.259146 0.730413
O O17 0.409465 0.500000 0.293631
O O18 0.113712 0.000000 0.191160
#
# Coordination Sequence:
#
# PCOD9213788 Si02
#       7
#     8   8   8   8   8   8   8
#     4  11  24  40  55  73 103 142 181 218 262 314
#     4   8  14  26  47  78 108 135 169 210 253 301
#     4   7  11  21  43  74 105 133 167 208 247 298
#     4  10  22  39  57  77 103 137 176 220 265 312
#     4  11  22  36  55  79 107 136 173 221 268 311
#     4  11  21  34  56  83 110 138 173 216 261 310
#     4   9  15  28  51  78 105 137 173 208 254 310
#
# _framework density 19.340266
#
# number of rings (size 3 to 8) (size 9 to 14) (size 15 to 20)
#    0.000    2.429    1.429    3.857    0.000    3.429 
#    0.000    0.000    0.000    6.429    0.000    0.000 
#    0.000    0.000    0.000    0.000    0.000    0.000 
#
# Total GULP energy -156160.925454 kJ/mol
# GULP energy per Si atom -5577.175909 kJ/mol
# Density = 1.929625 g / cm^3
# Si number density = 19.340266 Si / 1000 Ang^3
#
#
#
# Elastic Constant Matrix: (Units=GPa)
#
#
# Indices 1 2 3 4 5 6 
#
# 1 39.9194 13.1660 0.8743 0.0000 -14.9288 0.0000
# 2 13.1660 10.4913 9.0401 0.0000 -9.7047 0.0000
# 3 0.8743 9.0401 88.3558 0.0000 -27.2029 0.0000
# 4 0.0000 0.0000 0.0000 17.2438 0.0000 -0.3481
# 5 -14.9288 -9.7047 -27.2029 0.0000 22.9941 0.0000
# 6 0.0000 0.0000 0.0000 -0.3481 0.0000 23.7245
#
#
#
# Elastic Compliance Matrix: (Units=1/GPa)
#
#
# Indices 1 2 3 4 5 6 
#
# 1 0.052018 -0.050748 0.013340 0.000000 0.028135 0.000000
# 2 -0.050748 0.208508 -0.006105 0.000000 0.047831 0.000000
# 3 0.013340 -0.006105 0.021523 0.000000 0.031547 0.000000
# 4 0.000000 0.000000 0.000000 0.058009 0.000000 0.000851
# 5 0.028135 0.047831 0.031547 0.000000 0.119264 0.000000
# 6 0.000000 0.000000 0.000000 0.000851 0.000000 0.042163
#
#
# Mechanical properties :
#
#
# Convention : Reuss Voigt Hill
#
# Bulk Modulus (GPa) = 5.12762 20.54747 12.83754
# Shear Modulus (GPa) = 7.65089 20.50488 14.07789
#
# Velocity S-wave (km/s) = 1.99111 3.25963 2.70090
# Velocity P-wave (km/s) = 2.81834 4.98138 4.04705
#
# Compressibility (1/GPa) = 0.19502237
#
# Stress axis : x y z
#
# Youngs Moduli (GPa) = 19.22429 4.79598 46.46175
#
# Poissons Ratio (x) = 0.24339 -0.61979
# Poissons Ratio (y) = 0.97559 0.28365
# Poissons Ratio (z) = -0.25645 0.02928
#
# Static dielectric constant tensor:
#      x y z
#    x 1.663130 0.000000 -0.036830 
#    y 0.000000 1.656510 0.000000 
#    z -0.036830 0.000000 1.717760 
# 
# From -- ./inp_files/275584.got.cif
#   From: 2010.05.17/outbox.cif.g08.bks.cpg/sg12_138_cif.got.tgz:275584.got - 2010.06.03 13:09:07.
