data_PCOD9213967
_publ_section_title
;
Structure prediction by ZEFSAII (Michael W. Deem and Ramdas Pophale) SiO2 
 PCOD9213967
Probable space group: C 2/M
;
_chemical_formula_sum "Si O2"
_cell_formula_units_Z 56
_cell_length_a 22.023886
_cell_length_b 20.799686
_cell_length_c 18.716548
_cell_angle_alpha 90.000000
_cell_angle_beta 160.872078
_cell_angle_gamma 90.000000
_cell_volume 2809.469014
_symmetry_space_group_name_H-M "C 2/M"
_symmetry_group_IT_number 12
_symmetry_cell_setting 'monoclinic'
loop_
_space_group_symop_operation_xyz
x,y,z
-x,y,-z
-x,-y,-z
x,-y,z
1/2+x,1/2+y,z
1/2-x,1/2+y,-z
1/2-x,1/2-y,-z
1/2+x,1/2-y,z
loop_
_atom_site_type_symbol
_atom_site_label
_atom_site_fract_x
_atom_site_fract_y
_atom_site_fract_z
Si Si1 0.716724 0.071839 0.761306
Si Si2 0.410441 0.426259 0.126000
Si Si3 0.691409 0.293165 0.185245
Si Si4 0.144279 0.810692 0.726055
Si Si5 0.841581 0.574285 0.012466
Si Si6 0.794229 0.649512 0.559028
Si Si7 0.124353 0.246110 0.470560
O O1 0.500000 0.077982 0.500000
O O2 0.817420 0.131588 0.837895
O O3 0.775357 0.000000 0.804249
O O4 0.766886 0.078923 0.900489
O O5 0.482196 0.500000 0.205311
O O6 0.289921 0.418658 0.063848
O O7 0.588264 0.379318 0.314792
O O8 0.748842 0.253067 0.180246
O O9 0.828466 0.280347 0.402687
O O10 0.500000 0.266461 0.000000
O O11 0.266624 0.873827 0.872539
O O12 0.000000 0.822632 0.500000
O O13 0.055782 0.793120 0.704610
O O14 0.831269 0.500000 0.978138
O O15 0.052706 0.594479 0.263704
O O16 0.870503 0.699170 0.583975
O O17 0.767314 0.692544 0.600403
#
# Coordination Sequence:
#
# PCOD9213967 Si02
#       7
#     8   8   8   8   8   8   8
#     4  10  22  40  62  89 124 168 213 253 309 379
#     4  10  22  41  62  89 127 169 208 261 317 369
#     4  11  22  38  62  91 128 164 209 262 316 379
#     4  10  22  42  66  91 130 164 206 267 320 380
#     4  11  24  40  65  94 125 170 215 261 320 378
#     4  11  22  40  65  93 130 160 216 264 309 388
#     4  10  22  39  60  96 123 165 210 257 325 367
#
# _framework density 19.932592
#
# number of rings (size 3 to 8) (size 9 to 14) (size 15 to 20)
#    0.000    1.571    1.429    3.429    4.000    2.286 
#    0.000    0.714    0.000    3.857    0.000    0.000 
#    0.000    0.000    0.000    0.000    0.000    0.000 
#
# Total GULP energy -156086.272524 kJ/mol
# GULP energy per Si atom -5574.509733 kJ/mol
# Density = 1.988722 g / cm^3
# Si number density = 19.932592 Si / 1000 Ang^3
#
#
#
# Elastic Constant Matrix: (Units=GPa)
#
#
# Indices 1 2 3 4 5 6 
#
# 1 85.5554 52.7189 20.1387 0.0053 13.1770 0.0029
# 2 52.7189 128.3620 35.4322 -0.0005 1.8766 -0.0002
# 3 20.1387 35.4322 73.9051 0.0121 7.3899 0.0067
# 4 0.0053 -0.0005 0.0121 189.7318 0.0083 80.1681
# 5 13.1770 1.8766 7.3899 0.0083 24.3017 0.0045
# 6 0.0029 -0.0002 0.0067 80.1681 0.0045 62.9561
#
#
#
# Elastic Compliance Matrix: (Units=1/GPa)
#
#
# Indices 1 2 3 4 5 6 
#
# 1 0.017393 -0.006856 -0.000580 0.000000 -0.008725 0.000000
# 2 -0.006856 0.011690 -0.004144 0.000000 0.004075 0.000000
# 3 -0.000580 -0.004144 0.016102 -0.000001 -0.004262 -0.000001
# 4 0.000000 0.000000 -0.000001 0.011410 -0.000001 -0.014529
# 5 -0.008725 0.004075 -0.004262 -0.000001 0.046862 -0.000001
# 6 0.000000 0.000000 -0.000001 -0.014529 -0.000001 0.034385
#
#
# Mechanical properties :
#
#
# Convention : Reuss Voigt Hill
#
# Bulk Modulus (GPa) = 45.40192 56.04468 50.72330
# Shear Modulus (GPa) = 29.70110 67.36676 48.53393
#
# Velocity S-wave (km/s) = 3.86434 5.81985 4.93983
# Velocity P-wave (km/s) = 6.53743 8.56382 7.61830
#
# Compressibility (1/GPa) = 0.02202550
#
# Stress axis : x y z
#
# Youngs Moduli (GPa) = 57.49358 85.53973 62.10450
#
# Poissons Ratio (x) = 0.58644 0.03604
# Poissons Ratio (y) = 0.39416 0.25736
# Poissons Ratio (z) = 0.03336 0.35448
#
# Static dielectric constant tensor:
#      x y z
#    x 1.709330 0.000000 -0.006180 
#    y 0.000000 1.707610 0.000000 
#    z -0.006180 0.000000 1.811230 
# 
# From -- ./inp_files/286101.got.cif
#   From: 2010.05.17/outbox.cif.g08.bks.cpg/sg12_144_cif.got.tgz:286101.got - 2010.06.03 13:09:07.
