data_PCOD9213978
_publ_section_title
;
Structure prediction by ZEFSAII (Michael W. Deem and Ramdas Pophale) SiO2 
 PCOD9213978
Probable space group: C 2/M
;
_chemical_formula_sum "Si O2"
_cell_formula_units_Z 48
_cell_length_a 27.780955
_cell_length_b 15.040599
_cell_length_c 10.046821
_cell_angle_alpha 90.000000
_cell_angle_beta 143.049890
_cell_angle_gamma 90.000000
_cell_volume 2523.490670
_symmetry_space_group_name_H-M "C 2/M"
_symmetry_group_IT_number 12
_symmetry_cell_setting 'monoclinic'
loop_
_space_group_symop_operation_xyz
x,y,z
-x,y,-z
-x,-y,-z
x,-y,z
1/2+x,1/2+y,z
1/2-x,1/2+y,-z
1/2-x,1/2-y,-z
1/2+x,1/2-y,z
loop_
_atom_site_type_symbol
_atom_site_label
_atom_site_fract_x
_atom_site_fract_y
_atom_site_fract_z
Si Si1 0.301302 0.237152 0.744974
Si Si2 0.585833 0.397259 0.376062
Si Si3 0.314353 0.255398 0.260615
Si Si4 0.057126 0.397376 0.503499
Si Si5 0.055977 0.397305 0.003424
Si Si6 0.898109 0.101601 0.899866
O O1 0.250000 0.250000 0.500000
O O2 0.241480 0.228767 0.734501
O O3 0.365903 0.159998 0.858248
O O4 0.349309 0.327843 0.874363
O O5 0.608351 0.500000 0.450408
O O6 0.621324 0.334506 0.569018
O O7 0.610719 0.375991 0.277411
O O8 0.489901 0.392251 0.149236
O O9 0.368863 0.167288 0.363795
O O10 0.250000 0.250000 0.000000
O O11 0.082628 0.500000 0.586363
O O12 0.000000 0.368553 0.500000
O O13 0.000507 0.397473 0.249694
O O14 0.077705 0.500000 0.084428
O O15 0.000000 0.361421 0.000000
O O16 0.871665 0.000000 0.857538
#
# Coordination Sequence:
#
# PCOD9213978 Si02
#       6
#     8   8   8   8   8   8
#     4  12  23  35  59  90 125 158 193 255 315 354
#     4   9  19  38  62  85 114 159 207 246 290 357
#     4  12  25  38  58  94 129 158 195 247 315 373
#     4  10  22  43  65  82 112 163 210 244 289 356
#     4  10  22  39  61  87 116 158 208 251 291 349
#     4   9  19  37  62  87 113 155 209 252 292 351
#
# _framework density 19.021270999999999
#
# number of rings (size 3 to 8) (size 9 to 14) (size 15 to 20)
#    0.000    1.667    1.667    4.000    2.333    2.667 
#    0.000    0.000    0.000    2.500    0.000    0.000 
#    0.000    0.000    0.000    0.000    0.000    0.000 
#
# Total GULP energy -133791.580164 kJ/mol
# GULP energy per Si atom -5574.649174 kJ/mol
# Density = 1.897798 g / cm^3
# Si number density = 19.021271 Si / 1000 Ang^3
#
#
#
# Elastic Constant Matrix: (Units=GPa)
#
#
# Indices 1 2 3 4 5 6 
#
# 1 104.6254 36.5056 27.7254 0.0000 5.3840 0.0000
# 2 36.5056 96.6873 52.3304 0.0000 23.6998 0.0000
# 3 27.7254 52.3304 104.1886 0.0000 -4.0988 0.0000
# 4 0.0000 0.0000 0.0000 25.0760 0.0000 31.7126
# 5 5.3840 23.6998 -4.0988 0.0000 31.9376 0.0000
# 6 0.0000 0.0000 0.0000 31.7126 0.0000 104.8252
#
#
#
# Elastic Compliance Matrix: (Units=1/GPa)
#
#
# Indices 1 2 3 4 5 6 
#
# 1 0.011128 -0.003894 -0.000970 0.000000 0.000889 0.000000
# 2 -0.003894 0.021556 -0.010446 0.000000 -0.016680 0.000000
# 3 -0.000970 -0.010446 0.015493 0.000000 0.009904 0.000000
# 4 0.000000 0.000000 0.000000 0.064591 0.000000 -0.019541
# 5 0.000889 -0.016680 0.009904 0.000000 0.044810 0.000000
# 6 0.000000 0.000000 0.000000 -0.019541 0.000000 0.015451
#
#
# Mechanical properties :
#
#
# Convention : Reuss Voigt Hill
#
# Bulk Modulus (GPa) = 56.96704 59.84714 58.40709
# Shear Modulus (GPa) = 23.86613 44.96375 34.41494
#
# Velocity S-wave (km/s) = 3.54603 4.86724 4.25819
# Velocity P-wave (km/s) = 6.83958 7.94470 7.41276
#
# Compressibility (1/GPa) = 0.01755401
#
# Stress axis : x y z
#
# Youngs Moduli (GPa) = 89.86269 46.39179 64.54665
#
# Poissons Ratio (x) = 0.18067 0.06262
# Poissons Ratio (y) = 0.34997 0.67428
# Poissons Ratio (z) = 0.08719 0.48463
#
# Static dielectric constant tensor:
#      x y z
#    x 1.687310 0.000000 0.011240 
#    y 0.000000 1.722730 0.000000 
#    z 0.011240 0.000000 1.654740 
# 
# From -- ./inp_files/104971.got.cif
#   From: 2010.05.17/outbox.cif.g08.bks.cpg/sg12_53_cif.got.tgz:104971.got - 2010.06.03 13:09:07.
