data_PCOD9213036
_publ_section_title
;
Structure prediction by ZEFSAII (Michael W. Deem and Ramdas Pophale) SiO2 
 PCOD9213036
Probable space group: C 2/M
;
_chemical_formula_sum "Si O2"
_cell_formula_units_Z 58
_cell_length_a 19.293662
_cell_length_b 12.740343
_cell_length_c 21.603819
_cell_angle_alpha 90.000000
_cell_angle_beta 144.564330
_cell_angle_gamma 90.000000
_cell_volume 3078.902471
_symmetry_space_group_name_H-M "C 2/M"
_symmetry_group_IT_number 12
_symmetry_cell_setting 'monoclinic'
loop_
_space_group_symop_operation_xyz
x,y,z
-x,y,-z
-x,-y,-z
x,-y,z
1/2+x,1/2+y,z
1/2-x,1/2+y,-z
1/2-x,1/2-y,-z
1/2+x,1/2-y,z
loop_
_atom_site_type_symbol
_atom_site_label
_atom_site_fract_x
_atom_site_fract_y
_atom_site_fract_z
Si Si1 0.508672 0.273509 0.150356
Si Si2 0.835752 0.681663 0.841414
Si Si3 0.334518 0.380646 0.929323
Si Si4 0.398724 0.263275 0.381450
Si Si5 0.743460 0.623369 0.363232
Si Si6 0.500000 0.000000 0.000000
Si Si7 0.084805 0.619724 0.820905
Si Si8 0.449161 0.877363 0.601231
O O1 0.582375 0.194566 0.159809
O O2 0.609541 0.333960 0.262727
O O3 0.423540 0.205158 0.131866
O O4 0.434480 0.351135 0.052563
O O5 0.839240 0.793129 0.879563
O O6 0.699723 0.662658 0.721347
O O7 0.895881 0.591883 0.925005
O O8 0.349502 0.500000 0.917280
O O9 0.206567 0.373357 0.870270
O O10 0.500000 0.311070 0.500000
O O11 0.321590 0.183690 0.368225
O O12 0.466127 0.196467 0.378060
O O13 0.744246 0.500000 0.350199
O O14 0.814629 0.640004 0.479287
O O15 0.075498 0.500000 0.838150
O O16 0.977716 0.638092 0.693883
O O17 0.478737 0.000000 0.609337
#
# Coordination Sequence:
#
# PCOD9213036 Si02
#       8
#     8   8   8   8   8   2   8   8
#     4  11  22  36  53  86 118 155 192 236 297 352
#     4  11  23  38  62  86 118 156 196 244 286 352
#     4  11  22  40  63  90 116 150 197 255 303 343
#     4   9  17  32  57  88 114 143 188 245 298 341
#     4   9  18  30  52  84 119 151 184 237 297 352
#     4  12  24  44  56  88 116 168 204 226 286 352
#     4  10  22  36  58  82 115 156 200 243 288 353
#     4   9  16  31  54  84 116 151 190 235 296 353
#
# _framework density 18.837882
#
# number of rings (size 3 to 8) (size 9 to 14) (size 15 to 20)
#    0.000    1.931    2.759    1.241    0.966    5.517 
#    0.000    0.345    1.517    0.000    0.000    0.000 
#    0.000    0.000    0.000    0.000    0.000    0.000 
#
# Total GULP energy -161534.149432 kJ/mol
# GULP energy per Si atom -5570.143084 kJ/mol
# Density = 1.879501 g / cm^3
# Si number density = 18.837882 Si / 1000 Ang^3
#
#
#
# Elastic Constant Matrix: (Units=GPa)
#
#
# Indices 1 2 3 4 5 6 
#
# 1 30.1212 14.6068 2.8249 0.0000 1.2112 0.0000
# 2 14.6068 59.0630 27.5204 0.0000 1.5460 0.0000
# 3 2.8249 27.5204 120.4744 0.0000 15.6809 0.0000
# 4 0.0000 0.0000 0.0000 4.7614 0.0000 16.1079
# 5 1.2112 1.5460 15.6809 0.0000 13.9585 0.0000
# 6 0.0000 0.0000 0.0000 16.1079 0.0000 13.7083
#
#
#
# Elastic Compliance Matrix: (Units=1/GPa)
#
#
# Indices 1 2 3 4 5 6 
#
# 1 0.038168 -0.010269 0.002031 0.000000 -0.004456 0.000000
# 2 -0.010269 0.021836 -0.005328 0.000000 0.004457 0.000000
# 3 0.002031 -0.005328 0.011029 0.000000 -0.011976 0.000000
# 4 0.000000 0.000000 0.000000 -0.070590 0.000000 0.082947
# 5 -0.004456 0.004457 -0.011976 0.000000 0.084988 0.000000
# 6 0.000000 0.000000 0.000000 0.082947 0.000000 -0.024518
#
#
# Mechanical properties :
#
#
# Convention : Reuss Voigt Hill
#
# Bulk Modulus (GPa) = 22.77827 33.28475 28.03151
# Shear Modulus (GPa) = 48.69659 17.46607 33.08133
#
# Velocity S-wave (km/s) = 5.08984 3.04826 4.19514
# Velocity P-wave (km/s) = 6.83081 5.48604 6.19502
#
# Compressibility (1/GPa) = 0.04390149
#
# Stress axis : x y z
#
# Youngs Moduli (GPa) = 26.20021 45.79529 90.67291
#
# Poissons Ratio (x) = 0.47026 -0.18413
# Poissons Ratio (y) = 0.26904 0.48306
# Poissons Ratio (z) = -0.05321 0.24398
#
# Static dielectric constant tensor:
#      x y z
#    x 1.625940 0.000000 -0.010060 
#    y 0.000000 1.629920 0.000000 
#    z -0.010060 0.000000 1.715460 
# 
# From -- ./inp_files/315995.got.cif
#   From: 2010.05.17/outbox.cif.g08.bks.cpg/sg12_158_cif.got.tgz:315995.got - 2010.06.03 13:09:07.
