data_PCOD9213540
_publ_section_title
;
Structure prediction by ZEFSAII (Michael W. Deem and Ramdas Pophale) SiO2 
 PCOD9213540
Probable space group: C 2/M
;
_chemical_formula_sum "Si O2"
_cell_formula_units_Z 48
_cell_length_a 13.094921
_cell_length_b 13.793391
_cell_length_c 12.194819
_cell_angle_alpha 90.000000
_cell_angle_beta 59.665010
_cell_angle_gamma 90.000000
_cell_volume 1901.095809
_symmetry_space_group_name_H-M "C 2/M"
_symmetry_group_IT_number 12
_symmetry_cell_setting 'monoclinic'
loop_
_space_group_symop_operation_xyz
x,y,z
-x,y,-z
-x,-y,-z
x,-y,z
1/2+x,1/2+y,z
1/2-x,1/2+y,-z
1/2-x,1/2-y,-z
1/2+x,1/2-y,z
loop_
_atom_site_type_symbol
_atom_site_label
_atom_site_fract_x
_atom_site_fract_y
_atom_site_fract_z
Si Si1 0.341519 0.753431 0.204263
Si Si2 0.621791 0.821621 0.564283
Si Si3 0.804939 0.614046 0.023292
Si Si4 0.371560 0.606073 0.446151
Si Si5 0.632525 0.110823 0.255805
Si Si6 0.963888 0.108991 0.853802
O O1 0.356102 0.799108 0.317423
O O2 0.350041 0.832349 0.105289
O O3 0.222195 0.691324 0.251311
O O4 0.445750 0.676821 0.134372
O O5 0.614144 0.714534 0.512897
O O6 0.738111 0.882958 0.468828
O O7 0.497501 0.874693 0.624741
O O8 0.799572 0.500000 0.050441
O O9 0.669313 0.646776 0.076144
O O10 0.874335 0.625756 0.872184
O O11 0.374295 0.500000 0.502691
O O12 0.476133 0.603616 0.299764
O O13 0.674649 0.000000 0.250658
O O14 0.960251 0.000000 0.899220
#
# Coordination Sequence:
#
# PCOD9213540 Si02
#       6
#     8   8   8   8   8   8
#     4  11  21  37  61  88 116 152 199 240 285 345
#     4  10  22  38  60  89 120 153 194 241 292 345
#     4  10  23  40  58  85 121 156 192 238 293 348
#     4   9  18  37  61  83 116 158 193 234 290 346
#     4  11  24  41  60  86 120 155 193 242 295 346
#     4   9  19  38  61  85 115 153 196 240 285 340
#
# _framework density 25.248595999999999
#
# number of rings (size 3 to 8) (size 9 to 14) (size 15 to 20)
#    0.000    2.000    0.000    3.500    0.000    4.667 
#    0.000   17.500    0.000   21.000    0.000    0.000 
#    0.000    0.000    0.000    0.000    0.000    0.000 
#
# Total GULP energy -134315.231795 kJ/mol
# GULP energy per Si atom -5596.467991 kJ/mol
# Density = 2.519113 g / cm^3
# Si number density = 25.248596 Si / 1000 Ang^3
#
#
#
# Elastic Constant Matrix: (Units=GPa)
#
#
# Indices 1 2 3 4 5 6 
#
# 1 82.9935 24.5334 33.0269 0.0000 0.7332 0.0000
# 2 24.5334 103.5432 18.9561 0.0000 10.6130 0.0000
# 3 33.0269 18.9561 102.4507 0.0000 -9.7953 0.0000
# 4 0.0000 0.0000 0.0000 28.9902 0.0000 -4.3878
# 5 0.7332 10.6130 -9.7953 0.0000 52.5302 0.0000
# 6 0.0000 0.0000 0.0000 -4.3878 0.0000 28.8865
#
#
#
# Elastic Compliance Matrix: (Units=1/GPa)
#
#
# Indices 1 2 3 4 5 6 
#
# 1 0.014513 -0.002615 -0.004239 0.000000 -0.000465 0.000000
# 2 -0.002615 0.010776 -0.001380 0.000000 -0.002398 0.000000
# 3 -0.004239 -0.001380 0.011622 0.000000 0.002505 0.000000
# 4 0.000000 0.000000 0.000000 0.035306 0.000000 0.005363
# 5 -0.000465 -0.002398 0.002505 0.000000 0.019995 0.000000
# 6 0.000000 0.000000 0.000000 0.005363 0.000000 0.035433
#
#
# Mechanical properties :
#
#
# Convention : Reuss Voigt Hill
#
# Bulk Modulus (GPa) = 48.91716 49.11335 49.01526
# Shear Modulus (GPa) = 33.12841 36.24612 34.68726
#
# Velocity S-wave (km/s) = 3.62621 3.79300 3.71054
# Velocity P-wave (km/s) = 6.07855 6.21905 6.14920
#
# Compressibility (1/GPa) = 0.02044272
#
# Stress axis : x y z
#
# Youngs Moduli (GPa) = 68.90265 92.80006 86.04190
#
# Poissons Ratio (x) = 0.24267 0.36475
# Poissons Ratio (y) = 0.18018 0.11875
# Poissons Ratio (z) = 0.29209 0.12807
#
# Static dielectric constant tensor:
#      x y z
#    x 1.988140 0.000000 0.021240 
#    y 0.000000 1.996030 0.000000 
#    z 0.021240 0.000000 2.017250 
# 
# From -- ./inp_files/204871.got.cif
#   From: 2010.05.17/outbox.cif.g08.bks.cpg/sg12_103_cif.got.tgz:204871.got - 2010.06.03 13:09:07.
