data_PCOD9213764
_publ_section_title
;
Structure prediction by ZEFSAII (Michael W. Deem and Ramdas Pophale) SiO2 
 PCOD9213764
Probable space group: C 2/M
;
_chemical_formula_sum "Si O2"
_cell_formula_units_Z 44
_cell_length_a 18.625764
_cell_length_b 19.657400
_cell_length_c 22.867111
_cell_angle_alpha 90.000000
_cell_angle_beta 162.828645
_cell_angle_gamma 90.000000
_cell_volume 2471.795733
_symmetry_space_group_name_H-M "C 2/M"
_symmetry_group_IT_number 12
_symmetry_cell_setting 'monoclinic'
loop_
_space_group_symop_operation_xyz
x,y,z
-x,y,-z
-x,-y,-z
x,-y,z
1/2+x,1/2+y,z
1/2-x,1/2+y,-z
1/2-x,1/2-y,-z
1/2+x,1/2-y,z
loop_
_atom_site_type_symbol
_atom_site_label
_atom_site_fract_x
_atom_site_fract_y
_atom_site_fract_z
Si Si1 0.123104 0.321109 0.384932
Si Si2 0.000000 0.769133 0.500000
Si Si3 0.025650 0.349420 0.179829
Si Si4 0.853880 0.865307 0.217952
Si Si5 0.163916 0.500000 0.276545
Si Si6 0.802262 0.000000 0.252545
Si Si7 0.217576 0.282106 0.782862
O O1 0.250000 0.250000 0.500000
O O2 0.009613 0.317351 0.231811
O O3 0.355214 0.371379 0.565898
O O4 0.919289 0.327691 0.275677
O O5 0.770293 0.816785 0.340787
O O6 0.914435 0.719737 0.381753
O O7 0.053215 0.429725 0.211072
O O8 0.799257 0.347148 0.959337
O O9 0.773591 0.932132 0.191275
O O10 0.808117 0.798054 0.220597
O O11 0.153314 0.500000 0.197400
O O12 0.430931 0.500000 0.511666
O O13 0.500000 0.299120 0.000000
#
# Coordination Sequence:
#
# PCOD9213764 Si02
#       7
#     8   4   8   8   4   4   8
#     4  10  22  39  53  77 113 151 192 234 280 326
#     4  12  20  33  54  80 112 147 190 226 266 336
#     4  12  22  35  56  82 116 154 190 223 279 338
#     4  11  22  35  56  81 115 152 185 228 275 335
#     4  11  21  33  57  82 118 157 186 224 273 347
#     4  11  21  37  55  85 123 153 185 226 276 339
#     4  11  22  37  56  79 110 152 190 234 278 323
#
# _framework density 17.800825
#
# number of rings (size 3 to 8) (size 9 to 14) (size 15 to 20)
#    0.000    0.909    7.273    2.727    0.000    5.091 
#    0.000    0.000    0.000    0.000    0.000    2.545 
#    0.000    5.818    0.000    0.000    0.000    0.000 
#
# Total GULP energy -122674.388274 kJ/mol
# GULP energy per Si atom -5576.108558 kJ/mol
# Density = 1.776031 g / cm^3
# Si number density = 17.800825 Si / 1000 Ang^3
#
#
#
# Elastic Constant Matrix: (Units=GPa)
#
#
# Indices 1 2 3 4 5 6 
#
# 1 124.7114 24.0493 69.6691 -0.0109 -21.3798 -0.0426
# 2 24.0493 36.4445 2.6590 0.3294 -12.8961 -0.0637
# 3 69.6691 2.6590 131.1470 0.5306 -22.5336 -0.1193
# 4 -0.0109 0.3294 0.5306 8.5008 0.0741 -9.1861
# 5 -21.3798 -12.8961 -22.5336 0.0741 47.2134 -0.0380
# 6 -0.0426 -0.0637 -0.1193 -9.1861 -0.0380 20.8912
#
#
#
# Elastic Compliance Matrix: (Units=1/GPa)
#
#
# Indices 1 2 3 4 5 6 
#
# 1 0.013605 -0.008278 -0.006966 0.001389 0.000573 0.000574
# 2 -0.008278 0.035529 0.005134 -0.003113 0.008410 -0.001233
# 3 -0.006966 0.005134 0.011903 -0.001719 0.003931 -0.000679
# 4 0.001389 -0.003113 -0.001719 0.224557 -0.001315 0.098721
# 5 0.000573 0.008410 0.003931 -0.001315 0.025615 -0.000482
# 6 0.000574 -0.001233 -0.000679 0.098721 -0.000482 0.091268
#
#
# Mechanical properties :
#
#
# Convention : Reuss Voigt Hill
#
# Bulk Modulus (GPa) = 24.50015 53.89529 39.19772
# Shear Modulus (GPa) = 11.45990 28.38279 19.92134
#
# Velocity S-wave (km/s) = 2.54004 3.99741 3.34896
# Velocity P-wave (km/s) = 4.73242 7.18667 6.08457
#
# Compressibility (1/GPa) = 0.04081608
#
# Stress axis : x y z
#
# Youngs Moduli (GPa) = 73.50195 28.14599 84.01009
#
# Poissons Ratio (x) = 0.23300 0.58523
# Poissons Ratio (y) = 0.60847 -0.43129
# Poissons Ratio (z) = 0.51203 -0.14450
#
# Static dielectric constant tensor:
#      x y z
#    x 1.666000 0.000000 0.010780 
#    y 0.000000 1.588990 -0.000160 
#    z 0.010780 -0.000160 1.691140 
# 
# From -- ./inp_files/218219.got.cif
#   From: 2010.05.17/outbox.cif.g08.bks.cpg/sg12_110_cif.got.tgz:218219.got - 2010.06.03 13:09:07.
