data_PCOD9213476
_publ_section_title
;
Structure prediction by ZEFSAII (Michael W. Deem and Ramdas Pophale) SiO2 
 PCOD9213476
Probable space group: C 2/M
;
_chemical_formula_sum "Si O2"
_cell_formula_units_Z 48
_cell_length_a 18.609980
_cell_length_b 16.737984
_cell_length_c 15.269133
_cell_angle_alpha 90.000000
_cell_angle_beta 149.059503
_cell_angle_gamma 90.000000
_cell_volume 2445.407576
_symmetry_space_group_name_H-M "C 2/M"
_symmetry_group_IT_number 12
_symmetry_cell_setting 'monoclinic'
loop_
_space_group_symop_operation_xyz
x,y,z
-x,y,-z
-x,-y,-z
x,-y,z
1/2+x,1/2+y,z
1/2-x,1/2+y,-z
1/2-x,1/2-y,-z
1/2+x,1/2-y,z
loop_
_atom_site_type_symbol
_atom_site_label
_atom_site_fract_x
_atom_site_fract_y
_atom_site_fract_z
Si Si1 0.196615 0.302999 0.025012
Si Si2 0.494162 0.322329 0.388789
Si Si3 0.947673 0.654431 0.651231
Si Si4 0.646715 0.596373 0.396030
Si Si5 0.927016 0.154585 0.017828
Si Si6 0.162347 0.000000 0.138611
Si Si7 0.930536 0.500000 0.520964
O O1 0.334440 0.347662 0.200002
O O2 0.250000 0.250000 0.000000
O O3 0.147927 0.237562 0.043718
O O4 0.061120 0.347578 0.847550
O O5 0.500000 0.318719 0.500000
O O6 0.529660 0.235525 0.381541
O O7 0.594312 0.380998 0.438585
O O8 0.792017 0.641275 0.526348
O O9 0.971025 0.578944 0.614058
O O10 0.658222 0.500000 0.400129
O O11 0.534397 0.631213 0.207781
O O12 0.820265 0.080465 0.898165
O O13 0.000000 0.160648 0.000000
O O14 0.264463 0.000000 0.327229
O O15 0.000000 0.000000 0.000000
O O16 0.000000 0.500000 0.500000
#
# Coordination Sequence:
#
# PCOD9213476 Si02
#       7
#     8   8   8   8   8   4   4
#     4  10  23  42  61  94 128 172 220 265 329 388
#     4  11  26  44  69  95 130 176 227 281 325 389
#     4  11  23  44  65  97 136 172 221 271 340 401
#     4  12  24  44  66  96 135 179 222 270 333 400
#     4  11  22  36  65  96 134 171 215 267 330 407
#     4  10  22  38  58  96 139 167 206 255 335 410
#     4  12  26  36  64 106 139 173 208 279 353 398
#
# _framework density 19.628630000000001
#
# number of rings (size 3 to 8) (size 9 to 14) (size 15 to 20)
#    0.000    1.000    5.000    3.000    9.333    0.333 
#    1.500    0.000    0.000    1.000    0.000    0.000 
#    0.000    0.000    0.000    0.000    0.000    0.000 
#
# Total GULP energy -133965.519597 kJ/mol
# GULP energy per Si atom -5581.896650 kJ/mol
# Density = 1.958395 g / cm^3
# Si number density = 19.628630 Si / 1000 Ang^3
#
#
#
# Elastic Constant Matrix: (Units=GPa)
#
#
# Indices 1 2 3 4 5 6 
#
# 1 133.0057 35.4332 31.2513 0.0000 -3.7880 0.0000
# 2 35.4332 68.6341 27.3971 0.0000 6.8614 0.0000
# 3 31.2513 27.3971 67.0874 0.0001 -0.1685 0.0001
# 4 0.0000 0.0000 0.0001 22.3341 0.0000 -5.6457
# 5 -3.7880 6.8614 -0.1685 0.0000 24.8879 0.0000
# 6 0.0000 0.0000 0.0001 -5.6457 0.0000 29.7120
#
#
#
# Elastic Compliance Matrix: (Units=1/GPa)
#
#
# Indices 1 2 3 4 5 6 
#
# 1 0.009279 -0.003962 -0.002698 0.000000 0.002486 0.000000
# 2 -0.003962 0.019704 -0.006217 0.000000 -0.006077 0.000000
# 3 -0.002698 -0.006217 0.018705 0.000000 0.001430 0.000000
# 4 0.000000 0.000000 0.000000 0.047034 0.000000 0.008937
# 5 0.002486 -0.006077 0.001430 0.000000 0.042244 0.000000
# 6 0.000000 0.000000 0.000000 0.008937 0.000000 0.035355
#
#
# Mechanical properties :
#
#
# Convention : Reuss Voigt Hill
#
# Bulk Modulus (GPa) = 45.58885 50.76557 48.17721
# Shear Modulus (GPa) = 24.34451 27.02984 25.68718
#
# Velocity S-wave (km/s) = 3.52555 3.71490 3.62146
# Velocity P-wave (km/s) = 6.31259 6.65732 6.48724
#
# Compressibility (1/GPa) = 0.02193519
#
# Stress axis : x y z
#
# Youngs Moduli (GPa) = 107.77421 50.75002 53.46122
#
# Poissons Ratio (x) = 0.20106 0.14425
# Poissons Ratio (y) = 0.42697 0.33235
# Poissons Ratio (z) = 0.29079 0.31550
#
# Static dielectric constant tensor:
#      x y z
#    x 1.664980 0.000000 0.012470 
#    y 0.000000 1.741330 0.000000 
#    z 0.012470 0.000000 1.748610 
# 
# From -- ./inp_files/226973.got.cif
#   From: 2010.05.17/outbox.cif.g08.bks.cpg/sg12_114_cif.got.tgz:226973.got - 2010.06.03 13:09:07.
