data_PCOD9213899
_publ_section_title
;
Structure prediction by ZEFSAII (Michael W. Deem and Ramdas Pophale) SiO2 
 PCOD9213899
Probable space group: C 2/M
;
_chemical_formula_sum "Si O2"
_cell_formula_units_Z 48
_cell_length_a 5.355319
_cell_length_b 27.872083
_cell_length_c 15.401845
_cell_angle_alpha 90.000000
_cell_angle_beta 108.472841
_cell_angle_gamma 90.000000
_cell_volume 2180.484132
_symmetry_space_group_name_H-M "C 2/M"
_symmetry_group_IT_number 12
_symmetry_cell_setting 'monoclinic'
loop_
_space_group_symop_operation_xyz
x,y,z
-x,y,-z
-x,-y,-z
x,-y,z
1/2+x,1/2+y,z
1/2-x,1/2+y,-z
1/2-x,1/2-y,-z
1/2+x,1/2-y,z
loop_
_atom_site_type_symbol
_atom_site_label
_atom_site_fract_x
_atom_site_fract_y
_atom_site_fract_z
Si Si1 0.139071 0.225190 0.607538
Si Si2 0.739380 0.281758 0.853682
Si Si3 0.207269 0.123734 0.946933
Si Si4 0.475805 0.370588 0.259278
Si Si5 0.824621 0.055564 0.393631
Si Si6 0.979611 0.639062 0.599526
O O1 0.411615 0.254466 0.644870
O O2 0.193282 0.178523 0.772103
O O3 0.231019 0.170169 0.604469
O O4 0.000000 0.236724 0.500000
O O5 0.997919 0.252869 0.853510
O O6 0.746452 0.319070 0.934987
O O7 0.074731 0.106947 0.841736
O O8 0.500000 0.104360 0.000000
O O9 0.000000 0.115468 0.000000
O O10 0.416284 0.411732 0.323129
O O11 0.765409 0.351294 0.314838
O O12 0.560390 0.082344 0.393897
O O13 0.000000 0.060170 0.500000
O O14 0.800763 0.000000 0.369025
O O15 0.000000 0.650589 0.500000
#
# Coordination Sequence:
#
# PCOD9213899 Si02
#       6
#     8   8   8   8   8   8
#     4  10  22  39  59  89 131 186 233 268 325 406
#     4  10  23  41  67 104 146 189 238 286 343 416
#     4  10  23  43  72 106 142 192 237 292 351 418
#     4  10  27  42  68 101 147 179 234 298 353 417
#     4  11  25  47  74 101 134 182 243 301 365 428
#     4  12  24  41  68  98 137 187 234 296 352 419
#
# _framework density 22.013461
#
# number of rings (size 3 to 8) (size 9 to 14) (size 15 to 20)
#    1.000    0.500    1.667    3.000    7.000    4.333 
#    0.000    0.000    0.000    2.000    0.000    0.000 
#    0.000    0.000    0.000    0.000    0.000    0.000 
#
# Total GULP energy -133758.329887 kJ/mol
# GULP energy per Si atom -5573.263745 kJ/mol
# Density = 2.196336 g / cm^3
# Si number density = 22.013461 Si / 1000 Ang^3
#
#
#
# Elastic Constant Matrix: (Units=GPa)
#
#
# Indices 1 2 3 4 5 6 
#
# 1 121.0367 38.1383 55.8963 0.0000 4.3919 0.0000
# 2 38.1383 128.1457 29.1337 0.0000 -1.6891 0.0000
# 3 55.8963 29.1337 118.9071 0.0000 -3.3633 0.0000
# 4 0.0000 0.0000 0.0000 24.6492 0.0000 -8.7684
# 5 4.3919 -1.6891 -3.3633 0.0000 31.3949 0.0000
# 6 0.0000 0.0000 0.0000 -8.7684 0.0000 -7.0399
#
#
#
# Elastic Compliance Matrix: (Units=1/GPa)
#
#
# Indices 1 2 3 4 5 6 
#
# 1 0.011285 -0.002295 -0.004805 0.000000 -0.002217 0.000000
# 2 -0.002295 0.008732 -0.001041 0.000000 0.000679 0.000000
# 3 -0.004805 -0.001041 0.010975 0.000000 0.001792 0.000000
# 4 0.000000 0.000000 0.000000 0.028113 0.000000 -0.035016
# 5 -0.002217 0.000679 0.001792 0.000000 0.032391 0.000000
# 6 0.000000 0.000000 0.000000 -0.035016 0.000000 -0.098435
#
#
# Mechanical properties :
#
#
# Convention : Reuss Voigt Hill
#
# Bulk Modulus (GPa) = 67.98926 68.26955 68.12940
# Shear Modulus (GPa) = 350.94675 26.12894 188.53784
#
# Velocity S-wave (km/s) = 12.64001 3.44896 9.26459
# Velocity P-wave (km/s) = 15.61982 6.85130 12.06066
#
# Compressibility (1/GPa) = 0.01470821
#
# Stress axis : x y z
#
# Youngs Moduli (GPa) = 88.61573 114.51552 91.12004
#
# Poissons Ratio (x) = 0.26285 0.43784
# Poissons Ratio (y) = 0.20340 0.09489
# Poissons Ratio (z) = 0.42580 0.11925
#
# Static dielectric constant tensor:
#      x y z
#    x 1.903320 0.000000 -0.016010 
#    y 0.000000 1.812480 0.000000 
#    z -0.016010 0.000000 2.015500 
# 
# From -- ./inp_files/192529.got.cif
#   From: 2010.05.17/outbox.cif.g08.bks.cpg/sg12_97_cif.got.tgz:192529.got - 2010.06.03 13:09:07.
