data_PCOD9213557
_publ_section_title
;
Structure prediction by ZEFSAII (Michael W. Deem and Ramdas Pophale) SiO2 
 PCOD9213557
Probable space group: C 2/M
;
_chemical_formula_sum "Si O2"
_cell_formula_units_Z 60
_cell_length_a 13.550699
_cell_length_b 29.305567
_cell_length_c 12.033790
_cell_angle_alpha 90.000000
_cell_angle_beta 33.626134
_cell_angle_gamma 90.000000
_cell_volume 2646.334773
_symmetry_space_group_name_H-M "C 2/M"
_symmetry_group_IT_number 12
_symmetry_cell_setting 'monoclinic'
loop_
_space_group_symop_operation_xyz
x,y,z
-x,y,-z
-x,-y,-z
x,-y,z
1/2+x,1/2+y,z
1/2-x,1/2+y,-z
1/2-x,1/2-y,-z
1/2+x,1/2-y,z
loop_
_atom_site_type_symbol
_atom_site_label
_atom_site_fract_x
_atom_site_fract_y
_atom_site_fract_z
Si Si1 0.226404 0.050684 0.471147
Si Si2 0.593409 0.646418 0.604647
Si Si3 0.623968 0.788513 0.739149
Si Si4 0.541522 0.447572 0.080561
Si Si5 0.000000 0.363370 0.500000
Si Si6 0.403386 0.906657 0.830468
Si Si7 0.645988 0.312852 0.770550
Si Si8 0.212871 0.324491 0.901946
O O1 0.133146 0.097231 0.513583
O O2 0.436755 0.060547 0.279073
O O3 0.135647 0.050645 0.678247
O O4 0.191317 0.000000 0.455751
O O5 0.773431 0.676007 0.433557
O O6 0.559719 0.649803 0.768163
O O7 0.424389 0.671950 0.712575
O O8 0.686927 0.736938 0.680758
O O9 0.671352 0.812110 0.813552
O O10 0.411433 0.787696 0.918509
O O11 0.596205 0.500000 0.007439
O O12 0.500000 0.426086 0.000000
O O13 0.709521 0.427530 0.988494
O O14 0.028060 0.389502 0.355736
O O15 0.175661 0.333245 0.347356
O O16 0.365402 0.870023 0.964950
O O17 0.500000 0.302748 0.000000
#
# Coordination Sequence:
#
# PCOD9213557 Si02
#       8
#     8   8   8   8   4   8   8   8
#     4  11  23  40  63  96 131 170 221 271 326 391
#     4  12  24  43  71  95 129 181 213 279 330 393
#     4  11  25  47  65 100 128 169 227 275 333 402
#     4  10  22  38  60  92 131 175 226 273 327 395
#     4  12  26  38  63  98 140 176 215 266 326 400
#     4  12  22  41  64  94 131 181 219 266 330 391
#     4  12  26  43  66  98 139 170 221 272 329 401
#     4  11  23  42  69  94 128 170 220 273 332 393
#
# _framework density 22.672868999999999
#
# number of rings (size 3 to 8) (size 9 to 14) (size 15 to 20)
#    0.000    0.667    5.333    2.800    1.867    0.533 
#    0.000    2.667    0.000    4.000    0.000    0.000 
#    0.000    0.000    0.000    0.000    0.000    0.000 
#
# Total GULP energy -167273.379184 kJ/mol
# GULP energy per Si atom -5575.779306 kJ/mol
# Density = 2.262126 g / cm^3
# Si number density = 22.672869 Si / 1000 Ang^3
#
#
#
# Elastic Constant Matrix: (Units=GPa)
#
#
# Indices 1 2 3 4 5 6 
#
# 1 47.8130 19.9347 5.4855 0.0000 -20.9076 0.0000
# 2 19.9347 105.2432 2.5295 0.0000 -3.1327 0.0000
# 3 5.4855 2.5295 65.5275 0.0000 -17.8420 0.0000
# 4 0.0000 0.0000 0.0000 12.5908 0.0000 -5.4376
# 5 -20.9076 -3.1327 -17.8420 0.0000 42.1852 0.0000
# 6 0.0000 0.0000 0.0000 -5.4376 0.0000 28.3336
#
#
#
# Elastic Compliance Matrix: (Units=1/GPa)
#
#
# Indices 1 2 3 4 5 6 
#
# 1 0.029400 -0.005167 0.001810 0.000000 0.014953 0.000000
# 2 -0.005167 0.010433 -0.000516 0.000000 -0.002004 0.000000
# 3 0.001810 -0.000516 0.017362 0.000000 0.008202 0.000000
# 4 0.000000 0.000000 0.000000 0.086600 0.000000 0.016620
# 5 0.014953 -0.002004 0.008202 0.000000 0.034436 0.000000
# 6 0.000000 0.000000 0.000000 0.016620 0.000000 0.038483
#
#
# Mechanical properties :
#
#
# Convention : Reuss Voigt Hill
#
# Bulk Modulus (GPa) = 20.22297 30.49815 25.36056
# Shear Modulus (GPa) = 20.75159 29.33087 25.04123
#
# Velocity S-wave (km/s) = 3.02861 3.60064 3.32694
# Velocity P-wave (km/s) = 4.60096 5.54678 5.09586
#
# Compressibility (1/GPa) = 0.04944873
#
# Stress axis : x y z
#
# Youngs Moduli (GPa) = 34.01351 95.84701 57.59568
#
# Poissons Ratio (x) = 0.49527 -0.10423
# Poissons Ratio (y) = 0.17576 0.02972
# Poissons Ratio (z) = -0.06155 0.04945
#
# Static dielectric constant tensor:
#      x y z
#    x 1.881000 0.000000 0.063920 
#    y 0.000000 1.889180 0.000000 
#    z 0.063920 0.000000 1.913660 
# 
# From -- ./inp_files/219231.got.cif
#   From: 2010.05.17/outbox.cif.g08.bks.cpg/sg12_110_cif.got.tgz:219231.got - 2010.06.03 13:09:07.
