data_PCOD9213817
_publ_section_title
;
Structure prediction by ZEFSAII (Michael W. Deem and Ramdas Pophale) SiO2 
 PCOD9213817
Probable space group: C 2/M
;
_chemical_formula_sum "Si O2"
_cell_formula_units_Z 64
_cell_length_a 15.119427
_cell_length_b 7.865886
_cell_length_c 31.158138
_cell_angle_alpha 90.000000
_cell_angle_beta 129.164852
_cell_angle_gamma 90.000000
_cell_volume 2873.043618
_symmetry_space_group_name_H-M "C 2/M"
_symmetry_group_IT_number 12
_symmetry_cell_setting 'monoclinic'
loop_
_space_group_symop_operation_xyz
x,y,z
-x,y,-z
-x,-y,-z
x,-y,z
1/2+x,1/2+y,z
1/2-x,1/2+y,-z
1/2-x,1/2-y,-z
1/2+x,1/2-y,z
loop_
_atom_site_type_symbol
_atom_site_label
_atom_site_fract_x
_atom_site_fract_y
_atom_site_fract_z
Si Si1 0.858487 0.794556 0.085465
Si Si2 0.085398 0.189873 0.474812
Si Si3 0.230201 0.704199 0.299065
Si Si4 0.131413 0.195355 0.737848
Si Si5 0.583295 0.810946 0.377962
Si Si6 0.825122 0.746988 0.413781
Si Si7 0.970574 0.792345 0.208158
Si Si8 0.904100 0.204139 0.004069
O O1 0.928426 0.738092 0.148494
O O2 0.908444 0.732916 0.054976
O O3 0.861247 0.000000 0.085420
O O4 0.726043 0.742855 0.049345
O O5 0.105671 0.242186 0.432428
O O6 0.138350 0.313868 0.526959
O O7 0.949428 0.178684 0.440145
O O8 0.132955 0.000000 0.497614
O O9 0.258979 0.500000 0.313991
O O10 0.279036 0.766357 0.268553
O O11 0.289213 0.810987 0.355161
O O12 0.095540 0.725162 0.257266
O O13 0.112599 0.269272 0.779163
O O14 0.009454 0.202589 0.676096
O O15 0.165397 0.000000 0.754499
O O16 0.701387 0.819307 0.388583
O O17 0.535206 0.000000 0.367014
O O18 0.974276 0.000000 0.210618
O O19 0.917141 0.000000 0.009575
O O20 0.000000 0.269045 0.000000
#
# Coordination Sequence:
#
# PCOD9213817 Si02
#       8
#     8   8   8   8   8   8   8   8
#     4   9  19  36  56  83 121 154 189 234 276 325
#     4  11  22  40  61  80 105 143 182 222 279 350
#     4  11  21  38  59  80 106 143 188 230 273 335
#     4  10  22  39  58  78 105 145 187 222 270 339
#     4  12  23  37  56  83 110 133 173 230 282 330
#     4  11  22  38  61  82 106 142 184 226 279 345
#     4  10  22  39  58  84 115 150 187 232 285 325
#     4   9  18  34  58  87 119 157 195 231 273 322
#
# _framework density 22.276028
#
# number of rings (size 3 to 8) (size 9 to 14) (size 15 to 20)
#    0.000    1.625    2.500    3.375    0.000    2.250 
#    0.000    3.750    0.000    0.000    0.000    0.000 
#    0.000    0.000    0.000    0.000    0.000    0.000 
#
# Total GULP energy -178245.329329 kJ/mol
# GULP energy per Si atom -5570.166542 kJ/mol
# Density = 2.222533 g / cm^3
# Si number density = 22.276028 Si / 1000 Ang^3
#
#
#
# Elastic Constant Matrix: (Units=GPa)
#
#
# Indices 1 2 3 4 5 6 
#
# 1 145.6205 8.7350 33.0708 0.0000 -30.5748 0.0000
# 2 8.7350 53.2422 2.7211 0.0000 -6.7767 0.0000
# 3 33.0708 2.7211 130.7751 0.0000 -33.9348 0.0000
# 4 0.0000 0.0000 0.0000 27.8712 0.0000 -0.2219
# 5 -30.5748 -6.7767 -33.9348 0.0000 28.0901 0.0000
# 6 0.0000 0.0000 0.0000 -0.2219 0.0000 5.1246
#
#
#
# Elastic Compliance Matrix: (Units=1/GPa)
#
#
# Indices 1 2 3 4 5 6 
#
# 1 0.008917 -0.000195 0.000372 0.000000 0.010108 0.000000
# 2 -0.000195 0.019507 0.001179 0.000000 0.005918 0.000000
# 3 0.000372 0.001179 0.011226 0.000000 0.014251 0.000000
# 4 0.000000 0.000000 0.000000 0.035892 0.000000 0.001554
# 5 0.010108 0.005918 0.014251 0.000000 0.065246 0.000000
# 6 0.000000 0.000000 0.000000 0.001554 0.000000 0.195203
#
#
# Mechanical properties :
#
#
# Convention : Reuss Voigt Hill
#
# Bulk Modulus (GPa) = 23.60632 46.52129 35.06381
# Shear Modulus (GPa) = 14.39265 31.22458 22.80861
#
# Velocity S-wave (km/s) = 2.54462 3.74801 3.20333
# Velocity P-wave (km/s) = 4.38790 6.29757 5.42739
#
# Compressibility (1/GPa) = 0.04236153
#
# Stress axis : x y z
#
# Youngs Moduli (GPa) = 112.15024 51.26331 89.07728
#
# Poissons Ratio (x) = 0.01002 -0.03314
# Poissons Ratio (y) = 0.02191 -0.10504
# Poissons Ratio (z) = -0.04172 -0.06045
#
# Static dielectric constant tensor:
#      x y z
#    x 1.818980 0.000000 -0.050700 
#    y 0.000000 1.838940 0.000000 
#    z -0.050700 0.000000 1.793120 
# 
# From -- ./inp_files/375524.got.cif
#   From: 2010.05.17/outbox.cif.g08.bks.cpg/sg12_188_cif.got.tgz:375524.got - 2010.06.03 13:09:07.
