data_PCOD9213694
_publ_section_title
;
Structure prediction by ZEFSAII (Michael W. Deem and Ramdas Pophale) SiO2 
 PCOD9213694
Probable space group: C 2/M
;
_chemical_formula_sum "Si O2"
_cell_formula_units_Z 52
_cell_length_a 13.487672
_cell_length_b 19.540538
_cell_length_c 12.587436
_cell_angle_alpha 90.000000
_cell_angle_beta 42.000365
_cell_angle_gamma 90.000000
_cell_volume 2219.855760
_symmetry_space_group_name_H-M "C 2/M"
_symmetry_group_IT_number 12
_symmetry_cell_setting 'monoclinic'
loop_
_space_group_symop_operation_xyz
x,y,z
-x,y,-z
-x,-y,-z
x,-y,z
1/2+x,1/2+y,z
1/2-x,1/2+y,-z
1/2-x,1/2-y,-z
1/2+x,1/2-y,z
loop_
_atom_site_type_symbol
_atom_site_label
_atom_site_fract_x
_atom_site_fract_y
_atom_site_fract_z
Si Si1 0.230441 0.000000 0.608674
Si Si2 0.448887 0.248959 0.376713
Si Si3 0.751040 0.423140 0.993636
Si Si4 0.255172 0.241903 0.744471
Si Si5 0.902904 0.603887 0.327453
Si Si6 0.046821 0.863143 0.801162
Si Si7 0.167462 0.394904 0.843395
O O1 0.345717 0.059642 0.470565
O O2 0.116815 0.061817 0.734921
O O3 0.355809 0.252266 0.558768
O O4 0.619304 0.230581 0.267119
O O5 0.388536 0.184348 0.359695
O O6 0.441737 0.318592 0.316410
O O7 0.723553 0.500000 0.978018
O O8 0.628515 0.373565 0.042433
O O9 0.735657 0.420055 0.135091
O O10 0.922770 0.407812 0.832805
O O11 0.139640 0.182470 0.809868
O O12 0.176008 0.312745 0.836578
O O13 0.807850 0.583641 0.298258
O O14 0.000000 0.417287 0.000000
#
# Coordination Sequence:
#
# PCOD9213694 Si02
#       7
#     4   8   8   8   8   8   8
#     4  12  24  40  69  96 131 184 215 266 335 401
#     4  11  23  41  68  95 130 179 221 273 327 390
#     4  11  24  42  65  99 137 172 213 274 337 401
#     4  11  22  40  63  98 130 166 224 279 314 383
#     4  11  23  43  67  94 134 178 221 263 334 399
#     4  12  23  42  67  98 132 168 226 274 331 379
#     4  10  22  38  64  95 129 171 215 264 332 397
#
# _framework density 23.424945000000001
#
# number of rings (size 3 to 8) (size 9 to 14) (size 15 to 20)
#    0.000    0.923    6.154    1.385    1.077    2.769 
#    0.000    2.308    0.000    0.923    0.000    0.000 
#    0.000    0.000    0.000    0.000    0.000    0.000 
#
# Total GULP energy -144873.351157 kJ/mol
# GULP energy per Si atom -5572.051968 kJ/mol
# Density = 2.337163 g / cm^3
# Si number density = 23.424945 Si / 1000 Ang^3
#
#
#
# Elastic Constant Matrix: (Units=GPa)
#
#
# Indices 1 2 3 4 5 6 
#
# 1 106.0931 27.8869 20.1094 -0.0004 -26.5597 0.0004
# 2 27.8869 147.2384 12.8083 -0.0015 -6.3176 0.0008
# 3 20.1094 12.8083 68.4613 -0.0014 -17.6659 0.0012
# 4 -0.0004 -0.0015 -0.0014 23.2239 0.0005 -10.6099
# 5 -26.5597 -6.3176 -17.6659 0.0005 33.1990 -0.0005
# 6 0.0004 0.0008 0.0012 -10.6099 -0.0005 11.1037
#
#
#
# Elastic Compliance Matrix: (Units=1/GPa)
#
#
# Indices 1 2 3 4 5 6 
#
# 1 0.012357 -0.001870 -0.000951 0.000000 0.009023 0.000000
# 2 -0.001870 0.007202 -0.000963 0.000000 -0.000638 0.000000
# 3 -0.000951 -0.000963 0.017182 0.000000 0.008199 -0.000001
# 4 0.000000 0.000000 0.000000 0.076418 0.000000 0.073019
# 5 0.009023 -0.000638 0.008199 0.000000 0.041581 0.000001
# 6 0.000000 0.000000 -0.000001 0.073019 0.000001 0.159832
#
#
# Mechanical properties :
#
#
# Convention : Reuss Voigt Hill
#
# Bulk Modulus (GPa) = 34.27933 49.26691 41.77312
# Shear Modulus (GPa) = 15.06636 30.90455 22.98545
#
# Velocity S-wave (km/s) = 2.53884 3.63616 3.13587
# Velocity P-wave (km/s) = 4.82284 6.22144 5.56624
#
# Compressibility (1/GPa) = 0.02917210
#
# Stress axis : x y z
#
# Youngs Moduli (GPa) = 80.92863 138.84397 58.20083
#
# Poissons Ratio (x) = 0.25970 0.05536
# Poissons Ratio (y) = 0.15137 0.05603
# Poissons Ratio (z) = 0.07698 0.13367
#
# Static dielectric constant tensor:
#      x y z
#    x 1.959540 0.000000 0.045360 
#    y 0.000000 1.829200 0.000000 
#    z 0.045360 0.000000 1.914190 
# 
# From -- ./inp_files/216725.got.cif
#   From: 2010.05.17/outbox.cif.g08.bks.cpg/sg12_109_cif.got.tgz:216725.got - 2010.06.03 13:09:07.
