data_PCOD9213129
_publ_section_title
;
Structure prediction by ZEFSAII (Michael W. Deem and Ramdas Pophale) SiO2 
 PCOD9213129
Probable space group: C 2/M
;
_chemical_formula_sum "Si O2"
_cell_formula_units_Z 48
_cell_length_a 14.059876
_cell_length_b 11.097968
_cell_length_c 13.823398
_cell_angle_alpha 90.000000
_cell_angle_beta 81.799488
_cell_angle_gamma 90.000000
_cell_volume 2134.893583
_symmetry_space_group_name_H-M "C 2/M"
_symmetry_group_IT_number 12
_symmetry_cell_setting 'monoclinic'
loop_
_space_group_symop_operation_xyz
x,y,z
-x,y,-z
-x,-y,-z
x,-y,z
1/2+x,1/2+y,z
1/2-x,1/2+y,-z
1/2-x,1/2-y,-z
1/2+x,1/2-y,z
loop_
_atom_site_type_symbol
_atom_site_label
_atom_site_fract_x
_atom_site_fract_y
_atom_site_fract_z
Si Si1 0.258925 0.630964 0.724804
Si Si2 0.401594 0.868739 0.419512
Si Si3 0.697785 0.870150 0.357684
Si Si4 0.508014 0.363003 0.105152
Si Si5 0.430008 0.362602 0.323545
Si Si6 0.765654 0.132182 0.934679
O O1 0.308250 0.500000 0.713307
O O2 0.178797 0.628154 0.653082
O O3 0.322519 0.748851 0.698136
O O4 0.214568 0.641266 0.838282
O O5 0.347961 0.860926 0.529652
O O6 0.459279 0.746350 0.390368
O O7 0.451749 0.000000 0.408181
O O8 0.814078 0.872289 0.349419
O O9 0.670441 0.000000 0.317851
O O10 0.468609 0.500000 0.098318
O O11 0.457215 0.321907 0.210557
O O12 0.621349 0.368856 0.106926
O O13 0.500000 0.302772 0.000000
O O14 0.466124 0.500000 0.334849
O O15 0.743089 0.000000 0.982132
O O16 0.750000 0.250000 0.000000
#
# Coordination Sequence:
#
# PCOD9213129 Si02
#       6
#     8   8   8   8   8   8
#     4   9  17  29  46  70 101 130 160 207 260 299
#     4   9  17  29  47  75 108 134 165 211 259 303
#     4   9  17  28  49  79 102 131 174 212 248 305
#     4   9  19  34  52  75 103 136 176 221 260 302
#     4   9  16  27  47  72  97 128 170 209 249 299
#     4  10  22  37  54  76 104 138 176 218 266 312
#
# _framework density 22.483556
#
# number of rings (size 3 to 8) (size 9 to 14) (size 15 to 20)
#    0.000    2.833    0.000    2.000    4.667    2.667 
#    0.000    0.833    0.000    5.000    0.000   23.333 
#    0.000    0.000    0.000    0.000    0.000    0.000 
#
# Total GULP energy -133723.948462 kJ/mol
# GULP energy per Si atom -5571.831186 kJ/mol
# Density = 2.243238 g / cm^3
# Si number density = 22.483556 Si / 1000 Ang^3
#
#
#
# Elastic Constant Matrix: (Units=GPa)
#
#
# Indices 1 2 3 4 5 6 
#
# 1 53.7158 8.8803 14.8153 0.0000 -8.0671 0.0000
# 2 8.8803 249.9026 78.4122 0.0000 -5.4047 0.0000
# 3 14.8153 78.4122 109.5618 0.0000 2.4817 0.0000
# 4 0.0000 0.0000 0.0000 36.1938 0.0000 1.1644
# 5 -8.0671 -5.4047 2.4817 0.0000 18.2588 0.0000
# 6 0.0000 0.0000 0.0000 1.1644 0.0000 -6.7279
#
#
#
# Elastic Compliance Matrix: (Units=1/GPa)
#
#
# Indices 1 2 3 4 5 6 
#
# 1 0.020964 0.000553 -0.003455 0.000000 0.009896 0.000000
# 2 0.000553 0.005252 -0.003886 0.000000 0.002327 0.000000
# 3 -0.003455 -0.003886 0.012475 0.000000 -0.004372 0.000000
# 4 0.000000 0.000000 0.000000 0.027476 0.000000 0.004755
# 5 0.009896 0.002327 -0.004372 0.000000 0.060423 0.000000
# 6 0.000000 0.000000 0.000000 0.004755 0.000000 -0.147812
#
#
# Mechanical properties :
#
#
# Convention : Reuss Voigt Hill
#
# Bulk Modulus (GPa) = 39.81710 68.59954 54.20832
# Shear Modulus (GPa) = 6898.23488 30.28310 3464.25899
#
# Velocity S-wave (km/s) = 55.45075 3.67399 39.29557
# Velocity P-wave (km/s) = 64.16745 6.96957 45.64009
#
# Compressibility (1/GPa) = 0.02511484
#
# Stress axis : x y z
#
# Youngs Moduli (GPa) = 47.70062 190.42046 80.16280
#
# Poissons Ratio (x) = -0.10532 0.27695
# Poissons Ratio (y) = -0.02638 0.31151
# Poissons Ratio (z) = 0.16480 0.73997
#
# Static dielectric constant tensor:
#      x y z
#    x 1.863030 0.000000 0.026030 
#    y 0.000000 1.871790 0.000000 
#    z 0.026030 0.000000 1.828570 
# 
# From -- ./inp_files/154220.got.cif
#   From: 2010.05.17/outbox.cif.g08.bks.cpg/sg12_78_cif.got.tgz:154220.got - 2010.06.03 13:09:07.
