data_PCOD9213963
_publ_section_title
;
Structure prediction by ZEFSAII (Michael W. Deem and Ramdas Pophale) SiO2 
 PCOD9213963
Probable space group: C 2/M
;
_chemical_formula_sum "Si O2"
_cell_formula_units_Z 40
_cell_length_a 14.550824
_cell_length_b 18.294069
_cell_length_c 14.281600
_cell_angle_alpha 90.000000
_cell_angle_beta 150.517628
_cell_angle_gamma 90.000000
_cell_volume 1871.015286
_symmetry_space_group_name_H-M "C 2/M"
_symmetry_group_IT_number 12
_symmetry_cell_setting 'monoclinic'
loop_
_space_group_symop_operation_xyz
x,y,z
-x,y,-z
-x,-y,-z
x,-y,z
1/2+x,1/2+y,z
1/2-x,1/2+y,-z
1/2-x,1/2-y,-z
1/2+x,1/2-y,z
loop_
_atom_site_type_symbol
_atom_site_label
_atom_site_fract_x
_atom_site_fract_y
_atom_site_fract_z
Si Si1 0.784363 0.583037 0.282006
Si Si2 0.269893 0.812755 0.595070
Si Si3 0.050743 0.085003 0.266008
Si Si4 0.275586 0.745975 0.798253
Si Si5 0.704890 0.172370 0.005371
O O1 0.730106 0.500000 0.197202
O O2 0.656522 0.598275 0.260805
O O3 0.781726 0.662394 0.228038
O O4 0.000000 0.575674 0.500000
O O5 0.250000 0.750000 0.500000
O O6 0.153765 0.876890 0.444360
O O7 0.210217 0.773715 0.638780
O O8 0.483964 0.838840 0.799539
O O9 0.839519 0.113708 0.078563
O O10 0.054370 0.000000 0.283770
O O11 0.232580 0.810402 0.833035
O O12 0.500000 0.742111 0.000000
O O13 0.750000 0.250000 0.000000
#
# Coordination Sequence:
#
# PCOD9213963 Si02
#       5
#     8   8   8   8   8
#     4  10  22  39  60  92 130 166 210 268 336 398
#     4  11  21  41  67  96 128 173 222 267 322 390
#     4  11  24  43  65  98 136 171 217 274 334 391
#     4  10  22  39  63  94 127 167 219 270 322 391
#     4  11  23  40  66  97 129 174 223 269 322 392
#
# _framework density 21.378767
#
# number of rings (size 3 to 8) (size 9 to 14) (size 15 to 20)
#    0.000    1.400    4.000    1.200    5.600    1.200 
#    0.000    3.000    0.000    3.600    0.000    0.000 
#    0.000    0.000    0.000    0.000    0.000    0.000 
#
# Total GULP energy -111631.464605 kJ/mol
# GULP energy per Si atom -5581.573230 kJ/mol
# Density = 2.133011 g / cm^3
# Si number density = 21.378767 Si / 1000 Ang^3
#
#
#
# Elastic Constant Matrix: (Units=GPa)
#
#
# Indices 1 2 3 4 5 6 
#
# 1 66.8846 15.4403 29.7894 0.0000 -5.3323 0.0000
# 2 15.4403 101.7595 28.5177 0.0000 6.3182 0.0000
# 3 29.7894 28.5177 82.6519 0.0000 -0.9074 0.0000
# 4 0.0000 0.0000 0.0000 60.3905 0.0000 37.8777
# 5 -5.3323 6.3182 -0.9074 0.0000 42.8144 0.0000
# 6 0.0000 0.0000 0.0000 37.8777 0.0000 55.8754
#
#
#
# Elastic Compliance Matrix: (Units=1/GPa)
#
#
# Indices 1 2 3 4 5 6 
#
# 1 0.018124 -0.001184 -0.006099 0.000000 0.002303 0.000000
# 2 -0.001184 0.011079 -0.003416 0.000000 -0.001855 0.000000
# 3 -0.006099 -0.003416 0.015477 0.000000 0.000073 0.000000
# 4 0.000000 0.000000 0.000000 0.028807 0.000000 -0.019528
# 5 0.002303 -0.001855 0.000073 0.000000 0.023919 0.000000
# 6 0.000000 0.000000 0.000000 -0.019528 0.000000 0.031135
#
#
# Mechanical properties :
#
#
# Convention : Reuss Voigt Hill
#
# Bulk Modulus (GPa) = 42.95101 44.31009 43.63055
# Shear Modulus (GPa) = 31.70578 43.65262 37.67920
#
# Velocity S-wave (km/s) = 3.85522 4.52361 4.20272
# Velocity P-wave (km/s) = 6.32068 6.93219 6.63349
#
# Compressibility (1/GPa) = 0.02328234
#
# Stress axis : x y z
#
# Youngs Moduli (GPa) = 55.17475 90.25817 64.61389
#
# Poissons Ratio (x) = 0.10686 0.39405
# Poissons Ratio (y) = 0.06532 0.22075
# Poissons Ratio (z) = 0.33649 0.30836
#
# Static dielectric constant tensor:
#      x y z
#    x 1.959140 0.000000 -0.045650 
#    y 0.000000 1.739380 0.000000 
#    z -0.045650 0.000000 1.804160 
# 
# From -- ./inp_files/216949.got.cif
#   From: 2010.05.17/outbox.cif.g08.bks.cpg/sg12_109_cif.got.tgz:216949.got - 2010.06.03 13:09:07.
