data_PCOD9213680
_publ_section_title
;
Structure prediction by ZEFSAII (Michael W. Deem and Ramdas Pophale) SiO2 
 PCOD9213680
Probable space group: C 2/M
;
_chemical_formula_sum "Si O2"
_cell_formula_units_Z 56
_cell_length_a 7.626471
_cell_length_b 19.223875
_cell_length_c 24.391598
_cell_angle_alpha 90.000000
_cell_angle_beta 136.666776
_cell_angle_gamma 90.000000
_cell_volume 2454.036387
_symmetry_space_group_name_H-M "C 2/M"
_symmetry_group_IT_number 12
_symmetry_cell_setting 'monoclinic'
loop_
_space_group_symop_operation_xyz
x,y,z
-x,y,-z
-x,-y,-z
x,-y,z
1/2+x,1/2+y,z
1/2-x,1/2+y,-z
1/2-x,1/2-y,-z
1/2+x,1/2-y,z
loop_
_atom_site_type_symbol
_atom_site_label
_atom_site_fract_x
_atom_site_fract_y
_atom_site_fract_z
Si Si1 0.778170 0.417228 0.834314
Si Si2 0.686965 0.500000 0.593034
Si Si3 0.688373 0.167527 0.990691
Si Si4 0.040568 0.857371 0.335559
Si Si5 0.071800 0.366638 0.313001
Si Si6 0.764314 0.000000 0.590855
Si Si7 0.087672 0.919576 0.141985
Si Si8 0.260263 0.772153 0.564962
O O1 0.814707 0.500000 0.825123
O O2 0.630875 0.367710 0.757506
O O3 0.600264 0.421182 0.847879
O O4 0.035892 0.375326 0.909035
O O5 0.500000 0.500000 0.500000
O O6 0.869452 0.435239 0.639853
O O7 0.502304 0.500000 0.603429
O O8 0.942817 0.124619 0.063127
O O9 0.500000 0.162555 0.000000
O O10 0.750000 0.250000 0.000000
O O11 0.827309 0.850121 0.335861
O O12 0.241233 0.797697 0.397955
O O13 0.199891 0.928540 0.369928
O O14 0.028184 0.311751 0.351555
O O15 0.843089 0.381073 0.219762
O O16 0.500000 0.000000 0.500000
O O17 0.138715 0.000000 0.138086
O O18 0.250000 0.750000 0.500000
O O19 0.000000 0.818236 0.500000
#
# Coordination Sequence:
#
# PCOD9213680 Si02
#       8
#     8   4   8   8   8   4   8   8
#     4  10  22  42  68  97 128 168 214 263 318 378
#     4  10  22  38  64  87 124 161 207 266 315 370
#     4  10  23  43  67  97 133 169 211 260 315 383
#     4  11  24  42  64  92 129 165 211 268 320 378
#     4  11  24  42  63  94 127 167 212 264 323 379
#     4  10  22  40  62  91 122 161 209 264 315 370
#     4  10  22  42  68  97 127 169 215 262 318 380
#     4  12  26  45  62  88 127 173 218 262 321 381
#
# _framework density 22.819547
#
# number of rings (size 3 to 8) (size 9 to 14) (size 15 to 20)
#    0.000    1.429    2.857    1.286    6.000    4.000 
#    0.000    0.000    0.000    2.571    0.000    0.000 
#    0.000    0.000    0.000    0.000    0.000    0.000 
#
# Total GULP energy -156049.698888 kJ/mol
# GULP energy per Si atom -5573.203532 kJ/mol
# Density = 2.276761 g / cm^3
# Si number density = 22.819547 Si / 1000 Ang^3
#
#
#
# Elastic Constant Matrix: (Units=GPa)
#
#
# Indices 1 2 3 4 5 6 
#
# 1 37.5968 3.1199 0.7788 -0.0003 6.6284 -0.0001
# 2 3.1199 117.0886 66.7220 0.0006 1.0967 0.0002
# 3 0.7788 66.7220 207.3652 -0.0003 14.7432 0.0004
# 4 -0.0003 0.0006 -0.0003 81.1011 0.0006 14.6601
# 5 6.6284 1.0967 14.7432 0.0006 34.5310 0.0003
# 6 -0.0001 0.0002 0.0004 14.6601 0.0003 25.7445
#
#
#
# Elastic Compliance Matrix: (Units=1/GPa)
#
#
# Indices 1 2 3 4 5 6 
#
# 1 0.027648 -0.001041 0.000625 0.000000 -0.005541 0.000000
# 2 -0.001041 0.010541 -0.003484 0.000000 0.001353 0.000000
# 3 0.000625 -0.003484 0.006128 0.000000 -0.002626 0.000000
# 4 0.000000 0.000000 0.000000 0.013745 0.000000 -0.007827
# 5 -0.005541 0.001353 -0.002626 0.000000 0.031101 0.000000
# 6 0.000000 0.000000 0.000000 -0.007827 0.000000 0.043300
#
#
# Mechanical properties :
#
#
# Convention : Reuss Voigt Hill
#
# Bulk Modulus (GPa) = 27.38430 55.92135 41.65283
# Shear Modulus (GPa) = 32.80073 47.70398 40.25236
#
# Velocity S-wave (km/s) = 3.79541 4.57715 4.20449
# Velocity P-wave (km/s) = 5.58868 7.24519 6.47017
#
# Compressibility (1/GPa) = 0.03651727
#
# Stress axis : x y z
#
# Youngs Moduli (GPa) = 36.16856 94.86876 163.19298
#
# Poissons Ratio (x) = 0.09876 -0.10201
# Poissons Ratio (y) = 0.03765 0.56855
# Poissons Ratio (z) = -0.02261 0.33051
#
# Static dielectric constant tensor:
#      x y z
#    x 2.275600 0.000000 0.023130 
#    y 0.000000 1.799390 0.000000 
#    z 0.023130 0.000000 1.820670 
# 
# From -- ./inp_files/356768.got.cif
#   From: 2010.05.17/outbox.cif.g08.bks.cpg/sg12_179_cif.got.tgz:356768.got - 2010.06.03 13:09:07.
