data_PCOD9213631
_publ_section_title
;
Structure prediction by ZEFSAII (Michael W. Deem and Ramdas Pophale) SiO2 
 PCOD9213631
Probable space group: C 2/M
;
_chemical_formula_sum "Si O2"
_cell_formula_units_Z 56
_cell_length_a 14.177532
_cell_length_b 13.464749
_cell_length_c 18.362433
_cell_angle_alpha 90.000000
_cell_angle_beta 54.959093
_cell_angle_gamma 90.000000
_cell_volume 2869.963435
_symmetry_space_group_name_H-M "C 2/M"
_symmetry_group_IT_number 12
_symmetry_cell_setting 'monoclinic'
loop_
_space_group_symop_operation_xyz
x,y,z
-x,y,-z
-x,-y,-z
x,-y,z
1/2+x,1/2+y,z
1/2-x,1/2+y,-z
1/2-x,1/2-y,-z
1/2+x,1/2-y,z
loop_
_atom_site_type_symbol
_atom_site_label
_atom_site_fract_x
_atom_site_fract_y
_atom_site_fract_z
Si Si1 0.003956 0.000000 0.371083
Si Si2 0.681291 0.381009 0.079188
Si Si3 0.765929 0.885894 0.232536
Si Si4 0.677684 0.820676 0.588079
Si Si5 0.545546 0.656872 0.731654
Si Si6 0.034178 0.384979 0.408931
Si Si7 0.863631 0.228126 0.050521
Si Si8 0.822695 0.000000 0.583202
O O1 0.980289 0.907776 0.328639
O O2 0.125558 0.000000 0.358581
O O3 0.916926 0.000000 0.476999
O O4 0.681743 0.500000 0.086646
O O5 0.573492 0.336765 0.172049
O O6 0.796145 0.328227 0.058190
O O7 0.661098 0.348246 0.004753
O O8 0.860254 0.888575 0.255049
O O9 0.645648 0.844368 0.318166
O O10 0.812262 0.818705 0.146831
O O11 0.747789 0.000000 0.215108
O O12 0.750000 0.750000 0.500000
O O13 0.605067 0.755656 0.676644
O O14 0.581764 0.879816 0.585263
O O15 0.753601 0.899499 0.597654
O O16 0.066670 0.500000 0.409714
O O17 0.000000 0.334118 0.500000
O O18 0.000000 0.242464 0.000000
#
# Coordination Sequence:
#
# PCOD9213631 Si02
#       8
#     4   8   8   8   8   8   8   4
#     4  11  24  44  67  95 131 175 238 268 341 408
#     4  11  24  44  71 100 139 178 218 277 340 401
#     4  11  22  40  70 101 131 170 223 282 335 390
#     4  12  24  40  66  91 133 176 226 275 333 401
#     4  12  23  41  69  97 128 175 225 281 326 406
#     4  10  22  38  62  93 129 167 214 273 333 389
#     4  11  24  43  70 105 135 173 227 277 336 404
#     4  11  26  46  62  95 133 185 222 288 338 397
#
# _framework density 19.512443000000001
#
# number of rings (size 3 to 8) (size 9 to 14) (size 15 to 20)
#    0.000    0.857    5.000    2.143    0.000    4.286 
#    0.000    0.000    1.571    0.000    0.000    0.000 
#    0.000    0.000    0.000    0.000    0.000    0.000 
#
# Total GULP energy -156392.118270 kJ/mol
# GULP energy per Si atom -5585.432795 kJ/mol
# Density = 1.946803 g / cm^3
# Si number density = 19.512443 Si / 1000 Ang^3
#
#
#
# Elastic Constant Matrix: (Units=GPa)
#
#
# Indices 1 2 3 4 5 6 
#
# 1 151.1449 43.5814 61.7188 0.0000 -0.2727 0.0000
# 2 43.5814 95.4917 47.5833 0.0000 -2.1788 0.0000
# 3 61.7188 47.5833 141.7669 0.0000 -8.1523 0.0000
# 4 0.0000 0.0000 0.0000 -2.2307 0.0000 -15.1684
# 5 -0.2727 -2.1788 -8.1523 0.0000 38.8316 0.0000
# 6 0.0000 0.0000 0.0000 -15.1684 0.0000 8.0399
#
#
#
# Elastic Compliance Matrix: (Units=1/GPa)
#
#
# Indices 1 2 3 4 5 6 
#
# 1 0.008514 -0.002443 -0.002926 0.000000 -0.000692 0.000000
# 2 -0.002443 0.013278 -0.003392 0.000000 0.000016 0.000000
# 3 -0.002926 -0.003392 0.009570 0.000000 0.001798 0.000000
# 4 0.000000 0.000000 0.000000 -0.032417 0.000000 -0.061159
# 5 -0.000692 0.000016 0.001798 0.000000 0.026126 0.000000
# 6 0.000000 0.000000 0.000000 -0.061159 0.000000 0.008994
#
#
# Mechanical properties :
#
#
# Convention : Reuss Voigt Hill
#
# Bulk Modulus (GPa) = 72.26295 77.13007 74.69651
# Shear Modulus (GPa) = 88.96539 24.62949 56.79744
#
# Velocity S-wave (km/s) = 6.75967 3.55666 5.40107
# Velocity P-wave (km/s) = 9.90146 7.51538 8.78976
#
# Compressibility (1/GPa) = 0.01383835
#
# Stress axis : x y z
#
# Youngs Moduli (GPa) = 117.44723 75.31341 104.49563
#
# Poissons Ratio (x) = 0.18402 0.30580
# Poissons Ratio (y) = 0.28698 0.35445
# Poissons Ratio (z) = 0.34370 0.25546
#
# Static dielectric constant tensor:
#      x y z
#    x 1.684260 0.000000 -0.004850 
#    y 0.000000 1.705930 0.000000 
#    z -0.004850 0.000000 1.682410 
# 
# From -- ./inp_files/263291.got.cif
#   From: 2010.05.17/outbox.cif.g08.bks.cpg/sg12_132_cif.got.tgz:263291.got - 2010.06.03 13:09:07.
