data_PCOD9213600
_publ_section_title
;
Structure prediction by ZEFSAII (Michael W. Deem and Ramdas Pophale) SiO2 
 PCOD9213600
Probable space group: C 2/M
;
_chemical_formula_sum "Si O2"
_cell_formula_units_Z 56
_cell_length_a 21.184174
_cell_length_b 14.485249
_cell_length_c 15.507456
_cell_angle_alpha 90.000000
_cell_angle_beta 142.581303
_cell_angle_gamma 90.000000
_cell_volume 2891.484513
_symmetry_space_group_name_H-M "C 2/M"
_symmetry_group_IT_number 12
_symmetry_cell_setting 'monoclinic'
loop_
_space_group_symop_operation_xyz
x,y,z
-x,y,-z
-x,-y,-z
x,-y,z
1/2+x,1/2+y,z
1/2-x,1/2+y,-z
1/2-x,1/2-y,-z
1/2+x,1/2-y,z
loop_
_atom_site_type_symbol
_atom_site_label
_atom_site_fract_x
_atom_site_fract_y
_atom_site_fract_z
Si Si1 0.127355 0.394939 0.529491
Si Si2 0.550567 0.608995 0.963110
Si Si3 0.380883 0.890672 0.842765
Si Si4 0.785026 0.353386 0.560479
Si Si5 0.461181 0.256164 0.363926
Si Si6 0.256489 0.731176 0.801885
Si Si7 0.446169 0.397944 0.670680
O O1 0.123863 0.500000 0.557524
O O2 0.168350 0.394164 0.476250
O O3 0.204547 0.331318 0.669860
O O4 0.016612 0.343246 0.413146
O O5 0.577358 0.500000 0.996779
O O6 0.471770 0.621546 0.798564
O O7 0.500000 0.634361 0.000000
O O8 0.651043 0.671175 0.058195
O O9 0.364310 0.862491 0.725163
O O10 0.304955 0.824281 0.814795
O O11 0.357870 0.000000 0.827815
O O12 0.500000 0.875572 0.000000
O O13 0.750000 0.250000 0.500000
O O14 0.677395 0.398718 0.473421
O O15 0.500000 0.291096 0.500000
O O16 0.337602 0.250500 0.235130
O O17 0.503941 0.321852 0.336195
O O18 0.488127 0.500000 0.696073
#
# Coordination Sequence:
#
# PCOD9213600 Si02
#       7
#     8   8   8   8   8   8   8
#     4  11  22  37  61  92 123 160 208 262 317 375
#     4  10  22  38  61  94 125 156 202 260 321 374
#     4  11  25  42  62  93 127 163 208 261 320 380
#     4  12  21  39  65  90 120 157 205 259 316 373
#     4  10  23  39  57  88 119 163 212 254 309 372
#     4  11  22  38  62  85 123 169 206 250 309 375
#     4  11  23  40  63  91 122 157 206 263 312 370
#
# _framework density 19.367213
#
# number of rings (size 3 to 8) (size 9 to 14) (size 15 to 20)
#    0.000    1.143    2.857    3.857    2.000    5.714 
#    0.000    0.000    0.000    1.714    0.000    0.000 
#    0.000    0.000    0.000    0.000    0.000    0.000 
#
# Total GULP energy -156494.408508 kJ/mol
# GULP energy per Si atom -5589.086018 kJ/mol
# Density = 1.932313 g / cm^3
# Si number density = 19.367213 Si / 1000 Ang^3
#
#
#
# Elastic Constant Matrix: (Units=GPa)
#
#
# Indices 1 2 3 4 5 6 
#
# 1 99.1579 42.5541 29.9754 0.0000 5.5851 0.0000
# 2 42.5541 142.1280 37.1551 0.0000 5.3721 0.0000
# 3 29.9754 37.1551 99.7290 0.0000 2.4533 0.0000
# 4 0.0000 0.0000 0.0000 23.5868 0.0000 -2.3902
# 5 5.5851 5.3721 2.4533 0.0000 29.7597 0.0000
# 6 0.0000 0.0000 0.0000 -2.3902 0.0000 -54.2744
#
#
#
# Elastic Compliance Matrix: (Units=1/GPa)
#
#
# Indices 1 2 3 4 5 6 
#
# 1 0.012196 -0.002930 -0.002536 0.000000 -0.001551 0.000000
# 2 -0.002930 0.008540 -0.002281 0.000000 -0.000804 0.000000
# 3 -0.002536 -0.002281 0.011641 0.000000 -0.000072 0.000000
# 4 0.000000 0.000000 0.000000 0.042208 0.000000 -0.001859
# 5 -0.001551 -0.000804 -0.000072 0.000000 0.034045 0.000000
# 6 0.000000 0.000000 0.000000 -0.001859 0.000000 -0.018343
#
#
# Mechanical properties :
#
#
# Convention : Reuss Voigt Hill
#
# Bulk Modulus (GPa) = 59.23206 62.26488 60.74847
# Shear Modulus (GPa) = 44.87949 15.23642 30.05796
#
# Velocity S-wave (km/s) = 4.81905 2.80788 3.94382
# Velocity P-wave (km/s) = 7.84948 6.53695 7.22309
#
# Compressibility (1/GPa) = 0.01688275
#
# Stress axis : x y z
#
# Youngs Moduli (GPa) = 81.99143 117.09711 85.90266
#
# Poissons Ratio (x) = 0.34310 0.21786
# Poissons Ratio (y) = 0.24024 0.19596
# Poissons Ratio (z) = 0.20794 0.26712
#
# Static dielectric constant tensor:
#      x y z
#    x 1.656140 0.000000 0.000580 
#    y 0.000000 1.717860 0.000000 
#    z 0.000580 0.000000 1.675960 
# 
# From -- ./inp_files/233738.got.cif
#   From: 2010.05.17/outbox.cif.g08.bks.cpg/sg12_117_cif.got.tgz:233738.got - 2010.06.03 13:09:07.
