data_PCOD9213662
_publ_section_title
;
Structure prediction by ZEFSAII (Michael W. Deem and Ramdas Pophale) SiO2 
 PCOD9213662
Probable space group: C 2/M
;
_chemical_formula_sum "Si O2"
_cell_formula_units_Z 44
_cell_length_a 18.024791
_cell_length_b 22.773740
_cell_length_c 6.831464
_cell_angle_alpha 90.000000
_cell_angle_beta 49.848871
_cell_angle_gamma 90.000000
_cell_volume 2143.426263
_symmetry_space_group_name_H-M "C 2/M"
_symmetry_group_IT_number 12
_symmetry_cell_setting 'monoclinic'
loop_
_space_group_symop_operation_xyz
x,y,z
-x,y,-z
-x,-y,-z
x,-y,z
1/2+x,1/2+y,z
1/2-x,1/2+y,-z
1/2-x,1/2-y,-z
1/2+x,1/2-y,z
loop_
_atom_site_type_symbol
_atom_site_label
_atom_site_fract_x
_atom_site_fract_y
_atom_site_fract_z
Si Si1 0.850034 0.795860 0.399856
Si Si2 0.000000 0.884340 0.000000
Si Si3 0.321723 0.175056 0.575667
Si Si4 0.726625 0.141189 0.932256
Si Si5 0.383371 0.068406 0.205804
Si Si6 0.095127 0.932489 0.206648
O O1 0.786939 0.807167 0.311261
O O2 0.881904 0.728939 0.378843
O O3 0.776779 0.813478 0.698435
O O4 0.936715 0.841522 0.243100
O O5 0.933464 0.922173 0.970144
O O6 0.347642 0.112270 0.437762
O O7 0.330070 0.171670 0.794057
O O8 0.662317 0.096717 0.912720
O O9 0.814935 0.106663 0.883134
O O10 0.353853 0.000000 0.280557
O O11 0.500000 0.070281 0.000000
O O12 0.000000 0.920003 0.500000
O O13 0.120924 0.000000 0.196052
#
# Coordination Sequence:
#
# PCOD9213662 Si02
#       6
#     8   4   8   8   8   8
#     4  10  22  38  63  93 129 159 206 252 302 370
#     4  12  21  40  60  92 127 164 200 248 304 362
#     4  10  22  41  64  91 123 165 202 257 314 369
#     4  11  21  42  63  93 123 163 208 251 317 368
#     4  10  24  44  64  90 122 157 212 270 315 368
#     4  11  23  38  59  91 129 167 205 243 294 370
#
# _framework density 20.527882000000002
#
# number of rings (size 3 to 8) (size 9 to 14) (size 15 to 20)
#    0.000    1.455    3.636    1.364    1.273    2.182 
#    0.000    3.636    0.000    0.000    0.000    0.000 
#    0.000    0.000    0.000    0.000    0.000    0.000 
#
# Total GULP energy -122860.898949 kJ/mol
# GULP energy per Si atom -5584.586316 kJ/mol
# Density = 2.048116 g / cm^3
# Si number density = 20.527882 Si / 1000 Ang^3
#
#
#
# Elastic Constant Matrix: (Units=GPa)
#
#
# Indices 1 2 3 4 5 6 
#
# 1 63.6580 17.7225 5.7336 0.0000 17.2285 0.0000
# 2 17.7225 106.7775 36.2400 0.0000 4.9939 0.0000
# 3 5.7336 36.2400 73.9624 0.0000 20.9349 0.0000
# 4 0.0000 0.0000 0.0000 20.0388 0.0000 8.6928
# 5 17.2285 4.9939 20.9349 0.0000 27.9455 0.0000
# 6 0.0000 0.0000 0.0000 8.6928 0.0000 0.8560
#
#
#
# Elastic Compliance Matrix: (Units=1/GPa)
#
#
# Indices 1 2 3 4 5 6 
#
# 1 0.020750 -0.004408 0.005012 0.000000 -0.015759 0.000000
# 2 -0.004408 0.012331 -0.007419 0.000000 0.006072 0.000000
# 3 0.005012 -0.007419 0.021913 0.000000 -0.018180 0.000000
# 4 0.000000 0.000000 0.000000 -0.014655 0.000000 0.148821
# 5 -0.015759 0.006072 -0.018180 0.000000 0.058033 0.000000
# 6 0.000000 0.000000 0.000000 0.148821 0.000000 -0.343067
#
#
# Mechanical properties :
#
#
# Convention : Reuss Voigt Hill
#
# Bulk Modulus (GPa) = 24.17579 40.42111 32.29845
# Shear Modulus (GPa) = -23.01198 22.08152 -0.46523
#
# Velocity S-wave (km/s) = -3.35178 3.28332 -0.47658
# Velocity P-wave (km/s) = 1.78231 5.84013 3.93259
#
# Compressibility (1/GPa) = 0.04136370
#
# Stress axis : x y z
#
# Youngs Moduli (GPa) = 48.19318 81.09773 45.63595
#
# Poissons Ratio (x) = 0.35747 -0.22872
# Poissons Ratio (y) = 0.21243 0.33856
# Poissons Ratio (z) = -0.24154 0.60164
#
# Static dielectric constant tensor:
#      x y z
#    x 1.711710 0.000000 0.005080 
#    y 0.000000 1.732730 0.000000 
#    z 0.005080 0.000000 1.756440 
# 
# From -- ./inp_files/16816.got.cif
#   From: 2010.05.17/outbox.cif.g08.bks.cpg/sg12_9_cif.got.tgz:16816.got - 2010.06.03 13:09:07.
