data_PCOD9213499
_publ_section_title
;
Structure prediction by ZEFSAII (Michael W. Deem and Ramdas Pophale) SiO2 
 PCOD9213499
Probable space group: C 2/M
;
_chemical_formula_sum "Si O2"
_cell_formula_units_Z 48
_cell_length_a 24.387595
_cell_length_b 8.597275
_cell_length_c 12.211782
_cell_angle_alpha 90.000000
_cell_angle_beta 88.968049
_cell_angle_gamma 90.000000
_cell_volume 2559.990718
_symmetry_space_group_name_H-M "C 2/M"
_symmetry_group_IT_number 12
_symmetry_cell_setting 'monoclinic'
loop_
_space_group_symop_operation_xyz
x,y,z
-x,y,-z
-x,-y,-z
x,-y,z
1/2+x,1/2+y,z
1/2-x,1/2+y,-z
1/2-x,1/2-y,-z
1/2+x,1/2-y,z
loop_
_atom_site_type_symbol
_atom_site_label
_atom_site_fract_x
_atom_site_fract_y
_atom_site_fract_z
Si Si1 0.294987 0.812762 0.082311
Si Si2 0.584882 0.314321 0.972115
Si Si3 0.510895 0.185164 0.167682
Si Si4 0.835643 0.812391 0.530142
Si Si5 0.542774 0.312053 0.402585
Si Si6 0.728918 0.187488 0.668325
O O1 0.354396 0.748180 0.048619
O O2 0.280254 0.762953 0.206829
O O3 0.295738 0.000000 0.079082
O O4 0.250000 0.750000 0.000000
O O5 0.584607 0.500000 0.980099
O O6 0.545187 0.261008 0.874873
O O7 0.557814 0.244019 0.082671
O O8 0.524850 0.237310 0.289275
O O9 0.506294 0.000000 0.159944
O O10 0.895905 0.762503 0.565267
O O11 0.787820 0.762867 0.616619
O O12 0.817128 0.750194 0.412720
O O13 0.835526 0.000000 0.526036
O O14 0.500000 0.273076 0.500000
O O15 0.542882 0.500000 0.389726
O O16 0.727464 0.000000 0.665452
#
# Coordination Sequence:
#
# PCOD9213499 Si02
#       6
#     8   8   8   8   8   8
#     4  11  24  40  60  92 125 160 204 254 304 360
#     4  11  23  42  66  89 119 162 203 250 309 369
#     4  11  23  41  64  92 123 157 201 254 306 367
#     4   9  19  37  60  85 116 157 201 243 292 355
#     4  10  22  38  59  90 124 160 204 248 296 361
#     4   9  20  38  59  84 117 156 197 245 299 352
#
# _framework density 18.750069
#
# number of rings (size 3 to 8) (size 9 to 14) (size 15 to 20)
#    0.000    1.833    0.000    4.500    4.667    2.333 
#    0.000    0.000    0.000    0.000    0.000    0.000 
#    0.000    0.000    0.000    0.000    0.000    0.000 
#
# Total GULP energy -134126.765410 kJ/mol
# GULP energy per Si atom -5588.615225 kJ/mol
# Density = 1.870739 g / cm^3
# Si number density = 18.750069 Si / 1000 Ang^3
#
#
#
# Elastic Constant Matrix: (Units=GPa)
#
#
# Indices 1 2 3 4 5 6 
#
# 1 138.5743 21.4790 78.6166 0.0000 9.3333 0.0000
# 2 21.4790 44.4423 25.1502 0.0000 -1.4747 0.0000
# 3 78.6166 25.1502 143.5684 0.0000 11.7178 0.0000
# 4 0.0000 0.0000 0.0000 31.7378 0.0000 4.9621
# 5 9.3333 -1.4747 11.7178 0.0000 10.6584 0.0000
# 6 0.0000 0.0000 0.0000 4.9621 0.0000 27.2836
#
#
#
# Elastic Compliance Matrix: (Units=1/GPa)
#
#
# Indices 1 2 3 4 5 6 
#
# 1 0.010792 -0.002441 -0.005144 0.000000 -0.004132 0.000000
# 2 -0.002441 0.026356 -0.004122 0.000000 0.010317 0.000000
# 3 -0.005144 -0.004122 0.011187 0.000000 -0.008365 0.000000
# 4 0.000000 0.000000 0.000000 0.032430 0.000000 -0.005898
# 5 -0.004132 0.010317 -0.008365 0.000000 0.108065 0.000000
# 6 0.000000 0.000000 0.000000 -0.005898 0.000000 0.037725
#
#
# Mechanical properties :
#
#
# Convention : Reuss Voigt Hill
#
# Bulk Modulus (GPa) = 40.13024 64.11964 52.12494
# Shear Modulus (GPa) = 19.35906 27.35856 23.35881
#
# Velocity S-wave (km/s) = 3.21671 3.82398 3.53342
# Velocity P-wave (km/s) = 5.93679 7.33269 6.67135
#
# Compressibility (1/GPa) = 0.02491886
#
# Stress axis : x y z
#
# Youngs Moduli (GPa) = 92.66418 37.94184 89.38795
#
# Poissons Ratio (x) = 0.09263 0.45985
# Poissons Ratio (y) = 0.22624 0.36847
# Poissons Ratio (z) = 0.47671 0.15640
#
# Static dielectric constant tensor:
#      x y z
#    x 1.632180 0.000000 -0.010860 
#    y 0.000000 1.635860 0.000000 
#    z -0.010860 0.000000 1.617640 
# 
# From -- ./inp_files/172389.got.cif
#   From: 2010.05.17/outbox.cif.g08.bks.cpg/sg12_87_cif.got.tgz:172389.got - 2010.06.03 13:09:07.
