data_PCOD9213156
_publ_section_title
;
Structure prediction by ZEFSAII (Michael W. Deem and Ramdas Pophale) SiO2 
 PCOD9213156
Probable space group: C 2/M
;
_chemical_formula_sum "Si O2"
_cell_formula_units_Z 64
_cell_length_a 11.747808
_cell_length_b 14.968777
_cell_length_c 26.016629
_cell_angle_alpha 90.000000
_cell_angle_beta 40.514279
_cell_angle_gamma 90.000000
_cell_volume 2972.112820
_symmetry_space_group_name_H-M "C 2/M"
_symmetry_group_IT_number 12
_symmetry_cell_setting 'monoclinic'
loop_
_space_group_symop_operation_xyz
x,y,z
-x,y,-z
-x,-y,-z
x,-y,z
1/2+x,1/2+y,z
1/2-x,1/2+y,-z
1/2-x,1/2-y,-z
1/2+x,1/2-y,z
loop_
_atom_site_type_symbol
_atom_site_label
_atom_site_fract_x
_atom_site_fract_y
_atom_site_fract_z
Si Si1 0.319414 0.401401 0.675086
Si Si2 0.528547 0.245231 0.649125
Si Si3 0.382023 0.399425 0.083908
Si Si4 0.277541 0.602175 0.230236
Si Si5 0.709795 0.600465 0.431346
Si Si6 0.464579 0.672901 0.781721
Si Si7 0.067222 0.392808 0.920279
Si Si8 0.468214 0.850442 0.847436
O O1 0.399911 0.500000 0.652983
O O2 0.458499 0.322787 0.635781
O O3 0.234811 0.396552 0.647639
O O4 0.159022 0.390627 0.769297
O O5 0.378643 0.169653 0.704589
O O6 0.698409 0.186956 0.576017
O O7 0.537489 0.293086 0.701966
O O8 0.454045 0.500000 0.066094
O O9 0.366880 0.363164 0.146642
O O10 0.188702 0.401978 0.126316
O O11 0.500000 0.352878 0.000000
O O12 0.218400 0.500000 0.240944
O O13 0.409302 0.603881 0.232822
O O14 0.500000 0.607223 0.500000
O O15 0.752040 0.500000 0.437116
O O16 0.267623 0.637910 0.844675
O O17 0.464600 0.755445 0.821095
O O18 0.056791 0.500000 0.918580
O O19 0.952062 0.351094 0.914128
O O20 0.000000 0.369188 0.000000
#
# Coordination Sequence:
#
# PCOD9213156 Si02
#       8
#     8   8   8   8   8   8   8   8
#     4  11  22  39  65  92 123 167 211 253 306 375
#     4  12  21  41  63  94 125 162 210 252 302 375
#     4  10  22  37  56  82 113 155 206 263 324 381
#     4  11  22  38  59  87 120 157 200 259 319 370
#     4  10  22  41  67 100 133 163 200 251 308 370
#     4  12  23  39  59  89 122 159 209 267 312 377
#     4  11  26  43  60  85 120 168 219 271 325 377
#     4  12  22  40  63  84 120 161 215 260 312 379
#
# _framework density 21.533503
#
# number of rings (size 3 to 8) (size 9 to 14) (size 15 to 20)
#    0.000    0.875    5.000    1.875    1.750    4.000 
#    0.000    0.000    0.000    0.375    0.000    0.000 
#    0.000    0.000    0.000    0.000    0.000    0.000 
#
# Total GULP energy -178807.413867 kJ/mol
# GULP energy per Si atom -5587.731683 kJ/mol
# Density = 2.148449 g / cm^3
# Si number density = 21.533503 Si / 1000 Ang^3
#
#
#
# Elastic Constant Matrix: (Units=GPa)
#
#
# Indices 1 2 3 4 5 6 
#
# 1 81.5411 14.7170 -3.0897 0.0000 3.1501 0.0000
# 2 14.7170 109.8231 0.1512 0.0000 -11.1607 0.0000
# 3 -3.0897 0.1512 36.7954 0.0001 -10.7176 -0.0001
# 4 0.0000 0.0000 0.0001 15.6405 -0.0001 -9.0487
# 5 3.1501 -11.1607 -10.7176 -0.0001 28.1253 0.0000
# 6 0.0000 0.0000 -0.0001 -9.0487 0.0000 33.0283
#
#
#
# Elastic Compliance Matrix: (Units=1/GPa)
#
#
# Indices 1 2 3 4 5 6 
#
# 1 0.012703 -0.001905 0.000495 0.000000 -0.001990 0.000000
# 2 -0.001905 0.009820 0.001121 0.000000 0.004538 0.000000
# 3 0.000495 0.001121 0.030740 0.000000 0.012103 0.000000
# 4 0.000000 0.000000 0.000000 0.075979 0.000000 0.020816
# 5 -0.001990 0.004538 0.012103 0.000000 0.042191 0.000000
# 6 0.000000 0.000000 0.000000 0.020816 0.000000 0.035980
#
#
# Mechanical properties :
#
#
# Convention : Reuss Voigt Hill
#
# Bulk Modulus (GPa) = 18.98065 27.96852 23.47458
# Shear Modulus (GPa) = 22.16766 29.78421 25.97594
#
# Velocity S-wave (km/s) = 3.21199 3.72312 3.47696
# Velocity P-wave (km/s) = 4.75283 5.61237 5.20039
#
# Compressibility (1/GPa) = 0.05268524
#
# Stress axis : x y z
#
# Youngs Moduli (GPa) = 78.71995 101.82811 32.53123
#
# Poissons Ratio (x) = 0.19401 -0.01610
# Poissons Ratio (y) = 0.14998 -0.03648
# Poissons Ratio (z) = -0.03895 -0.11419
#
# Static dielectric constant tensor:
#      x y z
#    x 1.784880 0.000000 0.004170 
#    y 0.000000 1.841700 0.000000 
#    z 0.004170 0.000000 1.817440 
# 
# From -- ./inp_files/358408.got.cif
#   From: 2010.05.17/outbox.cif.g08.bks.cpg/sg12_180_cif.got.tgz:358408.got - 2010.06.03 13:09:07.
