data_PCOD9213951
_publ_section_title
;
Structure prediction by ZEFSAII (Michael W. Deem and Ramdas Pophale) SiO2 
 PCOD9213951
Probable space group: C 2/M
;
_chemical_formula_sum "Si O2"
_cell_formula_units_Z 48
_cell_length_a 27.949196
_cell_length_b 13.474418
_cell_length_c 5.079308
_cell_angle_alpha 90.000000
_cell_angle_beta 95.476046
_cell_angle_gamma 90.000000
_cell_volume 1904.133115
_symmetry_space_group_name_H-M "C 2/M"
_symmetry_group_IT_number 12
_symmetry_cell_setting 'monoclinic'
loop_
_space_group_symop_operation_xyz
x,y,z
-x,y,-z
-x,-y,-z
x,-y,z
1/2+x,1/2+y,z
1/2-x,1/2+y,-z
1/2-x,1/2-y,-z
1/2+x,1/2-y,z
loop_
_atom_site_type_symbol
_atom_site_label
_atom_site_fract_x
_atom_site_fract_y
_atom_site_fract_z
Si Si1 0.258198 0.381124 0.780093
Si Si2 0.829045 0.388032 0.622001
Si Si3 0.969351 0.212251 0.727234
Si Si4 0.316603 0.618558 0.304994
Si Si5 0.384881 0.256252 0.998019
Si Si6 0.067251 0.611123 0.595504
O O1 0.252026 0.500000 0.787837
O O2 0.210796 0.347394 0.599881
O O3 0.272642 0.352113 0.082764
O O4 0.301724 0.362296 0.597752
O O5 0.815425 0.500000 0.705482
O O6 0.878938 0.396924 0.492343
O O7 0.843452 0.315807 0.865019
O O8 0.962346 0.328028 0.637905
O O9 0.000000 0.167510 0.500000
O O10 0.914474 0.186546 0.784590
O O11 0.000000 0.192258 0.000000
O O12 0.322807 0.500000 0.282760
O O13 0.362138 0.673496 0.205652
O O14 0.424216 0.184071 0.155442
O O15 0.050886 0.500000 0.649838
#
# Coordination Sequence:
#
# PCOD9213951 Si02
#       6
#     8   8   8   8   8   8
#     4   9  20  38  58  84 121 162 202 245 288 339
#     4   9  20  36  56  86 127 165 198 239 288 344
#     4  11  23  43  62  89 118 157 190 239 296 360
#     4  10  23  40  61  87 118 157 203 250 296 343
#     4  11  23  38  64  87 122 154 201 243 303 348
#     4  10  22  39  60  90 124 161 199 235 287 349
#
# _framework density 25.208321999999999
#
# number of rings (size 3 to 8) (size 9 to 14) (size 15 to 20)
#    0.000    2.000    1.667    0.500    7.000    2.667 
#    0.000    0.000    0.000    1.000    0.000    0.000 
#    0.000    0.000    0.000    0.000    0.000    0.000 
#
# Total GULP energy -134206.319056 kJ/mol
# GULP energy per Si atom -5591.929961 kJ/mol
# Density = 2.515095 g / cm^3
# Si number density = 25.208322 Si / 1000 Ang^3
#
#
#
# Elastic Constant Matrix: (Units=GPa)
#
#
# Indices 1 2 3 4 5 6 
#
# 1 90.0032 1.0250 26.1173 0.0000 -11.0270 0.0000
# 2 1.0250 55.8933 14.1184 0.0000 10.3327 0.0000
# 3 26.1173 14.1184 150.0517 0.0000 4.5299 0.0000
# 4 0.0000 0.0000 0.0000 17.1896 0.0000 -6.8981
# 5 -11.0270 10.3327 4.5299 0.0000 52.3202 0.0000
# 6 0.0000 0.0000 0.0000 -6.8981 0.0000 16.3804
#
#
#
# Elastic Compliance Matrix: (Units=1/GPa)
#
#
# Indices 1 2 3 4 5 6 
#
# 1 0.012082 -0.000186 -0.002169 0.000000 0.002771 0.000000
# 2 -0.000186 0.018984 -0.001644 0.000000 -0.003646 0.000000
# 3 -0.002169 -0.001644 0.007219 0.000000 -0.000758 0.000000
# 4 0.000000 0.000000 0.000000 0.070005 0.000000 0.029481
# 5 0.002771 -0.003646 -0.000758 0.000000 0.020483 0.000000
# 6 0.000000 0.000000 0.000000 0.029481 0.000000 0.073464
#
#
# Mechanical properties :
#
#
# Convention : Reuss Voigt Hill
#
# Bulk Modulus (GPa) = 33.01682 42.05218 37.53450
# Shear Modulus (GPa) = 22.69324 34.15720 28.42522
#
# Velocity S-wave (km/s) = 3.00364 3.68502 3.36164
# Velocity P-wave (km/s) = 5.01549 5.90118 5.47627
#
# Compressibility (1/GPa) = 0.03028759
#
# Stress axis : x y z
#
# Youngs Moduli (GPa) = 82.76961 52.67635 138.51497
#
# Poissons Ratio (x) = 0.00979 0.30045
# Poissons Ratio (y) = 0.01539 0.22769
# Poissons Ratio (z) = 0.17953 0.08659
#
# Static dielectric constant tensor:
#      x y z
#    x 2.079890 0.000000 -0.001780 
#    y 0.000000 1.998370 0.000000 
#    z -0.001780 0.000000 2.011630 
# 
# From -- ./inp_files/31234.got.cif
#   From: 2010.05.17/outbox.cif.g08.bks.cpg/sg12_16_cif.got.tgz:31234.got - 2010.06.03 13:09:07.
