data_PCOD9213414
_publ_section_title
;
Structure prediction by ZEFSAII (Michael W. Deem and Ramdas Pophale) SiO2 
 PCOD9213414
Probable space group: C 2/M
;
_chemical_formula_sum "Si O2"
_cell_formula_units_Z 64
_cell_length_a 7.720587
_cell_length_b 29.351995
_cell_length_c 19.346150
_cell_angle_alpha 90.000000
_cell_angle_beta 139.270390
_cell_angle_gamma 90.000000
_cell_volume 2860.595381
_symmetry_space_group_name_H-M "C 2/M"
_symmetry_group_IT_number 12
_symmetry_cell_setting 'monoclinic'
loop_
_space_group_symop_operation_xyz
x,y,z
-x,y,-z
-x,-y,-z
x,-y,z
1/2+x,1/2+y,z
1/2-x,1/2+y,-z
1/2-x,1/2-y,-z
1/2+x,1/2-y,z
loop_
_atom_site_type_symbol
_atom_site_label
_atom_site_fract_x
_atom_site_fract_y
_atom_site_fract_z
Si Si1 0.289541 0.795638 0.555190
Si Si2 0.174599 0.281775 0.797851
Si Si3 0.980674 0.949529 0.327381
Si Si4 0.240562 0.396766 0.473402
Si Si5 0.709195 0.871293 0.882104
Si Si6 0.305657 0.694217 0.111631
Si Si7 0.815575 0.595115 0.882022
Si Si8 0.456176 0.052257 0.268305
O O1 0.250000 0.750000 0.500000
O O2 0.518071 0.787256 0.679876
O O3 0.352973 0.845065 0.543114
O O4 0.000000 0.802085 0.500000
O O5 0.084000 0.323466 0.818995
O O6 0.486717 0.291854 0.884036
O O7 0.131902 0.230958 0.810803
O O8 0.886676 0.935852 0.222216
O O9 0.718627 0.949799 0.298131
O O10 0.175797 0.916618 0.427565
O O11 0.093349 0.000000 0.360716
O O12 0.500000 0.396792 0.500000
O O13 0.038358 0.427939 0.367981
O O14 0.525903 0.889044 0.888014
O O15 0.715394 0.909229 0.823136
O O16 0.000000 0.864645 0.000000
O O17 0.330542 0.641169 0.137118
O O18 0.000000 0.700731 0.000000
O O19 0.000000 0.576096 0.000000
O O20 0.354082 0.000000 0.240811
#
# Coordination Sequence:
#
# PCOD9213414 Si02
#       8
#     8   8   8   8   8   8   8   8
#     4  11  24  39  59  92 129 164 202 246 304 365
#     4  12  23  40  63  91 124 165 202 254 305 364
#     4   9  18  32  58  87 114 156 205 253 306 364
#     4   9  17  33  57  86 120 154 198 250 300 357
#     4  11  21  36  59  87 123 160 203 251 308 370
#     4  11  23  39  61  89 121 160 207 248 303 362
#     4  10  22  38  57  88 122 160 203 254 304 368
#     4   9  17  32  54  86 121 154 198 252 309 365
#
# _framework density 22.372964
#
# number of rings (size 3 to 8) (size 9 to 14) (size 15 to 20)
#    0.000    1.750    1.250    4.125    3.500    2.000 
#    0.000    0.000    0.000    2.250    0.000    0.875 
#    0.000    0.000    0.000    0.000    0.000    0.000 
#
# Total GULP energy -178761.045959 kJ/mol
# GULP energy per Si atom -5586.282686 kJ/mol
# Density = 2.232204 g / cm^3
# Si number density = 22.372964 Si / 1000 Ang^3
#
#
#
# Elastic Constant Matrix: (Units=GPa)
#
#
# Indices 1 2 3 4 5 6 
#
# 1 37.6703 -5.7216 0.1182 0.0000 2.6493 -0.0004
# 2 -5.7216 133.1870 71.6820 0.0001 -17.1939 0.0003
# 3 0.1182 71.6820 133.8733 0.0000 -24.7080 -0.0017
# 4 0.0000 0.0001 0.0000 31.7003 0.0000 -3.8865
# 5 2.6493 -17.1939 -24.7080 0.0000 24.4489 -0.0009
# 6 -0.0004 0.0003 -0.0017 -3.8865 -0.0009 0.3263
#
#
#
# Elastic Compliance Matrix: (Units=1/GPa)
#
#
# Indices 1 2 3 4 5 6 
#
# 1 0.027014 0.001509 -0.001446 -0.000003 -0.003327 -0.000026
# 2 0.001509 0.010721 -0.005385 0.000008 0.001934 0.000067
# 3 -0.001446 -0.005385 0.011905 -0.000023 0.008401 -0.000191
# 4 -0.000003 0.000008 -0.000023 -0.068554 -0.000046 -0.816464
# 5 -0.003327 0.001934 0.008401 -0.000046 0.051112 -0.000376
# 6 -0.000026 0.000067 -0.000191 -0.816464 -0.000376 -6.659529
#
#
# Mechanical properties :
#
#
# Convention : Reuss Voigt Hill
#
# Bulk Modulus (GPa) = 25.64347 48.54308 37.09328
# Shear Modulus (GPa) = -0.75715 27.20524 13.22404
#
# Velocity S-wave (km/s) = -0.58237 3.49088 2.43384
# Velocity P-wave (km/s) = 3.32182 6.16382 4.95112
#
# Compressibility (1/GPa) = 0.03899628
#
# Stress axis : x y z
#
# Youngs Moduli (GPa) = 37.01800 93.27563 83.99999
#
# Poissons Ratio (x) = -0.14078 0.12147
# Poissons Ratio (y) = -0.05587 0.45233
# Poissons Ratio (z) = 0.05353 0.50227
#
# Static dielectric constant tensor:
#      x y z
#    x 1.909130 0.000000 -0.004500 
#    y 0.000000 1.893960 0.000000 
#    z -0.004500 0.000000 1.794570 
# 
# From -- ./inp_files/260343.got.cif
#   From: 2010.05.17/outbox.cif.g08.bks.cpg/sg12_131_cif.got.tgz:260343.got - 2010.06.03 13:09:07.
