data_PCOD9213581
_publ_section_title
;
Structure prediction by ZEFSAII (Michael W. Deem and Ramdas Pophale) SiO2 
 PCOD9213581
Probable space group: C 2/M
;
_chemical_formula_sum "Si O2"
_cell_formula_units_Z 48
_cell_length_a 9.124199
_cell_length_b 25.254204
_cell_length_c 11.661180
_cell_angle_alpha 90.000000
_cell_angle_beta 113.276911
_cell_angle_gamma 90.000000
_cell_volume 2468.312085
_symmetry_space_group_name_H-M "C 2/M"
_symmetry_group_IT_number 12
_symmetry_cell_setting 'monoclinic'
loop_
_space_group_symop_operation_xyz
x,y,z
-x,y,-z
-x,-y,-z
x,-y,z
1/2+x,1/2+y,z
1/2-x,1/2+y,-z
1/2-x,1/2-y,-z
1/2+x,1/2-y,z
loop_
_atom_site_type_symbol
_atom_site_label
_atom_site_fract_x
_atom_site_fract_y
_atom_site_fract_z
Si Si1 0.334565 0.815150 0.819681
Si Si2 0.312118 0.205016 0.149035
Si Si3 0.833979 0.633534 0.381561
Si Si4 0.682719 0.305063 0.527495
Si Si5 0.674392 0.380678 0.954870
Si Si6 0.341218 0.561362 0.829910
O O1 0.521623 0.801623 0.867766
O O2 0.242322 0.764287 0.842782
O O3 0.274490 0.821419 0.670891
O O4 0.283975 0.865511 0.880788
O O5 0.335640 0.176341 0.278996
O O6 0.182936 0.172408 0.035624
O O7 0.705555 0.652260 0.434885
O O8 0.782634 0.579573 0.304456
O O9 0.000000 0.632016 0.500000
O O10 0.500000 0.297098 0.500000
O O11 0.750000 0.250000 0.500000
O O12 0.499904 0.401922 0.865577
O O13 0.728519 0.424239 0.065659
O O14 0.383043 0.500000 0.836822
#
# Coordination Sequence:
#
# PCOD9213581 Si02
#       6
#     8   8   8   8   8   8
#     4  12  23  36  58  92 140 175 209 249 306 375
#     4  11  24  36  59  93 137 177 208 248 306 375
#     4  11  22  42  62  96 128 163 213 263 315 379
#     4  12  22  35  58  90 135 178 211 247 300 380
#     4  10  22  38  61  89 124 156 214 259 317 365
#     4  10  23  44  72  92 114 162 221 275 325 374
#
# _framework density 19.446487999999999
#
# number of rings (size 3 to 8) (size 9 to 14) (size 15 to 20)
#    0.000    1.000    3.333    4.500    7.000    0.333 
#    0.000    0.000    0.000   24.500    0.000    0.000 
#    0.000    0.000    0.000    0.000    0.000    0.000 
#
# Total GULP energy -134065.525138 kJ/mol
# GULP energy per Si atom -5586.063547 kJ/mol
# Density = 1.940223 g / cm^3
# Si number density = 19.446488 Si / 1000 Ang^3
#
#
#
# Elastic Constant Matrix: (Units=GPa)
#
#
# Indices 1 2 3 4 5 6 
#
# 1 144.3058 47.3113 41.5039 0.0000 -13.2015 0.0000
# 2 47.3113 78.6471 44.0628 0.0000 -7.7267 0.0000
# 3 41.5039 44.0628 120.7054 0.0000 -5.6441 0.0000
# 4 0.0000 0.0000 0.0000 13.3495 0.0000 -0.4419
# 5 -13.2015 -7.7267 -5.6441 0.0000 30.8237 0.0000
# 6 0.0000 0.0000 0.0000 -0.4419 0.0000 18.8119
#
#
#
# Elastic Compliance Matrix: (Units=1/GPa)
#
#
# Indices 1 2 3 4 5 6 
#
# 1 0.008994 -0.004397 -0.001371 0.000000 0.002499 0.000000
# 2 -0.004397 0.018407 -0.005124 0.000000 0.001793 0.000000
# 3 -0.001371 -0.005124 0.010630 0.000000 0.000075 0.000000
# 4 0.000000 0.000000 0.000000 0.074967 0.000000 0.001761
# 5 0.002499 0.001793 0.000075 0.000000 0.033976 0.000000
# 6 0.000000 0.000000 0.000000 0.001761 0.000000 0.053199
#
#
# Mechanical properties :
#
#
# Convention : Reuss Voigt Hill
#
# Bulk Modulus (GPa) = 61.54555 67.71270 64.62912
# Shear Modulus (GPa) = 21.99043 26.64906 24.31974
#
# Velocity S-wave (km/s) = 3.36641 3.70588 3.54022
# Velocity P-wave (km/s) = 6.84308 7.29431 7.07229
#
# Compressibility (1/GPa) = 0.01624813
#
# Stress axis : x y z
#
# Youngs Moduli (GPa) = 111.18326 54.32768 94.07575
#
# Poissons Ratio (x) = 0.23889 0.12894
# Poissons Ratio (y) = 0.48889 0.48200
# Poissons Ratio (z) = 0.15239 0.27835
#
# Static dielectric constant tensor:
#      x y z
#    x 1.710190 0.000000 0.010730 
#    y 0.000000 1.658450 0.000000 
#    z 0.010730 0.000000 1.737600 
# 
# From -- ./inp_files/122557.got.cif
#   From: 2010.05.17/outbox.cif.g08.bks.cpg/sg12_62_cif.got.tgz:122557.got - 2010.06.03 13:09:07.
