data_PCOD9213279
_publ_section_title
;
Structure prediction by ZEFSAII (Michael W. Deem and Ramdas Pophale) SiO2 
 PCOD9213279
Probable space group: C 2/M
;
_chemical_formula_sum "Si O2"
_cell_formula_units_Z 36
_cell_length_a 19.072301
_cell_length_b 13.916916
_cell_length_c 7.437869
_cell_angle_alpha 90.000000
_cell_angle_beta 51.810637
_cell_angle_gamma 90.000000
_cell_volume 1551.677723
_symmetry_space_group_name_H-M "C 2/M"
_symmetry_group_IT_number 12
_symmetry_cell_setting 'monoclinic'
loop_
_space_group_symop_operation_xyz
x,y,z
-x,y,-z
-x,-y,-z
x,-y,z
1/2+x,1/2+y,z
1/2-x,1/2+y,-z
1/2-x,1/2-y,-z
1/2+x,1/2-y,z
loop_
_atom_site_type_symbol
_atom_site_label
_atom_site_fract_x
_atom_site_fract_y
_atom_site_fract_z
Si Si1 0.257228 0.500000 0.139414
Si Si2 0.103242 0.790757 0.705790
Si Si3 0.195478 0.500000 0.835435
Si Si4 0.079629 0.691473 0.083603
Si Si5 0.316254 0.206271 0.747269
Si Si6 0.133921 0.000000 0.697220
O O1 0.206267 0.597718 0.268483
O O2 0.345116 0.500000 0.122493
O O3 0.255524 0.500000 0.923919
O O4 0.176246 0.769628 0.440925
O O5 0.082809 0.903135 0.725537
O O6 0.024319 0.715066 0.785788
O O7 0.125716 0.768839 0.876834
O O8 0.268064 0.500000 0.558913
O O9 0.128217 0.591636 0.951663
O O10 0.096071 0.705291 0.267630
O O11 0.250000 0.250000 0.000000
#
# Coordination Sequence:
#
# PCOD9213279 Si02
#       6
#     4   8   4   8   8   4
#     4  10  22  37  62  93 122 162 214 266 312 368
#     4  11  24  40  62  93 131 171 209 262 325 384
#     4  10  22  42  68  97 127 166 218 269 318 377
#     4  10  23  41  63  94 131 167 209 264 326 385
#     4  11  22  40  64  92 126 170 220 266 316 379
#     4  12  24  41  65  95 130 171 220 263 314 383
#
# _framework density 23.200693999999999
#
# number of rings (size 3 to 8) (size 9 to 14) (size 15 to 20)
#    0.000    1.333    0.000    6.000    0.000    7.111 
#    0.000    6.667    0.000    0.000    0.000    0.000 
#    0.000    0.000    0.000    0.000    0.000    0.000 
#
# Total GULP energy -100435.561528 kJ/mol
# GULP energy per Si atom -5579.753418 kJ/mol
# Density = 2.314789 g / cm^3
# Si number density = 23.200694 Si / 1000 Ang^3
#
#
#
# Elastic Constant Matrix: (Units=GPa)
#
#
# Indices 1 2 3 4 5 6 
#
# 1 64.4302 0.0398 8.3527 0.0000 -5.8980 0.0000
# 2 0.0398 134.0897 28.8277 0.0000 7.3756 0.0000
# 3 8.3527 28.8277 116.1088 0.0000 1.4420 0.0000
# 4 0.0000 0.0000 0.0000 21.5581 0.0000 4.1299
# 5 -5.8980 7.3756 1.4420 0.0000 39.8505 0.0000
# 6 0.0000 0.0000 0.0000 4.1299 0.0000 27.0252
#
#
#
# Elastic Compliance Matrix: (Units=1/GPa)
#
#
# Indices 1 2 3 4 5 6 
#
# 1 0.015894 0.000123 -0.001204 0.000000 0.002373 0.000000
# 2 0.000123 0.007957 -0.001967 0.000000 -0.001383 0.000000
# 3 -0.001204 -0.001967 0.009189 0.000000 -0.000147 0.000000
# 4 0.000000 0.000000 0.000000 0.047785 0.000000 -0.007302
# 5 0.002373 -0.001383 -0.000147 0.000000 0.025706 0.000000
# 6 0.000000 0.000000 0.000000 -0.007302 0.000000 0.038118
#
#
# Mechanical properties :
#
#
# Convention : Reuss Voigt Hill
#
# Bulk Modulus (GPa) = 37.11195 43.22991 40.17093
# Shear Modulus (GPa) = 31.30355 36.18064 33.74209
#
# Velocity S-wave (km/s) = 3.67720 3.95329 3.81774
# Velocity P-wave (km/s) = 5.83608 6.28581 6.06512
#
# Compressibility (1/GPa) = 0.02694550
#
# Stress axis : x y z
#
# Youngs Moduli (GPa) = 62.91740 125.68080 108.82072
#
# Poissons Ratio (x) = -0.01552 0.13097
# Poissons Ratio (y) = -0.00777 0.21407
# Poissons Ratio (z) = 0.07572 0.24724
#
# Static dielectric constant tensor:
#      x y z
#    x 1.987170 0.000000 -0.041030 
#    y 0.000000 1.840370 0.000000 
#    z -0.041030 0.000000 1.898050 
# 
# From -- ./inp_files/94106.got.cif
#   From: 2010.05.17/outbox.cif.g08.bks.cpg/sg12_48_cif.got.tgz:94106.got - 2010.06.03 13:09:07.
