data_PCOD9213758
_publ_section_title
;
Structure prediction by ZEFSAII (Michael W. Deem and Ramdas Pophale) SiO2 
 PCOD9213758
Probable space group: C 2/M
;
_chemical_formula_sum "Si O2"
_cell_formula_units_Z 44
_cell_length_a 8.840645
_cell_length_b 26.324789
_cell_length_c 9.700376
_cell_angle_alpha 90.000000
_cell_angle_beta 81.453712
_cell_angle_gamma 90.000000
_cell_volume 2232.482667
_symmetry_space_group_name_H-M "C 2/M"
_symmetry_group_IT_number 12
_symmetry_cell_setting 'monoclinic'
loop_
_space_group_symop_operation_xyz
x,y,z
-x,y,-z
-x,-y,-z
x,-y,z
1/2+x,1/2+y,z
1/2-x,1/2+y,-z
1/2-x,1/2-y,-z
1/2+x,1/2-y,z
loop_
_atom_site_type_symbol
_atom_site_label
_atom_site_fract_x
_atom_site_fract_y
_atom_site_fract_z
Si Si1 0.405528 0.059846 0.371890
Si Si2 0.427879 0.441807 0.151896
Si Si3 0.604114 0.617065 0.363350
Si Si4 0.603168 0.912087 0.101191
Si Si5 0.265747 0.179139 0.109226
Si Si6 0.500000 0.257285 0.000000
O O1 0.500000 0.065423 0.500000
O O2 0.230125 0.077767 0.405856
O O3 0.487861 0.093935 0.244094
O O4 0.411009 0.000000 0.331921
O O5 0.478062 0.500000 0.162041
O O6 0.491033 0.410593 0.270911
O O7 0.247753 0.439523 0.148990
O O8 0.500000 0.421608 0.000000
O O9 0.500000 0.638301 0.500000
O O10 0.700335 0.656081 0.258225
O O11 0.500000 0.939833 0.000000
O O12 0.670774 0.863836 0.006614
O O13 0.123901 0.208206 0.058751
O O14 0.401917 0.219590 0.110305
#
# Coordination Sequence:
#
# PCOD9213758 Si02
#       6
#     8   8   8   8   8   4
#     4  11  24  40  59  89 128 173 214 251 300 352
#     4  11  22  36  58  91 127 169 213 254 294 346
#     4  12  24  42  63  88 130 168 209 258 308 368
#     4  12  21  39  64  88 127 157 213 257 298 366
#     4  11  21  42  62  99 114 158 201 252 321 385
#     4  10  22  38  72  88 124 144 196 262 322 386
#
# _framework density 19.709
#
# number of rings (size 3 to 8) (size 9 to 14) (size 15 to 20)
#    0.000    0.727    4.545    3.273    0.000    5.818 
#    0.000    0.909    0.000    4.364    0.000    0.000 
#    0.000    0.000    0.000    0.000    0.000    0.000 
#
# Total GULP energy -122784.146966 kJ/mol
# GULP energy per Si atom -5581.097589 kJ/mol
# Density = 1.966414 g / cm^3
# Si number density = 19.709000 Si / 1000 Ang^3
#
#
#
# Elastic Constant Matrix: (Units=GPa)
#
#
# Indices 1 2 3 4 5 6 
#
# 1 135.0477 32.8703 47.5156 0.0000 -1.9113 0.0000
# 2 32.8703 82.4658 46.4468 0.0000 -10.6791 0.0000
# 3 47.5156 46.4468 119.6492 0.0000 -18.1344 0.0000
# 4 0.0000 0.0000 0.0000 7.8787 0.0000 -13.7649
# 5 -1.9113 -10.6791 -18.1344 0.0000 44.6920 0.0000
# 6 0.0000 0.0000 0.0000 -13.7649 0.0000 7.7614
#
#
#
# Elastic Compliance Matrix: (Units=1/GPa)
#
#
# Indices 1 2 3 4 5 6 
#
# 1 0.008924 -0.002072 -0.002938 0.000000 -0.001305 0.000000
# 2 -0.002072 0.016077 -0.005167 0.000000 0.001656 0.000000
# 3 -0.002938 -0.005167 0.012066 0.000000 0.003536 0.000000
# 4 0.000000 0.000000 0.000000 -0.060484 0.000000 -0.107268
# 5 -0.001305 0.001656 0.003536 0.000000 0.024150 0.000000
# 6 0.000000 0.000000 0.000000 -0.107268 0.000000 -0.061398
#
#
# Mechanical properties :
#
#
# Convention : Reuss Voigt Hill
#
# Bulk Modulus (GPa) = 59.82944 65.64758 62.73851
# Shear Modulus (GPa) = -143.92151 26.08842 -58.91655
#
# Velocity S-wave (km/s) = -8.55463 3.64219 -5.47340
# Velocity P-wave (km/s) = 8.19472 7.14620 2.83595
#
# Compressibility (1/GPa) = 0.01671418
#
# Stress axis : x y z
#
# Youngs Moduli (GPa) = 112.05568 62.20182 82.87688
#
# Poissons Ratio (x) = 0.12886 0.24346
# Poissons Ratio (y) = 0.23213 0.42824
# Poissons Ratio (z) = 0.32918 0.32141
#
# Static dielectric constant tensor:
#      x y z
#    x 1.744850 0.000000 -0.008160 
#    y 0.000000 1.703610 0.000000 
#    z -0.008160 0.000000 1.678200 
# 
# From -- ./inp_files/41668.got.cif
#   From: 2010.05.17/outbox.cif.g08.bks.cpg/sg12_21_cif.got.tgz:41668.got - 2010.06.03 13:09:07.
