data_PCOD9213105
_publ_section_title
;
Structure prediction by ZEFSAII (Michael W. Deem and Ramdas Pophale) SiO2 
 PCOD9213105
Probable space group: C 2/M
;
_chemical_formula_sum "Si O2"
_cell_formula_units_Z 56
_cell_length_a 10.385469
_cell_length_b 28.732484
_cell_length_c 12.399882
_cell_angle_alpha 90.000000
_cell_angle_beta 60.857412
_cell_angle_gamma 90.000000
_cell_volume 3231.731284
_symmetry_space_group_name_H-M "C 2/M"
_symmetry_group_IT_number 12
_symmetry_cell_setting 'monoclinic'
loop_
_space_group_symop_operation_xyz
x,y,z
-x,y,-z
-x,-y,-z
x,-y,z
1/2+x,1/2+y,z
1/2-x,1/2+y,-z
1/2-x,1/2-y,-z
1/2+x,1/2-y,z
loop_
_atom_site_type_symbol
_atom_site_label
_atom_site_fract_x
_atom_site_fract_y
_atom_site_fract_z
Si Si1 0.988753 0.127795 0.627324
Si Si2 0.200502 0.670310 0.842544
Si Si3 0.744349 0.553043 0.901586
Si Si4 0.307720 0.769510 0.773392
Si Si5 0.132791 0.775914 0.622162
Si Si6 0.504428 0.553425 0.812646
Si Si7 0.119895 0.354155 0.107616
O O1 0.829160 0.150377 0.715977
O O2 0.010091 0.089286 0.711631
O O3 0.000000 0.110301 0.500000
O O4 0.097786 0.171863 0.597170
O O5 0.229663 0.724363 0.856218
O O6 0.046352 0.661841 0.846997
O O7 0.196478 0.645938 0.959638
O O8 0.801414 0.500000 0.879598
O O9 0.642536 0.559055 0.837412
O O10 0.863445 0.593880 0.854760
O O11 0.636234 0.558243 0.049637
O O12 0.212123 0.778141 0.705434
O O13 0.477543 0.752575 0.685549
O O14 0.308159 0.815544 0.845178
O O15 0.250000 0.750000 0.500000
O O16 0.503767 0.500000 0.773414
#
# Coordination Sequence:
#
# PCOD9213105 Si02
#       7
#     8   8   8   8   8   8   8
#     4  11  22  37  58  82 119 152 196 238 293 351
#     4  10  22  37  50  88 116 154 189 243 289 360
#     4   9  18  35  61  88 116 150 194 247 296 359
#     4  11  21  37  56  81 115 150 204 234 296 337
#     4  11  22  38  56  82 113 157 197 241 280 356
#     4   9  18  36  59  88 114 145 198 245 295 352
#     4  11  20  36  59  79 123 149 191 242 303 346
#
# _framework density 17.328174000000001
#
# number of rings (size 3 to 8) (size 9 to 14) (size 15 to 20)
#    0.000    1.714    2.857    4.286    0.000    0.286 
#    0.000    2.143    0.000    0.000    0.000    2.000 
#    0.000    0.000    0.000    0.000    0.000    0.000 
#
# Total GULP energy -156144.380424 kJ/mol
# GULP energy per Si atom -5576.585015 kJ/mol
# Density = 1.728873 g / cm^3
# Si number density = 17.328174 Si / 1000 Ang^3
#
#
#
# Elastic Constant Matrix: (Units=GPa)
#
#
# Indices 1 2 3 4 5 6 
#
# 1 72.9371 44.7122 28.0207 0.0000 2.6781 0.0000
# 2 44.7122 129.3872 31.1627 0.0000 5.2653 0.0000
# 3 28.0207 31.1627 62.1681 0.0000 11.7559 0.0000
# 4 0.0000 0.0000 0.0000 22.9022 0.0000 13.5219
# 5 2.6781 5.2653 11.7559 0.0000 23.4694 0.0000
# 6 0.0000 0.0000 0.0000 13.5219 0.0000 20.0879
#
#
#
# Elastic Compliance Matrix: (Units=1/GPa)
#
#
# Indices 1 2 3 4 5 6 
#
# 1 0.019321 -0.005196 -0.006525 0.000000 0.002230 0.000000
# 2 -0.005196 0.010189 -0.002701 0.000000 -0.000340 0.000000
# 3 -0.006525 -0.002701 0.022231 0.000000 -0.009785 0.000000
# 4 0.000000 0.000000 0.000000 0.072463 0.000000 -0.048777
# 5 0.002230 -0.000340 -0.009785 0.000000 0.047332 0.000000
# 6 0.000000 0.000000 0.000000 -0.048777 0.000000 0.082615
#
#
# Mechanical properties :
#
#
# Convention : Reuss Voigt Hill
#
# Bulk Modulus (GPa) = 43.67650 52.47595 48.07622
# Shear Modulus (GPa) = 17.20424 23.99836 20.60130
#
# Velocity S-wave (km/s) = 3.15437 3.72551 3.45177
# Velocity P-wave (km/s) = 6.20700 6.98965 6.60992
#
# Compressibility (1/GPa) = 0.02289561
#
# Stress axis : x y z
#
# Youngs Moduli (GPa) = 51.75826 98.14903 44.98242
#
# Poissons Ratio (x) = 0.50995 0.29353
# Poissons Ratio (y) = 0.26892 0.12150
# Poissons Ratio (z) = 0.33775 0.26511
#
# Static dielectric constant tensor:
#      x y z
#    x 1.593960 0.000000 0.013990 
#    y 0.000000 1.601250 0.000000 
#    z 0.013990 0.000000 1.602050 
# 
# From -- ./inp_files/124206.got.cif
#   From: 2010.05.17/outbox.cif.g08.bks.cpg/sg12_63_cif.got.tgz:124206.got - 2010.06.03 13:09:07.
