data_PCOD9213237
_publ_section_title
;
Structure prediction by ZEFSAII (Michael W. Deem and Ramdas Pophale) SiO2 
 PCOD9213237
Probable space group: C 2/M
;
_chemical_formula_sum "Si O2"
_cell_formula_units_Z 50
_cell_length_a 8.813422
_cell_length_b 17.258317
_cell_length_c 15.842536
_cell_angle_alpha 90.000000
_cell_angle_beta 78.133970
_cell_angle_gamma 90.000000
_cell_volume 2358.232983
_symmetry_space_group_name_H-M "C 2/M"
_symmetry_group_IT_number 12
_symmetry_cell_setting 'monoclinic'
loop_
_space_group_symop_operation_xyz
x,y,z
-x,y,-z
-x,-y,-z
x,-y,z
1/2+x,1/2+y,z
1/2-x,1/2+y,-z
1/2-x,1/2-y,-z
1/2+x,1/2-y,z
loop_
_atom_site_type_symbol
_atom_site_label
_atom_site_fract_x
_atom_site_fract_y
_atom_site_fract_z
Si Si1 0.339752 0.228183 0.305831
Si Si2 0.515008 0.662613 0.405425
Si Si3 0.000000 0.000000 0.500000
Si Si4 0.014380 0.415932 0.768123
Si Si5 0.679062 0.856433 0.064171
Si Si6 0.283903 0.413949 0.875825
Si Si7 0.461114 0.288923 0.122093
O O1 0.385679 0.298795 0.361219
O O2 0.469437 0.159128 0.292617
O O3 0.348449 0.260420 0.209852
O O4 0.179572 0.187960 0.348499
O O5 0.500000 0.699859 0.500000
O O6 0.504399 0.570631 0.426606
O O7 0.009854 0.500000 0.725937
O O8 0.167226 0.412697 0.810543
O O9 0.875175 0.408554 0.851116
O O10 0.561441 0.784498 0.081921
O O11 0.850194 0.825003 0.064665
O O12 0.687430 0.896162 0.972367
O O13 0.350502 0.500000 0.875446
O O14 0.418958 0.351401 0.855553
#
# Coordination Sequence:
#
# PCOD9213237 Si02
#       7
#     8   8   2   8   8   8   8
#     4  11  21  40  66  92 128 161 202 250 307 369
#     4  10  22  42  69  97 125 158 201 241 302 376
#     4   8  24  40  72 102 122 156 208 230 304 372
#     4  10  22  37  60  89 121 164 213 260 315 367
#     4  11  22  38  58  81 118 165 217 269 311 364
#     4  11  23  39  57  83 121 165 214 266 313 363
#     4  11  23  38  58  88 117 161 212 258 316 370
#
# _framework density 21.202314999999999
#
# number of rings (size 3 to 8) (size 9 to 14) (size 15 to 20)
#    0.480    0.960    0.000    7.200    1.120    5.760 
#    1.440    0.000    1.760    1.440    0.000    0.000 
#    0.000    0.000    0.000    0.000    0.000    0.000 
#
# Total GULP energy -139462.327207 kJ/mol
# GULP energy per Si atom -5578.493088 kJ/mol
# Density = 2.115406 g / cm^3
# Si number density = 21.202315 Si / 1000 Ang^3
#
#
#
# Elastic Constant Matrix: (Units=GPa)
#
#
# Indices 1 2 3 4 5 6 
#
# 1 52.4462 16.1079 4.5941 0.0000 -5.0390 0.0000
# 2 16.1079 152.1258 20.7011 0.0000 2.2651 0.0000
# 3 4.5941 20.7011 61.2328 0.0000 -6.8355 0.0000
# 4 0.0000 0.0000 0.0000 27.4250 0.0000 2.0032
# 5 -5.0390 2.2651 -6.8355 0.0000 25.8586 0.0000
# 6 0.0000 0.0000 0.0000 2.0032 0.0000 19.7761
#
#
#
# Elastic Compliance Matrix: (Units=1/GPa)
#
#
# Indices 1 2 3 4 5 6 
#
# 1 0.020143 -0.002147 -0.000336 0.000000 0.004024 0.000000
# 2 -0.002147 0.007159 -0.002448 0.000000 -0.001693 0.000000
# 3 -0.000336 -0.002448 0.017724 0.000000 0.004834 0.000000
# 4 0.000000 0.000000 0.000000 0.036735 0.000000 -0.003721
# 5 0.004024 -0.001693 0.004834 0.000000 0.040882 0.000000
# 6 0.000000 0.000000 0.000000 -0.003721 0.000000 0.050943
#
#
# Mechanical properties :
#
#
# Convention : Reuss Voigt Hill
#
# Bulk Modulus (GPa) = 28.43918 38.73457 33.58688
# Shear Modulus (GPa) = 25.61879 29.57204 27.59542
#
# Velocity S-wave (km/s) = 3.47983 3.73869 3.61158
# Velocity P-wave (km/s) = 5.43949 6.07831 5.76775
#
# Compressibility (1/GPa) = 0.03516275
#
# Stress axis : x y z
#
# Youngs Moduli (GPa) = 49.64590 139.68059 56.42189
#
# Poissons Ratio (x) = 0.29989 0.01897
# Poissons Ratio (y) = 0.10659 0.13813
# Poissons Ratio (z) = 0.01669 0.34196
#
# Static dielectric constant tensor:
#      x y z
#    x 1.788460 0.000000 -0.006050 
#    y 0.000000 1.808740 0.000000 
#    z -0.006050 0.000000 1.787450 
# 
# From -- ./inp_files/256502.got.cif
#   From: 2010.05.17/outbox.cif.g08.bks.cpg/sg12_129_cif.got.tgz:256502.got - 2010.06.03 13:09:07.
