data_PCOD9213630
_publ_section_title
;
Structure prediction by ZEFSAII (Michael W. Deem and Ramdas Pophale) SiO2 
 PCOD9213630
Probable space group: C 2/M
;
_chemical_formula_sum "Si O2"
_cell_formula_units_Z 48
_cell_length_a 23.846956
_cell_length_b 23.586598
_cell_length_c 5.529745
_cell_angle_alpha 90.000000
_cell_angle_beta 50.024208
_cell_angle_gamma 90.000000
_cell_volume 2383.478452
_symmetry_space_group_name_H-M "C 2/M"
_symmetry_group_IT_number 12
_symmetry_cell_setting 'monoclinic'
loop_
_space_group_symop_operation_xyz
x,y,z
-x,y,-z
-x,-y,-z
x,-y,z
1/2+x,1/2+y,z
1/2-x,1/2+y,-z
1/2-x,1/2-y,-z
1/2+x,1/2-y,z
loop_
_atom_site_type_symbol
_atom_site_label
_atom_site_fract_x
_atom_site_fract_y
_atom_site_fract_z
Si Si1 0.837995 0.379151 0.477960
Si Si2 0.202261 0.875083 0.167679
Si Si3 0.824567 0.500000 0.467843
Si Si4 0.735380 0.500000 0.220388
Si Si5 0.196547 0.711129 0.804572
Si Si6 0.078809 0.208234 0.397961
Si Si7 0.460105 0.177980 0.350933
O O1 0.865430 0.440784 0.329502
O O2 0.844630 0.333093 0.252532
O O3 0.885275 0.357291 0.571583
O O4 0.752315 0.382648 0.788148
O O5 0.197679 0.938024 0.295099
O O6 0.249371 0.827313 0.180863
O O7 0.123419 0.847160 0.347755
O O8 0.769065 0.500000 0.395226
O O9 0.791498 0.500000 0.833737
O O10 0.250000 0.750000 0.500000
O O11 0.137400 0.754300 0.081042
O O12 0.059686 0.256283 0.647633
O O13 0.000000 0.194558 0.500000
O O14 0.500000 0.175689 0.500000
O O15 0.500000 0.155843 0.000000
#
# Coordination Sequence:
#
# PCOD9213630 Si02
#       7
#     8   8   4   4   8   8   8
#     4  11  21  39  62  87 125 167 216 267 314 381
#     4  11  22  39  62  93 123 165 219 263 320 374
#     4  10  22  38  62  93 119 164 216 268 318 362
#     4  10  22  40  63  93 124 164 212 276 310 368
#     4  12  21  36  67  94 126 164 218 265 325 381
#     4  11  23  40  60  96 133 171 209 261 328 392
#     4  11  24  40  60  91 132 172 208 258 327 385
#
# _framework density 20.138634
#
# number of rings (size 3 to 8) (size 9 to 14) (size 15 to 20)
#    0.000    1.000    5.000    3.500    0.000    0.000 
#    0.000    1.250    0.000    0.000    0.000    5.250 
#    0.000    0.000    0.000    0.000    0.000    0.000 
#
# Total GULP energy -133726.945154 kJ/mol
# GULP energy per Si atom -5571.956048 kJ/mol
# Density = 2.009280 g / cm^3
# Si number density = 20.138634 Si / 1000 Ang^3
#
#
#
# Elastic Constant Matrix: (Units=GPa)
#
#
# Indices 1 2 3 4 5 6 
#
# 1 90.2093 35.3809 29.8961 0.0000 -22.2064 0.0000
# 2 35.3809 115.6168 24.4370 0.0000 -14.0522 0.0000
# 3 29.8961 24.4370 77.2258 0.0000 -4.2064 0.0000
# 4 0.0000 0.0000 0.0000 18.0103 0.0000 2.1779
# 5 -22.2064 -14.0522 -4.2064 0.0000 29.5227 0.0000
# 6 0.0000 0.0000 0.0000 2.1779 0.0000 31.0314
#
#
#
# Elastic Compliance Matrix: (Units=1/GPa)
#
#
# Indices 1 2 3 4 5 6 
#
# 1 0.016297 -0.002704 -0.004894 0.000000 0.010274 0.000000
# 2 -0.002704 0.010218 -0.002048 0.000000 0.002538 0.000000
# 3 -0.004894 -0.002048 0.015357 0.000000 -0.002468 0.000000
# 4 0.000000 0.000000 0.000000 0.055999 0.000000 -0.003930
# 5 0.010274 0.002538 -0.002468 0.000000 0.042456 0.000000
# 6 0.000000 0.000000 0.000000 -0.003930 0.000000 0.032501
#
#
# Mechanical properties :
#
#
# Convention : Reuss Voigt Hill
#
# Bulk Modulus (GPa) = 44.28692 51.38667 47.83679
# Shear Modulus (GPa) = 25.04414 28.60206 26.82310
#
# Velocity S-wave (km/s) = 3.53028 3.77272 3.65351
# Velocity P-wave (km/s) = 6.21739 6.67456 6.45003
#
# Compressibility (1/GPa) = 0.02258003
#
# Stress axis : x y z
#
# Youngs Moduli (GPa) = 61.36204 97.86499 65.11585
#
# Poissons Ratio (x) = 0.26464 0.31865
# Poissons Ratio (y) = 0.16593 0.13338
# Poissons Ratio (z) = 0.30028 0.20046
#
# Static dielectric constant tensor:
#      x y z
#    x 1.788110 0.000000 0.010250 
#    y 0.000000 1.726790 0.000000 
#    z 0.010250 0.000000 1.777850 
# 
# From -- ./inp_files/25752.got.cif
#   From: 2010.05.17/outbox.cif.g08.bks.cpg/sg12_13_cif.got.tgz:25752.got - 2010.06.03 13:09:07.
