data_PCOD9213084
_publ_section_title
;
Structure prediction by ZEFSAII (Michael W. Deem and Ramdas Pophale) SiO2 
 PCOD9213084
Probable space group: C 2/M
;
_chemical_formula_sum "Si O2"
_cell_formula_units_Z 44
_cell_length_a 16.446161
_cell_length_b 22.790241
_cell_length_c 5.402027
_cell_angle_alpha 90.000000
_cell_angle_beta 103.686562
_cell_angle_gamma 90.000000
_cell_volume 1967.251052
_symmetry_space_group_name_H-M "C 2/M"
_symmetry_group_IT_number 12
_symmetry_cell_setting 'monoclinic'
loop_
_space_group_symop_operation_xyz
x,y,z
-x,y,-z
-x,-y,-z
x,-y,z
1/2+x,1/2+y,z
1/2-x,1/2+y,-z
1/2-x,1/2-y,-z
1/2+x,1/2-y,z
loop_
_atom_site_type_symbol
_atom_site_label
_atom_site_fract_x
_atom_site_fract_y
_atom_site_fract_z
Si Si1 0.000000 0.107194 0.000000
Si Si2 0.900089 0.395530 0.944262
Si Si3 0.862594 0.062600 0.558291
Si Si4 0.909942 0.171912 0.311248
Si Si5 0.691490 0.908502 0.631503
Si Si6 0.673534 0.211809 0.846311
O O1 0.072379 0.150415 0.953168
O O2 0.950834 0.068696 0.764694
O O3 0.857551 0.417582 0.660989
O O4 0.861659 0.425903 0.163243
O O5 0.873858 0.327165 0.979385
O O6 0.000000 0.400789 0.000000
O O7 0.853045 0.120801 0.385102
O O8 0.782948 0.064109 0.681217
O O9 0.861759 0.000000 0.421393
O O10 0.883157 0.238350 0.314412
O O11 0.000000 0.166423 0.500000
O O12 0.701821 0.838228 0.676808
O O13 0.750000 0.250000 0.000000
#
# Coordination Sequence:
#
# PCOD9213084 Si02
#       6
#     4   8   8   8   8   8
#     4  10  23  40  62  96 130 176 223 266 330 406
#     4  10  23  41  67  97 133 173 219 264 338 399
#     4  11  24  43  65  90 130 176 227 278 332 389
#     4  10  23  37  59  93 129 168 214 263 320 396
#     4  10  24  41  66  98 129 174 221 273 331 393
#     4  10  22  36  62  94 135 170 209 268 327 398
#
# _framework density 22.366236000000001
#
# number of rings (size 3 to 8) (size 9 to 14) (size 15 to 20)
#    1.091    0.727    0.000    3.000    6.364    8.364 
#    0.000    0.000    0.000    3.273    0.000    0.000 
#    0.000    0.000    0.000    0.000    0.000    0.000 
#
# Total GULP energy -122663.217480 kJ/mol
# GULP energy per Si atom -5575.600795 kJ/mol
# Density = 2.231533 g / cm^3
# Si number density = 22.366236 Si / 1000 Ang^3
#
#
#
# Elastic Constant Matrix: (Units=GPa)
#
#
# Indices 1 2 3 4 5 6 
#
# 1 109.5299 16.4816 27.2413 0.0000 -4.0803 0.0000
# 2 16.4816 104.2934 10.1533 0.0000 -10.4541 0.0000
# 3 27.2413 10.1533 88.7626 0.0000 -5.3868 0.0000
# 4 0.0000 0.0000 0.0000 -34.8003 0.0000 -38.0850
# 5 -4.0803 -10.4541 -5.3868 0.0000 33.9957 0.0000
# 6 0.0000 0.0000 0.0000 -38.0850 0.0000 -133.3507
#
#
#
# Elastic Compliance Matrix: (Units=1/GPa)
#
#
# Indices 1 2 3 4 5 6 
#
# 1 0.010061 -0.001270 -0.002921 0.000000 0.000354 0.000000
# 2 -0.001270 0.010135 -0.000595 0.000000 0.002870 0.000000
# 3 -0.002921 -0.000595 0.012317 0.000000 0.001418 0.000000
# 4 0.000000 0.000000 0.000000 -0.041800 0.000000 0.011938
# 5 0.000354 0.002870 0.001418 0.000000 0.030565 0.000000
# 6 0.000000 0.000000 0.000000 0.011938 0.000000 -0.010909
#
#
# Mechanical properties :
#
#
# Convention : Reuss Voigt Hill
#
# Bulk Modulus (GPa) = 43.59309 45.59316 44.59313
# Shear Modulus (GPa) = 181.24461 -10.25040 85.49710
#
# Velocity S-wave (km/s) = 9.01171 -2.14311 6.18942
# Velocity P-wave (km/s) = 11.30549 3.78222 8.42968
#
# Compressibility (1/GPa) = 0.02293941
#
# Stress axis : x y z
#
# Youngs Moduli (GPa) = 99.39686 98.67131 81.19144
#
# Poissons Ratio (x) = 0.12532 0.23715
# Poissons Ratio (y) = 0.12624 0.04834
# Poissons Ratio (z) = 0.29032 0.05874
#
# Static dielectric constant tensor:
#      x y z
#    x 1.792960 0.000000 -0.098960 
#    y 0.000000 1.557360 0.000000 
#    z -0.098960 0.000000 1.864000 
# 
# From -- ./inp_files/12158.got.cif
#   From: 2010.05.17/outbox.cif.g08.bks.cpg/sg12_7_cif.got.tgz:12158.got - 2010.06.03 13:09:07.
