data_PCOD9213771
_publ_section_title
;
Structure prediction by ZEFSAII (Michael W. Deem and Ramdas Pophale) SiO2 
 PCOD9213771
Probable space group: C 2/M
;
_chemical_formula_sum "Si O2"
_cell_formula_units_Z 50
_cell_length_a 13.737630
_cell_length_b 10.270586
_cell_length_c 22.703627
_cell_angle_alpha 90.000000
_cell_angle_beta 56.080621
_cell_angle_gamma 90.000000
_cell_volume 2658.202487
_symmetry_space_group_name_H-M "C 2/M"
_symmetry_group_IT_number 12
_symmetry_cell_setting 'monoclinic'
loop_
_space_group_symop_operation_xyz
x,y,z
-x,y,-z
-x,-y,-z
x,-y,z
1/2+x,1/2+y,z
1/2-x,1/2+y,-z
1/2-x,1/2-y,-z
1/2+x,1/2-y,z
loop_
_atom_site_type_symbol
_atom_site_label
_atom_site_fract_x
_atom_site_fract_y
_atom_site_fract_z
Si Si1 0.450242 0.650491 0.340071
Si Si2 0.615155 0.349711 0.882014
Si Si3 0.256414 0.854007 0.364099
Si Si4 0.215804 0.148867 0.238649
Si Si5 0.153514 0.150545 0.009646
Si Si6 0.379678 0.744514 0.485679
Si Si7 0.000000 0.500000 0.500000
O O1 0.417653 0.500000 0.340826
O O2 0.354886 0.747205 0.345306
O O3 0.579415 0.674657 0.270709
O O4 0.452684 0.675470 0.409578
O O5 0.635518 0.500000 0.857128
O O6 0.697341 0.250766 0.819986
O O7 0.642029 0.341057 0.942707
O O8 0.476679 0.321535 0.921357
O O9 0.226743 0.844464 0.305572
O O10 0.146188 0.828077 0.444193
O O11 0.300516 0.000000 0.361619
O O12 0.243338 0.000000 0.211456
O O13 0.182559 0.000000 0.014400
O O14 0.250000 0.250000 0.000000
O O15 0.250000 0.750000 0.500000
O O16 0.431884 0.884505 0.484726
#
# Coordination Sequence:
#
# PCOD9213771 Si02
#       7
#     8   8   8   8   8   8   2
#     4  10  22  39  60  85 118 157 202 256 311 361
#     4   9  20  39  58  83 117 156 188 235 284 349
#     4  10  22  39  60  85 118 157 202 256 311 361
#     4  10  22  39  55  83 120 156 197 242 291 359
#     4   9  19  37  62  88 116 145 191 233 284 344
#     4  10  23  38  63  89 122 154 213 268 316 379
#     4  12  24  40  62  94 116 164 198 254 344 382
#
# _framework density 18.809702999999999
#
# number of rings (size 3 to 8) (size 9 to 14) (size 15 to 20)
#    0.000    2.240    0.000    2.400    8.960    3.840 
#    2.880   11.200    0.000    0.000    0.000    0.000 
#    0.000    0.000    0.000    0.000    0.000    0.000 
#
# Total GULP energy -139237.931391 kJ/mol
# GULP energy per Si atom -5569.517256 kJ/mol
# Density = 1.876689 g / cm^3
# Si number density = 18.809703 Si / 1000 Ang^3
#
#
#
# Elastic Constant Matrix: (Units=GPa)
#
#
# Indices 1 2 3 4 5 6 
#
# 1 69.7869 52.8381 2.4909 0.0000 -21.0853 0.0000
# 2 52.8381 143.9344 59.0783 0.0000 -34.0275 0.0000
# 3 2.4909 59.0783 86.8494 0.0000 -25.4275 0.0000
# 4 0.0000 0.0000 0.0000 23.5421 0.0000 4.5792
# 5 -21.0853 -34.0275 -25.4275 0.0000 18.7933 0.0000
# 6 0.0000 0.0000 0.0000 4.5792 0.0000 42.3449
#
#
#
# Elastic Compliance Matrix: (Units=1/GPa)
#
#
# Indices 1 2 3 4 5 6 
#
# 1 0.036291 -0.009698 0.020429 0.000000 0.050797 0.000000
# 2 -0.009698 0.015237 -0.008603 0.000000 0.005067 0.000000
# 3 0.020429 -0.008603 0.031348 0.000000 0.049758 0.000000
# 4 0.000000 0.000000 0.000000 0.043390 0.000000 -0.004692
# 5 0.050797 0.005067 0.049758 0.000000 0.186700 0.000000
# 6 0.000000 0.000000 0.000000 -0.004692 0.000000 0.024123
#
#
# Mechanical properties :
#
#
# Convention : Reuss Voigt Hill
#
# Bulk Modulus (GPa) = 11.47705 58.82059 35.14882
# Shear Modulus (GPa) = 13.81678 29.34694 21.58186
#
# Velocity S-wave (km/s) = 2.71321 3.95422 3.39097
# Velocity P-wave (km/s) = 3.99127 7.22407 5.83598
#
# Compressibility (1/GPa) = 0.08713041
#
# Stress axis : x y z
#
# Youngs Moduli (GPa) = 27.55512 65.63010 31.89954
#
# Poissons Ratio (x) = 0.63651 -0.65166
# Poissons Ratio (y) = 0.26724 0.27443
# Poissons Ratio (z) = -0.56291 0.56462
#
# Static dielectric constant tensor:
#      x y z
#    x 1.670280 0.000000 0.006850 
#    y 0.000000 1.628240 0.000000 
#    z 0.006850 0.000000 1.651440 
# 
# From -- ./inp_files/359630.got.cif
#   From: 2010.05.17/outbox.cif.g08.bks.cpg/sg12_180_cif.got.tgz:359630.got - 2010.06.03 13:09:07.
