data_PCOD9213759
_publ_section_title
;
Structure prediction by ZEFSAII (Michael W. Deem and Ramdas Pophale) SiO2 
 PCOD9213759
Probable space group: C 2/M
;
_chemical_formula_sum "Si O2"
_cell_formula_units_Z 40
_cell_length_a 22.843668
_cell_length_b 15.334393
_cell_length_c 17.888210
_cell_angle_alpha 90.000000
_cell_angle_beta 161.382463
_cell_angle_gamma 90.000000
_cell_volume 2000.457753
_symmetry_space_group_name_H-M "C 2/M"
_symmetry_group_IT_number 12
_symmetry_cell_setting 'monoclinic'
loop_
_space_group_symop_operation_xyz
x,y,z
-x,y,-z
-x,-y,-z
x,-y,z
1/2+x,1/2+y,z
1/2-x,1/2+y,-z
1/2-x,1/2-y,-z
1/2+x,1/2-y,z
loop_
_atom_site_type_symbol
_atom_site_label
_atom_site_fract_x
_atom_site_fract_y
_atom_site_fract_z
Si Si1 0.155486 0.500000 0.302010
Si Si2 0.741562 0.250236 0.078151
Si Si3 0.000000 0.845372 0.500000
Si Si4 0.624976 0.811626 0.299091
Si Si5 0.759498 0.500000 0.769188
Si Si6 0.500000 0.288117 0.000000
Si Si7 0.224112 0.602409 0.770917
O O1 0.211637 0.407765 0.403338
O O2 0.201068 0.500000 0.270195
O O3 0.935483 0.500000 0.034451
O O4 0.714956 0.346642 0.080427
O O5 0.919745 0.212105 0.335811
O O6 0.750000 0.250000 0.000000
O O7 0.572828 0.191270 0.901072
O O8 0.847174 0.911322 0.344117
O O9 0.750000 0.750000 0.500000
O O10 0.589318 0.772479 0.172869
O O11 0.339138 0.346381 0.844972
O O12 0.270496 0.500000 0.825125
O O13 0.000000 0.607919 0.500000
#
# Coordination Sequence:
#
# PCOD9213759 Si02
#       7
#     4   8   4   8   4   4   8
#     4  11  22  42  66  99 132 168 224 274 328 408
#     4  11  25  42  67  94 134 174 220 275 337 398
#     4  11  22  44  65  98 130 174 215 276 338 391
#     4  11  26  44  67  99 131 176 221 274 339 398
#     4  10  22  38  72  96 128 166 218 274 341 395
#     4  10  23  45  70  92 134 172 222 282 336 396
#     4  10  22  42  67  94 126 176 223 270 328 395
#
# _framework density 19.995424
#
# number of rings (size 3 to 8) (size 9 to 14) (size 15 to 20)
#    0.000    1.400    3.000    1.500    8.400    0.000 
#   14.400    0.000    0.000    0.000    0.000    0.000 
#    0.000    0.000    0.000    0.000    0.000    0.000 
#
# Total GULP energy -111635.474095 kJ/mol
# GULP energy per Si atom -5581.773705 kJ/mol
# Density = 1.994991 g / cm^3
# Si number density = 19.995424 Si / 1000 Ang^3
#
#
#
# Elastic Constant Matrix: (Units=GPa)
#
#
# Indices 1 2 3 4 5 6 
#
# 1 137.1651 67.6581 44.7185 -0.0021 -19.5951 -0.0015
# 2 67.6581 171.5605 35.4051 -0.0037 -18.4143 -0.0028
# 3 44.7185 35.4051 71.3591 -0.0042 -17.1220 -0.0027
# 4 -0.0021 -0.0037 -0.0042 32.9745 -0.0022 2.6558
# 5 -19.5951 -18.4143 -17.1220 -0.0022 37.0995 -0.0014
# 6 -0.0015 -0.0028 -0.0027 2.6558 -0.0014 25.8094
#
#
#
# Elastic Compliance Matrix: (Units=1/GPa)
#
#
# Indices 1 2 3 4 5 6 
#
# 1 0.010568 -0.002996 -0.004671 0.000000 0.001939 0.000000
# 2 -0.002996 0.007471 -0.001484 0.000001 0.001441 0.000001
# 3 -0.004671 -0.001484 0.019014 0.000002 0.005572 0.000002
# 4 0.000000 0.000001 0.000002 0.030580 0.000003 -0.003147
# 5 0.001939 0.001441 0.005572 0.000003 0.031266 0.000002
# 6 0.000000 0.000001 0.000002 -0.003147 0.000002 0.039069
#
#
# Mechanical properties :
#
#
# Convention : Reuss Voigt Hill
#
# Bulk Modulus (GPa) = 53.32725 75.07201 64.19963
# Shear Modulus (GPa) = 30.76560 34.66356 32.71458
#
# Velocity S-wave (km/s) = 3.92680 4.16814 4.04927
# Velocity P-wave (km/s) = 6.87657 7.79683 7.35112
#
# Compressibility (1/GPa) = 0.01875214
#
# Stress axis : x y z
#
# Youngs Moduli (GPa) = 94.62571 133.84888 52.59322
#
# Poissons Ratio (x) = 0.40095 0.24567
# Poissons Ratio (y) = 0.28346 0.07804
# Poissons Ratio (z) = 0.44200 0.19860
#
# Static dielectric constant tensor:
#      x y z
#    x 1.688150 0.000000 0.046230 
#    y 0.000000 1.745620 0.000000 
#    z 0.046230 0.000000 1.784430 
# 
# From -- ./inp_files/289979.got.cif
#   From: 2010.05.17/outbox.cif.g08.bks.cpg/sg12_145_cif.got.tgz:289979.got - 2010.06.03 13:09:07.
