data_PCOD9213076
_publ_section_title
;
Structure prediction by ZEFSAII (Michael W. Deem and Ramdas Pophale) SiO2 
 PCOD9213076
Probable space group: C 2/M
;
_chemical_formula_sum "Si O2"
_cell_formula_units_Z 60
_cell_length_a 23.659340
_cell_length_b 25.318306
_cell_length_c 5.431022
_cell_angle_alpha 90.000000
_cell_angle_beta 126.388894
_cell_angle_gamma 90.000000
_cell_volume 2618.903309
_symmetry_space_group_name_H-M "C 2/M"
_symmetry_group_IT_number 12
_symmetry_cell_setting 'monoclinic'
loop_
_space_group_symop_operation_xyz
x,y,z
-x,y,-z
-x,-y,-z
x,-y,z
1/2+x,1/2+y,z
1/2-x,1/2+y,-z
1/2-x,1/2-y,-z
1/2+x,1/2-y,z
loop_
_atom_site_type_symbol
_atom_site_label
_atom_site_fract_x
_atom_site_fract_y
_atom_site_fract_z
Si Si1 0.704722 0.500000 0.639455
Si Si2 0.662858 0.215804 0.719953
Si Si3 0.298846 0.682897 0.346916
Si Si4 0.576338 0.853490 0.180200
Si Si5 0.542278 0.624735 0.868748
Si Si6 0.934355 0.243887 0.143241
Si Si7 0.837499 0.091827 0.137071
Si Si8 0.776160 0.597237 0.533957
O O1 0.657204 0.545045 0.659066
O O2 0.753134 0.547333 0.636859
O O3 0.673084 0.258501 0.528381
O O4 0.608359 0.170058 0.515757
O O5 0.633911 0.250823 0.865807
O O6 0.735531 0.192327 0.991602
O O7 0.350265 0.644459 0.330117
O O8 0.263887 0.650021 0.474479
O O9 0.641199 0.888557 0.249123
O O10 0.500000 0.879909 0.000000
O O11 0.562638 0.798872 0.996191
O O12 0.500000 0.623317 0.500000
O O13 0.562430 0.686259 0.973187
O O14 0.611611 0.592243 0.968118
O O15 0.500000 0.605751 0.000000
O O16 0.000000 0.244083 0.500000
O O17 0.758439 0.086984 0.822466
#
# Coordination Sequence:
#
# PCOD9213076 Si02
#       8
#     4   8   8   8   8   8   8   8
#     4  10  26  48  73  92 125 159 235 306 376 414
#     4  11  21  36  54  96 138 176 224 270 323 398
#     4  10  22  36  61  93 133 172 229 272 325 403
#     4  12  24  37  62  98 141 184 224 274 335 413
#     4  11  27  44  67 104 149 192 232 274 339 424
#     4  11  22  36  56  90 143 193 218 257 322 402
#     4  11  23  44  71  95 125 176 225 294 354 415
#     4  11  24  42  69  96 123 172 231 293 355 414
#
# _framework density 22.910354999999999
#
# number of rings (size 3 to 8) (size 9 to 14) (size 15 to 20)
#    0.000    1.067    5.333    0.800    7.467    0.533 
#    0.000    1.000    0.000    0.800    0.000    0.000 
#    0.000    0.000    0.000    0.000    0.000    0.000 
#
# Total GULP energy -167081.248323 kJ/mol
# GULP energy per Si atom -5569.374944 kJ/mol
# Density = 2.285821 g / cm^3
# Si number density = 22.910355 Si / 1000 Ang^3
#
#
#
# Elastic Constant Matrix: (Units=GPa)
#
#
# Indices 1 2 3 4 5 6 
#
# 1 138.5130 34.6724 22.2275 0.0000 8.9648 0.0000
# 2 34.6724 86.2748 8.8486 0.0000 -4.7739 0.0000
# 3 22.2275 8.8486 68.9878 0.0000 7.1218 0.0000
# 4 0.0000 0.0000 0.0000 -29.4224 0.0000 5.0796
# 5 8.9648 -4.7739 7.1218 0.0000 31.3618 0.0000
# 6 0.0000 0.0000 0.0000 5.0796 0.0000 36.2336
#
#
#
# Elastic Compliance Matrix: (Units=1/GPa)
#
#
# Indices 1 2 3 4 5 6 
#
# 1 0.008554 -0.003363 -0.002068 0.000000 -0.002488 0.000000
# 2 -0.003363 0.013215 -0.000940 0.000000 0.003187 0.000000
# 3 -0.002068 -0.000940 0.015602 0.000000 -0.003095 0.000000
# 4 0.000000 0.000000 0.000000 -0.033185 0.000000 0.004652
# 5 -0.002488 0.003187 -0.003095 0.000000 0.033785 0.000000
# 6 0.000000 0.000000 0.000000 0.004652 0.000000 0.026946
#
#
# Mechanical properties :
#
#
# Convention : Reuss Voigt Hill
#
# Bulk Modulus (GPa) = 40.60422 47.25253 43.92837
# Shear Modulus (GPa) = 58.22694 22.83641 40.53167
#
# Velocity S-wave (km/s) = 5.04681 3.16060 4.21068
# Velocity P-wave (km/s) = 7.19180 5.83000 6.54641
#
# Compressibility (1/GPa) = 0.02462798
#
# Stress axis : x y z
#
# Youngs Moduli (GPa) = 116.90013 75.66970 64.09558
#
# Poissons Ratio (x) = 0.25451 0.13255
# Poissons Ratio (y) = 0.39318 0.06027
# Poissons Ratio (z) = 0.24174 0.07116
#
# Static dielectric constant tensor:
#      x y z
#    x 1.944990 0.000000 -0.032270 
#    y 0.000000 1.807570 0.000000 
#    z -0.032270 0.000000 1.988360 
# 
# From -- ./inp_files/26508.got.cif
#   From: 2010.05.17/outbox.cif.g08.bks.cpg/sg12_14_cif.got.tgz:26508.got - 2010.06.03 13:09:07.
