data_PCOD9213565
_publ_section_title
;
Structure prediction by ZEFSAII (Michael W. Deem and Ramdas Pophale) SiO2 
 PCOD9213565
Probable space group: C 2/M
;
_chemical_formula_sum "Si O2"
_cell_formula_units_Z 60
_cell_length_a 13.811455
_cell_length_b 23.659335
_cell_length_c 8.655252
_cell_angle_alpha 90.000000
_cell_angle_beta 98.865523
_cell_angle_gamma 90.000000
_cell_volume 2794.485295
_symmetry_space_group_name_H-M "C 2/M"
_symmetry_group_IT_number 12
_symmetry_cell_setting 'monoclinic'
loop_
_space_group_symop_operation_xyz
x,y,z
-x,y,-z
-x,-y,-z
x,-y,z
1/2+x,1/2+y,z
1/2-x,1/2+y,-z
1/2-x,1/2-y,-z
1/2+x,1/2-y,z
loop_
_atom_site_type_symbol
_atom_site_label
_atom_site_fract_x
_atom_site_fract_y
_atom_site_fract_z
Si Si1 0.992691 0.726829 0.814269
Si Si2 0.500000 0.081310 0.500000
Si Si3 0.254899 0.638495 0.841375
Si Si4 0.274593 0.932968 0.449332
Si Si5 0.864840 0.830714 0.170930
Si Si6 0.093946 0.937372 0.634998
Si Si7 0.728589 0.245763 0.314991
Si Si8 0.543664 0.899620 0.840958
O O1 0.886853 0.745841 0.735614
O O2 0.065900 0.776798 0.790249
O O3 0.011164 0.662506 0.768167
O O4 0.000000 0.722546 0.000000
O O5 0.618392 0.097027 0.508412
O O6 0.483981 0.062108 0.314084
O O7 0.280281 0.596476 0.708416
O O8 0.229058 0.698899 0.759426
O O9 0.159893 0.608882 0.892857
O O10 0.333719 0.654719 0.989439
O O11 0.196869 0.929559 0.569089
O O12 0.293958 0.000000 0.429199
O O13 0.913363 0.886078 0.250620
O O14 0.769637 0.810302 0.243025
O O15 0.000000 0.935441 0.500000
O O16 0.095894 0.000000 0.706923
O O17 0.750000 0.250000 0.500000
O O18 0.500000 0.912542 0.000000
#
# Coordination Sequence:
#
# PCOD9213565 Si02
#       8
#     8   4   8   8   8   8   8   8
#     4  11  23  39  60  88 132 175 208 259 329 396
#     4  10  23  40  70 100 130 176 229 272 354 406
#     4  11  23  42  62  95 130 170 216 273 333 401
#     4  10  23  45  69  92 128 172 225 284 338 402
#     4  12  24  41  68  92 133 171 218 269 328 398
#     4  10  25  46  67  96 131 174 227 282 337 395
#     4  12  26  39  61  96 133 167 216 265 330 403
#     4  10  22  38  60  93 138 174 211 267 333 405
#
# _framework density 21.470859000000001
#
# number of rings (size 3 to 8) (size 9 to 14) (size 15 to 20)
#    0.000    1.200    2.667    3.000   11.200    0.533 
#    0.000    0.000    0.000    4.800    0.000    0.000 
#    0.000    0.000    0.000    0.000    0.000    0.000 
#
# Total GULP energy -167120.634639 kJ/mol
# GULP energy per Si atom -5570.687821 kJ/mol
# Density = 2.142199 g / cm^3
# Si number density = 21.470859 Si / 1000 Ang^3
#
#
#
# Elastic Constant Matrix: (Units=GPa)
#
#
# Indices 1 2 3 4 5 6 
#
# 1 71.0888 12.2231 11.1383 0.0000 23.0201 0.0000
# 2 12.2231 113.0207 51.2428 0.0000 -2.7939 0.0000
# 3 11.1383 51.2428 92.8724 0.0000 24.7504 0.0000
# 4 0.0000 0.0000 0.0000 15.7615 0.0000 -13.7291
# 5 23.0201 -2.7939 24.7504 0.0000 24.9149 0.0000
# 6 0.0000 0.0000 0.0000 -13.7291 0.0000 12.8530
#
#
#
# Elastic Compliance Matrix: (Units=1/GPa)
#
#
# Indices 1 2 3 4 5 6 
#
# 1 0.025306 -0.008710 0.011237 0.000000 -0.035521 0.000000
# 2 -0.008710 0.017288 -0.015172 0.000000 0.025058 0.000000
# 3 0.011237 -0.015172 0.028577 0.000000 -0.040472 0.000000
# 4 0.000000 0.000000 0.000000 0.912038 0.000000 0.974208
# 5 -0.035521 0.025058 -0.040472 0.000000 0.115971 0.000000
# 6 0.000000 0.000000 0.000000 0.974208 0.000000 1.118420
#
#
# Mechanical properties :
#
#
# Convention : Reuss Voigt Hill
#
# Bulk Modulus (GPa) = 21.79531 47.35449 34.57490
# Shear Modulus (GPa) = 2.21417 24.19772 13.20595
#
# Velocity S-wave (km/s) = 1.01660 3.36073 2.48274
# Velocity P-wave (km/s) = 3.39869 6.09610 4.93526
#
# Compressibility (1/GPa) = 0.04588143
#
# Stress axis : x y z
#
# Youngs Moduli (GPa) = 39.51580 57.84240 34.99326
#
# Poissons Ratio (x) = 0.50379 -0.39322
# Poissons Ratio (y) = 0.34417 0.53093
# Poissons Ratio (z) = -0.44404 0.87760
#
# Static dielectric constant tensor:
#      x y z
#    x 1.816310 0.000000 -0.045560 
#    y 0.000000 1.830050 0.000000 
#    z -0.045560 0.000000 1.745750 
# 
# From -- ./inp_files/65929.got.cif
#   From: 2010.05.17/outbox.cif.g08.bks.cpg/sg12_33_cif.got.tgz:65929.got - 2010.06.03 13:09:07.
