data_PCOD9213304
_publ_section_title
;
Structure prediction by ZEFSAII (Michael W. Deem and Ramdas Pophale) SiO2 
 PCOD9213304
Probable space group: C 2/M
;
_chemical_formula_sum "Si O2"
_cell_formula_units_Z 40
_cell_length_a 12.337719
_cell_length_b 24.442260
_cell_length_c 5.625545
_cell_angle_alpha 90.000000
_cell_angle_beta 75.811975
_cell_angle_gamma 90.000000
_cell_volume 1644.701646
_symmetry_space_group_name_H-M "C 2/M"
_symmetry_group_IT_number 12
_symmetry_cell_setting 'monoclinic'
loop_
_space_group_symop_operation_xyz
x,y,z
-x,y,-z
-x,-y,-z
x,-y,z
1/2+x,1/2+y,z
1/2-x,1/2+y,-z
1/2-x,1/2-y,-z
1/2+x,1/2-y,z
loop_
_atom_site_type_symbol
_atom_site_label
_atom_site_fract_x
_atom_site_fract_y
_atom_site_fract_z
Si Si1 0.388193 0.817507 0.904406
Si Si2 0.373302 0.435734 0.049130
Si Si3 0.431187 0.060279 0.784611
Si Si4 0.373530 0.400625 0.547460
Si Si5 0.181210 0.218595 0.339587
O O1 0.379686 0.878430 0.802082
O O2 0.396859 0.764810 0.730102
O O3 0.500000 0.817357 0.000000
O O4 0.274374 0.804237 0.106792
O O5 0.385910 0.500000 0.023021
O O6 0.320679 0.422882 0.334117
O O7 0.500000 0.410252 0.000000
O O8 0.320719 0.416767 0.828454
O O9 0.500000 0.058197 0.500000
O O10 0.370731 0.000000 0.824449
O O11 0.500000 0.060747 0.000000
O O12 0.500000 0.423522 0.500000
O O13 0.376278 0.335362 0.528441
O O14 0.250000 0.250000 0.500000
#
# Coordination Sequence:
#
# PCOD9213304 Si02
#       5
#     8   8   8   8   8
#     4  10  25  44  70  96 135 182 221 281 344 400
#     4   9  18  36  62  93 126 171 219 265 324 388
#     4   9  19  38  68 101 130 171 227 280 340 410
#     4  10  22  37  64  91 130 171 215 272 326 387
#     4  11  27  42  65  99 136 173 233 274 330 413
#
# _framework density 24.320520999999999
#
# number of rings (size 3 to 8) (size 9 to 14) (size 15 to 20)
#    0.000    2.200    0.000    0.600   14.000    3.200 
#    0.000    2.000    0.000    0.000    0.000    0.000 
#    0.000    1.200    0.000    0.000    0.000    0.000 
#
# Total GULP energy -111600.515070 kJ/mol
# GULP energy per Si atom -5580.025754 kJ/mol
# Density = 2.426517 g / cm^3
# Si number density = 24.320521 Si / 1000 Ang^3
#
#
#
# Elastic Constant Matrix: (Units=GPa)
#
#
# Indices 1 2 3 4 5 6 
#
# 1 67.1292 24.4009 20.0978 0.0000 9.6659 0.0000
# 2 24.4009 227.5293 56.3993 0.0000 17.4477 0.0000
# 3 20.0978 56.3993 157.0565 0.0000 31.2423 0.0000
# 4 0.0000 0.0000 0.0000 4.8197 0.0000 -84.5854
# 5 9.6659 17.4477 31.2423 0.0000 39.0476 0.0000
# 6 0.0000 0.0000 0.0000 -84.5854 0.0000 -117.1238
#
#
#
# Elastic Compliance Matrix: (Units=1/GPa)
#
#
# Indices 1 2 3 4 5 6 
#
# 1 0.016046 -0.001254 -0.001099 0.000000 -0.002532 0.000000
# 2 -0.001254 0.004950 -0.001473 0.000000 -0.000723 0.000000
# 3 -0.001099 -0.001473 0.008149 0.000000 -0.005589 0.000000
# 4 0.000000 0.000000 0.000000 0.015173 0.000000 -0.010958
# 5 -0.002532 -0.000723 -0.005589 0.000000 0.031032 0.000000
# 6 0.000000 0.000000 0.000000 -0.010958 0.000000 -0.000624
#
#
# Mechanical properties :
#
#
# Convention : Reuss Voigt Hill
#
# Bulk Modulus (GPa) = 46.53008 72.61235 59.57122
# Shear Modulus (GPa) = 55.83911 8.73652 32.28781
#
# Velocity S-wave (km/s) = 4.79682 1.89738 3.64757
# Velocity P-wave (km/s) = 7.06066 5.89248 6.50285
#
# Compressibility (1/GPa) = 0.02149147
#
# Stress axis : x y z
#
# Youngs Moduli (GPa) = 62.31989 202.01338 122.71785
#
# Poissons Ratio (x) = 0.25336 0.13490
# Poissons Ratio (y) = 0.07816 0.18081
# Poissons Ratio (z) = 0.06851 0.29764
#
# Static dielectric constant tensor:
#      x y z
#    x 2.997930 0.000000 0.336070 
#    y 0.000000 1.929490 0.000000 
#    z 0.336070 0.000000 2.144310 
# 
# From -- ./inp_files/11528.got.cif
#   From: 2010.05.17/outbox.cif.g08.bks.cpg/sg12_6_cif.got.tgz:11528.got - 2010.06.03 13:09:07.
