data_PCOD9213273
_publ_section_title
;
Structure prediction by ZEFSAII (Michael W. Deem and Ramdas Pophale) SiO2 
 PCOD9213273
Probable space group: C 2/M
;
_chemical_formula_sum "Si O2"
_cell_formula_units_Z 64
_cell_length_a 8.258685
_cell_length_b 26.681166
_cell_length_c 13.570486
_cell_angle_alpha 90.000000
_cell_angle_beta 79.774776
_cell_angle_gamma 90.000000
_cell_volume 2942.781965
_symmetry_space_group_name_H-M "C 2/M"
_symmetry_group_IT_number 12
_symmetry_cell_setting 'monoclinic'
loop_
_space_group_symop_operation_xyz
x,y,z
-x,y,-z
-x,-y,-z
x,-y,z
1/2+x,1/2+y,z
1/2-x,1/2+y,-z
1/2-x,1/2-y,-z
1/2+x,1/2-y,z
loop_
_atom_site_type_symbol
_atom_site_label
_atom_site_fract_x
_atom_site_fract_y
_atom_site_fract_z
Si Si1 0.231314 0.868153 0.128366
Si Si2 0.192358 0.586620 0.292674
Si Si3 0.139697 0.555775 0.748278
Si Si4 0.667703 0.198443 0.041307
Si Si5 0.066025 0.802240 0.294058
Si Si6 0.551843 0.442508 0.880331
Si Si7 0.983494 0.089112 0.615929
Si Si8 0.800379 0.299931 0.731529
O O1 0.370140 0.902849 0.162821
O O2 0.238361 0.848790 0.016333
O O3 0.204379 0.820343 0.201425
O O4 0.069858 0.902416 0.154902
O O5 0.269502 0.574831 0.175881
O O6 0.346536 0.572952 0.347111
O O7 0.159417 0.645423 0.314196
O O8 0.014448 0.561186 0.309025
O O9 0.139167 0.500000 0.790858
O O10 0.313274 0.565497 0.674680
O O11 0.500000 0.195485 0.000000
O O12 0.750000 0.250000 0.000000
O O13 0.649744 0.198659 0.159528
O O14 0.038596 0.850304 0.366671
O O15 0.119324 0.748349 0.328727
O O16 0.896077 0.794831 0.254293
O O17 0.529074 0.500000 0.848819
O O18 0.500000 0.442559 0.000000
O O19 0.000000 0.077337 0.500000
#
# Coordination Sequence:
#
# PCOD9213273 Si02
#       8
#     8   8   8   8   8   8   8   8
#     4  11  22  38  57  88 132 172 216 273 323 390
#     4  11  23  43  69  97 133 176 222 281 337 400
#     4  11  24  43  72  99 130 176 226 281 345 409
#     4  12  24  33  53  88 128 174 223 276 320 386
#     4  10  22  37  62  89 122 173 210 265 331 398
#     4  11  22  39  64  91 127 178 228 272 327 391
#     4  10  24  47  70 100 139 169 218 282 351 421
#     4  11  21  37  59  88 127 173 218 265 328 387
#
# _framework density 21.748128999999999
#
# number of rings (size 3 to 8) (size 9 to 14) (size 15 to 20)
#    0.000    1.125    5.000    3.000    3.500    1.250 
#    0.000    3.125    0.000    3.750    0.000    0.000 
#    0.000    0.000    0.000    0.000    0.000    0.000 
#
# Total GULP energy -178599.075276 kJ/mol
# GULP energy per Si atom -5581.221102 kJ/mol
# Density = 2.169863 g / cm^3
# Si number density = 21.748129 Si / 1000 Ang^3
#
#
#
# Elastic Constant Matrix: (Units=GPa)
#
#
# Indices 1 2 3 4 5 6 
#
# 1 113.5675 28.4029 9.6614 0.0000 8.1030 0.0000
# 2 28.4029 111.1794 -6.0734 0.0000 -1.2979 0.0000
# 3 9.6614 -6.0734 52.2940 0.0000 5.8431 0.0000
# 4 0.0000 0.0000 0.0000 11.2525 0.0000 -2.3623
# 5 8.1030 -1.2979 5.8431 0.0000 15.1427 0.0000
# 6 0.0000 0.0000 0.0000 -2.3623 0.0000 10.3575
#
#
#
# Elastic Compliance Matrix: (Units=1/GPa)
#
#
# Indices 1 2 3 4 5 6 
#
# 1 0.009968 -0.002692 -0.001601 0.000000 -0.004947 0.000000
# 2 -0.002692 0.009781 0.001441 0.000000 0.001723 0.000000
# 3 -0.001601 0.001441 0.020354 0.000000 -0.006873 0.000000
# 4 0.000000 0.000000 0.000000 0.093338 0.000000 0.021289
# 5 -0.004947 0.001723 -0.006873 0.000000 0.071485 0.000000
# 6 0.000000 0.000000 0.000000 0.021289 0.000000 0.101404
#
#
# Mechanical properties :
#
#
# Convention : Reuss Voigt Hill
#
# Bulk Modulus (GPa) = 29.07167 37.89141 33.48154
# Shear Modulus (GPa) = 15.45592 23.68722 19.57157
#
# Velocity S-wave (km/s) = 2.66875 3.30382 3.00312
# Velocity P-wave (km/s) = 4.78464 5.65812 5.23961
#
# Compressibility (1/GPa) = 0.03439775
#
# Stress axis : x y z
#
# Youngs Moduli (GPa) = 100.32409 102.23983 49.13078
#
# Poissons Ratio (x) = 0.27520 0.07868
# Poissons Ratio (y) = 0.27004 -0.07079
# Poissons Ratio (z) = 0.16066 -0.14730
#
# Static dielectric constant tensor:
#      x y z
#    x 1.985060 0.000000 -0.149150 
#    y 0.000000 1.800650 0.000000 
#    z -0.149150 0.000000 1.939420 
# 
# From -- ./inp_files/199839.got.cif
#   From: 2010.05.17/outbox.cif.g08.bks.cpg/sg12_100_cif.got.tgz:199839.got - 2010.06.03 13:09:07.
