data_PCOD9213229
_publ_section_title
;
Structure prediction by ZEFSAII (Michael W. Deem and Ramdas Pophale) SiO2 
 PCOD9213229
Probable space group: C 2/M
;
_chemical_formula_sum "Si O2"
_cell_formula_units_Z 64
_cell_length_a 14.993981
_cell_length_b 23.736142
_cell_length_c 9.099921
_cell_angle_alpha 90.000000
_cell_angle_beta 81.572949
_cell_angle_gamma 90.000000
_cell_volume 3203.688228
_symmetry_space_group_name_H-M "C 2/M"
_symmetry_group_IT_number 12
_symmetry_cell_setting 'monoclinic'
loop_
_space_group_symop_operation_xyz
x,y,z
-x,y,-z
-x,-y,-z
x,-y,z
1/2+x,1/2+y,z
1/2-x,1/2+y,-z
1/2-x,1/2-y,-z
1/2+x,1/2-y,z
loop_
_atom_site_type_symbol
_atom_site_label
_atom_site_fract_x
_atom_site_fract_y
_atom_site_fract_z
Si Si1 0.213889 0.806909 0.939624
Si Si2 0.102798 0.566744 0.012600
Si Si3 0.137176 0.634491 0.281378
Si Si4 0.487005 0.224817 0.339338
Si Si5 0.790742 0.688709 0.444123
Si Si6 0.029982 0.062839 0.322663
Si Si7 0.035022 0.170738 0.831704
Si Si8 0.219510 0.113909 0.202456
O O1 0.301319 0.830864 0.842665
O O2 0.136960 0.808462 0.835183
O O3 0.250000 0.750000 0.000000
O O4 0.184246 0.848363 0.076605
O O5 0.102734 0.500000 0.990606
O O6 0.184403 0.589995 0.886390
O O7 0.121247 0.579663 0.182765
O O8 0.000000 0.588016 0.000000
O O9 0.185766 0.645037 0.427507
O O10 0.045256 0.668758 0.317468
O O11 0.500000 0.249155 0.500000
O O12 0.385193 0.205327 0.348026
O O13 0.513553 0.274249 0.222839
O O14 0.750000 0.750000 0.500000
O O15 0.734550 0.654944 0.337275
O O16 0.137428 0.072634 0.268007
O O17 0.000000 0.063875 0.500000
O O18 0.977905 0.115268 0.261666
O O19 0.006775 0.000000 0.270811
O O20 0.000000 0.157090 0.000000
#
# Coordination Sequence:
#
# PCOD9213229 Si02
#       8
#     8   8   8   8   8   8   8   8
#     4  11  22  38  58  94 129 161 208 260 326 389
#     4  10  22  43  70  95 126 171 222 277 333 390
#     4  10  22  38  60  92 126 165 207 264 323 389
#     4  10  22  37  59  93 134 169 204 259 332 408
#     4  11  23  37  62  95 132 170 209 263 331 406
#     4  11  27  47  66  90 128 177 230 279 327 386
#     4  12  23  39  63  94 124 169 218 271 322 390
#     4  11  23  42  66  91 130 172 216 275 327 398
#
# _framework density 19.976973999999998
#
# number of rings (size 3 to 8) (size 9 to 14) (size 15 to 20)
#    0.000    1.250    1.250    4.500    7.000    2.750 
#    0.000    1.875    0.000    4.875    0.000    0.000 
#    0.000    0.000    0.000    0.000    0.000    0.000 
#
# Total GULP energy -178244.305872 kJ/mol
# GULP energy per Si atom -5570.134559 kJ/mol
# Density = 1.993151 g / cm^3
# Si number density = 19.976974 Si / 1000 Ang^3
#
#
#
# Elastic Constant Matrix: (Units=GPa)
#
#
# Indices 1 2 3 4 5 6 
#
# 1 89.2635 15.1835 7.4154 0.0000 -9.1885 0.0000
# 2 15.1835 60.1025 28.0143 0.0000 4.6660 0.0000
# 3 7.4154 28.0143 81.8910 0.0000 -5.6176 0.0000
# 4 0.0000 0.0000 0.0000 65.5223 0.0000 -23.9632
# 5 -9.1885 4.6660 -5.6176 0.0000 28.6426 0.0000
# 6 0.0000 0.0000 0.0000 -23.9632 0.0000 31.6990
#
#
#
# Elastic Compliance Matrix: (Units=1/GPa)
#
#
# Indices 1 2 3 4 5 6 
#
# 1 0.012265 -0.003673 0.000463 0.000000 0.004624 0.000000
# 2 -0.003673 0.021515 -0.007449 0.000000 -0.006144 0.000000
# 3 0.000463 -0.007449 0.015013 0.000000 0.004307 0.000000
# 4 0.000000 0.000000 0.000000 0.021094 0.000000 0.015946
# 5 0.004624 -0.006144 0.004307 0.000000 0.038242 0.000000
# 6 0.000000 0.000000 0.000000 0.015946 0.000000 0.043601
#
#
# Mechanical properties :
#
#
# Convention : Reuss Voigt Hill
#
# Bulk Modulus (GPa) = 36.39672 36.94262 36.66967
# Shear Modulus (GPa) = 27.44119 37.21568 32.32843
#
# Velocity S-wave (km/s) = 3.71029 4.32085 4.02716
# Velocity P-wave (km/s) = 6.05094 6.58982 6.32612
#
# Compressibility (1/GPa) = 0.02747500
#
# Stress axis : x y z
#
# Youngs Moduli (GPa) = 81.53210 46.47840 66.60836
#
# Poissons Ratio (x) = 0.17073 -0.03085
# Poissons Ratio (y) = 0.29950 0.49617
# Poissons Ratio (z) = -0.03776 0.34622
#
# Static dielectric constant tensor:
#      x y z
#    x 1.625680 0.000000 -0.041180 
#    y 0.000000 1.721480 0.000000 
#    z -0.041180 0.000000 1.676170 
# 
# From -- ./inp_files/65907.got.cif
#   From: 2010.05.17/outbox.cif.g08.bks.cpg/sg12_33_cif.got.tgz:65907.got - 2010.06.03 13:09:07.
