data_PCOD9213835
_publ_section_title
;
Structure prediction by ZEFSAII (Michael W. Deem and Ramdas Pophale) SiO2 
 PCOD9213835
Probable space group: C 2/M
;
_chemical_formula_sum "Si O2"
_cell_formula_units_Z 56
_cell_length_a 9.459518
_cell_length_b 18.326968
_cell_length_c 21.252572
_cell_angle_alpha 90.000000
_cell_angle_beta 129.581821
_cell_angle_gamma 90.000000
_cell_volume 2839.652452
_symmetry_space_group_name_H-M "C 2/M"
_symmetry_group_IT_number 12
_symmetry_cell_setting 'monoclinic'
loop_
_space_group_symop_operation_xyz
x,y,z
-x,y,-z
-x,-y,-z
x,-y,z
1/2+x,1/2+y,z
1/2-x,1/2+y,-z
1/2-x,1/2-y,-z
1/2+x,1/2-y,z
loop_
_atom_site_type_symbol
_atom_site_label
_atom_site_fract_x
_atom_site_fract_y
_atom_site_fract_z
Si Si1 0.286643 0.804520 0.953240
Si Si2 0.186605 0.084931 0.022034
Si Si3 0.234773 0.210498 0.680267
Si Si4 0.669213 0.917959 0.805228
Si Si5 0.085146 0.689623 0.455157
Si Si6 0.843394 0.256824 0.214307
Si Si7 0.796174 0.417733 0.617931
O O1 0.190105 0.775886 0.863616
O O2 0.500000 0.807776 0.000000
O O3 0.250000 0.750000 0.000000
O O4 0.224446 0.879917 0.966124
O O5 0.337090 0.092309 0.120620
O O6 0.159054 0.000000 0.004630
O O7 0.000000 0.116166 0.000000
O O8 0.236180 0.202873 0.755677
O O9 0.437419 0.233372 0.715879
O O10 0.174823 0.140315 0.622568
O O11 0.088559 0.273705 0.627929
O O12 0.745673 0.838562 0.805228
O O13 0.477289 0.922100 0.713923
O O14 0.755119 0.000000 0.820318
O O15 0.250000 0.750000 0.500000
O O16 0.151416 0.620292 0.433264
O O17 0.000000 0.673409 0.500000
O O18 0.725792 0.500000 0.590586
#
# Coordination Sequence:
#
# PCOD9213835 Si02
#       7
#     8   8   8   8   8   8   8
#     4  12  24  36  56  86 122 157 206 262 309 355
#     4  10  22  39  58  83 117 159 204 254 313 369
#     4  11  21  41  62  91 119 162 205 247 303 369
#     4   9  18  35  59  83 114 158 203 243 295 358
#     4  12  22  39  66  97 126 157 199 250 308 373
#     4  11  22  35  62  88 119 161 211 255 295 365
#     4  10  22  40  64  91 123 163 203 244 303 370
#
# _framework density 19.720721999999999
#
# number of rings (size 3 to 8) (size 9 to 14) (size 15 to 20)
#    0.000    1.286    5.714    1.286    4.000    0.571 
#    0.000    2.143    0.000    3.429    0.000    0.000 
#    0.000    0.000    0.000    0.000    0.000    0.000 
#
# Total GULP energy -156023.440592 kJ/mol
# GULP energy per Si atom -5572.265735 kJ/mol
# Density = 1.967584 g / cm^3
# Si number density = 19.720722 Si / 1000 Ang^3
#
#
#
# Elastic Constant Matrix: (Units=GPa)
#
#
# Indices 1 2 3 4 5 6 
#
# 1 116.1447 46.3893 21.3020 0.0000 -20.9028 0.0000
# 2 46.3893 98.7755 8.1300 0.0000 -12.8554 0.0000
# 3 21.3020 8.1300 60.1698 0.0000 -9.2922 0.0000
# 4 0.0000 0.0000 0.0000 14.2342 0.0000 -12.0721
# 5 -20.9028 -12.8554 -9.2922 0.0000 38.7066 0.0000
# 6 0.0000 0.0000 0.0000 -12.0721 0.0000 26.8982
#
#
#
# Elastic Compliance Matrix: (Units=1/GPa)
#
#
# Indices 1 2 3 4 5 6 
#
# 1 0.011778 -0.004762 -0.002896 0.000000 0.004084 0.000000
# 2 -0.004762 0.012556 0.000245 0.000000 0.001658 0.000000
# 3 -0.002896 0.000245 0.018052 0.000000 0.002851 0.000000
# 4 0.000000 0.000000 0.000000 0.113427 0.000000 0.050907
# 5 0.004084 0.001658 0.002851 0.000000 0.029276 0.000000
# 6 0.000000 0.000000 0.000000 0.050907 0.000000 0.060024
#
#
# Mechanical properties :
#
#
# Convention : Reuss Voigt Hill
#
# Bulk Modulus (GPa) = 36.28241 47.41472 41.84856
# Shear Modulus (GPa) = 18.57877 29.25239 23.91558
#
# Velocity S-wave (km/s) = 3.07268 3.85558 3.48618
# Velocity P-wave (km/s) = 5.57015 6.62691 6.12138
#
# Compressibility (1/GPa) = 0.02756157
#
# Stress axis : x y z
#
# Youngs Moduli (GPa) = 84.90537 79.64487 55.39547
#
# Poissons Ratio (x) = 0.37923 0.16041
# Poissons Ratio (y) = 0.40428 -0.01358
# Poissons Ratio (z) = 0.24586 -0.01953
#
# Static dielectric constant tensor:
#      x y z
#    x 1.736330 0.000000 -0.014070 
#    y 0.000000 1.763710 0.000000 
#    z -0.014070 0.000000 1.769560 
# 
# From -- ./inp_files/257034.got.cif
#   From: 2010.05.17/outbox.cif.g08.bks.cpg/sg12_129_cif.got.tgz:257034.got - 2010.06.03 13:09:07.
