data_PCOD9213050
_publ_section_title
;
Structure prediction by ZEFSAII (Michael W. Deem and Ramdas Pophale) SiO2 
 PCOD9213050
Probable space group: C 2/M
;
_chemical_formula_sum "Si O2"
_cell_formula_units_Z 56
_cell_length_a 15.274724
_cell_length_b 31.574412
_cell_length_c 11.938038
_cell_angle_alpha 90.000000
_cell_angle_beta 30.537785
_cell_angle_gamma 90.000000
_cell_volume 2925.474576
_symmetry_space_group_name_H-M "C 2/M"
_symmetry_group_IT_number 12
_symmetry_cell_setting 'monoclinic'
loop_
_space_group_symop_operation_xyz
x,y,z
-x,y,-z
-x,-y,-z
x,-y,z
1/2+x,1/2+y,z
1/2-x,1/2+y,-z
1/2-x,1/2-y,-z
1/2+x,1/2-y,z
loop_
_atom_site_type_symbol
_atom_site_label
_atom_site_fract_x
_atom_site_fract_y
_atom_site_fract_z
Si Si1 0.139981 0.397447 0.021254
Si Si2 0.840339 0.764672 0.104332
Si Si3 0.087521 0.663410 0.290315
Si Si4 0.964730 0.952658 0.672128
Si Si5 0.059716 0.735965 0.675431
Si Si6 0.106456 0.804605 0.483187
Si Si7 0.234009 0.612215 0.654689
O O1 0.148504 0.366460 0.120394
O O2 0.936715 0.403661 0.220284
O O3 0.270845 0.435800 0.903796
O O4 0.201253 0.385118 0.826290
O O5 0.733956 0.803131 0.168130
O O6 0.717266 0.733576 0.309361
O O7 0.000000 0.782528 0.000000
O O8 0.935035 0.731787 0.917082
O O9 0.000000 0.644134 0.500000
O O10 0.944879 0.694464 0.393308
O O11 0.000000 0.955369 0.500000
O O12 0.106523 0.918076 0.551670
O O13 0.989171 0.000000 0.691676
O O14 0.250000 0.750000 0.500000
O O15 0.982530 0.777626 0.698963
O O16 0.215229 0.839459 0.427896
O O17 0.000000 0.825378 0.500000
#
# Coordination Sequence:
#
# PCOD9213050 Si02
#       7
#     8   8   8   8   8   8   8
#     4  10  22  38  61  88 122 159 190 245 300 360
#     4  12  24  37  53  77 110 161 208 257 296 335
#     4  12  23  42  54  79 118 160 212 247 291 343
#     4   9  19  39  64  95 125 149 186 238 305 377
#     4  12  22  35  53  74 106 154 201 251 291 336
#     4  12  22  36  50  75 110 149 200 243 284 338
#     4  10  22  36  58  94 121 153 194 240 303 364
#
# _framework density 19.142192999999999
#
# number of rings (size 3 to 8) (size 9 to 14) (size 15 to 20)
#    0.000    1.000    4.286    3.429    6.000    0.571 
#    0.000    2.857    0.000    0.429    0.000    1.000 
#    0.000    0.000    0.000    0.000    0.000    0.000 
#
# Total GULP energy -155994.034666 kJ/mol
# GULP energy per Si atom -5571.215524 kJ/mol
# Density = 1.909862 g / cm^3
# Si number density = 19.142193 Si / 1000 Ang^3
#
#
#
# Elastic Constant Matrix: (Units=GPa)
#
#
# Indices 1 2 3 4 5 6 
#
# 1 88.8807 27.9958 31.5640 0.0000 -13.9561 0.0000
# 2 27.9958 92.3386 36.2832 0.0000 -3.7301 0.0000
# 3 31.5640 36.2832 66.5899 0.0000 -4.9554 0.0000
# 4 0.0000 0.0000 0.0000 18.1384 0.0000 -0.9753
# 5 -13.9561 -3.7301 -4.9554 0.0000 36.2510 0.0000
# 6 0.0000 0.0000 0.0000 -0.9753 0.0000 8.0391
#
#
#
# Elastic Compliance Matrix: (Units=1/GPa)
#
#
# Indices 1 2 3 4 5 6 
#
# 1 0.014566 -0.002101 -0.005413 0.000000 0.004651 0.000000
# 2 -0.002101 0.014089 -0.006701 0.000000 -0.000275 0.000000
# 3 -0.005413 -0.006701 0.021244 0.000000 0.000130 0.000000
# 4 0.000000 0.000000 0.000000 0.055494 0.000000 0.006732
# 5 0.004651 -0.000275 0.000130 0.000000 0.029366 0.000000
# 6 0.000000 0.000000 0.000000 0.006732 0.000000 0.125209
#
#
# Mechanical properties :
#
#
# Convention : Reuss Voigt Hill
#
# Bulk Modulus (GPa) = 46.58189 48.83280 47.70734
# Shear Modulus (GPa) = 16.91739 22.61678 19.76708
#
# Velocity S-wave (km/s) = 2.97606 3.44105 3.21697
# Velocity P-wave (km/s) = 6.01637 6.43068 6.22697
#
# Compressibility (1/GPa) = 0.02146757
#
# Stress axis : x y z
#
# Youngs Moduli (GPa) = 68.65500 70.97860 47.07179
#
# Poissons Ratio (x) = 0.14914 0.25481
# Poissons Ratio (y) = 0.14426 0.31543
# Poissons Ratio (z) = 0.37164 0.47564
#
# Static dielectric constant tensor:
#      x y z
#    x 1.799430 0.000000 0.025100 
#    y 0.000000 1.653290 0.000000 
#    z 0.025100 0.000000 1.688780 
# 
# From -- ./inp_files/150452.got.cif
#   From: 2010.05.17/outbox.cif.g08.bks.cpg/sg12_76_cif.got.tgz:150452.got - 2010.06.03 13:09:07.
