data_PCOD9213549
_publ_section_title
;
Structure prediction by ZEFSAII (Michael W. Deem and Ramdas Pophale) SiO2 
 PCOD9213549
Probable space group: C 2/M
;
_chemical_formula_sum "Si O2"
_cell_formula_units_Z 48
_cell_length_a 8.045743
_cell_length_b 22.033472
_cell_length_c 13.519702
_cell_angle_alpha 90.000000
_cell_angle_beta 61.422102
_cell_angle_gamma 90.000000
_cell_volume 2104.716503
_symmetry_space_group_name_H-M "C 2/M"
_symmetry_group_IT_number 12
_symmetry_cell_setting 'monoclinic'
loop_
_space_group_symop_operation_xyz
x,y,z
-x,y,-z
-x,-y,-z
x,-y,z
1/2+x,1/2+y,z
1/2-x,1/2+y,-z
1/2-x,1/2-y,-z
1/2+x,1/2-y,z
loop_
_atom_site_type_symbol
_atom_site_label
_atom_site_fract_x
_atom_site_fract_y
_atom_site_fract_z
Si Si1 0.101687 0.721883 0.326991
Si Si2 0.289853 0.432186 0.013109
Si Si3 0.213517 0.158726 0.379566
Si Si4 0.606805 0.431575 0.244414
Si Si5 0.780269 0.197484 0.072037
Si Si6 0.284613 0.110716 0.570444
O O1 0.076536 0.787091 0.382879
O O2 0.233929 0.723295 0.193240
O O3 0.181236 0.674827 0.384539
O O4 0.907291 0.694884 0.341979
O O5 0.200734 0.500000 0.053550
O O6 0.324316 0.422279 0.886736
O O7 0.500000 0.437084 0.000000
O O8 0.191509 0.370244 0.081199
O O9 0.209468 0.113251 0.289792
O O10 0.197479 0.121332 0.486235
O O11 0.649149 0.500000 0.261603
O O12 0.378811 0.422220 0.320342
O O13 0.750000 0.250000 0.000000
O O14 0.000000 0.184591 0.000000
O O15 0.500000 0.084282 0.500000
#
# Coordination Sequence:
#
# PCOD9213549 Si02
#       6
#     8   8   8   8   8   8
#     4  11  22  39  61  90 124 157 202 256 309 364
#     4   9  19  37  61  87 115 154 202 247 298 362
#     4  11  23  39  61  88 122 160 204 251 305 362
#     4  11  23  41  63  88 123 163 203 249 303 363
#     4  11  21  35  59  88 120 154 195 246 303 363
#     4  10  22  38  60  91 122 158 201 251 305 363
#
# _framework density 22.805921000000001
#
# number of rings (size 3 to 8) (size 9 to 14) (size 15 to 20)
#    0.000    1.500    0.000    6.000    0.000    4.333 
#    0.000    3.333    0.000    2.500    0.000    0.000 
#    0.000    0.000    0.000    0.000    0.000    0.000 
#
# Total GULP energy -134072.799589 kJ/mol
# GULP energy per Si atom -5586.366650 kJ/mol
# Density = 2.275401 g / cm^3
# Si number density = 22.805921 Si / 1000 Ang^3
#
#
#
# Elastic Constant Matrix: (Units=GPa)
#
#
# Indices 1 2 3 4 5 6 
#
# 1 76.4965 21.9922 6.9029 0.0000 20.6571 0.0000
# 2 21.9922 141.6885 26.3603 0.0000 33.2445 0.0000
# 3 6.9029 26.3603 91.0868 0.0000 20.8457 0.0000
# 4 0.0000 0.0000 0.0000 31.3440 0.0000 18.0760
# 5 20.6571 33.2445 20.8457 0.0000 41.7406 0.0000
# 6 0.0000 0.0000 0.0000 18.0760 0.0000 37.6099
#
#
#
# Elastic Compliance Matrix: (Units=1/GPa)
#
#
# Indices 1 2 3 4 5 6 
#
# 1 0.015193 -0.000793 0.000739 0.000000 -0.007256 0.000000
# 2 -0.000793 0.008811 -0.001099 0.000000 -0.006076 0.000000
# 3 0.000739 -0.001099 0.012559 0.000000 -0.005762 0.000000
# 4 0.000000 0.000000 0.000000 0.044138 0.000000 -0.021213
# 5 -0.007256 -0.006076 -0.005762 0.000000 0.035266 0.000000
# 6 0.000000 0.000000 0.000000 -0.021213 0.000000 0.036784
#
#
# Mechanical properties :
#
#
# Convention : Reuss Voigt Hill
#
# Bulk Modulus (GPa) = 29.19148 46.64252 37.91700
# Shear Modulus (GPa) = 30.03407 39.07333 34.55370
#
# Velocity S-wave (km/s) = 3.63291 4.14369 3.89668
# Velocity P-wave (km/s) = 5.51589 6.58710 6.07515
#
# Compressibility (1/GPa) = 0.03425657
#
# Stress axis : x y z
#
# Youngs Moduli (GPa) = 65.81831 113.49476 79.62147
#
# Poissons Ratio (x) = 0.09001 -0.05882
# Poissons Ratio (y) = 0.05220 0.08752
# Poissons Ratio (z) = -0.04862 0.12476
#
# Static dielectric constant tensor:
#      x y z
#    x 1.931660 0.000000 -0.047540 
#    y 0.000000 1.906870 0.000000 
#    z -0.047540 0.000000 1.823360 
# 
# From -- ./inp_files/122452.got.cif
#   From: 2010.05.17/outbox.cif.g08.bks.cpg/sg12_62_cif.got.tgz:122452.got - 2010.06.03 13:09:07.
