data_PCOD9213111
_publ_section_title
;
Structure prediction by ZEFSAII (Michael W. Deem and Ramdas Pophale) SiO2 
 PCOD9213111
Probable space group: C 2/M
;
_chemical_formula_sum "Si O2"
_cell_formula_units_Z 48
_cell_length_a 20.154886
_cell_length_b 7.545043
_cell_length_c 14.184645
_cell_angle_alpha 90.000000
_cell_angle_beta 75.572207
_cell_angle_gamma 90.000000
_cell_volume 2089.023408
_symmetry_space_group_name_H-M "C 2/M"
_symmetry_group_IT_number 12
_symmetry_cell_setting 'monoclinic'
loop_
_space_group_symop_operation_xyz
x,y,z
-x,y,-z
-x,-y,-z
x,-y,z
1/2+x,1/2+y,z
1/2-x,1/2+y,-z
1/2-x,1/2-y,-z
1/2+x,1/2-y,z
loop_
_atom_site_type_symbol
_atom_site_label
_atom_site_fract_x
_atom_site_fract_y
_atom_site_fract_z
Si Si1 0.849131 0.201165 0.417299
Si Si2 0.970057 0.214775 0.863941
Si Si3 0.607886 0.284726 0.928896
Si Si4 0.141290 0.295004 0.378623
Si Si5 0.221650 0.217911 0.749172
Si Si6 0.995963 0.297581 0.645444
O O1 0.833229 0.288296 0.522977
O O2 0.817474 0.275339 0.332521
O O3 0.931261 0.203464 0.378170
O O4 0.824956 0.000000 0.434092
O O5 0.966467 0.292627 0.761733
O O6 0.043149 0.262523 0.885488
O O7 0.968570 0.000000 0.856807
O O8 0.911788 0.271960 0.958732
O O9 0.609023 0.500000 0.930281
O O10 0.677548 0.224340 0.854693
O O11 0.132252 0.500000 0.355445
O O12 0.200318 0.220886 0.290387
O O13 0.065024 0.218434 0.396222
O O14 0.221635 0.000000 0.749447
O O15 0.011699 0.500000 0.610572
#
# Coordination Sequence:
#
# PCOD9213111 Si02
#       6
#     8   8   8   8   8   8
#     4  11  21  35  58  80  98 130 179 226 256 291
#     4   9  16  30  55  81 102 129 172 219 254 293
#     4   8  14  28  54  82 102 126 169 218 257 296
#     4  10  22  37  52  73 107 144 171 204 258 317
#     4   9  17  33  56  79 102 133 174 213 255 306
#     4  11  22  35  51  75 109 143 170 204 257 315
#
# _framework density 22.977243000000001
#
# number of rings (size 3 to 8) (size 9 to 14) (size 15 to 20)
#    0.000    2.333    1.667    3.000    0.000    3.333 
#    0.000    3.333    0.000    0.000    0.000    0.000 
#    0.000    0.000    0.000    0.000    0.000    0.000 
#
# Total GULP energy -134057.035189 kJ/mol
# GULP energy per Si atom -5585.709800 kJ/mol
# Density = 2.292495 g / cm^3
# Si number density = 22.977243 Si / 1000 Ang^3
#
#
#
# Elastic Constant Matrix: (Units=GPa)
#
#
# Indices 1 2 3 4 5 6 
#
# 1 62.9329 2.9727 5.2989 0.0000 -27.8913 0.0000
# 2 2.9727 59.0012 -3.8482 0.0000 0.7646 0.0000
# 3 5.2989 -3.8482 96.3448 0.0000 -19.9961 0.0000
# 4 0.0000 0.0000 0.0000 22.6934 0.0000 -4.8388
# 5 -27.8913 0.7646 -19.9961 0.0000 40.6136 0.0000
# 6 0.0000 0.0000 0.0000 -4.8388 0.0000 54.2417
#
#
#
# Elastic Compliance Matrix: (Units=1/GPa)
#
#
# Indices 1 2 3 4 5 6 
#
# 1 0.023372 -0.001255 0.002228 0.000000 0.017171 0.000000
# 2 -0.001255 0.017060 0.000562 0.000000 -0.000906 0.000000
# 3 0.002228 0.000562 0.011801 0.000000 0.007330 0.000000
# 4 0.000000 0.000000 0.000000 0.044920 0.000000 0.004007
# 5 0.017171 -0.000906 0.007330 0.000000 0.040040 0.000000
# 6 0.000000 0.000000 0.000000 0.004007 0.000000 0.018793
#
#
# Mechanical properties :
#
#
# Convention : Reuss Voigt Hill
#
# Bulk Modulus (GPa) = 18.08167 25.23617 21.65892
# Shear Modulus (GPa) = 29.18009 37.76676 33.47343
#
# Velocity S-wave (km/s) = 3.56751 4.05861 3.82096
# Velocity P-wave (km/s) = 4.98558 5.74195 5.37708
#
# Compressibility (1/GPa) = 0.05530464
#
# Stress axis : x y z
#
# Youngs Moduli (GPa) = 42.78679 58.61510 84.74177
#
# Poissons Ratio (x) = 0.07355 -0.18883
# Poissons Ratio (y) = 0.05369 -0.04766
# Poissons Ratio (z) = -0.09534 -0.03297
#
# Static dielectric constant tensor:
#      x y z
#    x 1.870230 0.000000 -0.027650 
#    y 0.000000 1.851040 0.000000 
#    z -0.027650 0.000000 1.853410 
# 
# From -- ./inp_files/229840.got.cif
#   From: 2010.05.17/outbox.cif.g08.bks.cpg/sg12_115_cif.got.tgz:229840.got - 2010.06.03 13:09:07.
