data_PCOD9213870
_publ_section_title
;
Structure prediction by ZEFSAII (Michael W. Deem and Ramdas Pophale) SiO2 
 PCOD9213870
Probable space group: C 2/M
;
_chemical_formula_sum "Si O2"
_cell_formula_units_Z 56
_cell_length_a 20.949535
_cell_length_b 8.696514
_cell_length_c 18.106438
_cell_angle_alpha 90.000000
_cell_angle_beta 71.419895
_cell_angle_gamma 90.000000
_cell_volume 3126.839290
_symmetry_space_group_name_H-M "C 2/M"
_symmetry_group_IT_number 12
_symmetry_cell_setting 'monoclinic'
loop_
_space_group_symop_operation_xyz
x,y,z
-x,y,-z
-x,-y,-z
x,-y,z
1/2+x,1/2+y,z
1/2-x,1/2+y,-z
1/2-x,1/2-y,-z
1/2+x,1/2-y,z
loop_
_atom_site_type_symbol
_atom_site_label
_atom_site_fract_x
_atom_site_fract_y
_atom_site_fract_z
Si Si1 0.658268 0.814374 0.593318
Si Si2 0.304066 0.185457 0.580200
Si Si3 0.678942 0.815468 0.840695
Si Si4 0.677647 0.315103 0.001979
Si Si5 0.323436 0.184616 0.737874
Si Si6 0.933017 0.314676 0.240356
Si Si7 0.418910 0.316205 0.827512
O O1 0.655212 0.767715 0.508423
O O2 0.728947 0.751560 0.598373
O O3 0.598280 0.765324 0.669252
O O4 0.661142 0.000000 0.595180
O O5 0.333056 0.231793 0.648769
O O6 0.299482 0.000000 0.581418
O O7 0.750749 0.746373 0.790459
O O8 0.622030 0.774980 0.801779
O O9 0.685064 0.000000 0.841093
O O10 0.661144 0.751801 0.927845
O O11 0.681438 0.500000 0.997000
O O12 0.622868 0.270842 0.083847
O O13 0.750000 0.250000 0.000000
O O14 0.379798 0.248636 0.771577
O O15 0.323135 0.000000 0.742074
O O16 0.939849 0.500000 0.238363
O O17 0.004999 0.242098 0.198525
O O18 0.417575 0.500000 0.823673
#
# Coordination Sequence:
#
# PCOD9213870 Si02
#       7
#     8   8   8   8   8   8   8
#     4   9  17  33  55  82 117 151 186 232 281 334
#     4   9  18  31  54  87 115 146 190 235 280 332
#     4  11  22  37  60  88 116 149 191 236 283 340
#     4  11  23  39  60  86 114 149 190 241 290 337
#     4  11  21  35  58  87 116 150 192 236 284 340
#     4  10  22  39  59  84 117 156 191 231 287 343
#     4  11  25  41  59  82 114 152 192 238 289 343
#
# _framework density 17.909458999999998
#
# number of rings (size 3 to 8) (size 9 to 14) (size 15 to 20)
#    0.000    1.714    2.857    1.714    0.000    4.571 
#    0.000    3.571    0.000    4.286    0.000    0.000 
#    0.000    0.000    0.000    0.000    0.000    0.000 
#
# Total GULP energy -156351.301155 kJ/mol
# GULP energy per Si atom -5583.975041 kJ/mol
# Density = 1.786870 g / cm^3
# Si number density = 17.909459 Si / 1000 Ang^3
#
#
#
# Elastic Constant Matrix: (Units=GPa)
#
#
# Indices 1 2 3 4 5 6 
#
# 1 94.1536 29.1657 55.3848 0.0000 -4.6342 0.0000
# 2 29.1657 25.9687 34.2434 0.0000 0.7066 0.0000
# 3 55.3848 34.2434 150.1398 0.0000 2.6185 0.0000
# 4 0.0000 0.0000 0.0000 25.1855 0.0000 -1.7330
# 5 -4.6342 0.7066 2.6185 0.0000 31.2590 0.0000
# 6 0.0000 0.0000 0.0000 -1.7330 0.0000 31.7325
#
#
#
# Elastic Compliance Matrix: (Units=1/GPa)
#
#
# Indices 1 2 3 4 5 6 
#
# 1 0.017353 -0.015819 -0.002849 0.000000 0.003169 0.000000
# 2 -0.015819 0.069493 -0.009960 0.000000 -0.003082 0.000000
# 3 -0.002849 -0.009960 0.010001 0.000000 -0.001035 0.000000
# 4 0.000000 0.000000 0.000000 0.039855 0.000000 0.002177
# 5 0.003169 -0.003082 -0.001035 0.000000 0.032617 0.000000
# 6 0.000000 0.000000 0.000000 0.002177 0.000000 0.031632
#
#
# Mechanical properties :
#
#
# Convention : Reuss Voigt Hill
#
# Bulk Modulus (GPa) = 25.25868 56.42775 40.84322
# Shear Modulus (GPa) = 18.42272 27.73327 23.07799
#
# Velocity S-wave (km/s) = 3.21075 3.93940 3.59359
# Velocity P-wave (km/s) = 5.28009 7.22962 6.33036
#
# Compressibility (1/GPa) = 0.03959035
#
# Stress axis : x y z
#
# Youngs Moduli (GPa) = 57.62764 14.38999 99.98970
#
# Poissons Ratio (x) = 0.22764 0.28482
# Poissons Ratio (y) = 0.91162 0.99594
# Poissons Ratio (z) = 0.16415 0.14333
#
# Static dielectric constant tensor:
#      x y z
#    x 1.566170 0.000000 0.012530 
#    y 0.000000 1.605800 0.000000 
#    z 0.012530 0.000000 1.637080 
# 
# From -- ./inp_files/275007.got.cif
#   From: 2010.05.17/outbox.cif.g08.bks.cpg/sg12_138_cif.got.tgz:275007.got - 2010.06.03 13:09:07.
