data_PCOD9213435
_publ_section_title
;
Structure prediction by ZEFSAII (Michael W. Deem and Ramdas Pophale) SiO2 
 PCOD9213435
Probable space group: C 2/M
;
_chemical_formula_sum "Si O2"
_cell_formula_units_Z 64
_cell_length_a 9.263487
_cell_length_b 13.415754
_cell_length_c 30.521159
_cell_angle_alpha 90.000000
_cell_angle_beta 56.283654
_cell_angle_gamma 90.000000
_cell_volume 3155.057837
_symmetry_space_group_name_H-M "C 2/M"
_symmetry_group_IT_number 12
_symmetry_cell_setting 'monoclinic'
loop_
_space_group_symop_operation_xyz
x,y,z
-x,y,-z
-x,-y,-z
x,-y,z
1/2+x,1/2+y,z
1/2-x,1/2+y,-z
1/2-x,1/2-y,-z
1/2+x,1/2-y,z
loop_
_atom_site_type_symbol
_atom_site_label
_atom_site_fract_x
_atom_site_fract_y
_atom_site_fract_z
Si Si1 0.886982 0.382779 0.563296
Si Si2 0.814645 0.720289 0.036873
Si Si3 0.491961 0.380837 0.754415
Si Si4 0.254751 0.118473 0.885304
Si Si5 0.011768 0.880822 0.143158
Si Si6 0.610829 0.880818 0.787464
Si Si7 0.837581 0.703506 0.313344
Si Si8 0.957731 0.747286 0.384371
O O1 0.852873 0.500000 0.579863
O O2 0.710839 0.318804 0.584148
O O3 0.000000 0.380957 0.500000
O O4 0.996345 0.325191 0.582791
O O5 0.836217 0.821662 0.060933
O O6 0.677162 0.659633 0.088842
O O7 0.750000 0.750000 0.000000
O O8 0.000000 0.668289 0.000000
O O9 0.508824 0.500000 0.747002
O O10 0.506597 0.352610 0.803017
O O11 0.300982 0.348009 0.770524
O O12 0.630542 0.320543 0.702728
O O13 0.455538 0.149109 0.845996
O O14 0.157375 0.144212 0.856711
O O15 0.244476 0.000000 0.893834
O O16 0.027930 0.000000 0.140878
O O17 0.581485 0.850620 0.742150
O O18 0.611749 0.000000 0.789048
O O19 0.924882 0.684774 0.345289
O O20 0.631897 0.686749 0.349388
#
# Coordination Sequence:
#
# PCOD9213435 Si02
#       8
#     8   8   8   8   8   8   8   8
#     4  10  22  44  71  95 130 181 228 278 334 382
#     4  12  25  40  61  86 109 144 188 242 306 365
#     4  10  22  39  61  85 117 162 205 244 297 371
#     4  10  23  42  61  82 114 153 193 239 297 366
#     4  10  23  42  61  85 114 150 197 247 297 364
#     4  10  22  38  58  84 117 160 199 238 295 368
#     4  11  21  37  59  90 130 168 199 254 317 367
#     4  10  23  38  62 100 134 168 220 273 325 386
#
# _framework density 20.284889
#
# number of rings (size 3 to 8) (size 9 to 14) (size 15 to 20)
#    0.000    1.625    2.500    1.125    3.500    6.000 
#    0.000    1.875    0.000    6.750    0.000    0.000 
#    0.000    0.000    0.000    0.000    0.000    0.000 
#
# Total GULP energy -178709.204353 kJ/mol
# GULP energy per Si atom -5584.662636 kJ/mol
# Density = 2.023872 g / cm^3
# Si number density = 20.284889 Si / 1000 Ang^3
#
#
#
# Elastic Constant Matrix: (Units=GPa)
#
#
# Indices 1 2 3 4 5 6 
#
# 1 109.1416 30.2860 39.8666 0.0000 9.7497 0.0000
# 2 30.2860 66.0643 25.7534 0.0000 1.3256 0.0000
# 3 39.8666 25.7534 92.7684 0.0000 11.3743 0.0000
# 4 0.0000 0.0000 0.0000 26.5731 0.0000 1.6783
# 5 9.7497 1.3256 11.3743 0.0000 41.3649 0.0000
# 6 0.0000 0.0000 0.0000 1.6783 0.0000 22.2770
#
#
#
# Elastic Compliance Matrix: (Units=1/GPa)
#
#
# Indices 1 2 3 4 5 6 
#
# 1 0.011766 -0.003888 -0.003780 0.000000 -0.001609 0.000000
# 2 -0.003888 0.018283 -0.003565 0.000000 0.001311 0.000000
# 3 -0.003780 -0.003565 0.013733 0.000000 -0.002771 0.000000
# 4 0.000000 0.000000 0.000000 0.037812 0.000000 -0.002849
# 5 -0.001609 0.001311 -0.002771 0.000000 0.025274 0.000000
# 6 0.000000 0.000000 0.000000 -0.002849 0.000000 0.045104
#
#
# Mechanical properties :
#
#
# Convention : Reuss Voigt Hill
#
# Bulk Modulus (GPa) = 46.91351 51.08736 49.00044
# Shear Modulus (GPa) = 27.54167 29.51423 28.52795
#
# Velocity S-wave (km/s) = 3.68875 3.81857 3.75422
# Velocity P-wave (km/s) = 6.42807 6.68443 6.55750
#
# Compressibility (1/GPa) = 0.02131582
#
# Stress axis : x y z
#
# Youngs Moduli (GPa) = 84.99316 54.69646 72.81573
#
# Poissons Ratio (x) = 0.21267 0.27521
# Poissons Ratio (y) = 0.33046 0.25961
# Poissons Ratio (z) = 0.32123 0.19501
#
# Static dielectric constant tensor:
#      x y z
#    x 1.733820 0.000000 -0.005740 
#    y 0.000000 1.738570 0.000000 
#    z -0.005740 0.000000 1.678410 
# 
# From -- ./inp_files/332950.got.cif
#   From: 2010.05.17/outbox.cif.g08.bks.cpg/sg12_167_cif.got.tgz:332950.got - 2010.06.03 13:09:07.
