data_PCOD9213865
_publ_section_title
;
Structure prediction by ZEFSAII (Michael W. Deem and Ramdas Pophale) SiO2 
 PCOD9213865
Probable space group: C 2/M
;
_chemical_formula_sum "Si O2"
_cell_formula_units_Z 56
_cell_length_a 30.581011
_cell_length_b 9.003804
_cell_length_c 11.175610
_cell_angle_alpha 90.000000
_cell_angle_beta 113.515853
_cell_angle_gamma 90.000000
_cell_volume 2821.594673
_symmetry_space_group_name_H-M "C 2/M"
_symmetry_group_IT_number 12
_symmetry_cell_setting 'monoclinic'
loop_
_space_group_symop_operation_xyz
x,y,z
-x,y,-z
-x,-y,-z
x,-y,z
1/2+x,1/2+y,z
1/2-x,1/2+y,-z
1/2-x,1/2-y,-z
1/2+x,1/2-y,z
loop_
_atom_site_type_symbol
_atom_site_label
_atom_site_fract_x
_atom_site_fract_y
_atom_site_fract_z
Si Si1 0.825421 0.675563 0.394503
Si Si2 0.978457 0.180654 0.348364
Si Si3 0.727762 0.170398 0.321140
Si Si4 0.028028 0.179455 0.151794
Si Si5 0.373098 0.177332 0.685908
Si Si6 0.632168 0.677446 0.792707
Si Si7 0.293260 0.168609 0.982169
O O1 0.821984 0.500000 0.369137
O O2 0.775030 0.733396 0.391023
O O3 0.866921 0.701899 0.537176
O O4 0.838651 0.762274 0.289178
O O5 0.922862 0.221885 0.279381
O O6 0.000000 0.231584 0.500000
O O7 0.004258 0.228101 0.252842
O O8 0.981026 0.000000 0.352544
O O9 0.677795 0.227601 0.317745
O O10 0.735266 0.000000 0.372106
O O11 0.719081 0.165632 0.169930
O O12 0.081571 0.241250 0.211181
O O13 0.028783 0.000000 0.153046
O O14 0.000000 0.225455 0.000000
O O15 0.376825 0.000000 0.711457
O O16 0.635174 0.500000 0.799640
O O17 0.658043 0.746526 0.935580
O O18 0.297174 0.000000 0.030867
O O19 0.250000 0.250000 0.000000
#
# Coordination Sequence:
#
# PCOD9213865 Si02
#       7
#     8   8   8   8   8   8   8
#     4  11  22  37  59  88 121 152 193 243 288 346
#     4   9  19  37  60  86 116 152 196 245 297 353
#     4  10  22  39  59  83 117 157 197 235 287 354
#     4  10  22  40  62  89 117 151 201 254 296 347
#     4  10  23  41  60  86 118 155 195 239 294 353
#     4  11  22  36  60  87 117 156 195 238 296 354
#     4  11  22  37  57  84 118 155 195 242 290 348
#
# _framework density 19.846931999999999
#
# number of rings (size 3 to 8) (size 9 to 14) (size 15 to 20)
#    0.000    1.714    1.429    2.571    2.000    3.714 
#    0.000    1.429    0.000    3.857    0.000    0.000 
#    0.000    0.000    0.000    0.000    0.000    0.000 
#
# Total GULP energy -156364.444446 kJ/mol
# GULP energy per Si atom -5584.444444 kJ/mol
# Density = 1.980176 g / cm^3
# Si number density = 19.846932 Si / 1000 Ang^3
#
#
#
# Elastic Constant Matrix: (Units=GPa)
#
#
# Indices 1 2 3 4 5 6 
#
# 1 98.6577 22.6144 50.4275 0.0000 14.3211 0.0000
# 2 22.6144 52.3623 35.7696 0.0000 14.5274 0.0000
# 3 50.4275 35.7696 132.0970 0.0000 23.9390 0.0000
# 4 0.0000 0.0000 0.0000 24.9867 0.0000 7.7016
# 5 14.3211 14.5274 23.9390 0.0000 38.6605 0.0000
# 6 0.0000 0.0000 0.0000 7.7016 0.0000 24.0339
#
#
#
# Elastic Compliance Matrix: (Units=1/GPa)
#
#
# Indices 1 2 3 4 5 6 
#
# 1 0.012961 -0.002461 -0.004031 0.000000 -0.001380 0.000000
# 2 -0.002461 0.024983 -0.004832 0.000000 -0.005484 0.000000
# 3 -0.004031 -0.004832 0.011059 0.000000 -0.003539 0.000000
# 4 0.000000 0.000000 0.000000 0.044407 0.000000 -0.014230
# 5 -0.001380 -0.005484 -0.003539 0.000000 0.030630 0.000000
# 6 0.000000 0.000000 0.000000 -0.014230 0.000000 0.046168
#
#
# Mechanical properties :
#
#
# Convention : Reuss Voigt Hill
#
# Bulk Modulus (GPa) = 37.94358 55.63778 46.79068
# Shear Modulus (GPa) = 24.79671 29.15659 26.97665
#
# Velocity S-wave (km/s) = 3.53852 3.83701 3.69078
# Velocity P-wave (km/s) = 5.98785 6.90829 6.46447
#
# Compressibility (1/GPa) = 0.02635492
#
# Stress axis : x y z
#
# Youngs Moduli (GPa) = 77.15422 40.02790 90.42609
#
# Poissons Ratio (x) = 0.09850 0.36454
# Poissons Ratio (y) = 0.18986 0.43690
# Poissons Ratio (z) = 0.31104 0.19340
#
# Static dielectric constant tensor:
#      x y z
#    x 1.690570 0.000000 -0.026140 
#    y 0.000000 1.677980 0.000000 
#    z -0.026140 0.000000 1.715480 
# 
# From -- ./inp_files/187150.got.cif
#   From: 2010.05.17/outbox.cif.g08.bks.cpg/sg12_94_cif.got.tgz:187150.got - 2010.06.03 13:09:07.
