data_PCOD9213613
_publ_section_title
;
Structure prediction by ZEFSAII (Michael W. Deem and Ramdas Pophale) SiO2 
 PCOD9213613
Probable space group: C 2/M
;
_chemical_formula_sum "Si O2"
_cell_formula_units_Z 56
_cell_length_a 19.242467
_cell_length_b 9.949968
_cell_length_c 13.738931
_cell_angle_alpha 90.000000
_cell_angle_beta 87.880382
_cell_angle_gamma 90.000000
_cell_volume 2628.682451
_symmetry_space_group_name_H-M "C 2/M"
_symmetry_group_IT_number 12
_symmetry_cell_setting 'monoclinic'
loop_
_space_group_symop_operation_xyz
x,y,z
-x,y,-z
-x,-y,-z
x,-y,z
1/2+x,1/2+y,z
1/2-x,1/2+y,-z
1/2-x,1/2-y,-z
1/2+x,1/2-y,z
loop_
_atom_site_type_symbol
_atom_site_label
_atom_site_fract_x
_atom_site_fract_y
_atom_site_fract_z
Si Si1 0.695548 0.263513 0.801081
Si Si2 0.593439 0.648997 0.954872
Si Si3 0.787913 0.155804 0.419653
Si Si4 0.077481 0.155992 0.470378
Si Si5 0.449182 0.149571 0.179768
Si Si6 0.831898 0.341072 0.894152
Si Si7 0.074398 0.650230 0.303177
O O1 0.648528 0.367553 0.863539
O O2 0.719630 0.303262 0.692222
O O3 0.634205 0.152028 0.796891
O O4 0.763750 0.257254 0.864544
O O5 0.577738 0.500000 0.994148
O O6 0.534858 0.734539 0.900224
O O7 0.629322 0.754474 0.025968
O O8 0.750000 0.250000 0.500000
O O9 0.869357 0.165408 0.443548
O O10 0.766272 0.000000 0.432610
O O11 0.101835 0.244632 0.379088
O O12 0.000000 0.201186 0.500000
O O13 0.074184 0.000000 0.441149
O O14 0.495324 0.177272 0.272388
O O15 0.468797 0.000000 0.144144
O O16 0.817643 0.500000 0.921327
O O17 0.880866 0.346304 0.797115
O O18 0.077931 0.500000 0.344484
#
# Coordination Sequence:
#
# PCOD9213613 Si02
#       7
#     8   8   8   8   8   8   8
#     4  10  22  38  63  84 118 153 200 238 293 345
#     4  10  22  38  62  89 117 156 199 241 292 350
#     4  11  23  40  61  88 122 156 197 245 296 352
#     4  10  22  39  62  90 119 157 198 244 298 349
#     4   9  21  39  61  86 116 154 198 241 288 345
#     4  11  22  38  62  88 120 156 195 244 296 348
#     4  10  22  41  63  89 119 157 198 243 296 349
#
# _framework density 21.303449000000001
#
# number of rings (size 3 to 8) (size 9 to 14) (size 15 to 20)
#    0.857    1.000    0.000    3.857    0.000    4.857 
#    0.000    2.857    0.000    0.000    0.000    0.000 
#    0.000    0.000    0.000    0.000    0.000    0.000 
#
# Total GULP energy -155956.042200 kJ/mol
# GULP energy per Si atom -5569.858650 kJ/mol
# Density = 2.125496 g / cm^3
# Si number density = 21.303449 Si / 1000 Ang^3
#
#
#
# Elastic Constant Matrix: (Units=GPa)
#
#
# Indices 1 2 3 4 5 6 
#
# 1 65.5857 0.2946 -8.5866 0.0000 6.0556 0.0000
# 2 0.2946 68.7494 26.6820 0.0000 8.2504 0.0000
# 3 -8.5866 26.6820 71.5094 0.0000 3.8934 0.0000
# 4 0.0000 0.0000 0.0000 103.6579 0.0000 19.4664
# 5 6.0556 8.2504 3.8934 0.0000 34.2507 0.0000
# 6 0.0000 0.0000 0.0000 19.4664 0.0000 23.9907
#
#
#
# Elastic Compliance Matrix: (Units=1/GPa)
#
#
# Indices 1 2 3 4 5 6 
#
# 1 0.015818 -0.000605 0.002283 0.000000 -0.002911 0.000000
# 2 -0.000605 0.017434 -0.006394 0.000000 -0.003366 0.000000
# 3 0.002283 -0.006394 0.016686 0.000000 -0.000760 0.000000
# 4 0.000000 0.000000 0.000000 0.011381 0.000000 -0.009235
# 5 -0.002911 -0.003366 -0.000760 0.000000 0.030608 0.000000
# 6 0.000000 0.000000 0.000000 -0.009235 0.000000 0.049176
#
#
# Mechanical properties :
#
#
# Convention : Reuss Voigt Hill
#
# Bulk Modulus (GPa) = 24.68783 26.95826 25.82305
# Shear Modulus (GPa) = 30.48108 44.87681 37.67894
#
# Velocity S-wave (km/s) = 3.78670 4.59470 4.21013
# Velocity P-wave (km/s) = 5.54370 6.38985 5.98176
#
# Compressibility (1/GPa) = 0.04050578
#
# Stress axis : x y z
#
# Youngs Moduli (GPa) = 63.22064 57.35996 59.93175
#
# Poissons Ratio (x) = 0.03469 -0.13685
# Poissons Ratio (y) = 0.03823 0.38322
# Poissons Ratio (z) = -0.14436 0.36678
#
# Static dielectric constant tensor:
#      x y z
#    x 1.868970 0.000000 -0.021210 
#    y 0.000000 1.721050 0.000000 
#    z -0.021210 0.000000 1.744360 
# 
# From -- ./inp_files/230913.got.cif
#   From: 2010.05.17/outbox.cif.g08.bks.cpg/sg12_116_cif.got.tgz:230913.got - 2010.06.03 13:09:07.
