data_PCOD9213514
_publ_section_title
;
Structure prediction by ZEFSAII (Michael W. Deem and Ramdas Pophale) SiO2 
 PCOD9213514
Probable space group: C 2/M
;
_chemical_formula_sum "Si O2"
_cell_formula_units_Z 48
_cell_length_a 12.218865
_cell_length_b 15.791042
_cell_length_c 22.185653
_cell_angle_alpha 90.000000
_cell_angle_beta 144.558461
_cell_angle_gamma 90.000000
_cell_volume 2482.252724
_symmetry_space_group_name_H-M "C 2/M"
_symmetry_group_IT_number 12
_symmetry_cell_setting 'monoclinic'
loop_
_space_group_symop_operation_xyz
x,y,z
-x,y,-z
-x,-y,-z
x,-y,z
1/2+x,1/2+y,z
1/2-x,1/2+y,-z
1/2-x,1/2-y,-z
1/2+x,1/2-y,z
loop_
_atom_site_type_symbol
_atom_site_label
_atom_site_fract_x
_atom_site_fract_y
_atom_site_fract_z
Si Si1 0.292384 0.399518 0.894601
Si Si2 0.153149 0.594961 0.121820
Si Si3 0.053634 0.842919 0.256818
Si Si4 0.922208 0.699525 0.109762
Si Si5 0.862270 0.600016 0.300504
Si Si6 0.667056 0.098177 0.525436
O O1 0.311809 0.500000 0.894466
O O2 0.170757 0.380114 0.898477
O O3 0.200289 0.364422 0.792026
O O4 0.500000 0.362712 0.000000
O O5 0.156401 0.500000 0.150077
O O6 0.355214 0.614047 0.183121
O O7 0.081756 0.665738 0.136419
O O8 0.000000 0.595658 0.000000
O O9 0.007633 0.756668 0.201345
O O10 0.188257 0.890300 0.268855
O O11 0.171649 0.845244 0.371958
O O12 0.750000 0.750000 0.000000
O O13 0.897238 0.500000 0.309474
O O14 0.056213 0.632909 0.417322
O O15 0.500000 0.093441 0.500000
O O16 0.733431 0.000000 0.546579
#
# Coordination Sequence:
#
# PCOD9213514 Si02
#       6
#     8   8   8   8   8   8
#     4  10  22  38  60  84 112 151 193 234 289 360
#     4  11  24  40  58  83 117 160 201 237 290 361
#     4  11  21  34  62  87 116 151 194 242 289 345
#     4  12  25  38  55  81 123 156 188 240 300 347
#     4   9  18  35  63  91 116 147 191 246 292 339
#     4   8  15  32  58  89 116 145 192 244 289 335
#
# _framework density 19.337274000000001
#
# number of rings (size 3 to 8) (size 9 to 14) (size 15 to 20)
#    0.000    1.833    1.667    4.000    4.667    0.000 
#    0.000    0.833    3.667    0.000    0.000    4.667 
#    0.000    0.000    0.000    0.000    0.000    0.000 
#
# Total GULP energy -133793.533890 kJ/mol
# GULP energy per Si atom -5574.730579 kJ/mol
# Density = 1.929326 g / cm^3
# Si number density = 19.337274 Si / 1000 Ang^3
#
#
#
# Elastic Constant Matrix: (Units=GPa)
#
#
# Indices 1 2 3 4 5 6 
#
# 1 63.1884 14.5845 36.5618 -0.0010 -0.3892 0.0012
# 2 14.5845 51.7726 35.5668 -0.0005 -1.2769 0.0005
# 3 36.5618 35.5668 152.9439 -0.0045 -4.4840 0.0054
# 4 -0.0010 -0.0005 -0.0045 -184.3994 -0.0016 233.5755
# 5 -0.3892 -1.2769 -4.4840 -0.0016 27.6105 0.0019
# 6 0.0012 0.0005 0.0054 233.5755 0.0019 -249.9300
#
#
#
# Elastic Compliance Matrix: (Units=1/GPa)
#
#
# Indices 1 2 3 4 5 6 
#
# 1 0.018664 -0.002612 -0.003869 0.000000 -0.000486 0.000000
# 2 -0.002612 0.023354 -0.004799 0.000000 0.000264 0.000000
# 3 -0.003869 -0.004799 0.008612 0.000000 0.001122 0.000000
# 4 0.000000 0.000000 0.000000 0.029506 0.000000 0.027575
# 5 -0.000486 0.000264 0.001122 0.000000 0.036406 0.000000
# 6 0.000000 0.000000 0.000000 0.027575 0.000000 0.021769
#
#
# Mechanical properties :
#
#
# Convention : Reuss Voigt Hill
#
# Bulk Modulus (GPa) = 35.62348 49.03680 42.33014
# Shear Modulus (GPa) = 29.37257 -69.26432 -19.94587
#
# Velocity S-wave (km/s) = 3.90161 -5.99140 -3.21514
# Velocity P-wave (km/s) = 6.22567 4.73801 2.85572
#
# Compressibility (1/GPa) = 0.02807137
#
# Stress axis : x y z
#
# Youngs Moduli (GPa) = 53.57914 42.81871 116.11738
#
# Poissons Ratio (x) = 0.11185 0.44920
# Poissons Ratio (y) = 0.13996 0.55723
# Poissons Ratio (z) = 0.20727 0.20548
#
# Static dielectric constant tensor:
#      x y z
#    x 1.651330 0.000000 -0.014530 
#    y 0.000000 1.695390 0.000000 
#    z -0.014530 0.000000 1.730940 
# 
# From -- ./inp_files/305696.got.cif
#   From: 2010.05.17/outbox.cif.g08.bks.cpg/sg12_153_cif.got.tgz:305696.got - 2010.06.03 13:09:07.
