data_PCOD9213353
_publ_section_title
;
Structure prediction by ZEFSAII (Michael W. Deem and Ramdas Pophale) SiO2 
 PCOD9213353
Probable space group: C 2/M
;
_chemical_formula_sum "Si O2"
_cell_formula_units_Z 56
_cell_length_a 28.386088
_cell_length_b 8.763649
_cell_length_c 17.997514
_cell_angle_alpha 90.000000
_cell_angle_beta 44.087547
_cell_angle_gamma 90.000000
_cell_volume 3115.017107
_symmetry_space_group_name_H-M "C 2/M"
_symmetry_group_IT_number 12
_symmetry_cell_setting 'monoclinic'
loop_
_space_group_symop_operation_xyz
x,y,z
-x,y,-z
-x,-y,-z
x,-y,z
1/2+x,1/2+y,z
1/2-x,1/2+y,-z
1/2-x,1/2-y,-z
1/2+x,1/2-y,z
loop_
_atom_site_type_symbol
_atom_site_label
_atom_site_fract_x
_atom_site_fract_y
_atom_site_fract_z
Si Si1 0.170948 0.317162 0.940563
Si Si2 0.354973 0.818378 0.601975
Si Si3 0.825867 0.815622 0.792656
Si Si4 0.914002 0.816373 0.833871
Si Si5 0.066292 0.816722 0.621379
Si Si6 0.791238 0.682903 0.264936
Si Si7 0.322459 0.817487 0.394315
O O1 0.165788 0.500000 0.951612
O O2 0.246468 0.272612 0.882790
O O3 0.169575 0.275212 0.854915
O O4 0.114922 0.244310 0.056108
O O5 0.358376 0.754158 0.681643
O O6 0.410649 0.749050 0.484010
O O7 0.281404 0.765086 0.654765
O O8 0.358706 0.000000 0.597726
O O9 0.864618 0.766417 0.822770
O O10 0.829052 0.000000 0.783266
O O11 0.990530 0.768880 0.729214
O O12 0.912635 0.000000 0.837035
O O13 0.119369 0.756293 0.622013
O O14 0.069394 0.000000 0.614904
O O15 0.777868 0.500000 0.276824
O O16 0.829195 0.714417 0.298684
O O17 0.250000 0.750000 0.500000
O O18 0.322223 0.000000 0.405566
#
# Coordination Sequence:
#
# PCOD9213353 Si02
#       7
#     8   8   8   8   8   8   8
#     4   9  18  34  58  83 108 140 179 229 279 323
#     4  11  21  33  54  84 111 140 182 229 278 325
#     4   9  19  37  58  80 109 145 185 225 277 333
#     4  10  22  38  56  78 108 151 190 225 272 326
#     4  11  23  38  54  77 114 151 184 224 275 331
#     4   9  19  36  57  82 112 143 176 222 278 330
#     4  11  21  35  59  86 111 142 183 225 274 329
#
# _framework density 17.977429000000001
#
# number of rings (size 3 to 8) (size 9 to 14) (size 15 to 20)
#    0.000    2.000    1.429    3.429    0.000    5.143 
#    0.000    3.571    0.000    4.286    0.000    0.000 
#    0.000    0.000    0.000    0.000    0.000    0.000 
#
# Total GULP energy -156342.066988 kJ/mol
# GULP energy per Si atom -5583.645250 kJ/mol
# Density = 1.793651 g / cm^3
# Si number density = 17.977429 Si / 1000 Ang^3
#
#
#
# Elastic Constant Matrix: (Units=GPa)
#
#
# Indices 1 2 3 4 5 6 
#
# 1 18.7403 3.8770 25.2256 0.0197 9.5314 -0.0056
# 2 3.8770 32.2333 30.3242 0.0134 3.3527 -0.0055
# 3 25.2256 30.3242 153.3784 0.0191 7.7820 -0.0094
# 4 0.0197 0.0134 0.0191 31.5113 -0.0043 4.4856
# 5 9.5314 3.3527 7.7820 -0.0043 18.8533 0.0009
# 6 -0.0056 -0.0055 -0.0094 4.4856 0.0009 25.0319
#
#
#
# Elastic Compliance Matrix: (Units=1/GPa)
#
#
# Indices 1 2 3 4 5 6 
#
# 1 0.092926 0.006851 -0.014496 -0.000062 -0.042214 0.000029
# 2 0.006851 0.038879 -0.008464 -0.000018 -0.006884 0.000010
# 3 -0.014496 -0.008464 0.010346 0.000007 0.004563 -0.000003
# 4 -0.000062 -0.000018 0.000007 0.032565 0.000039 -0.005836
# 5 -0.042214 -0.006884 0.004563 0.000039 0.073723 -0.000019
# 6 0.000029 0.000010 -0.000003 -0.005836 -0.000019 0.040995
#
#
# Mechanical properties :
#
#
# Convention : Reuss Voigt Hill
#
# Bulk Modulus (GPa) = 9.09646 35.91171 22.50408
# Shear Modulus (GPa) = 13.95493 24.74098 19.34796
#
# Velocity S-wave (km/s) = 2.78914 3.71378 3.28416
# Velocity P-wave (km/s) = 3.92980 6.19749 5.18904
#
# Compressibility (1/GPa) = 0.10993290
#
# Stress axis : x y z
#
# Youngs Moduli (GPa) = 10.76120 25.72112 96.65750
#
# Poissons Ratio (x) = -0.17622 1.40114
# Poissons Ratio (y) = -0.07373 0.81812
# Poissons Ratio (z) = 0.15599 0.21771
#
# Static dielectric constant tensor:
#      x y z
#    x 1.607760 0.000000 0.016570 
#    y 0.000000 1.607300 0.000000 
#    z 0.016570 0.000000 1.600590 
# 
# From -- ./inp_files/288204.got.cif
#   From: 2010.05.17/outbox.cif.g08.bks.cpg/sg12_145_cif.got.tgz:288204.got - 2010.06.03 13:09:07.
