data_PCOD9213802
_publ_section_title
;
Structure prediction by ZEFSAII (Michael W. Deem and Ramdas Pophale) SiO2 
 PCOD9213802
Probable space group: C 2/M
;
_chemical_formula_sum "Si O2"
_cell_formula_units_Z 40
_cell_length_a 16.925877
_cell_length_b 9.155919
_cell_length_c 12.351999
_cell_angle_alpha 90.000000
_cell_angle_beta 83.562625
_cell_angle_gamma 90.000000
_cell_volume 1902.144354
_symmetry_space_group_name_H-M "C 2/M"
_symmetry_group_IT_number 12
_symmetry_cell_setting 'monoclinic'
loop_
_space_group_symop_operation_xyz
x,y,z
-x,y,-z
-x,-y,-z
x,-y,z
1/2+x,1/2+y,z
1/2-x,1/2+y,-z
1/2-x,1/2-y,-z
1/2+x,1/2-y,z
loop_
_atom_site_type_symbol
_atom_site_label
_atom_site_fract_x
_atom_site_fract_y
_atom_site_fract_z
Si Si1 0.866783 0.824787 0.549216
Si Si2 0.332737 0.671886 0.961390
Si Si3 0.311628 0.172493 0.354462
Si Si4 0.553715 0.326696 0.248165
Si Si5 0.915162 0.327500 0.137887
O O1 0.779265 0.784570 0.609111
O O2 0.868070 0.755399 0.430670
O O3 0.929890 0.780895 0.630836
O O4 0.871036 0.000000 0.539315
O O5 0.324728 0.500000 0.983884
O O6 0.365322 0.688596 0.834487
O O7 0.250000 0.750000 0.000000
O O8 0.398526 0.741132 0.030854
O O9 0.339218 0.195918 0.228026
O O10 0.318120 0.000000 0.375348
O O11 0.533204 0.500000 0.249696
O O12 0.487931 0.234681 0.195924
O O13 0.924153 0.500000 0.115874
#
# Coordination Sequence:
#
# PCOD9213802 Si02
#       5
#     8   8   8   8   8
#     4   9  18  35  58  80 106 144 188 230 275 331
#     4  11  23  40  62  85 112 146 185 230 279 332
#     4   9  19  36  56  80 111 145 184 232 280 324
#     4  10  22  39  57  81 115 150 184 229 283 332
#     4  11  23  38  57  83 116 150 186 230 278 330
#
# _framework density 21.028898000000002
#
# number of rings (size 3 to 8) (size 9 to 14) (size 15 to 20)
#    0.000    2.000    0.000    3.000    0.000   10.400 
#    0.000    8.000    0.000    0.000    0.000    0.000 
#    0.000    0.000    0.000    0.000    0.000    0.000 
#
# Total GULP energy -111784.155170 kJ/mol
# GULP energy per Si atom -5589.207759 kJ/mol
# Density = 2.098104 g / cm^3
# Si number density = 21.028898 Si / 1000 Ang^3
#
#
#
# Elastic Constant Matrix: (Units=GPa)
#
#
# Indices 1 2 3 4 5 6 
#
# 1 52.2397 11.8031 -3.7397 0.0000 14.1707 0.0000
# 2 11.8031 44.5631 23.5948 0.0000 6.6513 0.0000
# 3 -3.7397 23.5948 78.5520 0.0000 24.2956 0.0000
# 4 0.0000 0.0000 0.0000 30.7538 0.0000 4.4597
# 5 14.1707 6.6513 24.2956 0.0000 36.4607 0.0000
# 6 0.0000 0.0000 0.0000 4.4597 0.0000 33.5608
#
#
#
# Elastic Compliance Matrix: (Units=1/GPa)
#
#
# Indices 1 2 3 4 5 6 
#
# 1 0.025480 -0.009025 0.008159 0.000000 -0.013694 0.000000
# 2 -0.009025 0.029891 -0.011093 0.000000 0.005446 0.000000
# 3 0.008159 -0.011093 0.021168 0.000000 -0.015253 0.000000
# 4 0.000000 0.000000 0.000000 0.033155 0.000000 -0.004406
# 5 -0.013694 0.005446 -0.015253 0.000000 0.041919 0.000000
# 6 0.000000 0.000000 0.000000 -0.004406 0.000000 0.030382
#
#
# Mechanical properties :
#
#
# Convention : Reuss Voigt Hill
#
# Bulk Modulus (GPa) = 19.00310 26.51902 22.76106
# Shear Modulus (GPa) = 22.37599 29.73483 26.05541
#
# Velocity S-wave (km/s) = 3.26553 3.76440 3.52380
# Velocity P-wave (km/s) = 4.82437 5.61537 5.23483
#
# Compressibility (1/GPa) = 0.05262299
#
# Stress axis : x y z
#
# Youngs Moduli (GPa) = 39.24595 33.45515 47.24007
#
# Poissons Ratio (x) = 0.30193 -0.38545
# Poissons Ratio (y) = 0.35420 0.52401
# Poissons Ratio (z) = -0.32022 0.37110
#
# Static dielectric constant tensor:
#      x y z
#    x 1.795990 0.000000 -0.032910 
#    y 0.000000 1.696720 0.000000 
#    z -0.032910 0.000000 1.750530 
# 
# From -- ./inp_files/151625.got.cif
#   From: 2010.05.17/outbox.cif.g08.bks.cpg/sg12_76_cif.got.tgz:151625.got - 2010.06.03 13:09:07.
