data_PCOD9213211
_publ_section_title
;
Structure prediction by ZEFSAII (Michael W. Deem and Ramdas Pophale) SiO2 
 PCOD9213211
Probable space group: C 2/M
;
_chemical_formula_sum "Si O2"
_cell_formula_units_Z 60
_cell_length_a 18.542974
_cell_length_b 15.564913
_cell_length_c 12.129998
_cell_angle_alpha 90.000000
_cell_angle_beta 107.209162
_cell_angle_gamma 90.000000
_cell_volume 3344.223185
_symmetry_space_group_name_H-M "C 2/M"
_symmetry_group_IT_number 12
_symmetry_cell_setting 'monoclinic'
loop_
_space_group_symop_operation_xyz
x,y,z
-x,y,-z
-x,-y,-z
x,-y,z
1/2+x,1/2+y,z
1/2-x,1/2+y,-z
1/2-x,1/2-y,-z
1/2+x,1/2-y,z
loop_
_atom_site_type_symbol
_atom_site_label
_atom_site_fract_x
_atom_site_fract_y
_atom_site_fract_z
Si Si1 0.716944 0.124614 0.783610
Si Si2 0.280204 0.189335 0.804100
Si Si3 0.187491 0.902347 0.950986
Si Si4 0.058364 0.404140 0.811669
Si Si5 0.736604 0.500000 0.393870
Si Si6 0.918817 0.753160 0.011766
Si Si7 0.557717 0.899318 0.432577
Si Si8 0.719147 0.842046 0.449586
O O1 0.728286 0.225748 0.773185
O O2 0.629880 0.100905 0.761766
O O3 0.752332 0.073888 0.698489
O O4 0.759804 0.101694 0.916516
O O5 0.239254 0.126458 0.871898
O O6 0.289074 0.153245 0.686112
O O7 0.359628 0.221150 0.892016
O O8 0.122371 0.831611 0.943424
O O9 0.159801 0.000000 0.925101
O O10 0.058166 0.500000 0.862089
O O11 0.067566 0.327968 0.902230
O O12 0.984417 0.394348 0.703290
O O13 0.733795 0.422917 0.485376
O O14 0.000000 0.779168 0.000000
O O15 0.500000 0.869463 0.500000
O O16 0.636168 0.851622 0.464939
O O17 0.575708 0.000000 0.463918
O O18 0.750000 0.750000 0.500000
#
# Coordination Sequence:
#
# PCOD9213211 Si02
#       8
#     8   8   8   8   4   8   8   8
#     4  11  19  38  63  88 117 162 211 253 304 374
#     4  11  23  40  60  91 127 156 212 265 305 372
#     4  11  22  38  65  92 120 164 209 258 314 364
#     4  11  20  34  60  90 122 161 200 248 318 374
#     4  12  22  38  61  86 124 158 211 252 295 376
#     4  11  23  40  59  90 129 162 205 257 313 379
#     4  10  22  37  58  90 122 158 205 253 302 369
#     4  12  25  40  61  92 127 168 205 254 315 360
#
# _framework density 17.941386999999999
#
# number of rings (size 3 to 8) (size 9 to 14) (size 15 to 20)
#    0.000    0.933    6.000    2.400    2.800    0.533 
#    0.000    0.000    0.000    0.000    0.000    0.467 
#    0.000    0.000    0.000    0.000    0.000    0.000 
#
# Total GULP energy -167058.285884 kJ/mol
# GULP energy per Si atom -5568.609529 kJ/mol
# Density = 1.790055 g / cm^3
# Si number density = 17.941387 Si / 1000 Ang^3
#
#
#
# Elastic Constant Matrix: (Units=GPa)
#
#
# Indices 1 2 3 4 5 6 
#
# 1 78.1267 16.1092 18.8270 0.0000 -2.4383 0.0000
# 2 16.1092 109.1903 38.5052 0.0000 0.3245 0.0000
# 3 18.8270 38.5052 95.5729 0.0000 -17.8780 0.0000
# 4 0.0000 0.0000 0.0000 37.6255 0.0000 -2.7883
# 5 -2.4383 0.3245 -17.8780 0.0000 23.5916 0.0000
# 6 0.0000 0.0000 0.0000 -2.7883 0.0000 24.1759
#
#
#
# Elastic Compliance Matrix: (Units=1/GPa)
#
#
# Indices 1 2 3 4 5 6 
#
# 1 0.013581 -0.001214 -0.002238 0.000000 -0.000276 0.000000
# 2 -0.001214 0.011112 -0.004999 0.000000 -0.004066 0.000000
# 3 -0.002238 -0.004999 0.015016 0.000000 0.011217 0.000000
# 4 0.000000 0.000000 0.000000 0.026807 0.000000 0.003092
# 5 -0.000276 -0.004066 0.011217 0.000000 0.050916 0.000000
# 6 0.000000 0.000000 0.000000 0.003092 0.000000 0.041720
#
#
# Mechanical properties :
#
#
# Convention : Reuss Voigt Hill
#
# Bulk Modulus (GPa) = 43.84242 47.75251 45.79747
# Shear Modulus (GPa) = 27.22500 31.04181 29.13340
#
# Velocity S-wave (km/s) = 3.89966 4.16405 4.03402
# Velocity P-wave (km/s) = 6.69074 7.05640 6.87600
#
# Compressibility (1/GPa) = 0.02280896
#
# Stress axis : x y z
#
# Youngs Moduli (GPa) = 73.63420 89.99158 66.59488
#
# Poissons Ratio (x) = 0.10921 0.14903
# Poissons Ratio (y) = 0.08936 0.33288
# Poissons Ratio (z) = 0.16478 0.44983
#
# Static dielectric constant tensor:
#      x y z
#    x 1.617050 0.000000 0.001140 
#    y 0.000000 1.619430 0.000000 
#    z 0.001140 0.000000 1.636920 
# 
# From -- ./inp_files/166748.got.cif
#   From: 2010.05.17/outbox.cif.g08.bks.cpg/sg12_84_cif.got.tgz:166748.got - 2010.06.03 13:09:07.
