data_PCOD9213212
_publ_section_title
;
Structure prediction by ZEFSAII (Michael W. Deem and Ramdas Pophale) SiO2 
 PCOD9213212
Probable space group: C 2/M
;
_chemical_formula_sum "Si O2"
_cell_formula_units_Z 48
_cell_length_a 14.428590
_cell_length_b 27.577423
_cell_length_c 11.171017
_cell_angle_alpha 90.000000
_cell_angle_beta 150.611463
_cell_angle_gamma 90.000000
_cell_volume 2181.284943
_symmetry_space_group_name_H-M "C 2/M"
_symmetry_group_IT_number 12
_symmetry_cell_setting 'monoclinic'
loop_
_space_group_symop_operation_xyz
x,y,z
-x,y,-z
-x,-y,-z
x,-y,z
1/2+x,1/2+y,z
1/2-x,1/2+y,-z
1/2-x,1/2-y,-z
1/2+x,1/2-y,z
loop_
_atom_site_type_symbol
_atom_site_label
_atom_site_fract_x
_atom_site_fract_y
_atom_site_fract_z
Si Si1 0.718210 0.401249 0.600439
Si Si2 0.769608 0.860012 0.749748
Si Si3 0.419234 0.943698 0.593253
Si Si4 0.275750 0.693563 0.998893
Si Si5 0.263954 0.400432 0.109368
Si Si6 0.778477 0.806944 0.521366
O O1 0.804019 0.430768 0.586277
O O2 0.488775 0.405874 0.339426
O O3 0.776280 0.415712 0.799671
O O4 0.781033 0.344980 0.648244
O O5 0.674409 0.911556 0.616679
O O6 0.708349 0.830620 0.798597
O O7 0.707218 0.828725 0.565182
O O8 0.000000 0.864652 0.000000
O O9 0.407327 0.000000 0.552961
O O10 0.632876 0.928518 0.868358
O O11 0.250000 0.750000 0.000000
O O12 0.217402 0.656693 0.037941
O O13 0.498275 0.688342 0.234506
O O14 0.750000 0.750000 0.500000
#
# Coordination Sequence:
#
# PCOD9213212 Si02
#       6
#     8   8   8   8   8   8
#     4   9  21  41  63  89 136 169 206 273 326 384
#     4   9  21  43  61  89 133 163 213 270 314 390
#     4  11  24  43  69  94 122 173 225 272 328 376
#     4  10  22  37  58  91 125 168 207 256 324 381
#     4  10  22  41  60  97 135 164 216 270 321 393
#     4   9  19  36  59  88 121 168 212 254 311 383
#
# _framework density 22.005379000000001
#
# number of rings (size 3 to 8) (size 9 to 14) (size 15 to 20)
#    0.000    2.333    0.000    1.500    7.000    3.000 
#    0.000    3.333    0.000    0.000    0.000    0.000 
#    0.000    0.000    0.000    0.000    0.000    0.000 
#
# Total GULP energy -133893.270626 kJ/mol
# GULP energy per Si atom -5578.886276 kJ/mol
# Density = 2.195529 g / cm^3
# Si number density = 22.005379 Si / 1000 Ang^3
#
#
#
# Elastic Constant Matrix: (Units=GPa)
#
#
# Indices 1 2 3 4 5 6 
#
# 1 97.9044 20.8865 36.2840 0.0000 -2.8870 0.0000
# 2 20.8865 161.8646 28.2076 0.0000 -13.4574 0.0000
# 3 36.2840 28.2076 86.2980 0.0000 -4.2527 0.0000
# 4 0.0000 0.0000 0.0000 23.7062 0.0000 4.0850
# 5 -2.8870 -13.4574 -4.2527 0.0000 33.1262 0.0000
# 6 0.0000 0.0000 0.0000 4.0850 0.0000 17.5921
#
#
#
# Elastic Compliance Matrix: (Units=1/GPa)
#
#
# Indices 1 2 3 4 5 6 
#
# 1 0.012179 -0.000709 -0.004882 0.000000 0.000147 0.000000
# 2 -0.000709 0.006788 -0.001799 0.000000 0.002465 0.000000
# 3 -0.004882 -0.001799 0.014262 0.000000 0.000674 0.000000
# 4 0.000000 0.000000 0.000000 0.043941 0.000000 -0.010203
# 5 0.000147 0.002465 0.000674 0.000000 0.031288 0.000000
# 6 0.000000 0.000000 0.000000 -0.010203 0.000000 0.059213
#
#
# Mechanical properties :
#
#
# Convention : Reuss Voigt Hill
#
# Bulk Modulus (GPa) = 54.20327 57.42478 55.81403
# Shear Modulus (GPa) = 26.51119 32.26418 29.38768
#
# Velocity S-wave (km/s) = 3.47473 3.83325 3.65838
# Velocity P-wave (km/s) = 6.38621 6.76344 6.57753
#
# Compressibility (1/GPa) = 0.01844907
#
# Stress axis : x y z
#
# Youngs Moduli (GPa) = 82.11041 147.32042 70.11815
#
# Poissons Ratio (x) = 0.10439 0.34230
# Poissons Ratio (y) = 0.05818 0.12617
# Poissons Ratio (z) = 0.40084 0.26508
#
# Static dielectric constant tensor:
#      x y z
#    x 1.798870 0.000000 -0.003910 
#    y 0.000000 1.870650 0.000000 
#    z -0.003910 0.000000 1.856620 
# 
# From -- ./inp_files/149875.got.cif
#   From: 2010.05.17/outbox.cif.g08.bks.cpg/sg12_75_cif.got.tgz:149875.got - 2010.06.03 13:09:07.
