data_PCOD9213585
_publ_section_title
;
Structure prediction by ZEFSAII (Michael W. Deem and Ramdas Pophale) SiO2 
 PCOD9213585
Probable space group: C 2/M
;
_chemical_formula_sum "Si O2"
_cell_formula_units_Z 56
_cell_length_a 17.698222
_cell_length_b 13.696960
_cell_length_c 11.842530
_cell_angle_alpha 90.000000
_cell_angle_beta 116.890869
_cell_angle_gamma 90.000000
_cell_volume 2560.352082
_symmetry_space_group_name_H-M "C 2/M"
_symmetry_group_IT_number 12
_symmetry_cell_setting 'monoclinic'
loop_
_space_group_symop_operation_xyz
x,y,z
-x,y,-z
-x,-y,-z
x,-y,z
1/2+x,1/2+y,z
1/2-x,1/2+y,-z
1/2-x,1/2-y,-z
1/2+x,1/2-y,z
loop_
_atom_site_type_symbol
_atom_site_label
_atom_site_fract_x
_atom_site_fract_y
_atom_site_fract_z
Si Si1 0.061571 0.616509 0.149678
Si Si2 0.746295 0.883462 0.920842
Si Si3 0.135379 0.114879 0.802859
Si Si4 0.942560 0.115344 0.668157
Si Si5 0.807394 0.785743 0.733265
Si Si6 0.940313 0.386026 0.277078
Si Si7 0.124987 0.757927 0.580718
O O1 0.079584 0.500000 0.155053
O O2 0.144645 0.683808 0.209968
O O3 0.014852 0.635879 0.238722
O O4 0.000000 0.639053 0.000000
O O5 0.782753 0.833708 0.834818
O O6 0.645647 0.871051 0.853121
O O7 0.761526 0.000000 0.922472
O O8 0.795933 0.847245 0.063360
O O9 0.145774 0.162270 0.689326
O O10 0.038470 0.132875 0.775146
O O11 0.146235 0.000000 0.799683
O O12 0.873462 0.145378 0.713110
O O13 0.925377 0.186608 0.550755
O O14 0.936215 0.000000 0.633687
O O15 0.717897 0.778710 0.606092
O O16 0.947056 0.500000 0.311909
O O17 0.923745 0.324833 0.379791
#
# Coordination Sequence:
#
# PCOD9213585 Si02
#       7
#     8   8   8   8   8   8   8
#     4  10  23  39  58  88 126 165 200 241 301 363
#     4   9  20  38  62  94 123 154 199 252 313 371
#     4  10  22  38  61  90 120 156 199 252 311 368
#     4  11  24  43  63  89 125 162 203 255 307 362
#     4  11  24  38  63  90 124 162 204 251 308 363
#     4   9  20  40  63  88 123 160 203 253 301 360
#     4  11  23  39  63  90 120 161 211 250 303 355
#
# _framework density 21.87199
#
# number of rings (size 3 to 8) (size 9 to 14) (size 15 to 20)
#    0.000    1.857    0.000    2.571    6.000    4.000 
#    0.000    2.857    0.000    3.429    0.000    0.000 
#    0.000    0.000    0.000    0.000    0.000    0.000 
#
# Total GULP energy -156598.076288 kJ/mol
# GULP energy per Si atom -5592.788439 kJ/mol
# Density = 2.182221 g / cm^3
# Si number density = 21.871990 Si / 1000 Ang^3
#
#
#
# Elastic Constant Matrix: (Units=GPa)
#
#
# Indices 1 2 3 4 5 6 
#
# 1 84.2621 9.4371 9.6211 0.0000 11.9650 0.0000
# 2 9.4371 75.3026 17.4003 0.0000 18.7698 0.0000
# 3 9.6211 17.4003 75.1154 0.0000 20.2907 0.0000
# 4 0.0000 0.0000 0.0000 21.8729 0.0000 8.1737
# 5 11.9650 18.7698 20.2907 0.0000 22.8681 0.0000
# 6 0.0000 0.0000 0.0000 8.1737 0.0000 31.0238
#
#
#
# Elastic Compliance Matrix: (Units=1/GPa)
#
#
# Indices 1 2 3 4 5 6 
#
# 1 0.012823 0.000079 0.000222 0.000000 -0.006972 0.000000
# 2 0.000079 0.016699 -0.000217 0.000000 -0.013555 0.000000
# 3 0.000222 -0.000217 0.017516 0.000000 -0.015481 0.000000
# 4 0.000000 0.000000 0.000000 0.050711 0.000000 -0.013361
# 5 -0.006972 -0.013555 -0.015481 0.000000 0.072239 0.000000
# 6 0.000000 0.000000 0.000000 -0.013361 0.000000 0.035753
#
#
# Mechanical properties :
#
#
# Convention : Reuss Voigt Hill
#
# Bulk Modulus (GPa) = 21.18260 34.17746 27.68003
# Shear Modulus (GPa) = 22.59296 28.36774 25.48035
#
# Velocity S-wave (km/s) = 3.21746 3.60528 3.41688
# Velocity P-wave (km/s) = 4.84856 5.74376 5.31504
#
# Compressibility (1/GPa) = 0.04720856
#
# Stress axis : x y z
#
# Youngs Moduli (GPa) = 77.98215 59.88517 57.08968
#
# Poissons Ratio (x) = -0.00475 -0.01270
# Poissons Ratio (y) = -0.00619 0.01237
# Poissons Ratio (z) = -0.01735 0.01298
#
# Static dielectric constant tensor:
#      x y z
#    x 1.808910 0.000000 0.034680 
#    y 0.000000 1.828630 0.000000 
#    z 0.034680 0.000000 1.794570 
# 
# From -- ./inp_files/156707.got.cif
#   From: 2010.05.17/outbox.cif.g08.bks.cpg/sg12_79_cif.got.tgz:156707.got - 2010.06.03 13:09:07.
