data_PCOD9213775
_publ_section_title
;
Structure prediction by ZEFSAII (Michael W. Deem and Ramdas Pophale) SiO2 
 PCOD9213775
Probable space group: C 2/M
;
_chemical_formula_sum "Si O2"
_cell_formula_units_Z 56
_cell_length_a 16.152597
_cell_length_b 7.632814
_cell_length_c 20.653208
_cell_angle_alpha 90.000000
_cell_angle_beta 55.451279
_cell_angle_gamma 90.000000
_cell_volume 2097.269436
_symmetry_space_group_name_H-M "C 2/M"
_symmetry_group_IT_number 12
_symmetry_cell_setting 'monoclinic'
loop_
_space_group_symop_operation_xyz
x,y,z
-x,y,-z
-x,-y,-z
x,-y,z
1/2+x,1/2+y,z
1/2-x,1/2+y,-z
1/2-x,1/2-y,-z
1/2+x,1/2-y,z
loop_
_atom_site_type_symbol
_atom_site_label
_atom_site_fract_x
_atom_site_fract_y
_atom_site_fract_z
Si Si1 0.469913 0.204470 0.909158
Si Si2 0.297132 0.286222 0.190678
Si Si3 0.004197 0.714441 0.241008
Si Si4 0.701531 0.202302 0.624245
Si Si5 0.889843 0.792141 0.474427
Si Si6 0.900939 0.710024 0.663208
Si Si7 0.284844 0.305207 0.055571
O O1 0.589362 0.222730 0.855326
O O2 0.442408 0.268320 0.848733
O O3 0.445244 0.000000 0.928344
O O4 0.405765 0.300845 0.991747
O O5 0.298827 0.500000 0.189922
O O6 0.215183 0.230790 0.280993
O O7 0.262968 0.220655 0.134380
O O8 0.000196 0.500000 0.241491
O O9 0.889103 0.783586 0.294364
O O10 0.056886 0.763149 0.284316
O O11 0.813616 0.277142 0.563797
O O12 0.651194 0.208117 0.574095
O O13 0.711222 0.000000 0.638791
O O14 0.009767 0.769358 0.423779
O O15 0.871606 0.000000 0.478048
O O16 0.900559 0.500000 0.660051
O O17 0.245499 0.500000 0.080900
O O18 0.250000 0.250000 0.000000
#
# Coordination Sequence:
#
# PCOD9213775 Si02
#       7
#     8   8   8   8   8   8   8
#     4  11  22  36  56  81 108 137 173 215 256 302
#     4  10  22  39  56  75 104 143 177 206 252 312
#     4   8  15  30  51  73  98 133 173 208 249 304
#     4   8  14  26  43  64  96 135 167 199 249 309
#     4   9  15  23  41  71 100 124 161 213 258 296
#     4   9  17  32  52  70  96 135 173 208 253 308
#     4  11  23  40  61  82 106 135 170 211 255 306
#
# _framework density 26.701384000000001
#
# number of rings (size 3 to 8) (size 9 to 14) (size 15 to 20)
#    0.000    2.571    0.000    3.429    0.000    6.286 
#    0.000    8.571    0.000    0.857    0.000    6.000 
#    0.000    0.000    0.000    0.000    0.000    0.000 
#
# Total GULP energy -156463.903420 kJ/mol
# GULP energy per Si atom -5587.996551 kJ/mol
# Density = 2.664061 g / cm^3
# Si number density = 26.701384 Si / 1000 Ang^3
#
#
#
# Elastic Constant Matrix: (Units=GPa)
#
#
# Indices 1 2 3 4 5 6 
#
# 1 86.5221 4.6725 20.1234 0.0000 -17.7358 0.0004
# 2 4.6725 77.4145 0.1557 0.0000 0.6823 0.0010
# 3 20.1234 0.1557 204.7781 0.0000 -17.0203 0.0000
# 4 0.0000 0.0000 0.0000 21.4867 0.0000 -7.3133
# 5 -17.7358 0.6823 -17.0203 0.0000 58.7530 0.0000
# 6 0.0004 0.0010 0.0000 -7.3133 0.0000 22.4933
#
#
#
# Elastic Compliance Matrix: (Units=1/GPa)
#
#
# Indices 1 2 3 4 5 6 
#
# 1 0.012541 -0.000786 -0.000939 0.000000 0.003523 0.000000
# 2 -0.000786 0.012968 0.000036 0.000000 -0.000377 -0.000001
# 3 -0.000939 0.000036 0.005074 0.000000 0.001186 0.000000
# 4 0.000000 0.000000 0.000000 0.052332 0.000000 0.017015
# 5 0.003523 -0.000377 0.001186 0.000000 0.018432 0.000000
# 6 0.000000 -0.000001 0.000000 0.017015 0.000000 0.049990
#
#
# Mechanical properties :
#
#
# Convention : Reuss Voigt Hill
#
# Bulk Modulus (GPa) = 36.75801 46.51312 41.63557
# Shear Modulus (GPa) = 30.52825 43.46414 36.99619
#
# Velocity S-wave (km/s) = 3.38497 4.03896 3.72634
# Velocity P-wave (km/s) = 5.39199 6.26167 5.84303
#
# Compressibility (1/GPa) = 0.02720495
#
# Stress axis : x y z
#
# Youngs Moduli (GPa) = 79.74042 77.11184 197.07694
#
# Poissons Ratio (x) = 0.06062 0.18505
# Poissons Ratio (y) = 0.06268 -0.00710
# Poissons Ratio (z) = 0.07487 -0.00278
#
# Static dielectric constant tensor:
#      x y z
#    x 2.234990 0.000000 -0.045250 
#    y 0.000000 1.998110 0.000000 
#    z -0.045250 0.000000 2.091000 
# 
# From -- ./inp_files/342568.got.cif
#   From: 2010.05.17/outbox.cif.g08.bks.cpg/sg12_172_cif.got.tgz:342568.got - 2010.06.03 13:09:07.
