data_PCOD9213636
_publ_section_title
;
Structure prediction by ZEFSAII (Michael W. Deem and Ramdas Pophale) SiO2 
 PCOD9213636
Probable space group: C 2/M
;
_chemical_formula_sum "Si O2"
_cell_formula_units_Z 52
_cell_length_a 9.395242
_cell_length_b 19.792384
_cell_length_c 16.652306
_cell_angle_alpha 90.000000
_cell_angle_beta 123.380374
_cell_angle_gamma 90.000000
_cell_volume 2585.745969
_symmetry_space_group_name_H-M "C 2/M"
_symmetry_group_IT_number 12
_symmetry_cell_setting 'monoclinic'
loop_
_space_group_symop_operation_xyz
x,y,z
-x,y,-z
-x,-y,-z
x,-y,z
1/2+x,1/2+y,z
1/2-x,1/2+y,-z
1/2-x,1/2-y,-z
1/2+x,1/2-y,z
loop_
_atom_site_type_symbol
_atom_site_label
_atom_site_fract_x
_atom_site_fract_y
_atom_site_fract_z
Si Si1 0.336061 0.387667 0.766554
Si Si2 0.689872 0.792526 0.403622
Si Si3 0.203458 0.000000 0.122779
Si Si4 0.290752 0.000000 0.973255
Si Si5 0.467409 0.077752 0.582224
Si Si6 0.308619 0.256045 0.268988
Si Si7 0.921823 0.500000 0.809589
Si Si8 0.305888 0.394575 0.190755
O O1 0.362452 0.433702 0.852766
O O2 0.314305 0.308489 0.778035
O O3 0.488988 0.400038 0.751065
O O4 0.154269 0.411483 0.677187
O O5 0.750000 0.750000 0.500000
O O6 0.665295 0.870177 0.421029
O O7 0.502015 0.768111 0.318017
O O8 0.801742 0.781230 0.359305
O O9 0.414721 0.000000 0.196889
O O10 0.822043 0.000000 0.980329
O O11 0.251115 0.933042 0.908652
O O12 0.475914 0.000000 0.073201
O O13 0.500000 0.096195 0.500000
O O14 0.413800 0.000000 0.571331
O O15 0.265654 0.316678 0.195060
O O16 0.796561 0.436110 0.772818
#
# Coordination Sequence:
#
# PCOD9213636 Si02
#       8
#     8   8   4   4   8   8   4   8
#     4  11  22  39  62  97 123 170 213 264 317 381
#     4  11  22  42  63  87 129 176 214 260 315 379
#     4  10  22  40  71  88 123 158 222 252 329 393
#     4   9  23  44  68  93 120 170 208 264 337 399
#     4  10  22  38  62  94 130 167 212 267 317 376
#     4  11  24  38  62  94 127 166 221 255 320 382
#     4   9  23  39  67  92 118 170 202 261 331 396
#     4  11  21  39  64  90 130 160 209 267 314 386
#
# _framework density 20.110250000000001
#
# number of rings (size 3 to 8) (size 9 to 14) (size 15 to 20)
#    0.462    1.077    2.308    4.154    4.308    1.231 
#    1.385    0.769    3.385    0.923    0.000    0.000 
#    0.000    0.000    0.000    0.000    0.000    0.000 
#
# Total GULP energy -144960.752326 kJ/mol
# GULP energy per Si atom -5575.413551 kJ/mol
# Density = 2.006448 g / cm^3
# Si number density = 20.110250 Si / 1000 Ang^3
#
#
#
# Elastic Constant Matrix: (Units=GPa)
#
#
# Indices 1 2 3 4 5 6 
#
# 1 78.7004 34.1585 0.1655 0.0000 -2.5118 0.0000
# 2 34.1585 110.5005 15.4722 0.0000 -16.1383 0.0000
# 3 0.1655 15.4722 53.7888 0.0000 -14.1104 0.0000
# 4 0.0000 0.0000 0.0000 16.2204 0.0000 1.3065
# 5 -2.5118 -16.1383 -14.1104 0.0000 38.9708 0.0000
# 6 0.0000 0.0000 0.0000 1.3065 0.0000 30.5147
#
#
#
# Elastic Compliance Matrix: (Units=1/GPa)
#
#
# Indices 1 2 3 4 5 6 
#
# 1 0.014778 -0.004824 0.001180 0.000000 -0.000618 0.000000
# 2 -0.004824 0.011387 -0.002326 0.000000 0.003562 0.000000
# 3 0.001180 -0.002326 0.021021 0.000000 0.006724 0.000000
# 4 0.000000 0.000000 0.000000 0.061864 0.000000 -0.002649
# 5 -0.000618 0.003562 0.006724 0.000000 0.029530 0.000000
# 6 0.000000 0.000000 0.000000 -0.002649 0.000000 0.032885
#
#
# Mechanical properties :
#
#
# Convention : Reuss Voigt Hill
#
# Bulk Modulus (GPa) = 28.37223 38.06467 33.21845
# Shear Modulus (GPa) = 25.62104 30.02074 27.82089
#
# Velocity S-wave (km/s) = 3.57323 3.86788 3.72347
# Velocity P-wave (km/s) = 5.58237 6.23830 5.91943
#
# Compressibility (1/GPa) = 0.03524574
#
# Stress axis : x y z
#
# Youngs Moduli (GPa) = 67.66893 87.82099 47.57256
#
# Poissons Ratio (x) = 0.42362 -0.05613
# Poissons Ratio (y) = 0.32641 0.11066
# Poissons Ratio (z) = -0.07985 0.20427
#
# Static dielectric constant tensor:
#      x y z
#    x 1.769740 0.000000 0.010170 
#    y 0.000000 1.714530 0.000000 
#    z 0.010170 0.000000 1.733220 
# 
# From -- ./inp_files/301211.got.cif
#   From: 2010.05.17/outbox.cif.g08.bks.cpg/sg12_151_cif.got.tgz:301211.got - 2010.06.03 13:09:07.
