data_PCOD9213329
_publ_section_title
;
Structure prediction by ZEFSAII (Michael W. Deem and Ramdas Pophale) SiO2 
 PCOD9213329
Probable space group: C 2/M
;
_chemical_formula_sum "Si O2"
_cell_formula_units_Z 60
_cell_length_a 17.134372
_cell_length_b 23.133951
_cell_length_c 9.588410
_cell_angle_alpha 90.000000
_cell_angle_beta 47.023139
_cell_angle_gamma 90.000000
_cell_volume 2780.709055
_symmetry_space_group_name_H-M "C 2/M"
_symmetry_group_IT_number 12
_symmetry_cell_setting 'monoclinic'
loop_
_space_group_symop_operation_xyz
x,y,z
-x,y,-z
-x,-y,-z
x,-y,z
1/2+x,1/2+y,z
1/2-x,1/2+y,-z
1/2-x,1/2-y,-z
1/2+x,1/2-y,z
loop_
_atom_site_type_symbol
_atom_site_label
_atom_site_fract_x
_atom_site_fract_y
_atom_site_fract_z
Si Si1 0.203124 0.137671 0.718401
Si Si2 0.576430 0.771686 0.170341
Si Si3 0.226609 0.617584 0.072817
Si Si4 0.922644 0.565922 0.925837
Si Si5 0.659235 0.929571 0.675275
Si Si6 0.329170 0.245028 0.533603
Si Si7 0.119007 0.836478 0.316030
Si Si8 0.000000 0.790691 0.000000
O O1 0.213310 0.106059 0.854906
O O2 0.254309 0.102889 0.527009
O O3 0.277652 0.191466 0.673980
O O4 0.087917 0.166172 0.825522
O O5 0.652494 0.825149 0.118853
O O6 0.450678 0.774859 0.360868
O O7 0.614741 0.716416 0.210777
O O8 0.567058 0.750693 0.021542
O O9 0.140149 0.569929 0.140613
O O10 0.316131 0.616041 0.844127
O O11 0.941704 0.500000 0.939077
O O12 0.041610 0.590307 0.765266
O O13 0.855386 0.587494 0.142921
O O14 0.674835 0.000000 0.645302
O O15 0.250000 0.250000 0.500000
O O16 0.330267 0.305445 0.612224
O O17 0.000000 0.854198 0.500000
#
# Coordination Sequence:
#
# PCOD9213329 Si02
#       8
#     8   8   8   8   8   8   8   4
#     4  12  24  39  60  91 124 163 205 254 307 361
#     4  11  22  36  55  82 123 163 203 251 293 353
#     4  12  23  37  61  90 121 161 203 252 308 366
#     4   9  21  42  67  95 120 148 197 256 314 373
#     4   9  21  43  67  91 121 154 196 253 312 370
#     4  11  22  35  54  84 121 164 208 245 291 363
#     4  10  22  38  53  78 121 167 205 246 293 345
#     4  12  24  38  55  86 127 166 208 244 296 362
#
# _framework density 21.577231999999999
#
# number of rings (size 3 to 8) (size 9 to 14) (size 15 to 20)
#    0.000    1.333    4.000    2.800    1.867    3.200 
#    0.000    1.667    0.000    0.400    0.000    0.000 
#    0.000    0.000    0.000    0.000    0.000    0.000 
#
# Total GULP energy -167038.683293 kJ/mol
# GULP energy per Si atom -5567.956110 kJ/mol
# Density = 2.152812 g / cm^3
# Si number density = 21.577232 Si / 1000 Ang^3
#
#
#
# Elastic Constant Matrix: (Units=GPa)
#
#
# Indices 1 2 3 4 5 6 
#
# 1 72.7163 7.6817 -0.2000 0.0000 11.8591 0.0000
# 2 7.6817 34.4801 16.7676 0.0000 -5.6597 0.0000
# 3 -0.2000 16.7676 77.0622 0.0000 -14.2401 0.0000
# 4 0.0000 0.0000 0.0000 27.5444 0.0000 -5.1396
# 5 11.8591 -5.6597 -14.2401 0.0000 35.2756 0.0000
# 6 0.0000 0.0000 0.0000 -5.1396 0.0000 15.7758
#
#
#
# Elastic Compliance Matrix: (Units=1/GPa)
#
#
# Indices 1 2 3 4 5 6 
#
# 1 0.015154 -0.004281 -0.000105 0.000000 -0.005824 0.000000
# 2 -0.004281 0.033856 -0.006600 0.000000 0.004207 0.000000
# 3 -0.000105 -0.006600 0.015370 0.000000 0.005181 0.000000
# 4 0.000000 0.000000 0.000000 0.038655 0.000000 0.012593
# 5 -0.005824 0.004207 0.005181 0.000000 0.033072 0.000000
# 6 0.000000 0.000000 0.000000 0.012593 0.000000 0.067491
#
#
# Mechanical properties :
#
#
# Convention : Reuss Voigt Hill
#
# Bulk Modulus (GPa) = 23.58121 25.86191 24.72156
# Shear Modulus (GPa) = 20.85881 26.38643 23.62262
#
# Velocity S-wave (km/s) = 3.11256 3.50077 3.31236
# Velocity P-wave (km/s) = 4.88568 5.32468 5.10990
#
# Compressibility (1/GPa) = 0.04240664
#
# Stress axis : x y z
#
# Youngs Moduli (GPa) = 65.99013 29.53672 65.06278
#
# Poissons Ratio (x) = 0.12644 0.00686
# Poissons Ratio (y) = 0.28249 0.42944
# Poissons Ratio (z) = 0.00696 0.19495
#
# Static dielectric constant tensor:
#      x y z
#    x 1.759200 0.000000 0.001550 
#    y 0.000000 1.931930 0.000000 
#    z 0.001550 0.000000 1.892610 
# 
# From -- ./inp_files/79862.got.cif
#   From: 2010.05.17/outbox.cif.g08.bks.cpg/sg12_40_cif.got.tgz:79862.got - 2010.06.03 13:09:07.
