data_PCOD9213297
_publ_section_title
;
Structure prediction by ZEFSAII (Michael W. Deem and Ramdas Pophale) SiO2 
 PCOD9213297
Probable space group: C 2/M
;
_chemical_formula_sum "Si O2"
_cell_formula_units_Z 52
_cell_length_a 20.129284
_cell_length_b 19.066662
_cell_length_c 11.982667
_cell_angle_alpha 90.000000
_cell_angle_beta 33.503070
_cell_angle_gamma 90.000000
_cell_volume 2538.523206
_symmetry_space_group_name_H-M "C 2/M"
_symmetry_group_IT_number 12
_symmetry_cell_setting 'monoclinic'
loop_
_space_group_symop_operation_xyz
x,y,z
-x,y,-z
-x,-y,-z
x,-y,z
1/2+x,1/2+y,z
1/2-x,1/2+y,-z
1/2-x,1/2-y,-z
1/2+x,1/2-y,z
loop_
_atom_site_type_symbol
_atom_site_label
_atom_site_fract_x
_atom_site_fract_y
_atom_site_fract_z
Si Si1 0.520056 0.000000 0.729931
Si Si2 0.004448 0.725253 0.122914
Si Si3 0.604658 0.420114 0.184621
Si Si4 0.163851 0.082202 0.460733
Si Si5 0.703148 0.868190 0.509917
Si Si6 0.682354 0.117689 0.968611
Si Si7 0.094346 0.120320 0.952573
O O1 0.619557 0.937417 0.618131
O O2 0.416420 0.938713 0.854647
O O3 0.882085 0.698882 0.351252
O O4 0.113135 0.688593 0.035817
O O5 0.030321 0.807212 0.078707
O O6 0.000000 0.698810 0.000000
O O7 0.614675 0.500000 0.214517
O O8 0.468291 0.394553 0.394726
O O9 0.709223 0.376394 0.096200
O O10 0.620830 0.420065 0.028643
O O11 0.212232 0.121856 0.500952
O O12 0.259085 0.090325 0.228572
O O13 0.151017 0.000000 0.507759
O O14 0.786102 0.863361 0.284840
O O15 0.000000 0.084516 0.000000
#
# Coordination Sequence:
#
# PCOD9213297 Si02
#       7
#     4   8   8   8   8   8   8
#     4  10  22  37  63  96 128 165 206 281 316 384
#     4  10  23  40  66  94 126 168 211 273 313 376
#     4  11  24  40  62  94 132 175 208 263 323 389
#     4  11  20  34  63  96 131 161 211 268 323 379
#     4  11  22  39  65 101 124 164 222 265 326 376
#     4  11  21  40  63  96 131 166 210 266 331 378
#     4  11  25  43  63  93 128 174 218 261 318 388
#
# _framework density 20.484349999999999
#
# number of rings (size 3 to 8) (size 9 to 14) (size 15 to 20)
#    0.000    1.231    5.385    0.462    1.077    6.462 
#    0.000    3.846    0.000    0.000    0.000    0.000 
#    0.000    0.000    0.000    0.000    0.000    0.000 
#
# Total GULP energy -144774.083121 kJ/mol
# GULP energy per Si atom -5568.233966 kJ/mol
# Density = 2.043773 g / cm^3
# Si number density = 20.484350 Si / 1000 Ang^3
#
#
#
# Elastic Constant Matrix: (Units=GPa)
#
#
# Indices 1 2 3 4 5 6 
#
# 1 78.1237 30.6613 9.7566 0.0000 -37.0321 0.0000
# 2 30.6613 71.6981 12.8674 0.0000 -13.5611 0.0000
# 3 9.7566 12.8674 68.4096 0.0000 -23.7313 0.0000
# 4 0.0000 0.0000 0.0000 16.1667 0.0000 1.2815
# 5 -37.0321 -13.5611 -23.7313 0.0000 38.5166 0.0000
# 6 0.0000 0.0000 0.0000 1.2815 0.0000 16.0891
#
#
#
# Elastic Compliance Matrix: (Units=1/GPa)
#
#
# Indices 1 2 3 4 5 6 
#
# 1 0.029341 -0.008253 0.007816 0.000000 0.030120 0.000000
# 2 -0.008253 0.017349 -0.003459 0.000000 -0.003958 0.000000
# 3 0.007816 -0.003459 0.020780 0.000000 0.019100 0.000000
# 4 0.000000 0.000000 0.000000 0.062249 0.000000 -0.004958
# 5 0.030120 -0.003958 0.019100 0.000000 0.065296 0.000000
# 6 0.000000 0.000000 0.000000 -0.004958 0.000000 0.062549
#
#
# Mechanical properties :
#
#
# Convention : Reuss Voigt Hill
#
# Bulk Modulus (GPa) = 16.75690 36.08911 26.42300
# Shear Modulus (GPa) = 17.52865 25.15087 21.33976
#
# Velocity S-wave (km/s) = 2.92842 3.50781 3.23113
# Velocity P-wave (km/s) = 4.43084 5.83631 5.18145
#
# Compressibility (1/GPa) = 0.05967690
#
# Stress axis : x y z
#
# Youngs Moduli (GPa) = 34.08256 57.64030 48.12427
#
# Poissons Ratio (x) = 0.47572 -0.37616
# Poissons Ratio (y) = 0.28129 0.16647
# Poissons Ratio (z) = -0.26640 0.19939
#
# Static dielectric constant tensor:
#      x y z
#    x 1.726880 0.000000 0.002020 
#    y 0.000000 1.718470 0.000000 
#    z 0.002020 0.000000 1.743720 
# 
# From -- ./inp_files/169837.got.cif
#   From: 2010.05.17/outbox.cif.g08.bks.cpg/sg12_85_cif.got.tgz:169837.got - 2010.06.03 13:09:07.
