data_PCOD9213390
_publ_section_title
;
Structure prediction by ZEFSAII (Michael W. Deem and Ramdas Pophale) SiO2 
 PCOD9213390
Probable space group: C 2/M
;
_chemical_formula_sum "Si O2"
_cell_formula_units_Z 40
_cell_length_a 28.099744
_cell_length_b 8.824884
_cell_length_c 26.644483
_cell_angle_alpha 90.000000
_cell_angle_beta 160.652249
_cell_angle_gamma 90.000000
_cell_volume 2188.977112
_symmetry_space_group_name_H-M "C 2/M"
_symmetry_group_IT_number 12
_symmetry_cell_setting 'monoclinic'
loop_
_space_group_symop_operation_xyz
x,y,z
-x,y,-z
-x,-y,-z
x,-y,z
1/2+x,1/2+y,z
1/2-x,1/2+y,-z
1/2-x,1/2-y,-z
1/2+x,1/2-y,z
loop_
_atom_site_type_symbol
_atom_site_label
_atom_site_fract_x
_atom_site_fract_y
_atom_site_fract_z
Si Si1 0.170322 0.817790 0.372489
Si Si2 0.163335 0.817621 0.960242
Si Si3 0.174365 0.325737 0.669429
Si Si4 0.839949 0.683593 0.234478
Si Si5 0.840972 0.179777 0.449547
O O1 0.250000 0.750000 0.500000
O O2 0.245758 0.756687 0.397547
O O3 0.003079 0.772493 0.206988
O O4 0.179193 0.000000 0.382481
O O5 0.169295 0.000000 0.962979
O O6 0.250000 0.750000 0.000000
O O7 0.238354 0.774056 0.087294
O O8 0.219014 0.500000 0.705164
O O9 0.222170 0.274891 0.772400
O O10 0.211982 0.226725 0.658757
O O11 0.000000 0.325240 0.500000
O O12 0.858220 0.500000 0.253332
O O13 0.996133 0.757915 0.383480
O O14 0.840703 0.000000 0.455093
#
# Coordination Sequence:
#
# PCOD9213390 Si02
#       5
#     8   8   8   8   8
#     4  11  23  39  57  79 107 140 178 218 264 317
#     4  10  22  38  57  80 105 136 175 219 267 318
#     4   8  15  30  53  78 105 140 179 218 261 309
#     4   9  18  35  57  80 107 140 179 222 266 312
#     4  11  21  33  53  82 112 143 178 216 261 312
#
# _framework density 18.273375000000001
#
# number of rings (size 3 to 8) (size 9 to 14) (size 15 to 20)
#    0.000    2.200    0.000    4.800    0.000    9.200 
#    0.000    1.000    0.000    6.000    0.000    0.000 
#    0.000    0.000    0.000    0.000    0.000    0.000 
#
# Total GULP energy -111637.999635 kJ/mol
# GULP energy per Si atom -5581.899982 kJ/mol
# Density = 1.823178 g / cm^3
# Si number density = 18.273375 Si / 1000 Ang^3
#
#
#
# Elastic Constant Matrix: (Units=GPa)
#
#
# Indices 1 2 3 4 5 6 
#
# 1 184.6296 58.9134 96.1491 0.0005 -15.1454 0.0001
# 2 58.9134 59.3684 45.4938 0.0040 1.3556 0.0009
# 3 96.1491 45.4938 120.2645 0.0044 -14.8753 0.0012
# 4 0.0005 0.0040 0.0044 20.3773 0.0012 -1.6525
# 5 -15.1454 1.3556 -14.8753 0.0012 34.0945 0.0000
# 6 0.0001 0.0009 0.0012 -1.6525 0.0000 34.7989
#
#
#
# Elastic Compliance Matrix: (Units=1/GPa)
#
#
# Indices 1 2 3 4 5 6 
#
# 1 0.010623 -0.006075 -0.005899 0.000002 0.002387 0.000000
# 2 -0.006075 0.028076 -0.006591 -0.000004 -0.006691 -0.000001
# 3 -0.005899 -0.006591 0.016102 -0.000002 0.004667 0.000000
# 4 0.000002 -0.000004 -0.000002 0.049264 -0.000002 0.002339
# 5 0.002387 -0.006691 0.004667 -0.000002 0.032692 0.000000
# 6 0.000000 -0.000001 0.000000 0.002339 0.000000 0.028848
#
#
# Mechanical properties :
#
#
# Convention : Reuss Voigt Hill
#
# Bulk Modulus (GPa) = 56.59526 85.04169 70.81848
# Shear Modulus (GPa) = 23.96627 28.76788 26.36708
#
# Velocity S-wave (km/s) = 3.62545 3.97206 3.80270
# Velocity P-wave (km/s) = 6.96878 8.22654 7.62364
#
# Compressibility (1/GPa) = 0.01766932
#
# Stress axis : x y z
#
# Youngs Moduli (GPa) = 94.13766 35.61725 62.10400
#
# Poissons Ratio (x) = 0.21638 0.36637
# Poissons Ratio (y) = 0.57190 0.40935
# Poissons Ratio (z) = 0.55535 0.23477
#
# Static dielectric constant tensor:
#      x y z
#    x 1.625750 0.000000 -0.025570 
#    y 0.000000 1.612750 0.000000 
#    z -0.025570 0.000000 1.618220 
# 
# From -- ./inp_files/93032.got.cif
#   From: 2010.05.17/outbox.cif.g08.bks.cpg/sg12_47_cif.got.tgz:93032.got - 2010.06.03 13:09:07.
