data_PCOD9213292
_publ_section_title
;
Structure prediction by ZEFSAII (Michael W. Deem and Ramdas Pophale) SiO2 
 PCOD9213292
Probable space group: C 2/M
;
_chemical_formula_sum "Si O2"
_cell_formula_units_Z 58
_cell_length_a 20.700002
_cell_length_b 14.861641
_cell_length_c 26.592215
_cell_angle_alpha 90.000000
_cell_angle_beta 159.359518
_cell_angle_gamma 90.000000
_cell_volume 2883.728673
_symmetry_space_group_name_H-M "C 2/M"
_symmetry_group_IT_number 12
_symmetry_cell_setting 'monoclinic'
loop_
_space_group_symop_operation_xyz
x,y,z
-x,y,-z
-x,-y,-z
x,-y,z
1/2+x,1/2+y,z
1/2-x,1/2+y,-z
1/2-x,1/2-y,-z
1/2+x,1/2-y,z
loop_
_atom_site_type_symbol
_atom_site_label
_atom_site_fract_x
_atom_site_fract_y
_atom_site_fract_z
Si Si1 0.984591 0.607295 0.545440
Si Si2 0.187523 0.106766 0.407968
Si Si3 0.000000 0.500000 0.000000
Si Si4 0.673434 0.395586 0.596859
Si Si5 0.346419 0.739002 0.166398
Si Si6 0.477913 0.848432 0.897470
Si Si7 0.307947 0.692437 0.840764
Si Si8 0.105106 0.393204 0.335490
O O1 0.966710 0.500000 0.529633
O O2 0.165214 0.629397 0.708805
O O3 0.000000 0.642692 0.500000
O O4 0.807072 0.637912 0.447314
O O5 0.312921 0.117419 0.548962
O O6 0.007088 0.165809 0.282218
O O7 0.144978 0.000000 0.372762
O O8 0.022463 0.421746 0.972462
O O9 0.500000 0.355116 0.500000
O O10 0.623851 0.500000 0.551024
O O11 0.847287 0.389083 0.759992
O O12 0.740283 0.361482 0.591588
O O13 0.290042 0.763805 0.182399
O O14 0.427952 0.830040 0.201875
O O15 0.162379 0.695758 0.009890
O O16 0.366873 0.769984 0.845032
O O17 0.500000 0.650183 0.000000
O O18 0.068004 0.500000 0.300337
#
# Coordination Sequence:
#
# PCOD9213292 Si02
#       8
#     8   8   2   8   8   8   8   8
#     4  10  22  42  66  93 126 160 210 266 313 371
#     4  10  22  37  63  93 122 166 208 249 318 375
#     4  12  20  40  66  84 134 168 198 268 316 376
#     4  10  23  40  61  91 127 163 211 259 317 381
#     4  11  22  38  63  90 128 161 216 253 310 385
#     4  11  24  39  62  94 124 166 210 258 321 377
#     4  10  22  39  59  94 123 161 215 255 309 384
#     4  10  22  40  61  90 125 167 210 262 312 371
#
# _framework density 20.112849000000001
#
# number of rings (size 3 to 8) (size 9 to 14) (size 15 to 20)
#    0.000    1.655    4.138    0.414    2.897    2.483 
#    2.483    3.448    0.000    6.621    0.000    0.000 
#    0.000    0.000    0.000    0.000    0.000    0.000 
#
# Total GULP energy -161636.366403 kJ/mol
# GULP energy per Si atom -5573.667807 kJ/mol
# Density = 2.006707 g / cm^3
# Si number density = 20.112849 Si / 1000 Ang^3
#
#
#
# Elastic Constant Matrix: (Units=GPa)
#
#
# Indices 1 2 3 4 5 6 
#
# 1 131.6025 23.1100 49.1589 0.0102 24.4370 0.0004
# 2 23.1100 66.7812 24.8731 0.0130 18.7262 -0.0006
# 3 49.1589 24.8731 81.5635 0.0163 25.1108 -0.0035
# 4 0.0102 0.0130 0.0163 43.0063 0.0007 16.2024
# 5 24.4370 18.7262 25.1108 0.0007 33.5143 0.0012
# 6 0.0004 -0.0006 -0.0035 16.2024 0.0012 20.2452
#
#
#
# Elastic Compliance Matrix: (Units=1/GPa)
#
#
# Indices 1 2 3 4 5 6 
#
# 1 0.010172 -0.000771 -0.004868 0.000000 -0.003339 -0.000001
# 2 -0.000771 0.018426 -0.002805 -0.000006 -0.007632 0.000006
# 3 -0.004868 -0.002805 0.018814 -0.000009 -0.008980 0.000011
# 4 0.000000 -0.000006 -0.000009 0.033290 0.000011 -0.026642
# 5 -0.003339 -0.007632 -0.008980 0.000011 0.043266 -0.000013
# 6 -0.000001 0.000006 0.000011 -0.026642 -0.000013 0.070716
#
#
# Mechanical properties :
#
#
# Convention : Reuss Voigt Hill
#
# Bulk Modulus (GPa) = 32.75946 52.69233 42.72590
# Shear Modulus (GPa) = 22.54832 31.54017 27.04424
#
# Velocity S-wave (km/s) = 3.35190 3.96430 3.67089
# Velocity P-wave (km/s) = 5.59495 6.87091 6.26550
#
# Compressibility (1/GPa) = 0.03052553
#
# Stress axis : x y z
#
# Youngs Moduli (GPa) = 98.30518 54.27187 53.15103
#
# Poissons Ratio (x) = 0.04183 0.25873
# Poissons Ratio (y) = 0.07577 0.14908
# Poissons Ratio (z) = 0.47854 0.15222
#
# Static dielectric constant tensor:
#      x y z
#    x 1.713500 -0.000010 0.007590 
#    y -0.000010 1.716990 -0.000010 
#    z 0.007590 -0.000010 1.700040 
# 
# From -- ./inp_files/366565.got.cif
#   From: 2010.05.17/outbox.cif.g08.bks.cpg/sg12_184_cif.got.tgz:366565.got - 2010.06.03 13:09:07.
