data_PCOD9213713
_publ_section_title
;
Structure prediction by ZEFSAII (Michael W. Deem and Ramdas Pophale) SiO2 
 PCOD9213713
Probable space group: C 2/M
;
_chemical_formula_sum "Si O2"
_cell_formula_units_Z 48
_cell_length_a 9.437698
_cell_length_b 18.233901
_cell_length_c 18.411342
_cell_angle_alpha 90.000000
_cell_angle_beta 133.145717
_cell_angle_gamma 90.000000
_cell_volume 2311.670709
_symmetry_space_group_name_H-M "C 2/M"
_symmetry_group_IT_number 12
_symmetry_cell_setting 'monoclinic'
loop_
_space_group_symop_operation_xyz
x,y,z
-x,y,-z
-x,-y,-z
x,-y,z
1/2+x,1/2+y,z
1/2-x,1/2+y,-z
1/2-x,1/2-y,-z
1/2+x,1/2-y,z
loop_
_atom_site_type_symbol
_atom_site_label
_atom_site_fract_x
_atom_site_fract_y
_atom_site_fract_z
Si Si1 0.357968 0.700996 0.717219
Si Si2 0.606789 0.840582 0.191183
Si Si3 0.161430 0.914660 0.851195
Si Si4 0.283639 0.413587 0.392354
Si Si5 0.072919 0.709233 0.398918
Si Si6 0.795589 0.086026 0.960881
O O1 0.398048 0.753490 0.800130
O O2 0.454462 0.622579 0.761603
O O3 0.456394 0.742044 0.683857
O O4 0.126075 0.702342 0.626933
O O5 0.682032 0.869874 0.140819
O O6 0.750476 0.874529 0.303070
O O7 0.392742 0.871309 0.131913
O O8 0.198048 0.909183 0.949686
O O9 0.169249 0.000000 0.832915
O O10 0.500000 0.403466 0.500000
O O11 0.244858 0.500000 0.372614
O O12 0.141645 0.370559 0.396794
O O13 0.250000 0.750000 0.500000
O O14 0.774341 0.000000 0.933572
O O15 0.000000 0.112107 0.000000
#
# Coordination Sequence:
#
# PCOD9213713 Si02
#       6
#     8   8   8   8   8   8
#     4  11  24  40  64  95 127 170 220 266 321 390
#     4  11  22  43  67  91 132 173 215 266 324 385
#     4  11  24  42  66  97 132 170 216 269 324 390
#     4  10  22  38  65  99 127 165 217 267 323 391
#     4  11  22  42  63  89 128 173 218 265 325 387
#     4  10  23  40  65  98 131 170 215 265 328 390
#
# _framework density 20.764203999999999
#
# number of rings (size 3 to 8) (size 9 to 14) (size 15 to 20)
#    0.000    1.333    1.667    4.500    4.667    2.667 
#    0.000    0.000    0.000    2.000    0.000    0.000 
#    0.000    0.000    0.000    0.000    0.000    0.000 
#
# Total GULP energy -134169.198462 kJ/mol
# GULP energy per Si atom -5590.383269 kJ/mol
# Density = 2.071694 g / cm^3
# Si number density = 20.764204 Si / 1000 Ang^3
#
#
#
# Elastic Constant Matrix: (Units=GPa)
#
#
# Indices 1 2 3 4 5 6 
#
# 1 90.3953 4.2861 10.4875 0.0000 13.1180 0.0000
# 2 4.2861 46.5949 -3.6828 0.0000 -3.1806 0.0000
# 3 10.4875 -3.6828 55.2019 0.0000 14.6261 0.0000
# 4 0.0000 0.0000 0.0000 19.0101 0.0000 -0.8488
# 5 13.1180 -3.1806 14.6261 0.0000 31.0924 0.0000
# 6 0.0000 0.0000 0.0000 -0.8488 0.0000 26.1917
#
#
#
# Elastic Compliance Matrix: (Units=1/GPa)
#
#
# Indices 1 2 3 4 5 6 
#
# 1 0.011942 -0.001506 -0.001135 0.000000 -0.004658 0.000000
# 2 -0.001506 0.021849 0.001123 0.000000 0.002342 0.000000
# 3 -0.001135 0.001123 0.020847 0.000000 -0.009213 0.000000
# 4 0.000000 0.000000 0.000000 0.052680 0.000000 0.001707
# 5 -0.004658 0.002342 -0.009213 0.000000 0.038701 0.000000
# 6 0.000000 0.000000 0.000000 0.001707 0.000000 0.038235
#
#
# Mechanical properties :
#
#
# Convention : Reuss Voigt Hill
#
# Bulk Modulus (GPa) = 19.37928 23.81933 21.59930
# Shear Modulus (GPa) = 24.45110 27.33225 25.89167
#
# Velocity S-wave (km/s) = 3.43528 3.63204 3.53503
# Velocity P-wave (km/s) = 5.00881 5.39307 5.20449
#
# Compressibility (1/GPa) = 0.05160150
#
# Stress axis : x y z
#
# Youngs Moduli (GPa) = 83.74067 45.76921 47.96886
#
# Poissons Ratio (x) = 0.06894 0.05444
# Poissons Ratio (y) = 0.12613 -0.05388
# Poissons Ratio (z) = 0.09504 -0.05141
#
# Static dielectric constant tensor:
#      x y z
#    x 1.754160 0.000000 -0.005030 
#    y 0.000000 1.721440 0.000000 
#    z -0.005030 0.000000 1.753380 
# 
# From -- ./inp_files/301829.got.cif
#   From: 2010.05.17/outbox.cif.g08.bks.cpg/sg12_151_cif.got.tgz:301829.got - 2010.06.03 13:09:07.
