data_PCOD9213404
_publ_section_title
;
Structure prediction by ZEFSAII (Michael W. Deem and Ramdas Pophale) SiO2 
 PCOD9213404
Probable space group: C 2/M
;
_chemical_formula_sum "Si O2"
_cell_formula_units_Z 48
_cell_length_a 11.316659
_cell_length_b 13.471183
_cell_length_c 20.927418
_cell_angle_alpha 90.000000
_cell_angle_beta 40.112241
_cell_angle_gamma 90.000000
_cell_volume 2055.507227
_symmetry_space_group_name_H-M "C 2/M"
_symmetry_group_IT_number 12
_symmetry_cell_setting 'monoclinic'
loop_
_space_group_symop_operation_xyz
x,y,z
-x,y,-z
-x,-y,-z
x,-y,z
1/2+x,1/2+y,z
1/2-x,1/2+y,-z
1/2-x,1/2-y,-z
1/2+x,1/2-y,z
loop_
_atom_site_type_symbol
_atom_site_label
_atom_site_fract_x
_atom_site_fract_y
_atom_site_fract_z
Si Si1 0.430225 0.618550 0.456723
Si Si2 0.628361 0.887964 0.097259
Si Si3 0.796560 0.164595 0.896761
Si Si4 0.055953 0.388527 0.544928
Si Si5 0.759741 0.172366 0.770639
Si Si6 0.695826 0.391722 0.780028
O O1 0.500000 0.640315 0.500000
O O2 0.445484 0.500000 0.445412
O O3 0.221036 0.646484 0.523096
O O4 0.563883 0.662866 0.347259
O O5 0.714596 0.785564 0.089405
O O6 0.411360 0.872660 0.196915
O O7 0.683199 0.000000 0.094904
O O8 0.668565 0.879008 0.004920
O O9 0.765657 0.126684 0.838255
O O10 0.001444 0.127609 0.827702
O O11 0.119011 0.500000 0.501668
O O12 0.000000 0.341320 0.500000
O O13 0.867030 0.394268 0.661313
O O14 0.727163 0.287819 0.801469
O O15 0.690363 0.500000 0.814820
#
# Coordination Sequence:
#
# PCOD9213404 Si02
#       6
#     8   8   8   8   8   8
#     4  10  22  39  60  91 130 169 214 271 329 382
#     4  10  22  40  63  92 126 161 202 260 325 385
#     4  10  22  40  62  92 125 161 209 260 318 387
#     4   9  18  34  57  84 116 160 212 261 314 378
#     4  11  23  38  62  92 122 163 213 261 315 384
#     4  10  22  38  57  85 121 160 203 256 315 375
#
# _framework density 23.351900000000001
#
# number of rings (size 3 to 8) (size 9 to 14) (size 15 to 20)
#    0.000    2.000    0.000    2.500    0.000    9.333 
#    0.000    1.667    0.000    6.000    0.000    0.000 
#    0.000    0.000    0.000    0.000    0.000    0.000 
#
# Total GULP energy -133760.589509 kJ/mol
# GULP energy per Si atom -5573.357896 kJ/mol
# Density = 2.329875 g / cm^3
# Si number density = 23.351900 Si / 1000 Ang^3
#
#
#
# Elastic Constant Matrix: (Units=GPa)
#
#
# Indices 1 2 3 4 5 6 
#
# 1 111.9418 12.3751 37.4558 0.0000 9.3364 0.0000
# 2 12.3751 181.4801 -7.6041 0.0001 -2.4762 0.0002
# 3 37.4558 -7.6041 113.2920 0.0006 -14.4527 0.0015
# 4 0.0000 0.0001 0.0006 31.0831 -0.0002 23.8809
# 5 9.3364 -2.4762 -14.4527 -0.0002 38.0792 -0.0005
# 6 0.0000 0.0002 0.0015 23.8809 -0.0005 129.2224
#
#
#
# Elastic Compliance Matrix: (Units=1/GPa)
#
#
# Indices 1 2 3 4 5 6 
#
# 1 0.010799 -0.000970 -0.004184 0.000000 -0.004299 0.000000
# 2 -0.000970 0.005623 0.000815 0.000000 0.000913 0.000000
# 3 -0.004184 0.000815 0.010932 0.000000 0.005228 0.000000
# 4 0.000000 0.000000 0.000000 0.037496 0.000000 -0.006929
# 5 -0.004299 0.000913 0.005228 0.000000 0.029359 0.000000
# 6 0.000000 0.000000 0.000000 -0.006929 0.000000 0.009019
#
#
# Mechanical properties :
#
#
# Convention : Reuss Voigt Hill
#
# Bulk Modulus (GPa) = 53.54881 54.57417 54.06149
# Shear Modulus (GPa) = 42.32604 63.97608 53.15106
#
# Velocity S-wave (km/s) = 4.26200 5.23985 4.77602
# Velocity P-wave (km/s) = 6.87027 7.74784 7.32221
#
# Compressibility (1/GPa) = 0.01867455
#
# Stress axis : x y z
#
# Youngs Moduli (GPa) = 92.60192 177.84095 91.47830
#
# Poissons Ratio (x) = 0.17257 0.38273
# Poissons Ratio (y) = 0.08985 -0.07452
# Poissons Ratio (z) = 0.38743 -0.14488
#
# Static dielectric constant tensor:
#      x y z
#    x 1.800960 0.000000 -0.063550 
#    y 0.000000 1.974050 0.000000 
#    z -0.063550 0.000000 1.745450 
# 
# From -- ./inp_files/305639.got.cif
#   From: 2010.05.17/outbox.cif.g08.bks.cpg/sg12_153_cif.got.tgz:305639.got - 2010.06.03 13:09:07.
