data_PCOD9213490
_publ_section_title
;
Structure prediction by ZEFSAII (Michael W. Deem and Ramdas Pophale) SiO2 
 PCOD9213490
Probable space group: C 2/M
;
_chemical_formula_sum "Si O2"
_cell_formula_units_Z 60
_cell_length_a 24.831736
_cell_length_b 16.935283
_cell_length_c 12.762959
_cell_angle_alpha 90.000000
_cell_angle_beta 36.783100
_cell_angle_gamma 90.000000
_cell_volume 3213.834877
_symmetry_space_group_name_H-M "C 2/M"
_symmetry_group_IT_number 12
_symmetry_cell_setting 'monoclinic'
loop_
_space_group_symop_operation_xyz
x,y,z
-x,y,-z
-x,-y,-z
x,-y,z
1/2+x,1/2+y,z
1/2-x,1/2+y,-z
1/2-x,1/2-y,-z
1/2+x,1/2-y,z
loop_
_atom_site_type_symbol
_atom_site_label
_atom_site_fract_x
_atom_site_fract_y
_atom_site_fract_z
Si Si1 0.672013 0.410957 0.774369
Si Si2 0.980303 0.683364 0.419493
Si Si3 0.525678 0.200986 0.801138
Si Si4 0.500000 0.323281 0.000000
Si Si5 0.813632 0.671076 0.150587
Si Si6 0.687634 0.095894 0.620933
Si Si7 0.666345 0.906985 0.098476
Si Si8 0.776841 0.663157 0.783239
O O1 0.656611 0.500000 0.767356
O O2 0.737957 0.378461 0.580922
O O3 0.721705 0.401600 0.806485
O O4 0.576107 0.371950 0.937241
O O5 0.974719 0.728053 0.318565
O O6 0.880480 0.650646 0.589242
O O7 0.000000 0.725464 0.500000
O O8 0.061632 0.621026 0.275447
O O9 0.592334 0.129008 0.724308
O O10 0.553241 0.270662 0.834212
O O11 0.421480 0.184480 0.989930
O O12 0.789868 0.634005 0.300584
O O13 0.762326 0.752415 0.196969
O O14 0.803699 0.613012 0.066427
O O15 0.683919 0.000000 0.634289
O O16 0.722414 0.853821 0.093921
O O17 0.673811 0.000000 0.108763
#
# Coordination Sequence:
#
# PCOD9213490 Si02
#       8
#     8   8   8   4   8   8   8   8
#     4  11  24  39  60  85 116 156 196 244 292 344
#     4   9  21  35  56  86 114 150 193 237 293 344
#     4  11  20  36  58  86 115 156 191 238 297 339
#     4  12  23  40  59  84 120 152 198 240 289 352
#     4  11  22  37  56  87 120 158 192 237 291 350
#     4  11  23  38  59  88 119 154 196 239 299 357
#     4  10  22  38  59  87 122 152 190 246 302 352
#     4  11  20  38  60  84 115 153 201 241 288 349
#
# _framework density 18.669284999999999
#
# number of rings (size 3 to 8) (size 9 to 14) (size 15 to 20)
#    0.000    1.333    4.000    1.400    1.867    7.200 
#    0.000    0.000    0.000    0.000    0.000    0.000 
#    0.000   11.467    0.000    0.000    0.000    0.000 
#
# Total GULP energy -167083.447559 kJ/mol
# GULP energy per Si atom -5569.448252 kJ/mol
# Density = 1.862679 g / cm^3
# Si number density = 18.669285 Si / 1000 Ang^3
#
#
#
# Elastic Constant Matrix: (Units=GPa)
#
#
# Indices 1 2 3 4 5 6 
#
# 1 103.7518 25.8104 24.1338 0.0000 17.0570 0.0000
# 2 25.8104 64.5758 15.3963 0.0000 -0.5462 0.0000
# 3 24.1338 15.3963 38.7731 0.0000 10.8313 0.0000
# 4 0.0000 0.0000 0.0000 0.9608 0.0000 -1.3840
# 5 17.0570 -0.5462 10.8313 0.0000 30.5988 0.0000
# 6 0.0000 0.0000 0.0000 -1.3840 0.0000 28.0359
#
#
#
# Elastic Compliance Matrix: (Units=1/GPa)
#
#
# Indices 1 2 3 4 5 6 
#
# 1 0.012623 -0.003953 -0.004774 0.000000 -0.005417 0.000000
# 2 -0.003953 0.018596 -0.006250 0.000000 0.004748 0.000000
# 3 -0.004774 -0.006250 0.033883 0.000000 -0.009444 0.000000
# 4 0.000000 0.000000 0.000000 1.120420 0.000000 0.055309
# 5 -0.005417 0.004748 -0.009444 0.000000 0.039128 0.000000
# 6 0.000000 0.000000 0.000000 0.055309 0.000000 0.038399
#
#
# Mechanical properties :
#
#
# Convention : Reuss Voigt Hill
#
# Bulk Modulus (GPa) = 28.45154 37.53129 32.99142
# Shear Modulus (GPa) = 3.83224 21.36979 12.60101
#
# Velocity S-wave (km/s) = 1.43428 3.38694 2.60082
# Velocity P-wave (km/s) = 4.24449 5.95332 5.17000
#
# Compressibility (1/GPa) = 0.03514748
#
# Stress axis : x y z
#
# Youngs Moduli (GPa) = 79.22173 53.77536 29.51365
#
# Poissons Ratio (x) = 0.21256 0.14090
# Poissons Ratio (y) = 0.31315 0.18446
# Poissons Ratio (z) = 0.37821 0.33610
#
# Static dielectric constant tensor:
#      x y z
#    x 1.663320 0.000000 0.029340 
#    y 0.000000 1.657720 0.000000 
#    z 0.029340 0.000000 1.680080 
# 
# From -- ./inp_files/177348.got.cif
#   From: 2010.05.17/outbox.cif.g08.bks.cpg/sg12_89_cif.got.tgz:177348.got - 2010.06.03 13:09:07.
