data_PCOD9213444
_publ_section_title
;
Structure prediction by ZEFSAII (Michael W. Deem and Ramdas Pophale) SiO2 
 PCOD9213444
Probable space group: C 2/M
;
_chemical_formula_sum "Si O2"
_cell_formula_units_Z 56
_cell_length_a 8.958431
_cell_length_b 10.997302
_cell_length_c 26.967431
_cell_angle_alpha 90.000000
_cell_angle_beta 102.338993
_cell_angle_gamma 90.000000
_cell_volume 2595.421837
_symmetry_space_group_name_H-M "C 2/M"
_symmetry_group_IT_number 12
_symmetry_cell_setting 'monoclinic'
loop_
_space_group_symop_operation_xyz
x,y,z
-x,y,-z
-x,-y,-z
x,-y,z
1/2+x,1/2+y,z
1/2-x,1/2+y,-z
1/2-x,1/2-y,-z
1/2+x,1/2-y,z
loop_
_atom_site_type_symbol
_atom_site_label
_atom_site_fract_x
_atom_site_fract_y
_atom_site_fract_z
Si Si1 0.654012 0.366929 0.477902
Si Si2 0.555563 0.732996 0.107874
Si Si3 0.777500 0.639076 0.040036
Si Si4 0.079998 0.871854 0.620922
Si Si5 0.340996 0.359778 0.175705
Si Si6 0.984155 0.214346 0.715618
Si Si7 0.161518 0.362893 0.663148
O O1 0.500000 0.365704 0.500000
O O2 0.729794 0.500000 0.490437
O O3 0.750000 0.250000 0.500000
O O4 0.582071 0.364349 0.417879
O O5 0.648859 0.658154 0.073238
O O6 0.444596 0.832734 0.074749
O O7 0.445685 0.652361 0.134193
O O8 0.681631 0.796830 0.151245
O O9 0.769845 0.500000 0.020277
O O10 0.750000 0.750000 0.000000
O O11 0.057232 0.872000 0.678499
O O12 0.154800 0.739873 0.619941
O O13 0.153176 0.000000 0.610253
O O14 0.318998 0.500000 0.187196
O O15 0.429313 0.295426 0.226928
O O16 0.809469 0.173940 0.706049
O O17 0.015605 0.341090 0.689023
O O18 0.169917 0.500000 0.646522
#
# Coordination Sequence:
#
# PCOD9213444 Si02
#       7
#     8   8   8   8   8   8   8
#     4  10  23  41  60  88 122 157 199 252 312 371
#     4  10  24  40  61  94 126 163 202 251 305 361
#     4  11  24  43  67  95 126 162 209 257 304 360
#     4   9  21  39  62  88 121 157 203 256 304 361
#     4  11  21  39  62  86 124 165 201 245 303 364
#     4  10  22  38  62  89 119 160 205 248 300 357
#     4  10  22  38  58  86 119 153 200 250 298 354
#
# _framework density 21.576453999999998
#
# number of rings (size 3 to 8) (size 9 to 14) (size 15 to 20)
#    0.857    1.000    0.000    3.429    2.000    6.000 
#    0.000    3.571    0.000    0.000    0.000    0.000 
#    0.000    0.000    0.000    0.000    0.000    0.000 
#
# Total GULP energy -156060.379222 kJ/mol
# GULP energy per Si atom -5573.584972 kJ/mol
# Density = 2.152734 g / cm^3
# Si number density = 21.576454 Si / 1000 Ang^3
#
#
#
# Elastic Constant Matrix: (Units=GPa)
#
#
# Indices 1 2 3 4 5 6 
#
# 1 45.3392 35.7044 6.1059 0.0000 3.9319 0.0000
# 2 35.7044 186.0241 50.1699 0.0000 20.1806 0.0000
# 3 6.1059 50.1699 72.7362 0.0000 8.8374 0.0000
# 4 0.0000 0.0000 0.0000 18.1169 0.0000 0.4638
# 5 3.9319 20.1806 8.8374 0.0000 25.8005 0.0000
# 6 0.0000 0.0000 0.0000 0.4638 0.0000 9.0176
#
#
#
# Elastic Compliance Matrix: (Units=1/GPa)
#
#
# Indices 1 2 3 4 5 6 
#
# 1 0.026128 -0.005407 0.001572 0.000000 -0.000291 0.000000
# 2 -0.005407 0.008093 -0.004653 0.000000 -0.003912 0.000000
# 3 0.001572 -0.004653 0.017125 0.000000 -0.002466 0.000000
# 4 0.000000 0.000000 0.000000 0.055270 0.000000 -0.002843
# 5 -0.000291 -0.003912 -0.002466 0.000000 0.042708 0.000000
# 6 0.000000 0.000000 0.000000 -0.002843 0.000000 0.111041
#
#
# Mechanical properties :
#
#
# Convention : Reuss Voigt Hill
#
# Bulk Modulus (GPa) = 29.09593 54.22888 41.66240
# Shear Modulus (GPa) = 17.31320 24.72828 21.02074
#
# Velocity S-wave (km/s) = 2.83576 3.38905 3.12468
# Velocity P-wave (km/s) = 4.92304 6.36413 5.68940
#
# Compressibility (1/GPa) = 0.03436907
#
# Stress axis : x y z
#
# Youngs Moduli (GPa) = 38.27368 123.56851 58.39339
#
# Poissons Ratio (x) = 0.66815 -0.09177
# Poissons Ratio (y) = 0.20695 0.27169
# Poissons Ratio (z) = -0.06015 0.57493
#
# Static dielectric constant tensor:
#      x y z
#    x 1.834880 0.000000 -0.037660 
#    y 0.000000 1.831240 0.000000 
#    z -0.037660 0.000000 1.812920 
# 
# From -- ./inp_files/372215.got.cif
#   From: 2010.05.17/outbox.cif.g08.bks.cpg/sg12_187_cif.got.tgz:372215.got - 2010.06.03 13:09:07.
