data_PCOD9213643
_publ_section_title
;
Structure prediction by ZEFSAII (Michael W. Deem and Ramdas Pophale) SiO2 
 PCOD9213643
Probable space group: C 2/M
;
_chemical_formula_sum "Si O2"
_cell_formula_units_Z 36
_cell_length_a 15.439953
_cell_length_b 15.755937
_cell_length_c 12.099813
_cell_angle_alpha 90.000000
_cell_angle_beta 138.110288
_cell_angle_gamma 90.000000
_cell_volume 1965.393550
_symmetry_space_group_name_H-M "C 2/M"
_symmetry_group_IT_number 12
_symmetry_cell_setting 'monoclinic'
loop_
_space_group_symop_operation_xyz
x,y,z
-x,y,-z
-x,-y,-z
x,-y,z
1/2+x,1/2+y,z
1/2-x,1/2+y,-z
1/2-x,1/2-y,-z
1/2+x,1/2-y,z
loop_
_atom_site_type_symbol
_atom_site_label
_atom_site_fract_x
_atom_site_fract_y
_atom_site_fract_z
Si Si1 0.344333 0.095933 0.349696
Si Si2 0.757065 0.236637 0.135450
Si Si3 0.172364 0.828312 0.367954
Si Si4 0.500000 0.744089 0.000000
Si Si5 0.969826 0.092468 0.343147
O O1 0.500000 0.100426 0.500000
O O2 0.295196 0.173531 0.227382
O O3 0.279554 0.114905 0.407125
O O4 0.307563 0.000000 0.279262
O O5 0.621230 0.208601 0.060456
O O6 0.863316 0.164971 0.246396
O O7 0.750000 0.250000 0.000000
O O8 0.250000 0.750000 0.500000
O O9 0.068925 0.803690 0.170924
O O10 0.090520 0.875718 0.384378
O O11 0.000000 0.082981 0.500000
O O12 0.926876 0.000000 0.258757
#
# Coordination Sequence:
#
# PCOD9213643 Si02
#       5
#     8   8   8   4   8
#     4  10  22  39  61  92 122 158 209 260 315 377
#     4  11  21  39  61  87 124 160 204 259 321 375
#     4  11  21  39  66  91 128 165 208 261 317 381
#     4  10  22  38  62  96 116 162 216 252 316 380
#     4  11  23  40  62  91 125 167 213 258 315 381
#
# _framework density 18.316942000000001
#
# number of rings (size 3 to 8) (size 9 to 14) (size 15 to 20)
#    0.000    1.333    2.222    5.333    0.000    0.889 
#    0.000    3.333    0.000    0.000    0.000    0.000 
#    0.000    0.000    0.000    0.000    0.000    0.000 
#
# Total GULP energy -100232.863199 kJ/mol
# GULP energy per Si atom -5568.492400 kJ/mol
# Density = 1.827525 g / cm^3
# Si number density = 18.316942 Si / 1000 Ang^3
#
#
#
# Elastic Constant Matrix: (Units=GPa)
#
#
# Indices 1 2 3 4 5 6 
#
# 1 196.2514 66.6303 39.6845 0.0000 11.9724 0.0000
# 2 66.6303 154.0147 48.8288 0.0000 9.3785 0.0000
# 3 39.6845 48.8288 73.7652 0.0000 -4.3436 0.0000
# 4 0.0000 0.0000 0.0000 -38.0794 0.0000 -7.9295
# 5 11.9724 9.3785 -4.3436 0.0000 35.6175 0.0000
# 6 0.0000 0.0000 0.0000 -7.9295 0.0000 14.9429
#
#
#
# Elastic Compliance Matrix: (Units=1/GPa)
#
#
# Indices 1 2 3 4 5 6 
#
# 1 0.006312 -0.001903 -0.002248 0.000000 -0.001895 0.000000
# 2 -0.001903 0.009088 -0.005132 0.000000 -0.002379 0.000000
# 3 -0.002248 -0.005132 0.018419 0.000000 0.004353 0.000000
# 4 0.000000 0.000000 0.000000 -0.023648 0.000000 -0.012549
# 5 -0.001895 -0.002379 0.004353 0.000000 0.029870 0.000000
# 6 0.000000 0.000000 0.000000 -0.012549 0.000000 0.060263
#
#
# Mechanical properties :
#
#
# Convention : Reuss Voigt Hill
#
# Bulk Modulus (GPa) = 65.55740 81.59095 73.57417
# Shear Modulus (GPa) = 40.33754 20.42204 30.37979
#
# Velocity S-wave (km/s) = 4.69785 3.34267 4.07696
# Velocity P-wave (km/s) = 8.08051 7.71613 7.90042
#
# Compressibility (1/GPa) = 0.01525381
#
# Stress axis : x y z
#
# Youngs Moduli (GPa) = 158.43984 110.03489 54.29035
#
# Poissons Ratio (x) = 0.20935 0.12203
# Poissons Ratio (y) = 0.30144 0.27864
# Poissons Ratio (z) = 0.35613 0.56474
#
# Static dielectric constant tensor:
#      x y z
#    x 1.614050 0.000000 -0.000180 
#    y 0.000000 1.386440 0.000000 
#    z -0.000180 0.000000 1.638400 
# 
# From -- ./inp_files/60752.got.cif
#   From: 2010.05.17/outbox.cif.g08.bks.cpg/sg12_31_cif.got.tgz:60752.got - 2010.06.03 13:09:07.
