data_PCOD9213188
_publ_section_title
;
Structure prediction by ZEFSAII (Michael W. Deem and Ramdas Pophale) SiO2 
 PCOD9213188
Probable space group: C 2/M
;
_chemical_formula_sum "Si O2"
_cell_formula_units_Z 40
_cell_length_a 9.268989
_cell_length_b 25.762717
_cell_length_c 7.513428
_cell_angle_alpha 90.000000
_cell_angle_beta 101.179995
_cell_angle_gamma 90.000000
_cell_volume 1760.116076
_symmetry_space_group_name_H-M "C 2/M"
_symmetry_group_IT_number 12
_symmetry_cell_setting 'monoclinic'
loop_
_space_group_symop_operation_xyz
x,y,z
-x,y,-z
-x,-y,-z
x,-y,z
1/2+x,1/2+y,z
1/2-x,1/2+y,-z
1/2-x,1/2-y,-z
1/2+x,1/2-y,z
loop_
_atom_site_type_symbol
_atom_site_label
_atom_site_fract_x
_atom_site_fract_y
_atom_site_fract_z
Si Si1 0.067109 0.378730 0.191806
Si Si2 0.356963 0.438927 0.334480
Si Si3 0.750715 0.788839 0.275785
Si Si4 0.499198 0.353282 0.803142
Si Si5 0.190150 0.675972 0.656626
O O1 0.195678 0.411911 0.321480
O O2 0.149661 0.326988 0.136038
O O3 0.939657 0.357897 0.291574
O O4 0.000000 0.405704 0.000000
O O5 0.500000 0.431358 0.500000
O O6 0.336449 0.500000 0.311330
O O7 0.414976 0.407579 0.176852
O O8 0.911077 0.814537 0.301974
O O9 0.768408 0.729300 0.230488
O O10 0.680082 0.799566 0.454805
O O11 0.334859 0.358715 0.697793
O O12 0.500000 0.330972 0.000000
#
# Coordination Sequence:
#
# PCOD9213188 Si02
#       5
#     8   8   8   8   8
#     4  11  23  39  63  97 132 163 206 267 321 368
#     4  10  23  46  70  90 120 164 212 263 325 395
#     4  10  22  37  57  89 131 176 212 244 301 377
#     4  11  22  37  60  89 123 163 206 256 313 374
#     4  11  21  37  61  90 128 172 213 255 301 363
#
# _framework density 22.725771999999999
#
# number of rings (size 3 to 8) (size 9 to 14) (size 15 to 20)
#    0.000    1.400    0.000    7.200    0.000    8.800 
#    0.000    1.000    0.000   14.400    0.000    0.000 
#    0.000    0.000    0.000    0.000    0.000    0.000 
#
# Total GULP energy -111473.927921 kJ/mol
# GULP energy per Si atom -5573.696396 kJ/mol
# Density = 2.267405 g / cm^3
# Si number density = 22.725772 Si / 1000 Ang^3
#
#
#
# Elastic Constant Matrix: (Units=GPa)
#
#
# Indices 1 2 3 4 5 6 
#
# 1 188.6522 74.3172 30.9044 0.0000 -0.4634 0.0000
# 2 74.3172 135.5733 15.4497 0.0000 -2.7232 0.0000
# 3 30.9044 15.4497 77.0954 0.0000 5.0150 0.0000
# 4 0.0000 0.0000 0.0000 13.4381 0.0000 9.8801
# 5 -0.4634 -2.7232 5.0150 0.0000 34.8631 0.0000
# 6 0.0000 0.0000 0.0000 9.8801 0.0000 22.5355
#
#
#
# Elastic Compliance Matrix: (Units=1/GPa)
#
#
# Indices 1 2 3 4 5 6 
#
# 1 0.007081 -0.003638 -0.002117 0.000000 0.000114 0.000000
# 2 -0.003638 0.009441 -0.000483 0.000000 0.000759 0.000000
# 3 -0.002117 -0.000483 0.014052 0.000000 -0.002087 0.000000
# 4 0.000000 0.000000 0.000000 0.109812 0.000000 -0.048144
# 5 0.000114 0.000759 -0.002087 0.000000 0.029045 0.000000
# 6 0.000000 0.000000 0.000000 -0.048144 0.000000 0.065482
#
#
# Mechanical properties :
#
#
# Convention : Reuss Voigt Hill
#
# Bulk Modulus (GPa) = 55.25448 71.40704 63.33076
# Shear Modulus (GPa) = 19.73006 32.87732 26.30369
#
# Velocity S-wave (km/s) = 2.94969 3.80767 3.40581
# Velocity P-wave (km/s) = 5.99727 7.12885 6.58740
#
# Compressibility (1/GPa) = 0.01809808
#
# Stress axis : x y z
#
# Youngs Moduli (GPa) = 141.22327 105.92527 71.16398
#
# Poissons Ratio (x) = 0.38536 0.15064
# Poissons Ratio (y) = 0.51378 0.03436
# Poissons Ratio (z) = 0.29895 0.05115
#
# Static dielectric constant tensor:
#      x y z
#    x 1.880980 0.000000 0.036930 
#    y 0.000000 1.850850 0.000000 
#    z 0.036930 0.000000 1.957410 
# 
# From -- ./inp_files/40546.got.cif
#   From: 2010.05.17/outbox.cif.g08.bks.cpg/sg12_21_cif.got.tgz:40546.got - 2010.06.03 13:09:07.
