data_PCOD9213808
_publ_section_title
;
Structure prediction by ZEFSAII (Michael W. Deem and Ramdas Pophale) SiO2 
 PCOD9213808
Probable space group: C 2/M
;
_chemical_formula_sum "Si O2"
_cell_formula_units_Z 56
_cell_length_a 12.035253
_cell_length_b 16.834491
_cell_length_c 19.361407
_cell_angle_alpha 90.000000
_cell_angle_beta 50.956877
_cell_angle_gamma 90.000000
_cell_volume 3046.700949
_symmetry_space_group_name_H-M "C 2/M"
_symmetry_group_IT_number 12
_symmetry_cell_setting 'monoclinic'
loop_
_space_group_symop_operation_xyz
x,y,z
-x,y,-z
-x,-y,-z
x,-y,z
1/2+x,1/2+y,z
1/2-x,1/2+y,-z
1/2-x,1/2-y,-z
1/2+x,1/2-y,z
loop_
_atom_site_type_symbol
_atom_site_label
_atom_site_fract_x
_atom_site_fract_y
_atom_site_fract_z
Si Si1 0.631257 0.694696 0.503731
Si Si2 0.072221 0.094882 0.754973
Si Si3 0.097732 0.659826 0.255603
Si Si4 0.883932 0.594120 0.601852
Si Si5 0.900112 0.842003 0.703948
Si Si6 0.810650 0.405165 0.324488
Si Si7 0.396785 0.403938 0.101602
O O1 0.500000 0.721325 0.500000
O O2 0.750000 0.750000 0.500000
O O3 0.538357 0.654896 0.600071
O O4 0.721224 0.632491 0.423159
O O5 0.221906 0.128133 0.664188
O O6 0.054729 0.121726 0.840621
O O7 0.941400 0.117077 0.758751
O O8 0.087275 0.000000 0.751096
O O9 0.069842 0.612251 0.338121
O O10 0.123668 0.749580 0.269690
O O11 0.235122 0.626797 0.162313
O O12 0.957756 0.643651 0.266213
O O13 0.872257 0.500000 0.597030
O O14 0.000000 0.619929 0.500000
O O15 0.775314 0.884194 0.711068
O O16 0.830326 0.500000 0.324355
O O17 0.393977 0.500000 0.100983
O O18 0.500000 0.376508 0.000000
#
# Coordination Sequence:
#
# PCOD9213808 Si02
#       7
#     8   8   8   8   8   8   8
#     4  10  22  39  57  84 120 173 218 261 308 363
#     4   9  19  35  57  82 113 150 195 238 294 361
#     4  11  22  36  61  86 120 152 199 248 304 364
#     4   9  19  33  53  80 111 145 188 244 294 347
#     4  11  24  36  57  82 122 160 202 252 303 356
#     4  11  24  40  59  85 123 171 216 254 300 367
#     4   9  19  39  67  93 116 146 190 248 310 373
#
# _framework density 18.380537
#
# number of rings (size 3 to 8) (size 9 to 14) (size 15 to 20)
#    0.000    2.000    1.429    2.571    6.000    4.857 
#    0.000    0.714    0.000    0.429    0.000    4.000 
#    0.000    0.000    0.000    0.000    0.000    0.000 
#
# Total GULP energy -156012.683133 kJ/mol
# GULP energy per Si atom -5571.881540 kJ/mol
# Density = 1.833870 g / cm^3
# Si number density = 18.380537 Si / 1000 Ang^3
#
#
#
# Elastic Constant Matrix: (Units=GPa)
#
#
# Indices 1 2 3 4 5 6 
#
# 1 91.5541 1.4847 31.7079 0.0000 5.2680 0.0000
# 2 1.4847 42.2307 18.2472 0.0000 3.2549 0.0000
# 3 31.7079 18.2472 130.5706 0.0000 -3.2078 0.0000
# 4 0.0000 0.0000 0.0000 5.4416 0.0000 3.0198
# 5 5.2680 3.2549 -3.2078 0.0000 13.4920 0.0000
# 6 0.0000 0.0000 0.0000 3.0198 0.0000 28.7603
#
#
#
# Elastic Compliance Matrix: (Units=1/GPa)
#
#
# Indices 1 2 3 4 5 6 
#
# 1 0.012411 0.001482 -0.003368 0.000000 -0.006004 0.000000
# 2 0.001482 0.026045 -0.004193 0.000000 -0.007859 0.000000
# 3 -0.003368 -0.004193 0.009173 0.000000 0.004508 0.000000
# 4 0.000000 0.000000 0.000000 0.195141 0.000000 -0.020490
# 5 -0.006004 -0.007859 0.004508 0.000000 0.079430 0.000000
# 6 0.000000 0.000000 0.000000 -0.020490 0.000000 0.036922
#
#
# Mechanical properties :
#
#
# Convention : Reuss Voigt Hill
#
# Bulk Modulus (GPa) = 28.19268 40.80388 34.49828
# Shear Modulus (GPa) = 13.05132 23.73313 18.39223
#
# Velocity S-wave (km/s) = 2.66759 3.59724 3.16671
# Velocity P-wave (km/s) = 4.98595 6.28500 5.67278
#
# Compressibility (1/GPa) = 0.03547020
#
# Stress axis : x y z
#
# Youngs Moduli (GPa) = 80.57673 38.39559 109.01154
#
# Poissons Ratio (x) = -0.05690 0.36719
# Poissons Ratio (y) = -0.11940 0.45705
# Poissons Ratio (z) = 0.27141 0.16098
#
# Static dielectric constant tensor:
#      x y z
#    x 1.755680 0.000000 -0.012360 
#    y 0.000000 1.792630 0.000000 
#    z -0.012360 0.000000 1.614000 
# 
# From -- ./inp_files/264201.got.cif
#   From: 2010.05.17/outbox.cif.g08.bks.cpg/sg12_133_cif.got.tgz:264201.got - 2010.06.03 13:09:07.
