data_PCOD9213265
_publ_section_title
;
Structure prediction by ZEFSAII (Michael W. Deem and Ramdas Pophale) SiO2 
 PCOD9213265
Probable space group: C 2/M
;
_chemical_formula_sum "Si O2"
_cell_formula_units_Z 32
_cell_length_a 14.617032
_cell_length_b 10.802378
_cell_length_c 15.560575
_cell_angle_alpha 90.000000
_cell_angle_beta 143.090943
_cell_angle_gamma 90.000000
_cell_volume 1475.539845
_symmetry_space_group_name_H-M "C 2/M"
_symmetry_group_IT_number 12
_symmetry_cell_setting 'monoclinic'
loop_
_space_group_symop_operation_xyz
x,y,z
-x,y,-z
-x,-y,-z
x,-y,z
1/2+x,1/2+y,z
1/2-x,1/2+y,-z
1/2-x,1/2-y,-z
1/2+x,1/2-y,z
loop_
_atom_site_type_symbol
_atom_site_label
_atom_site_fract_x
_atom_site_fract_y
_atom_site_fract_z
Si Si1 0.411734 0.780034 0.663360
Si Si2 0.615264 0.138478 0.664982
Si Si3 0.132586 0.136775 0.922420
Si Si4 0.085522 0.284789 0.140457
O O1 0.250000 0.750000 0.500000
O O2 0.515641 0.855627 0.676171
O O3 0.508246 0.654425 0.753534
O O4 0.400003 0.836619 0.751045
O O5 0.500000 0.162133 0.500000
O O6 0.749830 0.237288 0.763526
O O7 0.678729 0.000000 0.701454
O O8 0.030562 0.169680 0.928511
O O9 0.198848 0.000000 0.974357
O O10 0.250000 0.250000 0.000000
O O11 0.000000 0.356553 0.000000
#
# Coordination Sequence:
#
# PCOD9213265 Si02
#       4
#     8   8   8   8
#     4  10  22  39  60  94 135 171 210 282 349 397
#     4  11  21  37  66  98 123 166 231 281 329 399
#     4  10  22  40  65  98 134 176 224 277 339 408
#     4  10  22  37  61  96 127 168 219 282 330 400
#
# _framework density 21.686979000000001
#
# number of rings (size 3 to 8) (size 9 to 14) (size 15 to 20)
#    1.500    0.250    2.500    2.250    0.000    6.000 
#    0.000    0.000    0.000   14.250    0.000    0.000 
#    0.000    0.000    0.000    0.000    0.000    0.000 
#
# Total GULP energy -89097.113988 kJ/mol
# GULP energy per Si atom -5568.569624 kJ/mol
# Density = 2.163762 g / cm^3
# Si number density = 21.686979 Si / 1000 Ang^3
#
#
#
# Elastic Constant Matrix: (Units=GPa)
#
#
# Indices 1 2 3 4 5 6 
#
# 1 138.3684 22.2500 72.4007 0.0000 -5.7256 0.0000
# 2 22.2500 90.5677 33.6532 0.0000 9.8442 0.0000
# 3 72.4007 33.6532 148.7715 0.0000 -20.4232 0.0000
# 4 0.0000 0.0000 0.0000 2.8691 0.0000 -2.9323
# 5 -5.7256 9.8442 -20.4232 0.0000 49.6346 0.0000
# 6 0.0000 0.0000 0.0000 -2.9323 0.0000 10.6522
#
#
#
# Elastic Compliance Matrix: (Units=1/GPa)
#
#
# Indices 1 2 3 4 5 6 
#
# 1 0.009757 -0.000568 -0.004716 0.000000 -0.000702 0.000000
# 2 -0.000568 0.012774 -0.003148 0.000000 -0.003894 0.000000
# 3 -0.004716 -0.003148 0.010323 0.000000 0.004328 0.000000
# 4 0.000000 0.000000 0.000000 0.484976 0.000000 0.133502
# 5 -0.000702 -0.003894 0.004328 0.000000 0.022619 0.000000
# 6 0.000000 0.000000 0.000000 0.133502 0.000000 0.130627
#
#
# Mechanical properties :
#
#
# Convention : Reuss Voigt Hill
#
# Bulk Modulus (GPa) = 62.53944 70.47947 66.50946
# Shear Modulus (GPa) = 7.21219 29.25810 18.23514
#
# Velocity S-wave (km/s) = 1.82560 3.67701 2.90286
# Velocity P-wave (km/s) = 5.77440 7.11310 6.47842
#
# Compressibility (1/GPa) = 0.01598991
#
# Stress axis : x y z
#
# Youngs Moduli (GPa) = 102.48879 78.28442 96.87055
#
# Poissons Ratio (x) = 0.04449 0.45687
# Poissons Ratio (y) = 0.05824 0.30491
# Poissons Ratio (z) = 0.48336 0.24641
#
# Static dielectric constant tensor:
#      x y z
#    x 1.847580 0.000000 -0.058790 
#    y 0.000000 1.782940 0.000000 
#    z -0.058790 0.000000 1.844440 
# 
# From -- ./inp_files/267942.got.cif
#   From: 2010.05.17/outbox.cif.g08.bks.cpg/sg12_134_cif.got.tgz:267942.got - 2010.06.03 13:09:07.
