data_PCOD9213552
_publ_section_title
;
Structure prediction by ZEFSAII (Michael W. Deem and Ramdas Pophale) SiO2 
 PCOD9213552
Probable space group: C 2/M
;
_chemical_formula_sum "Si O2"
_cell_formula_units_Z 56
_cell_length_a 15.043961
_cell_length_b 17.589937
_cell_length_c 20.436096
_cell_angle_alpha 90.000000
_cell_angle_beta 150.345196
_cell_angle_gamma 90.000000
_cell_volume 2675.658551
_symmetry_space_group_name_H-M "C 2/M"
_symmetry_group_IT_number 12
_symmetry_cell_setting 'monoclinic'
loop_
_space_group_symop_operation_xyz
x,y,z
-x,y,-z
-x,-y,-z
x,-y,z
1/2+x,1/2+y,z
1/2-x,1/2+y,-z
1/2-x,1/2-y,-z
1/2+x,1/2-y,z
loop_
_atom_site_type_symbol
_atom_site_label
_atom_site_fract_x
_atom_site_fract_y
_atom_site_fract_z
Si Si1 0.093115 0.181555 0.216425
Si Si2 0.566542 0.411084 0.615033
Si Si3 0.672024 0.086864 0.408139
Si Si4 0.844084 0.415361 0.454067
Si Si5 0.911675 0.710085 0.193203
Si Si6 0.191527 0.708979 0.161692
Si Si7 0.606846 0.584407 0.000454
O O1 0.224191 0.156423 0.358070
O O2 0.170259 0.227078 0.204048
O O3 0.945161 0.235927 0.153315
O O4 0.026232 0.102052 0.143885
O O5 0.500000 0.385152 0.500000
O O6 0.615003 0.500000 0.639981
O O7 0.387615 0.405344 0.545238
O O8 0.730059 0.364341 0.750607
O O9 0.593652 0.092477 0.431335
O O10 0.586134 0.157044 0.314824
O O11 0.635602 0.000000 0.360373
O O12 0.757649 0.500000 0.396897
O O13 0.000000 0.415848 0.500000
O O14 0.844784 0.762919 0.209699
O O15 0.755164 0.648251 0.088253
O O16 0.000000 0.700221 0.000000
O O17 0.682180 0.500000 0.046623
O O18 0.500000 0.593113 0.000000
#
# Coordination Sequence:
#
# PCOD9213552 Si02
#       7
#     8   8   8   8   8   8   8
#     4  12  23  40  63  91 132 167 213 265 327 390
#     4  10  23  45  68  90 123 170 222 272 318 384
#     4  10  22  41  63  93 125 165 219 269 324 389
#     4  10  22  38  60  91 128 167 213 267 323 390
#     4  12  23  40  66  94 133 168 209 272 331 387
#     4  12  25  42  64  97 135 170 218 269 334 395
#     4  11  23  42  66  91 124 172 216 262 324 389
#
# _framework density 20.929425999999999
#
# number of rings (size 3 to 8) (size 9 to 14) (size 15 to 20)
#    0.000    1.000    2.857    3.857    0.000    5.429 
#    0.000    1.429    0.000    0.000    0.000    0.000 
#    0.000    0.000    0.000    0.000    0.000    0.000 
#
# Total GULP energy -156295.266928 kJ/mol
# GULP energy per Si atom -5581.973819 kJ/mol
# Density = 2.088179 g / cm^3
# Si number density = 20.929426 Si / 1000 Ang^3
#
#
#
# Elastic Constant Matrix: (Units=GPa)
#
#
# Indices 1 2 3 4 5 6 
#
# 1 60.5649 6.1480 -12.6593 -0.0029 -6.5376 -0.0023
# 2 6.1480 92.1236 43.2513 -0.0032 -9.4597 0.0017
# 3 -12.6593 43.2513 53.1912 -0.0290 -1.5551 0.0064
# 4 -0.0029 -0.0032 -0.0290 281.0042 0.0109 -11.1063
# 5 -6.5376 -9.4597 -1.5551 0.0109 20.8606 -0.0003
# 6 -0.0023 0.0017 0.0064 -11.1063 -0.0003 16.9013
#
#
#
# Elastic Compliance Matrix: (Units=1/GPa)
#
#
# Indices 1 2 3 4 5 6 
#
# 1 0.019322 -0.004935 0.008742 0.000001 0.004469 0.000000
# 2 -0.004935 0.019873 -0.017153 -0.000002 0.006187 0.000003
# 3 0.008742 -0.017153 0.034756 0.000003 -0.002448 -0.000008
# 4 0.000001 -0.000002 0.000003 0.003654 -0.000002 0.002401
# 5 0.004469 0.006187 -0.002448 -0.000002 0.051961 0.000000
# 6 0.000000 0.000003 -0.000008 0.002401 0.000000 0.060745
#
#
# Mechanical properties :
#
#
# Convention : Reuss Voigt Hill
#
# Bulk Modulus (GPa) = 21.15975 31.03996 26.09986
# Shear Modulus (GPa) = 21.48191 75.02919 48.25555
#
# Velocity S-wave (km/s) = 3.20722 5.99387 4.80691
# Velocity P-wave (km/s) = 4.88334 7.92243 6.58073
#
# Compressibility (1/GPa) = 0.04725954
#
# Stress axis : x y z
#
# Youngs Moduli (GPa) = 51.75510 50.32067 28.77182
#
# Poissons Ratio (x) = 0.24832 -0.25152
# Poissons Ratio (y) = 0.25540 0.49351
# Poissons Ratio (z) = -0.45243 0.86313
#
# Static dielectric constant tensor:
#      x y z
#    x 1.768920 0.000000 -0.022300 
#    y 0.000000 1.742710 0.000000 
#    z -0.022300 0.000000 1.828990 
# 
# From -- ./inp_files/311728.got.cif
#   From: 2010.05.17/outbox.cif.g08.bks.cpg/sg12_156_cif.got.tgz:311728.got - 2010.06.03 13:09:07.
