data_PCOD9213880
_publ_section_title
;
Structure prediction by ZEFSAII (Michael W. Deem and Ramdas Pophale) SiO2 
 PCOD9213880
Probable space group: C 2/M
;
_chemical_formula_sum "Si O2"
_cell_formula_units_Z 56
_cell_length_a 19.324553
_cell_length_b 8.677530
_cell_length_c 19.897466
_cell_angle_alpha 90.000000
_cell_angle_beta 65.963860
_cell_angle_gamma 90.000000
_cell_volume 3047.273582
_symmetry_space_group_name_H-M "C 2/M"
_symmetry_group_IT_number 12
_symmetry_cell_setting 'monoclinic'
loop_
_space_group_symop_operation_xyz
x,y,z
-x,y,-z
-x,-y,-z
x,-y,z
1/2+x,1/2+y,z
1/2-x,1/2+y,-z
1/2-x,1/2-y,-z
1/2+x,1/2-y,z
loop_
_atom_site_type_symbol
_atom_site_label
_atom_site_fract_x
_atom_site_fract_y
_atom_site_fract_z
Si Si1 0.704133 0.184009 0.580264
Si Si2 0.630938 0.817439 0.229566
Si Si3 0.757747 0.180848 0.707803
Si Si4 0.609727 0.324962 0.801636
Si Si5 0.520818 0.826702 0.069078
Si Si6 0.953627 0.315882 0.306360
Si Si7 0.326146 0.314538 0.934201
O O1 0.750000 0.250000 0.500000
O O2 0.738395 0.235721 0.639294
O O3 0.613484 0.216978 0.613648
O O4 0.711739 0.000000 0.576615
O O5 0.678116 0.767109 0.276080
O O6 0.542307 0.785555 0.280812
O O7 0.660618 0.735306 0.149367
O O8 0.638776 0.000000 0.215137
O O9 0.680499 0.211408 0.779461
O O10 0.774602 0.000000 0.698529
O O11 0.636170 0.500000 0.796297
O O12 0.543247 0.285564 0.878086
O O13 0.571902 0.287983 0.745444
O O14 0.602409 0.757258 0.054095
O O15 0.516076 0.000000 0.101706
O O16 0.500000 0.840889 0.000000
O O17 0.946222 0.500000 0.293652
O O18 0.326125 0.500000 0.937842
O O19 0.250000 0.250000 0.000000
#
# Coordination Sequence:
#
# PCOD9213880 Si02
#       7
#     8   8   8   8   8   8   8
#     4   9  19  37  61  89 119 157 194 240 294 352
#     4  11  22  39  63  88 118 156 201 249 299 357
#     4  10  22  39  59  85 121 157 196 242 297 352
#     4  11  21  35  58  85 112 147 197 245 292 350
#     4  11  24  41  60  82 114 153 197 247 302 353
#     4   9  19  37  60  84 117 154 192 236 295 351
#     4  12  26  43  62  86 120 159 203 251 304 358
#
# _framework density 18.377082000000001
#
# number of rings (size 3 to 8) (size 9 to 14) (size 15 to 20)
#    0.000    1.571    1.429    4.714    2.000    4.571 
#    0.000    0.714    0.000    4.286    0.000    0.000 
#    0.000    0.000    0.000    0.000    0.000    0.000 
#
# Total GULP energy -156125.728284 kJ/mol
# GULP energy per Si atom -5575.918867 kJ/mol
# Density = 1.833526 g / cm^3
# Si number density = 18.377082 Si / 1000 Ang^3
#
#
#
# Elastic Constant Matrix: (Units=GPa)
#
#
# Indices 1 2 3 4 5 6 
#
# 1 111.2940 32.7680 59.4217 0.0000 -6.6220 0.0000
# 2 32.7680 42.8081 15.8156 0.0000 0.2527 -0.0001
# 3 59.4217 15.8156 114.2307 0.0000 -18.1037 0.0000
# 4 0.0000 0.0000 0.0000 32.0578 0.0000 2.0496
# 5 -6.6220 0.2527 -18.1037 0.0000 18.9860 0.0000
# 6 0.0000 -0.0001 0.0000 2.0496 0.0000 45.3590
#
#
#
# Elastic Compliance Matrix: (Units=1/GPa)
#
#
# Indices 1 2 3 4 5 6 
#
# 1 0.015273 -0.009154 -0.006849 0.000000 -0.001082 0.000000
# 2 -0.009154 0.030396 -0.000020 0.000000 -0.003616 0.000000
# 3 -0.006849 -0.000020 0.014067 0.000000 0.011025 0.000000
# 4 0.000000 0.000000 0.000000 0.031284 0.000000 -0.001414
# 5 -0.001082 -0.003616 0.011025 0.000000 0.062854 0.000000
# 6 0.000000 0.000000 0.000000 -0.001414 0.000000 0.022110
#
#
# Mechanical properties :
#
#
# Convention : Reuss Voigt Hill
#
# Bulk Modulus (GPa) = 36.11360 53.81593 44.96477
# Shear Modulus (GPa) = 23.01413 29.96907 26.49160
#
# Velocity S-wave (km/s) = 3.54266 4.04268 3.80090
# Velocity P-wave (km/s) = 6.03557 7.15114 6.61691
#
# Compressibility (1/GPa) = 0.02769040
#
# Stress axis : x y z
#
# Youngs Moduli (GPa) = 65.47646 32.89945 71.08924
#
# Poissons Ratio (x) = 0.30116 0.48687
# Poissons Ratio (y) = 0.59937 0.00140
# Poissons Ratio (z) = 0.44843 0.00065
#
# Static dielectric constant tensor:
#      x y z
#    x 1.644370 0.000000 -0.004520 
#    y 0.000000 1.633040 0.000000 
#    z -0.004520 0.000000 1.706530 
# 
# From -- ./inp_files/313687.got.cif
#   From: 2010.05.17/outbox.cif.g08.bks.cpg/sg12_157_cif.got.tgz:313687.got - 2010.06.03 13:09:07.
