data_PCOD9213071
_publ_section_title
;
Structure prediction by ZEFSAII (Michael W. Deem and Ramdas Pophale) SiO2 
 PCOD9213071
Probable space group: C 2/M
;
_chemical_formula_sum "Si O2"
_cell_formula_units_Z 52
_cell_length_a 13.864837
_cell_length_b 33.265251
_cell_length_c 7.762654
_cell_angle_alpha 90.000000
_cell_angle_beta 46.168698
_cell_angle_gamma 90.000000
_cell_volume 2582.742420
_symmetry_space_group_name_H-M "C 2/M"
_symmetry_group_IT_number 12
_symmetry_cell_setting 'monoclinic'
loop_
_space_group_symop_operation_xyz
x,y,z
-x,y,-z
-x,-y,-z
x,-y,z
1/2+x,1/2+y,z
1/2-x,1/2+y,-z
1/2-x,1/2-y,-z
1/2+x,1/2-y,z
loop_
_atom_site_type_symbol
_atom_site_label
_atom_site_fract_x
_atom_site_fract_y
_atom_site_fract_z
Si Si1 0.648313 0.707678 0.489367
Si Si2 0.634356 0.593770 0.937245
Si Si3 0.113352 0.548182 0.217000
Si Si4 0.873501 0.822781 0.871720
Si Si5 0.000000 0.584630 0.000000
Si Si6 0.634264 0.793614 0.404777
Si Si7 0.177646 0.360201 0.558158
O O1 0.646427 0.685569 0.305133
O O2 0.502536 0.703994 0.756335
O O3 0.696188 0.752971 0.407361
O O4 0.739580 0.678262 0.485169
O O5 0.739634 0.565426 0.911665
O O6 0.728463 0.612285 0.672926
O O7 0.500000 0.578795 0.000000
O O8 0.596058 0.631175 0.109962
O O9 0.120596 0.500000 0.212421
O O10 0.060324 0.561339 0.092223
O O11 0.000000 0.560810 0.500000
O O12 0.742419 0.809551 0.136124
O O13 0.886134 0.613518 0.216048
O O14 0.500000 0.773831 0.500000
O O15 0.575558 0.833784 0.571792
#
# Coordination Sequence:
#
# PCOD9213071 Si02
#       7
#     8   8   8   8   4   8   8
#     4  11  21  40  56  85 122 177 230 285 335 383
#     4  11  22  43  68  98 139 177 224 274 339 412
#     4  11  25  47  76 107 140 176 217 274 345 414
#     4  10  22  36  61  81 121 175 227 274 338 393
#     4  12  25  46  74 104 138 174 230 278 334 414
#     4  11  24  36  55  84 128 170 228 285 339 389
#     4  11  25  37  62  96 124 177 226 277 333 397
#
# _framework density 20.133638000000001
#
# number of rings (size 3 to 8) (size 9 to 14) (size 15 to 20)
#    0.000    1.077    4.615    2.077    6.462    0.308 
#    0.000    0.000    0.000    0.923    0.000    0.000 
#    0.000    0.000    0.000    0.000    0.000    0.000 
#
# Total GULP energy -144774.432728 kJ/mol
# GULP energy per Si atom -5568.247413 kJ/mol
# Density = 2.008781 g / cm^3
# Si number density = 20.133638 Si / 1000 Ang^3
#
#
#
# Elastic Constant Matrix: (Units=GPa)
#
#
# Indices 1 2 3 4 5 6 
#
# 1 106.5433 35.6790 20.2614 0.0000 -1.1422 0.0000
# 2 35.6790 86.4954 36.9085 0.0000 0.8559 0.0000
# 3 20.2614 36.9085 73.5308 0.0000 7.2251 0.0000
# 4 0.0000 0.0000 0.0000 30.9016 0.0000 3.4539
# 5 -1.1422 0.8559 7.2251 0.0000 28.5880 0.0000
# 6 0.0000 0.0000 0.0000 3.4539 0.0000 36.3145
#
#
#
# Elastic Compliance Matrix: (Units=1/GPa)
#
#
# Indices 1 2 3 4 5 6 
#
# 1 0.010961 -0.004080 -0.001054 0.000000 0.000826 0.000000
# 2 -0.004080 0.016291 -0.007167 0.000000 0.001161 0.000000
# 3 -0.001054 -0.007167 0.017915 0.000000 -0.004355 0.000000
# 4 0.000000 0.000000 0.000000 0.032708 0.000000 -0.003111
# 5 0.000826 0.001161 -0.004355 0.000000 0.036079 0.000000
# 6 0.000000 0.000000 0.000000 -0.003111 0.000000 0.027833
#
#
# Mechanical properties :
#
#
# Convention : Reuss Voigt Hill
#
# Bulk Modulus (GPa) = 48.62281 50.25192 49.43737
# Shear Modulus (GPa) = 28.86081 30.74219 29.80150
#
# Velocity S-wave (km/s) = 3.79022 3.91180 3.85149
# Velocity P-wave (km/s) = 6.58459 6.73916 6.66232
#
# Compressibility (1/GPa) = 0.02056648
#
# Stress axis : x y z
#
# Youngs Moduli (GPa) = 91.22897 61.38321 55.81769
#
# Poissons Ratio (x) = 0.25045 0.05881
# Poissons Ratio (y) = 0.37223 0.40005
# Poissons Ratio (z) = 0.09612 0.43993
#
# Static dielectric constant tensor:
#      x y z
#    x 3.363600 0.000000 0.162140 
#    y 0.000000 1.682260 0.000000 
#    z 0.162140 0.000000 1.699280 
# 
# From -- ./inp_files/68521.got.cif
#   From: 2010.05.17/outbox.cif.g08.bks.cpg/sg12_35_cif.got.tgz:68521.got - 2010.06.03 13:09:07.
