data_PCOD9213638
_publ_section_title
;
Structure prediction by ZEFSAII (Michael W. Deem and Ramdas Pophale) SiO2 
 PCOD9213638
Probable space group: C 2/M
;
_chemical_formula_sum "Si O2"
_cell_formula_units_Z 56
_cell_length_a 28.904708
_cell_length_b 19.701481
_cell_length_c 9.277887
_cell_angle_alpha 90.000000
_cell_angle_beta 31.284801
_cell_angle_gamma 90.000000
_cell_volume 2743.648872
_symmetry_space_group_name_H-M "C 2/M"
_symmetry_group_IT_number 12
_symmetry_cell_setting 'monoclinic'
loop_
_space_group_symop_operation_xyz
x,y,z
-x,y,-z
-x,-y,-z
x,-y,z
1/2+x,1/2+y,z
1/2-x,1/2+y,-z
1/2-x,1/2-y,-z
1/2+x,1/2-y,z
loop_
_atom_site_type_symbol
_atom_site_label
_atom_site_fract_x
_atom_site_fract_y
_atom_site_fract_z
Si Si1 0.822698 0.670836 0.180717
Si Si2 0.835126 0.297760 0.810777
Si Si3 0.367908 0.697684 0.249879
Si Si4 0.558623 0.693177 0.632146
Si Si5 0.785930 0.578461 0.739249
Si Si6 0.917427 0.579138 0.129290
Si Si7 0.909358 0.079613 0.659968
O O1 0.720199 0.652584 0.493688
O O2 0.842723 0.736771 0.224135
O O3 0.892603 0.615642 0.048848
O O4 0.832252 0.687352 0.987692
O O5 0.921441 0.254555 0.530819
O O6 0.824896 0.366600 0.746186
O O7 0.750000 0.250000 0.000000
O O8 0.397830 0.715349 0.332957
O O9 0.457036 0.672209 0.934710
O O10 0.603111 0.626638 0.445647
O O11 0.800207 0.500000 0.748927
O O12 0.834021 0.586164 0.458815
O O13 0.679858 0.589171 0.009433
O O14 0.936108 0.500000 0.053641
O O15 0.000000 0.608735 0.000000
O O16 0.000000 0.100197 0.500000
O O17 0.917037 0.000000 0.603642
#
# Coordination Sequence:
#
# PCOD9213638 Si02
#       7
#     8   8   8   8   8   8   8
#     4  11  24  40  64  94 127 167 215 270 324 388
#     4  12  23  40  65  99 130 168 214 268 320 384
#     4  10  24  40  60  94 125 169 210 262 324 383
#     4  11  23  41  63  89 133 170 209 266 325 384
#     4  10  22  42  67  90 127 175 213 262 325 383
#     4  10  24  45  67  92 127 173 221 274 329 388
#     4  10  22  38  62  95 129 167 212 262 319 387
#
# _framework density 20.410775000000001
#
# number of rings (size 3 to 8) (size 9 to 14) (size 15 to 20)
#    0.000    1.429    2.857    0.857   10.000    0.571 
#    0.000    2.143    0.000    2.571    0.000    0.000 
#    0.000    0.000    0.000    0.000    0.000    0.000 
#
# Total GULP energy -156354.199499 kJ/mol
# GULP energy per Si atom -5584.078554 kJ/mol
# Density = 2.036432 g / cm^3
# Si number density = 20.410775 Si / 1000 Ang^3
#
#
#
# Elastic Constant Matrix: (Units=GPa)
#
#
# Indices 1 2 3 4 5 6 
#
# 1 115.2133 42.5747 27.1430 0.0000 13.1462 0.0000
# 2 42.5747 54.0765 8.1267 0.0000 14.3544 0.0000
# 3 27.1430 8.1267 83.4467 0.0000 -0.8208 0.0000
# 4 0.0000 0.0000 0.0000 19.3670 0.0000 -0.9411
# 5 13.1462 14.3544 -0.8208 0.0000 25.7454 0.0000
# 6 0.0000 0.0000 0.0000 -0.9411 0.0000 28.5470
#
#
#
# Elastic Compliance Matrix: (Units=1/GPa)
#
#
# Indices 1 2 3 4 5 6 
#
# 1 0.013132 -0.009418 -0.003370 0.000000 -0.001562 0.000000
# 2 -0.009418 0.028883 0.000139 0.000000 -0.011290 0.000000
# 3 -0.003370 0.000139 0.013086 0.000000 0.002060 0.000000
# 4 0.000000 0.000000 0.000000 0.051717 0.000000 0.001705
# 5 -0.001562 -0.011290 0.002060 0.000000 0.046000 0.000000
# 6 0.000000 0.000000 0.000000 0.001705 0.000000 0.035086
#
#
# Mechanical properties :
#
#
# Convention : Reuss Voigt Hill
#
# Bulk Modulus (GPa) = 33.55100 45.38059 39.46580
# Shear Modulus (GPa) = 22.40794 26.39135 24.39965
#
# Velocity S-wave (km/s) = 3.31697 3.59975 3.46125
# Velocity P-wave (km/s) = 5.58062 6.28963 5.94570
#
# Compressibility (1/GPa) = 0.02980537
#
# Stress axis : x y z
#
# Youngs Moduli (GPa) = 76.15155 34.62256 76.41509
#
# Poissons Ratio (x) = 0.32606 0.25749
# Poissons Ratio (y) = 0.71717 -0.01065
# Poissons Ratio (z) = 0.25660 -0.00483
#
# Static dielectric constant tensor:
#      x y z
#    x 1.724630 0.000000 -0.050750 
#    y 0.000000 1.719210 0.000000 
#    z -0.050750 0.000000 1.774840 
# 
# From -- ./inp_files/113329.got.cif
#   From: 2010.05.17/outbox.cif.g08.bks.cpg/sg12_57_cif.got.tgz:113329.got - 2010.06.03 13:09:07.
