data_PCOD9213146
_publ_section_title
;
Structure prediction by ZEFSAII (Michael W. Deem and Ramdas Pophale) SiO2 
 PCOD9213146
Probable space group: C 2/M
;
_chemical_formula_sum "Si O2"
_cell_formula_units_Z 36
_cell_length_a 9.122525
_cell_length_b 13.894613
_cell_length_c 16.614996
_cell_angle_alpha 90.000000
_cell_angle_beta 46.039404
_cell_angle_gamma 90.000000
_cell_volume 1515.947214
_symmetry_space_group_name_H-M "C 2/M"
_symmetry_group_IT_number 12
_symmetry_cell_setting 'monoclinic'
loop_
_space_group_symop_operation_xyz
x,y,z
-x,y,-z
-x,-y,-z
x,-y,z
1/2+x,1/2+y,z
1/2-x,1/2+y,-z
1/2-x,1/2-y,-z
1/2+x,1/2-y,z
loop_
_atom_site_type_symbol
_atom_site_label
_atom_site_fract_x
_atom_site_fract_y
_atom_site_fract_z
Si Si1 0.280946 0.106558 0.684067
Si Si2 0.091546 0.613471 0.797629
Si Si3 0.500000 0.761593 0.500000
Si Si4 0.799169 0.220334 0.130235
Si Si5 0.247771 0.896898 0.444545
O O1 0.299921 0.181748 0.605863
O O2 0.180134 0.146898 0.802351
O O3 0.524991 0.105071 0.607754
O O4 0.212073 0.000000 0.689467
O O5 0.047397 0.500000 0.835724
O O6 0.209197 0.674625 0.822149
O O7 0.209611 0.608334 0.667658
O O8 0.889392 0.677460 0.850542
O O9 0.403390 0.686876 0.473979
O O10 0.000000 0.220677 0.000000
O O11 0.160230 0.000000 0.500698
#
# Coordination Sequence:
#
# PCOD9213146 Si02
#       5
#     8   8   4   8   8
#     4  10  22  37  55  83 119 156 199 253 313 368
#     4  10  22  42  65  94 131 166 208 263 317 372
#     4  12  18  34  60  82 116 150 200 254 306 372
#     4  11  22  42  68  92 125 169 212 258 317 376
#     4   9  19  35  56  82 115 158 198 245 312 373
#
# _framework density 23.747530000000001
#
# number of rings (size 3 to 8) (size 9 to 14) (size 15 to 20)
#    0.000    1.778    2.222    4.000    0.000    2.222 
#    0.000    2.222    0.000    0.000    0.000    0.000 
#    0.000    0.000    0.000    0.000    0.000    0.000 
#
# Total GULP energy -100336.842570 kJ/mol
# GULP energy per Si atom -5574.269032 kJ/mol
# Density = 2.369348 g / cm^3
# Si number density = 23.747530 Si / 1000 Ang^3
#
#
#
# Elastic Constant Matrix: (Units=GPa)
#
#
# Indices 1 2 3 4 5 6 
#
# 1 74.9648 33.3479 -2.7068 0.0000 2.0350 0.0000
# 2 33.3479 175.9630 1.5324 0.0000 9.7342 0.0000
# 3 -2.7068 1.5324 54.4779 0.0000 10.5643 0.0000
# 4 0.0000 0.0000 0.0000 19.3997 0.0000 -8.1781
# 5 2.0350 9.7342 10.5643 0.0000 16.2251 0.0000
# 6 0.0000 0.0000 0.0000 -8.1781 0.0000 19.9145
#
#
#
# Elastic Compliance Matrix: (Units=1/GPa)
#
#
# Indices 1 2 3 4 5 6 
#
# 1 0.014612 -0.002732 0.000962 0.000000 -0.000820 0.000000
# 2 -0.002732 0.006406 0.000415 0.000000 -0.003771 0.000000
# 3 0.000962 0.000415 0.021132 0.000000 -0.014129 0.000000
# 4 0.000000 0.000000 0.000000 0.062339 0.000000 0.025600
# 5 -0.000820 -0.003771 -0.014129 0.000000 0.073198 0.000000
# 6 0.000000 0.000000 0.000000 0.025600 0.000000 0.060728
#
#
# Mechanical properties :
#
#
# Convention : Reuss Voigt Hill
#
# Bulk Modulus (GPa) = 25.35517 41.08362 33.21940
# Shear Modulus (GPa) = 19.66404 29.32333 24.49369
#
# Velocity S-wave (km/s) = 2.88070 3.51778 3.21506
# Velocity P-wave (km/s) = 4.66527 5.81699 5.27267
#
# Compressibility (1/GPa) = 0.03943969
#
# Stress axis : x y z
#
# Youngs Moduli (GPa) = 68.43685 156.10834 47.32145
#
# Poissons Ratio (x) = 0.42653 -0.04552
# Poissons Ratio (y) = 0.18699 -0.01965
# Poissons Ratio (z) = -0.06583 -0.06483
#
# Static dielectric constant tensor:
#      x y z
#    x 2.057930 0.000000 0.061870 
#    y 0.000000 2.138490 0.000000 
#    z 0.061870 0.000000 1.860310 
# 
# From -- ./inp_files/202499.got.cif
#   From: 2010.05.17/outbox.cif.g08.bks.cpg/sg12_102_cif.got.tgz:202499.got - 2010.06.03 13:09:07.
