data_PCOD9213196
_publ_section_title
;
Structure prediction by ZEFSAII (Michael W. Deem and Ramdas Pophale) SiO2 
 PCOD9213196
Probable space group: C 2/M
;
_chemical_formula_sum "Si O2"
_cell_formula_units_Z 34
_cell_length_a 22.040737
_cell_length_b 17.372931
_cell_length_c 5.173049
_cell_angle_alpha 90.000000
_cell_angle_beta 68.161941
_cell_angle_gamma 90.000000
_cell_volume 1838.677587
_symmetry_space_group_name_H-M "C 2/M"
_symmetry_group_IT_number 12
_symmetry_cell_setting 'monoclinic'
loop_
_space_group_symop_operation_xyz
x,y,z
-x,y,-z
-x,-y,-z
x,-y,z
1/2+x,1/2+y,z
1/2-x,1/2+y,-z
1/2-x,1/2-y,-z
1/2+x,1/2-y,z
loop_
_atom_site_type_symbol
_atom_site_label
_atom_site_fract_x
_atom_site_fract_y
_atom_site_fract_z
Si Si1 0.162330 0.747511 0.383308
Si Si2 0.344956 0.500000 0.153712
Si Si3 0.747537 0.500000 0.197698
Si Si4 0.934349 0.872779 0.241804
Si Si5 0.301845 0.834670 0.170043
Si Si6 0.000000 0.000000 0.500000
O O1 0.106833 0.805566 0.563709
O O2 0.229508 0.796710 0.273424
O O3 0.171511 0.682461 0.587371
O O4 0.155882 0.709322 0.113240
O O5 0.294923 0.500000 0.472264
O O6 0.390602 0.424355 0.111785
O O7 0.303779 0.500000 0.957294
O O8 0.791060 0.423542 0.124069
O O9 0.957686 0.933783 0.415921
O O10 0.000000 0.844188 0.000000
#
# Coordination Sequence:
#
# PCOD9213196 Si02
#       6
#     8   4   4   8   8   2
#     4  10  22  38  56  84 117 153 194 244 285 348
#     4  11  24  34  57  89 123 157 195 228 284 350
#     4  12  22  39  61  87 116 162 192 244 295 349
#     4  11  25  37  57  84 125 164 198 231 284 353
#     4  10  22  37  58  83 114 153 198 239 297 340
#     4  10  24  40  56  90 120 170 192 232 270 374
#
# _framework density 18.491548999999999
#
# number of rings (size 3 to 8) (size 9 to 14) (size 15 to 20)
#    0.000    1.412    2.353    2.824   16.471    0.000 
#    0.000    0.000    0.000    0.000    0.000    4.941 
#    0.000    0.000    0.000    0.000    0.000    0.000 
#
# Total GULP energy -94798.423427 kJ/mol
# GULP energy per Si atom -5576.377849 kJ/mol
# Density = 1.844946 g / cm^3
# Si number density = 18.491549 Si / 1000 Ang^3
#
#
#
# Elastic Constant Matrix: (Units=GPa)
#
#
# Indices 1 2 3 4 5 6 
#
# 1 44.8614 36.5114 25.0930 0.0000 -1.1778 0.0000
# 2 36.5114 107.5712 40.5268 0.0000 -7.1345 0.0000
# 3 25.0930 40.5268 109.5659 0.0000 -15.0076 0.0000
# 4 0.0000 0.0000 0.0000 -83.0060 0.0000 64.2424
# 5 -1.1778 -7.1345 -15.0076 0.0000 36.8457 0.0000
# 6 0.0000 0.0000 0.0000 64.2424 0.0000 -64.4848
#
#
#
# Elastic Compliance Matrix: (Units=1/GPa)
#
#
# Indices 1 2 3 4 5 6 
#
# 1 0.032371 -0.009564 -0.004223 0.000000 -0.002537 0.000000
# 2 -0.009564 0.013636 -0.002683 0.000000 0.001242 0.000000
# 3 -0.004223 -0.002683 0.011647 0.000000 0.004089 0.000000
# 4 0.000000 0.000000 0.000000 -0.052617 0.000000 -0.052420
# 5 -0.002537 0.001242 0.004089 0.000000 0.028965 0.000000
# 6 0.000000 0.000000 0.000000 -0.052420 0.000000 -0.067730
#
#
# Mechanical properties :
#
#
# Convention : Reuss Voigt Hill
#
# Bulk Modulus (GPa) = 40.46718 51.80678 46.13698
# Shear Modulus (GPa) = 671.19335 -11.47120 329.86108
#
# Velocity S-wave (km/s) = 19.07252 -2.49338 13.37057
# Velocity P-wave (km/s) = 22.51547 4.44837 16.22859
#
# Compressibility (1/GPa) = 0.02471139
#
# Stress axis : x y z
#
# Youngs Moduli (GPa) = 30.89212 73.33724 85.86070
#
# Poissons Ratio (x) = 0.70142 0.36263
# Poissons Ratio (y) = 0.29546 0.23037
# Poissons Ratio (z) = 0.13047 0.19677
#
# Static dielectric constant tensor:
#      x y z
#    x 1.627650 0.000000 0.004330 
#    y 0.000000 1.614160 0.000000 
#    z 0.004330 0.000000 1.695770 
# 
# From -- ./inp_files/19679.got.cif
#   From: 2010.05.17/outbox.cif.g08.bks.cpg/sg12_10_cif.got.tgz:19679.got - 2010.06.03 13:09:07.
