data_PCOD9213162
_publ_section_title
;
Structure prediction by ZEFSAII (Michael W. Deem and Ramdas Pophale) SiO2 
 PCOD9213162
Probable space group: C 2/M
;
_chemical_formula_sum "Si O2"
_cell_formula_units_Z 32
_cell_length_a 14.296393
_cell_length_b 10.008328
_cell_length_c 13.420606
_cell_angle_alpha 90.000000
_cell_angle_beta 48.245308
_cell_angle_gamma 90.000000
_cell_volume 1432.519747
_symmetry_space_group_name_H-M "C 2/M"
_symmetry_group_IT_number 12
_symmetry_cell_setting 'monoclinic'
loop_
_space_group_symop_operation_xyz
x,y,z
-x,y,-z
-x,-y,-z
x,-y,z
1/2+x,1/2+y,z
1/2-x,1/2+y,-z
1/2-x,1/2-y,-z
1/2+x,1/2-y,z
loop_
_atom_site_type_symbol
_atom_site_label
_atom_site_fract_x
_atom_site_fract_y
_atom_site_fract_z
Si Si1 0.354784 0.850708 0.090686
Si Si2 0.069565 0.149687 0.656799
Si Si3 0.851021 0.653605 0.798506
Si Si4 0.792766 0.253746 0.630697
O O1 0.277088 0.735329 0.090395
O O2 0.288742 0.849102 0.245896
O O3 0.343503 0.000000 0.056808
O O4 0.500000 0.817262 0.000000
O O5 0.117243 0.182816 0.511568
O O6 0.191602 0.161800 0.639922
O O7 0.967214 0.261020 0.756750
O O8 0.016760 0.000000 0.698783
O O9 0.850192 0.500000 0.828195
O O10 0.859260 0.662771 0.671025
#
# Coordination Sequence:
#
# PCOD9213162 Si02
#       4
#     8   8   8   8
#     4   9  19  38  61  82 108 147 191 232 277 329
#     4  11  21  36  59  86 116 149 186 228 280 337
#     4  10  22  37  56  85 117 148 185 230 281 334
#     4   9  22  36  58  84 115 147 186 229 281 327
#
# _framework density 22.338260999999999
#
# number of rings (size 3 to 8) (size 9 to 14) (size 15 to 20)
#    1.500    0.750    0.000    3.000    0.000    8.500 
#    0.000    1.250    0.000    0.000    0.000    0.000 
#    0.000    0.000    0.000    0.000    0.000    0.000 
#
# Total GULP energy -89256.721655 kJ/mol
# GULP energy per Si atom -5578.545103 kJ/mol
# Density = 2.228742 g / cm^3
# Si number density = 22.338261 Si / 1000 Ang^3
#
#
#
# Elastic Constant Matrix: (Units=GPa)
#
#
# Indices 1 2 3 4 5 6 
#
# 1 80.5587 28.8553 11.9285 0.0000 9.6474 0.0000
# 2 28.8553 181.3569 42.2429 0.0000 -31.8644 0.0000
# 3 11.9285 42.2429 75.6527 0.0000 -13.2163 0.0000
# 4 0.0000 0.0000 0.0000 22.8582 0.0000 -17.9508
# 5 9.6474 -31.8644 -13.2163 0.0000 38.5836 0.0000
# 6 0.0000 0.0000 0.0000 -17.9508 0.0000 19.3040
#
#
#
# Elastic Compliance Matrix: (Units=1/GPa)
#
#
# Indices 1 2 3 4 5 6 
#
# 1 0.014606 -0.003114 -0.001757 0.000000 -0.006826 0.000000
# 2 -0.003114 0.007744 -0.002744 0.000000 0.006234 0.000000
# 3 -0.001757 -0.002744 0.015644 0.000000 0.003532 0.000000
# 4 0.000000 0.000000 0.000000 0.162190 0.000000 0.150821
# 5 -0.006826 0.006234 0.003532 0.000000 0.033983 0.000000
# 6 0.000000 0.000000 0.000000 0.150821 0.000000 0.192052
#
#
# Mechanical properties :
#
#
# Convention : Reuss Voigt Hill
#
# Bulk Modulus (GPa) = 43.92640 55.95795 49.94217
# Shear Modulus (GPa) = 11.13495 33.11859 22.12677
#
# Velocity S-wave (km/s) = 2.23507 3.85462 3.15069
# Velocity P-wave (km/s) = 5.13494 6.70190 5.97005
#
# Compressibility (1/GPa) = 0.02276535
#
# Stress axis : x y z
#
# Youngs Moduli (GPa) = 68.46382 129.13347 63.92035
#
# Poissons Ratio (x) = 0.40213 0.11228
# Poissons Ratio (y) = 0.21320 0.17540
# Poissons Ratio (z) = 0.12027 0.35434
#
# Static dielectric constant tensor:
#      x y z
#    x 1.855350 0.000000 0.031150 
#    y 0.000000 1.776770 0.000000 
#    z 0.031150 0.000000 1.804570 
# 
# From -- ./inp_files/187095.got.cif
#   From: 2010.05.17/outbox.cif.g08.bks.cpg/sg12_94_cif.got.tgz:187095.got - 2010.06.03 13:09:07.
