data_PCOD9213475
_publ_section_title
;
Structure prediction by ZEFSAII (Michael W. Deem and Ramdas Pophale) SiO2 
 PCOD9213475
Probable space group: C 2/M
;
_chemical_formula_sum "Si O2"
_cell_formula_units_Z 48
_cell_length_a 9.766728
_cell_length_b 24.813681
_cell_length_c 11.057429
_cell_angle_alpha 90.000000
_cell_angle_beta 66.485423
_cell_angle_gamma 90.000000
_cell_volume 2457.220746
_symmetry_space_group_name_H-M "C 2/M"
_symmetry_group_IT_number 12
_symmetry_cell_setting 'monoclinic'
loop_
_space_group_symop_operation_xyz
x,y,z
-x,y,-z
-x,-y,-z
x,-y,z
1/2+x,1/2+y,z
1/2-x,1/2+y,-z
1/2-x,1/2-y,-z
1/2+x,1/2-y,z
loop_
_atom_site_type_symbol
_atom_site_label
_atom_site_fract_x
_atom_site_fract_y
_atom_site_fract_z
Si Si1 0.192945 0.860964 0.328786
Si Si2 0.505330 0.901586 0.128400
Si Si3 0.635062 0.633827 0.621117
Si Si4 0.380089 0.216153 0.889112
Si Si5 0.880784 0.436614 0.648404
Si Si6 0.296284 0.739947 0.278099
O O1 0.335572 0.886512 0.217920
O O2 0.171652 0.882966 0.471310
O O3 0.226299 0.797527 0.332884
O O4 0.043195 0.869382 0.305160
O O5 0.594970 0.844994 0.077226
O O6 0.565228 0.927213 0.232414
O O7 0.500000 0.930683 0.000000
O O8 0.731558 0.597321 0.675862
O O9 0.678338 0.696165 0.627591
O O10 0.540016 0.246328 0.835816
O O11 0.320232 0.213619 0.773635
O O12 0.250000 0.250000 0.000000
O O13 0.854314 0.500000 0.640539
O O14 0.000000 0.420005 0.500000
#
# Coordination Sequence:
#
# PCOD9213475 Si02
#       6
#     8   8   8   8   8   8
#     4  10  22  38  58  96 131 170 206 250 327 376
#     4  11  23  41  65  93 134 167 212 264 312 388
#     4  11  21  39  62  90 129 164 210 268 313 381
#     4  11  21  35  54  88 131 179 210 243 309 384
#     4  11  24  46  72  95 120 162 220 275 330 379
#     4  11  20  34  55  87 130 169 211 254 303 382
#
# _framework density 19.534264
#
# number of rings (size 3 to 8) (size 9 to 14) (size 15 to 20)
#    0.000    1.167    5.000    3.000    0.000    0.333 
#    3.000    3.333    0.000    1.000    0.000    0.000 
#    0.000    0.000    0.000    0.000    0.000    0.000 
#
# Total GULP energy -133910.000802 kJ/mol
# GULP energy per Si atom -5579.583367 kJ/mol
# Density = 1.948980 g / cm^3
# Si number density = 19.534264 Si / 1000 Ang^3
#
#
#
# Elastic Constant Matrix: (Units=GPa)
#
#
# Indices 1 2 3 4 5 6 
#
# 1 152.7401 37.8671 37.4802 0.0000 5.6667 0.0000
# 2 37.8671 56.1963 18.4126 0.0000 -7.7165 0.0000
# 3 37.4802 18.4126 68.0260 0.0000 12.6737 0.0000
# 4 0.0000 0.0000 0.0000 16.0658 0.0000 5.7262
# 5 5.6667 -7.7165 12.6737 0.0000 32.2005 0.0000
# 6 0.0000 0.0000 0.0000 5.7262 0.0000 10.5957
#
#
#
# Elastic Compliance Matrix: (Units=1/GPa)
#
#
# Indices 1 2 3 4 5 6 
#
# 1 0.008601 -0.004978 -0.003116 0.000000 -0.001480 0.000000
# 2 -0.004978 0.024136 -0.005429 0.000000 0.008797 0.000000
# 3 -0.003116 -0.005429 0.019453 0.000000 -0.008409 0.000000
# 4 0.000000 0.000000 0.000000 0.077094 0.000000 -0.041664
# 5 -0.001480 0.008797 -0.008409 0.000000 0.036734 0.000000
# 6 0.000000 0.000000 0.000000 -0.041664 0.000000 0.116894
#
#
# Mechanical properties :
#
#
# Convention : Reuss Voigt Hill
#
# Bulk Modulus (GPa) = 39.77020 51.60913 45.68966
# Shear Modulus (GPa) = 15.70658 23.98589 19.84624
#
# Velocity S-wave (km/s) = 2.83866 3.50793 3.19089
# Velocity P-wave (km/s) = 5.58098 6.54863 6.08407
#
# Compressibility (1/GPa) = 0.02514446
#
# Stress axis : x y z
#
# Youngs Moduli (GPa) = 116.27097 41.43231 51.40598
#
# Poissons Ratio (x) = 0.20624 0.16016
# Poissons Ratio (y) = 0.57878 0.27909
# Poissons Ratio (z) = 0.36225 0.22494
#
# Static dielectric constant tensor:
#      x y z
#    x 1.682540 0.000000 0.037230 
#    y 0.000000 1.669010 0.000000 
#    z 0.037230 0.000000 1.758730 
# 
# From -- ./inp_files/122415.got.cif
#   From: 2010.05.17/outbox.cif.g08.bks.cpg/sg12_62_cif.got.tgz:122415.got - 2010.06.03 13:09:07.
