data_PCOD9213922
_publ_section_title
;
Structure prediction by ZEFSAII (Michael W. Deem and Ramdas Pophale) SiO2 
 PCOD9213922
Probable space group: C 2/M
;
_chemical_formula_sum "Si O2"
_cell_formula_units_Z 32
_cell_length_a 10.717626
_cell_length_b 16.084499
_cell_length_c 16.834206
_cell_angle_alpha 90.000000
_cell_angle_beta 32.481922
_cell_angle_gamma 90.000000
_cell_volume 1558.476041
_symmetry_space_group_name_H-M "C 2/M"
_symmetry_group_IT_number 12
_symmetry_cell_setting 'monoclinic'
loop_
_space_group_symop_operation_xyz
x,y,z
-x,y,-z
-x,-y,-z
x,-y,z
1/2+x,1/2+y,z
1/2-x,1/2+y,-z
1/2-x,1/2-y,-z
1/2+x,1/2-y,z
loop_
_atom_site_type_symbol
_atom_site_label
_atom_site_fract_x
_atom_site_fract_y
_atom_site_fract_z
Si Si1 0.270284 0.500000 0.372737
Si Si2 0.469758 0.329552 0.295702
Si Si3 0.662443 0.156877 0.027868
Si Si4 0.324172 0.291992 0.658185
Si Si5 0.919068 0.000000 0.953637
O O1 0.347882 0.417308 0.377517
O O2 0.395695 0.500000 0.218459
O O3 0.000000 0.500000 0.500000
O O4 0.526311 0.274208 0.342596
O O5 0.301445 0.283058 0.322625
O O6 0.718550 0.352595 0.121987
O O7 0.391313 0.155021 0.193256
O O8 0.750000 0.250000 0.000000
O O9 0.776481 0.084489 0.017857
O O10 0.500000 0.331105 0.500000
O O11 0.000000 0.000000 0.000000
#
# Coordination Sequence:
#
# PCOD9213922 Si02
#       5
#     4   8   8   8   4
#     4  10  22  39  60  87 119 155 193 245 303 352
#     4  10  22  40  61  86 118 157 197 241 297 357
#     4   9  21  38  59  86 119 158 196 241 297 354
#     4  11  22  37  61  90 118 154 200 247 292 349
#     4  10  22  39  62  91 121 157 205 249 294 358
#
# _framework density 20.532879000000001
#
# number of rings (size 3 to 8) (size 9 to 14) (size 15 to 20)
#    0.000    2.000    0.000    2.250    0.000   15.000 
#    0.000    5.000    0.000    1.500    0.000    0.000 
#    0.000    0.000    0.000    0.000    0.000    0.000 
#
# Total GULP energy -89084.123536 kJ/mol
# GULP energy per Si atom -5567.757721 kJ/mol
# Density = 2.048615 g / cm^3
# Si number density = 20.532879 Si / 1000 Ang^3
#
#
#
# Elastic Constant Matrix: (Units=GPa)
#
#
# Indices 1 2 3 4 5 6 
#
# 1 140.3610 67.9279 37.6480 0.0017 11.0323 -0.0014
# 2 67.9279 106.1168 20.3917 -0.0015 -6.0147 -0.0001
# 3 37.6480 20.3917 119.0592 0.0015 -29.8739 -0.0010
# 4 0.0017 -0.0015 0.0015 21.4326 -0.0016 -8.7072
# 5 11.0323 -6.0147 -29.8739 -0.0016 27.9131 0.0017
# 6 -0.0014 -0.0001 -0.0010 -8.7072 0.0017 28.3305
#
#
#
# Elastic Compliance Matrix: (Units=1/GPa)
#
#
# Indices 1 2 3 4 5 6 
#
# 1 0.014289 -0.008689 -0.006722 -0.000002 -0.014714 0.000001
# 2 -0.008689 0.015032 0.002526 0.000002 0.009376 0.000000
# 3 -0.006722 0.002526 0.014896 0.000001 0.019143 -0.000001
# 4 -0.000002 0.000002 0.000001 0.053315 0.000004 0.016386
# 5 -0.014714 0.009376 0.019143 0.000004 0.064150 -0.000003
# 6 0.000001 0.000000 -0.000001 0.016386 -0.000003 0.040334
#
#
# Mechanical properties :
#
#
# Convention : Reuss Voigt Hill
#
# Bulk Modulus (GPa) = 54.21437 68.60802 61.41120
# Shear Modulus (GPa) = 21.37348 31.50652 26.44000
#
# Velocity S-wave (km/s) = 3.22986 3.92145 3.59233
# Velocity P-wave (km/s) = 6.35376 7.34778 6.86878
#
# Compressibility (1/GPa) = 0.01844529
#
# Stress axis : x y z
#
# Youngs Moduli (GPa) = 69.98283 66.52568 67.13387
#
# Poissons Ratio (x) = 0.57805 0.45130
# Poissons Ratio (y) = 0.60809 -0.16957
# Poissons Ratio (z) = 0.47045 -0.16803
#
# Static dielectric constant tensor:
#      x y z
#    x 1.810890 0.000000 -0.012650 
#    y 0.000000 1.685770 0.000000 
#    z -0.012650 0.000000 1.787210 
# 
# From -- ./inp_files/45442.got.cif
#   From: 2010.05.17/outbox.cif.g08.bks.cpg/sg12_23_cif.got.tgz:45442.got - 2010.06.03 13:09:07.
