data_PCOD9213128
_publ_section_title
;
Structure prediction by ZEFSAII (Michael W. Deem and Ramdas Pophale) SiO2 
 PCOD9213128
Probable space group: C 2/M
;
_chemical_formula_sum "Si O2"
_cell_formula_units_Z 60
_cell_length_a 5.593014
_cell_length_b 27.851152
_cell_length_c 24.539654
_cell_angle_alpha 90.000000
_cell_angle_beta 65.681898
_cell_angle_gamma 90.000000
_cell_volume 3483.422169
_symmetry_space_group_name_H-M "C 2/M"
_symmetry_group_IT_number 12
_symmetry_cell_setting 'monoclinic'
loop_
_space_group_symop_operation_xyz
x,y,z
-x,y,-z
-x,-y,-z
x,-y,z
1/2+x,1/2+y,z
1/2-x,1/2+y,-z
1/2-x,1/2-y,-z
1/2+x,1/2-y,z
loop_
_atom_site_type_symbol
_atom_site_label
_atom_site_fract_x
_atom_site_fract_y
_atom_site_fract_z
Si Si1 0.807298 0.058574 0.968297
Si Si2 0.758254 0.873796 0.559571
Si Si3 0.173188 0.558427 0.762835
Si Si4 0.000000 0.299753 0.500000
Si Si5 0.551380 0.557650 0.831035
Si Si6 0.326805 0.726187 0.368870
Si Si7 0.626651 0.946317 0.428060
Si Si8 0.950409 0.126779 0.649948
O O1 0.931356 0.075173 0.899434
O O2 0.806090 0.000000 0.968951
O O3 0.500000 0.073141 0.000000
O O4 0.000000 0.073149 0.000000
O O5 0.627963 0.835522 0.531810
O O6 0.591871 0.921201 0.588051
O O7 0.799528 0.849351 0.613454
O O8 0.000000 0.889842 0.500000
O O9 0.196717 0.500000 0.749431
O O10 0.354273 0.568648 0.799307
O O11 0.288892 0.594448 0.706576
O O12 0.861434 0.569700 0.797083
O O13 0.791702 0.272705 0.557590
O O14 0.549568 0.500000 0.834166
O O15 0.609112 0.751437 0.349405
O O16 0.378589 0.671098 0.344848
O O17 0.500000 0.946287 0.500000
O O18 0.867728 0.911096 0.399256
O O19 0.692513 0.000000 0.405911
#
# Coordination Sequence:
#
# PCOD9213128 Si02
#       8
#     8   8   8   4   8   8   8   8
#     4   9  15  24  44  72 102 139 178 221 261 285
#     4  12  20  38  57  74 101 129 159 215 276 334
#     4  10  22  37  54  74 101 145 184 220 258 299
#     4  12  22  40  57  80  98 126 153 210 286 356
#     4   9  18  33  49  73 107 139 186 226 249 295
#     4  12  26  40  61  84 101 127 163 212 280 343
#     4  11  22  36  53  74  98 128 166 213 270 322
#     4  12  25  39  57  73 104 130 177 219 268 333
#
# _framework density 17.224440999999999
#
# number of rings (size 3 to 8) (size 9 to 14) (size 15 to 20)
#    0.000    1.200    4.667    2.400    1.867    4.533 
#    0.000    0.000    0.000    0.000    0.000    0.000 
#    0.000    0.000    0.000    0.000    0.000   46.667 
#
# Total GULP energy -167139.374702 kJ/mol
# GULP energy per Si atom -5571.312490 kJ/mol
# Density = 1.718524 g / cm^3
# Si number density = 17.224441 Si / 1000 Ang^3
#
#
#
# Elastic Constant Matrix: (Units=GPa)
#
#
# Indices 1 2 3 4 5 6 
#
# 1 126.4365 25.9234 54.9934 0.0000 -5.9554 0.0000
# 2 25.9234 60.2426 13.0329 0.0000 -9.9581 0.0000
# 3 54.9934 13.0329 100.3231 0.0000 -9.5228 0.0000
# 4 0.0000 0.0000 0.0000 7.3024 0.0000 -3.9822
# 5 -5.9554 -9.9581 -9.5228 0.0000 23.4438 0.0000
# 6 0.0000 0.0000 0.0000 -3.9822 0.0000 17.0075
#
#
#
# Elastic Compliance Matrix: (Units=1/GPa)
#
#
# Indices 1 2 3 4 5 6 
#
# 1 0.011103 -0.003722 -0.005705 0.000000 -0.001078 0.000000
# 2 -0.003722 0.019372 0.000223 0.000000 0.007374 0.000000
# 3 -0.005705 0.000223 0.013456 0.000000 0.004112 0.000000
# 4 0.000000 0.000000 0.000000 0.156987 0.000000 0.036758
# 5 -0.001078 0.007374 0.004112 0.000000 0.047184 0.000000
# 6 0.000000 0.000000 0.000000 0.036758 0.000000 0.067404
#
#
# Mechanical properties :
#
#
# Convention : Reuss Voigt Hill
#
# Bulk Modulus (GPa) = 39.17828 52.76684 45.97256
# Shear Modulus (GPa) = 14.60194 22.42088 18.51141
#
# Velocity S-wave (km/s) = 2.91477 3.61181 3.28185
# Velocity P-wave (km/s) = 5.84148 6.93505 6.41162
#
# Compressibility (1/GPa) = 0.02552435
#
# Stress axis : x y z
#
# Youngs Moduli (GPa) = 90.06765 51.62201 74.31464
#
# Poissons Ratio (x) = 0.19212 0.42396
# Poissons Ratio (y) = 0.33520 -0.01661
# Poissons Ratio (z) = 0.51383 -0.01153
#
# Static dielectric constant tensor:
#      x y z
#    x 1.830740 0.000000 0.025550 
#    y 0.000000 1.591730 0.000000 
#    z 0.025550 0.000000 1.591210 
# 
# From -- ./inp_files/331585.got.cif
#   From: 2010.05.17/outbox.cif.g08.bks.cpg/sg12_166_cif.got.tgz:331585.got - 2010.06.03 13:09:07.
