data_PCOD9213222
_publ_section_title
;
Structure prediction by ZEFSAII (Michael W. Deem and Ramdas Pophale) SiO2 
 PCOD9213222
Probable space group: C 2/M
;
_chemical_formula_sum "Si O2"
_cell_formula_units_Z 64
_cell_length_a 27.774732
_cell_length_b 19.488037
_cell_length_c 12.196349
_cell_angle_alpha 90.000000
_cell_angle_beta 30.052921
_cell_angle_gamma 90.000000
_cell_volume 3306.068631
_symmetry_space_group_name_H-M "C 2/M"
_symmetry_group_IT_number 12
_symmetry_cell_setting 'monoclinic'
loop_
_space_group_symop_operation_xyz
x,y,z
-x,y,-z
-x,-y,-z
x,-y,z
1/2+x,1/2+y,z
1/2-x,1/2+y,-z
1/2-x,1/2-y,-z
1/2+x,1/2-y,z
loop_
_atom_site_type_symbol
_atom_site_label
_atom_site_fract_x
_atom_site_fract_y
_atom_site_fract_z
Si Si1 0.237792 0.077916 0.610699
Si Si2 0.067754 0.736768 0.068852
Si Si3 0.247045 0.817101 0.394378
Si Si4 0.029581 0.890898 0.068576
Si Si5 0.387629 0.422314 0.739390
Si Si6 0.710613 0.288873 0.970273
Si Si7 0.343231 0.425771 0.573269
Si Si8 0.643625 0.812479 0.511577
O O1 0.223474 0.130800 0.538329
O O2 0.321562 0.113887 0.514506
O O3 0.258513 0.000000 0.537266
O O4 0.136115 0.079522 0.874339
O O5 0.038743 0.810409 0.076364
O O6 0.969524 0.695892 0.277623
O O7 0.141832 0.701499 0.839085
O O8 0.128114 0.750052 0.061650
O O9 0.216073 0.861172 0.350220
O O10 0.185873 0.746846 0.510372
O O11 0.948418 0.919398 0.309820
O O12 0.000000 0.903411 0.000000
O O13 0.500000 0.406047 0.500000
O O14 0.380038 0.500000 0.800764
O O15 0.347994 0.423973 0.694021
O O16 0.334654 0.362534 0.909093
O O17 0.799613 0.298387 0.712397
O O18 0.750000 0.250000 0.000000
O O19 0.303129 0.500000 0.617555
#
# Coordination Sequence:
#
# PCOD9213222 Si02
#       8
#     8   8   8   8   8   8   8   8
#     4  12  25  41  62  95 130 167 210 256 312 376
#     4  11  24  41  64  95 122 164 211 263 308 374
#     4  11  22  39  64  89 124 165 212 252 308 371
#     4  12  22  36  65  94 131 164 200 256 319 379
#     4  10  22  37  59  89 125 163 196 252 325 380
#     4  11  24  40  66  94 124 163 211 267 313 370
#     4  11  22  37  58  91 130 161 200 256 317 381
#     4  11  24  43  63  90 127 168 209 257 315 369
#
# _framework density 19.358339999999998
#
# number of rings (size 3 to 8) (size 9 to 14) (size 15 to 20)
#    0.000    0.875    5.000    3.375    3.500    1.000 
#    0.000    1.875    0.000    0.750    0.000    3.500 
#    0.000    0.000    0.000    0.000    0.000    0.000 
#
# Total GULP energy -178834.404415 kJ/mol
# GULP energy per Si atom -5588.575138 kJ/mol
# Density = 1.931428 g / cm^3
# Si number density = 19.358340 Si / 1000 Ang^3
#
#
#
# Elastic Constant Matrix: (Units=GPa)
#
#
# Indices 1 2 3 4 5 6 
#
# 1 52.6764 12.6960 34.3474 0.0000 -0.6994 0.0000
# 2 12.6960 111.5187 38.4981 0.0000 -0.6569 0.0000
# 3 34.3474 38.4981 109.7120 0.0000 -12.8687 0.0000
# 4 0.0000 0.0000 0.0000 -1.0790 0.0000 2.4460
# 5 -0.6994 -0.6569 -12.8687 0.0000 34.2186 0.0000
# 6 0.0000 0.0000 0.0000 2.4460 0.0000 13.2251
#
#
#
# Elastic Compliance Matrix: (Units=1/GPa)
#
#
# Indices 1 2 3 4 5 6 
#
# 1 0.024048 -0.000062 -0.007793 0.000000 -0.002441 0.000000
# 2 -0.000062 0.010251 -0.003719 0.000000 -0.001203 0.000000
# 3 -0.007793 -0.003719 0.013425 0.000000 0.004818 0.000000
# 4 0.000000 0.000000 0.000000 -0.652981 0.000000 0.120770
# 5 -0.002441 -0.001203 0.004818 0.000000 0.030963 0.000000
# 6 0.000000 0.000000 0.000000 0.120770 0.000000 0.053277
#
#
# Mechanical properties :
#
#
# Convention : Reuss Voigt Hill
#
# Bulk Modulus (GPa) = 40.69054 49.44334 45.06694
# Shear Modulus (GPa) = -10.21079 21.83063 5.80992
#
# Velocity S-wave (km/s) = -2.29915 3.36179 1.73429
# Velocity P-wave (km/s) = 3.74395 6.37694 5.22889
#
# Compressibility (1/GPa) = 0.02457574
#
# Stress axis : x y z
#
# Youngs Moduli (GPa) = 41.58376 97.55287 74.48981
#
# Poissons Ratio (x) = 0.00603 0.58052
# Poissons Ratio (y) = 0.00257 0.27701
# Poissons Ratio (z) = 0.32407 0.36278
#
# Static dielectric constant tensor:
#      x y z
#    x 1.739850 0.000000 0.018130 
#    y 0.000000 1.864760 0.000000 
#    z 0.018130 0.000000 1.650030 
# 
# From -- ./inp_files/190008.got.cif
#   From: 2010.05.17/outbox.cif.g08.bks.cpg/sg12_96_cif.got.tgz:190008.got - 2010.06.03 13:09:07.
