data_PCOD9213563
_publ_section_title
;
Structure prediction by ZEFSAII (Michael W. Deem and Ramdas Pophale) SiO2 
 PCOD9213563
Probable space group: C 2/M
;
_chemical_formula_sum "Si O2"
_cell_formula_units_Z 58
_cell_length_a 9.259340
_cell_length_b 22.321108
_cell_length_c 24.391048
_cell_angle_alpha 90.000000
_cell_angle_beta 37.456711
_cell_angle_gamma 90.000000
_cell_volume 3065.811250
_symmetry_space_group_name_H-M "C 2/M"
_symmetry_group_IT_number 12
_symmetry_cell_setting 'monoclinic'
loop_
_space_group_symop_operation_xyz
x,y,z
-x,y,-z
-x,-y,-z
x,-y,z
1/2+x,1/2+y,z
1/2-x,1/2+y,-z
1/2-x,1/2-y,-z
1/2+x,1/2-y,z
loop_
_atom_site_type_symbol
_atom_site_label
_atom_site_fract_x
_atom_site_fract_y
_atom_site_fract_z
Si Si1 0.880064 0.110007 0.877819
Si Si2 0.500000 0.000000 0.000000
Si Si3 0.942864 0.801412 0.953369
Si Si4 0.091976 0.139830 0.410089
Si Si5 0.434360 0.880710 0.682147
Si Si6 0.372699 0.258421 0.684574
Si Si7 0.375407 0.279411 0.802113
Si Si8 0.852843 0.570576 0.492890
O O1 0.870665 0.140614 0.940690
O O2 0.800914 0.161397 0.857646
O O3 0.164585 0.102383 0.779815
O O4 0.707942 0.053091 0.928134
O O5 0.179807 0.771804 0.858072
O O6 0.750000 0.750000 0.000000
O O7 0.000000 0.811891 0.000000
O O8 0.360488 0.114104 0.333326
O O9 0.073628 0.203142 0.385012
O O10 0.000000 0.144533 0.500000
O O11 0.908717 0.097582 0.433866
O O12 0.456218 0.810085 0.659952
O O13 0.511079 0.916253 0.604905
O O14 0.451939 0.291320 0.716427
O O15 0.089682 0.250902 0.769744
O O16 0.830908 0.500000 0.506693
O O17 0.000000 0.595870 0.500000
#
# Coordination Sequence:
#
# PCOD9213563 Si02
#       8
#     8   2   8   8   8   8   8   8
#     4  11  24  42  65  95 134 175 222 266 335 393
#     4  12  28  48  62  96 132 184 230 274 320 406
#     4  12  20  35  65  98 127 160 208 275 344 402
#     4  10  22  38  60  93 131 170 210 259 325 377
#     4  10  22  39  63  92 125 172 206 260 327 383
#     4  11  20  36  59  95 133 157 205 261 327 394
#     4  11  20  37  62  93 129 161 210 265 332 398
#     4  10  24  42  62  90 127 166 227 269 303 368
#
# _framework density 18.918320000000001
#
# number of rings (size 3 to 8) (size 9 to 14) (size 15 to 20)
#    0.000    1.241    5.517    0.828    4.828    5.241 
#    0.000    0.345    0.000    0.000    0.000    0.000 
#    0.000    0.000    0.000    0.000    0.000    0.000 
#
# Total GULP energy -161459.438825 kJ/mol
# GULP energy per Si atom -5567.566856 kJ/mol
# Density = 1.887526 g / cm^3
# Si number density = 18.918320 Si / 1000 Ang^3
#
#
#
# Elastic Constant Matrix: (Units=GPa)
#
#
# Indices 1 2 3 4 5 6 
#
# 1 119.8740 42.7342 25.0432 -0.0124 -6.9077 0.0112
# 2 42.7342 102.2819 31.1643 -0.0142 -8.9088 0.0124
# 3 25.0432 31.1643 41.6064 -0.0233 -23.9591 0.0168
# 4 -0.0124 -0.0142 -0.0233 32.2715 0.0060 -7.1581
# 5 -6.9077 -8.9088 -23.9591 0.0060 29.2365 -0.0073
# 6 0.0112 0.0124 0.0168 -7.1581 -0.0073 20.5130
#
#
#
# Elastic Compliance Matrix: (Units=1/GPa)
#
#
# Indices 1 2 3 4 5 6 
#
# 1 0.010423 -0.002771 -0.006185 -0.000001 -0.003451 -0.000001
# 2 -0.002771 0.014314 -0.013103 -0.000003 -0.007030 0.000000
# 3 -0.006185 -0.013103 0.065199 0.000026 0.047977 -0.000016
# 4 -0.000001 -0.000003 0.000026 0.033587 0.000017 0.011720
# 5 -0.003451 -0.007030 0.047977 0.000017 0.070563 -0.000002
# 6 -0.000001 0.000000 -0.000016 0.011720 -0.000002 0.052839
#
#
# Mechanical properties :
#
#
# Convention : Reuss Voigt Hill
#
# Bulk Modulus (GPa) = 21.82474 51.29397 36.55936
# Shear Modulus (GPa) = 16.32298 27.39223 21.85761
#
# Velocity S-wave (km/s) = 2.94056 3.80928 3.40276
# Velocity P-wave (km/s) = 4.80526 6.82054 5.89959
#
# Compressibility (1/GPa) = 0.04581955
#
# Stress axis : x y z
#
# Youngs Moduli (GPa) = 95.93938 69.85951 15.33757
#
# Poissons Ratio (x) = 0.19357 0.09487
# Poissons Ratio (y) = 0.26583 0.20096
# Poissons Ratio (z) = 0.59342 0.91534
#
# Static dielectric constant tensor:
#      x y z
#    x 1.961470 0.000000 -0.007160 
#    y 0.000000 1.637350 0.000000 
#    z -0.007160 0.000000 1.743940 
# 
# From -- ./inp_files/258529.got.cif
#   From: 2010.05.17/outbox.cif.g08.bks.cpg/sg12_130_cif.got.tgz:258529.got - 2010.06.03 13:09:07.
