data_PCOD9213892
_publ_section_title
;
Structure prediction by ZEFSAII (Michael W. Deem and Ramdas Pophale) SiO2 
 PCOD9213892
Probable space group: C 2/M
;
_chemical_formula_sum "Si O2"
_cell_formula_units_Z 48
_cell_length_a 26.764266
_cell_length_b 16.395859
_cell_length_c 5.792076
_cell_angle_alpha 90.000000
_cell_angle_beta 115.752251
_cell_angle_gamma 90.000000
_cell_volume 2289.258565
_symmetry_space_group_name_H-M "C 2/M"
_symmetry_group_IT_number 12
_symmetry_cell_setting 'monoclinic'
loop_
_space_group_symop_operation_xyz
x,y,z
-x,y,-z
-x,-y,-z
x,-y,z
1/2+x,1/2+y,z
1/2-x,1/2+y,-z
1/2-x,1/2-y,-z
1/2+x,1/2-y,z
loop_
_atom_site_type_symbol
_atom_site_label
_atom_site_fract_x
_atom_site_fract_y
_atom_site_fract_z
Si Si1 0.351851 0.171410 0.884098
Si Si2 0.368588 0.325389 0.605623
Si Si3 0.652918 0.000000 0.184119
Si Si4 0.739469 0.342740 0.897122
Si Si5 0.284041 0.000000 0.198086
Si Si6 0.447567 0.411514 0.066870
Si Si7 0.559483 0.746596 0.623947
O O1 0.347574 0.249411 0.712777
O O2 0.288611 0.147254 0.810637
O O3 0.378068 0.086697 0.851552
O O4 0.389484 0.201464 0.172876
O O5 0.321140 0.350099 0.332538
O O6 0.421421 0.287430 0.581861
O O7 0.391608 0.398095 0.806693
O O8 0.691009 0.000000 0.493971
O O9 0.675463 0.000000 0.955125
O O10 0.750000 0.250000 0.000000
O O11 0.749966 0.415627 0.098442
O O12 0.446890 0.500000 0.184198
O O13 0.448861 0.333670 0.234700
O O14 0.500000 0.410495 0.000000
O O15 0.500000 0.789845 0.500000
#
# Coordination Sequence:
#
# PCOD9213892 Si02
#       7
#     8   8   4   8   4   8   8
#     4  10  23  40  66  92 122 172 206 272 325 395
#     4  11  22  38  63  88 127 166 212 262 322 386
#     4  10  22  44  67  93 131 165 220 262 336 391
#     4  11  21  40  62  95 126 166 215 261 330 392
#     4  10  24  40  64  96 134 174 208 274 320 397
#     4  10  22  39  59  87 126 172 216 260 314 377
#     4  11  22  40  60  92 123 165 216 265 319 383
#
# _framework density 20.967487999999999
#
# number of rings (size 3 to 8) (size 9 to 14) (size 15 to 20)
#    0.000    1.500    3.333    1.500    3.500    2.333 
#    0.000    0.417    0.000    1.000    0.000    0.000 
#    0.000    0.000    0.000    0.000    0.000    0.000 
#
# Total GULP energy -133739.711523 kJ/mol
# GULP energy per Si atom -5572.487980 kJ/mol
# Density = 2.091977 g / cm^3
# Si number density = 20.967488 Si / 1000 Ang^3
#
#
#
# Elastic Constant Matrix: (Units=GPa)
#
#
# Indices 1 2 3 4 5 6 
#
# 1 45.6103 -19.9175 -6.8673 0.0000 10.8694 0.0000
# 2 -19.9175 114.6095 13.2567 0.0000 4.2562 0.0000
# 3 -6.8673 13.2567 71.8416 0.0000 12.3926 0.0000
# 4 0.0000 0.0000 0.0000 11.5496 0.0000 -2.7084
# 5 10.8694 4.2562 12.3926 0.0000 26.0078 0.0000
# 6 0.0000 0.0000 0.0000 -2.7084 0.0000 -14.4907
#
#
#
# Elastic Compliance Matrix: (Units=1/GPa)
#
#
# Indices 1 2 3 4 5 6 
#
# 1 0.028232 0.004952 0.004315 0.000000 -0.014665 0.000000
# 2 0.004952 0.009797 -0.000764 0.000000 -0.003309 0.000000
# 3 0.004315 -0.000764 0.016084 0.000000 -0.009342 0.000000
# 4 0.000000 0.000000 0.000000 0.082947 0.000000 -0.015503
# 5 -0.014665 -0.003309 -0.009342 0.000000 0.049572 0.000000
# 6 0.000000 0.000000 0.000000 -0.015503 0.000000 -0.066112
#
#
# Mechanical properties :
#
#
# Convention : Reuss Voigt Hill
#
# Bulk Modulus (GPa) = 14.06098 22.77835 18.41967
# Shear Modulus (GPa) = 39.30150 20.98597 30.14374
#
# Velocity S-wave (km/s) = 4.33413 3.16710 3.79574
# Velocity P-wave (km/s) = 5.63622 4.92558 5.29284
#
# Compressibility (1/GPa) = 0.07111878
#
# Stress axis : x y z
#
# Youngs Moduli (GPa) = 35.42114 102.07161 62.17188
#
# Poissons Ratio (x) = -0.50544 -0.26825
# Poissons Ratio (y) = -0.17540 0.04748
# Poissons Ratio (z) = -0.15283 0.07795
#
# Static dielectric constant tensor:
#      x y z
#    x 1.840630 0.000000 -0.020730 
#    y 0.000000 1.840630 0.000000 
#    z -0.020730 0.000000 1.767780 
# 
# From -- ./inp_files/24798.got.cif
#   From: 2010.05.17/outbox.cif.g08.bks.cpg/sg12_13_cif.got.tgz:24798.got - 2010.06.03 13:09:07.
