data_PCOD9213579
_publ_section_title
;
Structure prediction by ZEFSAII (Michael W. Deem and Ramdas Pophale) SiO2 
 PCOD9213579
Probable space group: C 2/M
;
_chemical_formula_sum "Si O2"
_cell_formula_units_Z 64
_cell_length_a 19.773028
_cell_length_b 8.048459
_cell_length_c 31.227344
_cell_angle_alpha 90.000000
_cell_angle_beta 38.522392
_cell_angle_gamma 90.000000
_cell_volume 3095.165132
_symmetry_space_group_name_H-M "C 2/M"
_symmetry_group_IT_number 12
_symmetry_cell_setting 'monoclinic'
loop_
_space_group_symop_operation_xyz
x,y,z
-x,y,-z
-x,-y,-z
x,-y,z
1/2+x,1/2+y,z
1/2-x,1/2+y,-z
1/2-x,1/2-y,-z
1/2+x,1/2-y,z
loop_
_atom_site_type_symbol
_atom_site_label
_atom_site_fract_x
_atom_site_fract_y
_atom_site_fract_z
Si Si1 0.708118 0.701844 0.716306
Si Si2 0.783966 0.200623 0.435535
Si Si3 0.624653 0.202885 0.437694
Si Si4 0.240485 0.193366 0.795368
Si Si5 0.876817 0.302218 0.060285
Si Si6 0.781717 0.800564 0.936701
Si Si7 0.971608 0.809455 0.701768
Si Si8 0.516159 0.809199 0.212741
O O1 0.704756 0.500000 0.718359
O O2 0.813727 0.750443 0.636536
O O3 0.705771 0.761638 0.766345
O O4 0.603627 0.767192 0.743404
O O5 0.750000 0.250000 0.500000
O O6 0.698555 0.258279 0.441524
O O7 0.907585 0.258894 0.366307
O O8 0.786765 0.000000 0.430820
O O9 0.500000 0.259994 0.500000
O O10 0.622794 0.000000 0.440125
O O11 0.184784 0.273546 0.864354
O O12 0.370563 0.212423 0.732525
O O13 0.211754 0.000000 0.811419
O O14 0.885030 0.500000 0.049807
O O15 0.804318 0.238742 0.056543
O O16 0.000000 0.234626 0.000000
O O17 0.897894 0.726262 0.866801
O O18 0.788059 0.000000 0.930898
O O19 0.750000 0.750000 0.000000
O O20 0.955418 0.803260 0.760790
O O21 0.966580 0.000000 0.689192
O O22 0.524182 0.000000 0.222560
#
# Coordination Sequence:
#
# PCOD9213579 Si02
#       8
#     8   8   8   8   8   8   8   8
#     4  10  22  41  62  90 125 161 206 254 309 369
#     4  10  22  38  61  89 121 159 203 251 308 370
#     4   9  18  36  61  85 117 161 203 246 301 365
#     4  11  24  39  63  96 123 158 207 258 303 362
#     4  10  23  43  64  87 123 167 204 245 304 368
#     4  11  24  42  65  93 127 165 203 253 308 363
#     4  11  22  41  64  87 123 167 205 254 313 369
#     4  12  24  40  65  93 122 160 210 262 307 363
#
# _framework density 20.677409999999998
#
# number of rings (size 3 to 8) (size 9 to 14) (size 15 to 20)
#    0.000    1.500    2.500    2.250    3.500    2.750 
#    0.000    0.000    0.000    0.750    0.000    0.000 
#    0.000    0.000    0.000    0.000    0.000    0.000 
#
# Total GULP energy -178801.700677 kJ/mol
# GULP energy per Si atom -5587.553146 kJ/mol
# Density = 2.063035 g / cm^3
# Si number density = 20.677410 Si / 1000 Ang^3
#
#
#
# Elastic Constant Matrix: (Units=GPa)
#
#
# Indices 1 2 3 4 5 6 
#
# 1 58.5252 3.9787 8.0086 0.0040 4.2032 0.0223
# 2 3.9787 20.0010 2.8644 0.0055 -3.6034 0.0017
# 3 8.0086 2.8644 107.7566 -0.0013 -4.9138 0.0007
# 4 0.0040 0.0055 -0.0013 20.3871 -0.0023 4.7946
# 5 4.2032 -3.6034 -4.9138 -0.0023 40.0155 0.0009
# 6 0.0223 0.0017 0.0007 4.7946 0.0009 19.5027
#
#
#
# Elastic Compliance Matrix: (Units=1/GPa)
#
#
# Indices 1 2 3 4 5 6 
#
# 1 0.017692 -0.003755 -0.001323 0.000002 -0.002359 -0.000020
# 2 -0.003755 0.051761 -0.000871 -0.000013 0.004948 0.000003
# 3 -0.001323 -0.000871 0.009457 0.000001 0.001222 0.000001
# 4 0.000002 -0.000013 0.000001 0.052060 0.000002 -0.012799
# 5 -0.002359 0.004948 0.001222 0.000002 0.025834 0.000001
# 6 -0.000020 0.000003 0.000001 -0.012799 0.000001 0.054421
#
#
# Mechanical properties :
#
#
# Convention : Reuss Voigt Hill
#
# Bulk Modulus (GPa) = 14.92255 23.99847 19.46051
# Shear Modulus (GPa) = 20.36982 27.40982 23.88982
#
# Velocity S-wave (km/s) = 3.14207 3.64482 3.40274
# Velocity P-wave (km/s) = 4.51619 5.41703 4.98700
#
# Compressibility (1/GPa) = 0.06701267
#
# Stress axis : x y z
#
# Youngs Moduli (GPa) = 56.52160 19.31970 105.73789
#
# Poissons Ratio (x) = 0.07255 0.13986
# Poissons Ratio (y) = 0.21224 0.09212
# Poissons Ratio (z) = 0.07476 0.01683
#
# Static dielectric constant tensor:
#      x y z
#    x 1.724080 0.000000 -0.008500 
#    y 0.000000 1.728870 0.000000 
#    z -0.008500 0.000000 1.726480 
# 
# From -- ./inp_files/377971.got.cif
#   From: 2010.05.17/outbox.cif.g08.bks.cpg/sg12_189_cif.got.tgz:377971.got - 2010.06.03 13:09:07.
