data_PCOD9213705
_publ_section_title
;
Structure prediction by ZEFSAII (Michael W. Deem and Ramdas Pophale) SiO2 
 PCOD9213705
Probable space group: C 2/M
;
_chemical_formula_sum "Si O2"
_cell_formula_units_Z 44
_cell_length_a 24.213682
_cell_length_b 12.515856
_cell_length_c 8.988245
_cell_angle_alpha 90.000000
_cell_angle_beta 139.996136
_cell_angle_gamma 90.000000
_cell_volume 1751.050589
_symmetry_space_group_name_H-M "C 2/M"
_symmetry_group_IT_number 12
_symmetry_cell_setting 'monoclinic'
loop_
_space_group_symop_operation_xyz
x,y,z
-x,y,-z
-x,-y,-z
x,-y,z
1/2+x,1/2+y,z
1/2-x,1/2+y,-z
1/2-x,1/2-y,-z
1/2+x,1/2-y,z
loop_
_atom_site_type_symbol
_atom_site_label
_atom_site_fract_x
_atom_site_fract_y
_atom_site_fract_z
Si Si1 0.919872 0.774127 0.944137
Si Si2 0.263351 0.000000 0.708569
Si Si3 0.093825 0.500000 0.266363
Si Si4 0.649060 0.781341 0.487177
Si Si5 0.592999 0.371846 0.614009
Si Si6 0.901762 0.000000 0.854781
Si Si7 0.817157 0.282850 0.970958
O O1 0.844952 0.747795 0.673277
O O2 0.901932 0.894828 0.953250
O O3 0.905689 0.706246 0.059864
O O4 0.000000 0.759734 0.000000
O O5 0.335458 0.000000 0.723653
O O6 0.173029 0.000000 0.426189
O O7 0.275327 0.898677 0.844789
O O8 0.105622 0.396507 0.393373
O O9 0.000000 0.500000 0.000000
O O10 0.594967 0.686704 0.456800
O O11 0.743124 0.790503 0.747664
O O12 0.500000 0.366485 0.500000
O O13 0.614417 0.500000 0.653043
O O14 0.654746 0.286463 0.828093
O O15 0.000000 0.000000 0.000000
#
# Coordination Sequence:
#
# PCOD9213705 Si02
#       7
#     8   4   4   8   8   4   8
#     4  11  22  40  70 107 145 190 243 309 373 441
#     4  12  24  45  72 113 156 195 244 317 382 449
#     4  12  28  45  77 121 157 199 245 313 375 467
#     4  12  25  47  74 105 154 195 248 307 378 452
#     4  11  29  52  75 105 147 197 258 321 378 446
#     4  10  22  38  65 107 145 187 245 307 379 441
#     4  12  26  46  73 108 152 197 254 310 378 454
#
# _framework density 25.127772
#
# number of rings (size 3 to 8) (size 9 to 14) (size 15 to 20)
#    0.000    0.545    3.636    3.818    7.636    0.727 
#    0.000    0.909    0.000    0.000    0.000    0.000 
#    0.000    0.000    0.000    0.000    0.000    0.000 
#
# Total GULP energy -122688.875161 kJ/mol
# GULP energy per Si atom -5576.767053 kJ/mol
# Density = 2.507058 g / cm^3
# Si number density = 25.127772 Si / 1000 Ang^3
#
#
#
# Elastic Constant Matrix: (Units=GPa)
#
#
# Indices 1 2 3 4 5 6 
#
# 1 108.4950 38.1957 29.6449 0.0000 11.8871 0.0000
# 2 38.1957 184.9536 47.4308 0.0000 12.1014 0.0000
# 3 29.6449 47.4308 130.9726 0.0000 16.7245 0.0000
# 4 0.0000 0.0000 0.0000 41.6177 0.0000 -3.7006
# 5 11.8871 12.1014 16.7245 0.0000 43.2279 0.0000
# 6 0.0000 0.0000 0.0000 -3.7006 0.0000 31.1171
#
#
#
# Elastic Compliance Matrix: (Units=1/GPa)
#
#
# Indices 1 2 3 4 5 6 
#
# 1 0.010411 -0.001639 -0.001532 0.000000 -0.001812 0.000000
# 2 -0.001639 0.006250 -0.001816 0.000000 -0.000596 0.000000
# 3 -0.001532 -0.001816 0.008964 0.000000 -0.002538 0.000000
# 4 0.000000 0.000000 0.000000 0.024285 0.000000 0.002888
# 5 -0.001812 -0.000596 -0.002538 0.000000 0.024780 0.000000
# 6 0.000000 0.000000 0.000000 0.002888 0.000000 0.032480
#
#
# Mechanical properties :
#
#
# Convention : Reuss Voigt Hill
#
# Bulk Modulus (GPa) = 63.89268 72.77379 68.33324
# Shear Modulus (GPa) = 40.86279 43.80251 42.33265
#
# Velocity S-wave (km/s) = 4.03699 4.17968 4.10896
# Velocity P-wave (km/s) = 6.87110 7.23308 7.05441
#
# Compressibility (1/GPa) = 0.01565124
#
# Stress axis : x y z
#
# Youngs Moduli (GPa) = 96.05307 160.00031 111.56009
#
# Poissons Ratio (x) = 0.26219 0.17088
# Poissons Ratio (y) = 0.15740 0.20263
# Poissons Ratio (z) = 0.14712 0.29061
#
# Static dielectric constant tensor:
#      x y z
#    x 2.079320 0.000000 0.069990 
#    y 0.000000 2.102380 0.000000 
#    z 0.069990 0.000000 2.049800 
# 
# From -- ./inp_files/176268.got.cif
#   From: 2010.05.17/outbox.cif.g08.bks.cpg/sg12_89_cif.got.tgz:176268.got - 2010.06.03 13:09:07.
