data_PCOD9213027
_publ_section_title
;
Structure prediction by ZEFSAII (Michael W. Deem and Ramdas Pophale) SiO2 
 PCOD9213027
Probable space group: C 2/M
;
_chemical_formula_sum "Si O2"
_cell_formula_units_Z 56
_cell_length_a 14.122530
_cell_length_b 32.576348
_cell_length_c 11.789252
_cell_angle_alpha 90.000000
_cell_angle_beta 31.969516
_cell_angle_gamma 90.000000
_cell_volume 2871.711852
_symmetry_space_group_name_H-M "C 2/M"
_symmetry_group_IT_number 12
_symmetry_cell_setting 'monoclinic'
loop_
_space_group_symop_operation_xyz
x,y,z
-x,y,-z
-x,-y,-z
x,-y,z
1/2+x,1/2+y,z
1/2-x,1/2+y,-z
1/2-x,1/2-y,-z
1/2+x,1/2-y,z
loop_
_atom_site_type_symbol
_atom_site_label
_atom_site_fract_x
_atom_site_fract_y
_atom_site_fract_z
Si Si1 0.050341 0.951812 0.316637
Si Si2 0.136262 0.399445 0.105823
Si Si3 0.710889 0.951652 0.497710
Si Si4 0.714227 0.398714 0.788118
Si Si5 0.238421 0.688087 0.357106
Si Si6 0.072764 0.694771 0.148650
Si Si7 0.114555 0.777819 0.015774
O O1 0.884521 0.943125 0.399801
O O2 0.000000 0.947089 0.500000
O O3 0.099242 0.000000 0.249358
O O4 0.211655 0.921876 0.121177
O O5 0.211450 0.398965 0.159613
O O6 0.089676 0.353619 0.109787
O O7 0.957288 0.426305 0.286437
O O8 0.740712 0.937282 0.337368
O O9 0.676494 0.000000 0.537393
O O10 0.794517 0.358733 0.644930
O O11 0.500000 0.394181 0.000000
O O12 0.439715 0.693523 0.198385
O O13 0.086536 0.700792 0.598485
O O14 0.259345 0.713639 0.220265
O O15 0.047037 0.730990 0.084206
O O16 0.263751 0.708027 0.004814
#
# Coordination Sequence:
#
# PCOD9213027 Si02
#       7
#     8   8   8   8   8   8   8
#     4  10  24  47  68  89 125 175 219 260 317 385
#     4  12  23  39  67  98 132 167 213 269 324 385
#     4  11  25  41  65 101 132 166 212 264 324 386
#     4  12  21  38  66  97 133 174 210 256 327 402
#     4  11  20  39  61  85 121 171 205 250 320 378
#     4  11  22  37  60  89 119 162 208 257 313 370
#     4  10  22  36  57  86 117 158 216 253 297 378
#
# _framework density 19.500565000000002
#
# number of rings (size 3 to 8) (size 9 to 14) (size 15 to 20)
#    0.000    1.000    5.714    1.714    0.000    2.571 
#    0.000    7.857    0.000    0.000    0.000    0.000 
#    0.000    0.000    0.000    0.000    0.000    0.000 
#
# Total GULP energy -156254.141004 kJ/mol
# GULP energy per Si atom -5580.505036 kJ/mol
# Density = 1.945618 g / cm^3
# Si number density = 19.500565 Si / 1000 Ang^3
#
#
#
# Elastic Constant Matrix: (Units=GPa)
#
#
# Indices 1 2 3 4 5 6 
#
# 1 26.0708 14.6779 10.7803 0.0000 2.9860 0.0000
# 2 14.6779 140.3302 66.2540 0.0000 6.7127 0.0000
# 3 10.7803 66.2540 80.2614 0.0000 -0.8831 0.0000
# 4 0.0000 0.0000 0.0000 31.1643 0.0000 4.3874
# 5 2.9860 6.7127 -0.8831 0.0000 27.3032 0.0000
# 6 0.0000 0.0000 0.0000 4.3874 0.0000 23.5037
#
#
#
# Elastic Compliance Matrix: (Units=1/GPa)
#
#
# Indices 1 2 3 4 5 6 
#
# 1 0.041704 -0.002460 -0.003615 0.000000 -0.004073 0.000000
# 2 -0.002460 0.012105 -0.009696 0.000000 -0.003021 0.000000
# 3 -0.003615 -0.009696 0.020986 0.000000 0.003458 0.000000
# 4 0.000000 0.000000 0.000000 0.032954 0.000000 -0.006151
# 5 -0.004073 -0.003021 0.003458 0.000000 0.037926 0.000000
# 6 0.000000 0.000000 0.000000 -0.006151 0.000000 0.043695
#
#
# Mechanical properties :
#
#
# Convention : Reuss Voigt Hill
#
# Bulk Modulus (GPa) = 23.11969 47.78741 35.45355
# Shear Modulus (GPa) = 21.24676 26.72425 23.98550
#
# Velocity S-wave (km/s) = 3.30441 3.70595 3.51093
# Velocity P-wave (km/s) = 5.14203 6.54759 5.88691
#
# Compressibility (1/GPa) = 0.04325317
#
# Stress axis : x y z
#
# Youngs Moduli (GPa) = 23.97870 82.60752 47.64995
#
# Poissons Ratio (x) = 0.20324 0.17227
# Poissons Ratio (y) = 0.05899 0.46199
# Poissons Ratio (z) = 0.08669 0.80093
#
# Static dielectric constant tensor:
#      x y z
#    x 1.755060 0.000000 0.000190 
#    y 0.000000 1.705420 0.000000 
#    z 0.000190 0.000000 1.663070 
# 
# From -- ./inp_files/150383.got.cif
#   From: 2010.05.17/outbox.cif.g08.bks.cpg/sg12_76_cif.got.tgz:150383.got - 2010.06.03 13:09:07.
