data_PCOD9213336
_publ_section_title
;
Structure prediction by ZEFSAII (Michael W. Deem and Ramdas Pophale) SiO2 
 PCOD9213336
Probable space group: C 2/M
;
_chemical_formula_sum "Si O2"
_cell_formula_units_Z 40
_cell_length_a 10.193442
_cell_length_b 14.494932
_cell_length_c 11.989159
_cell_angle_alpha 90.000000
_cell_angle_beta 66.400938
_cell_angle_gamma 90.000000
_cell_volume 1623.290629
_symmetry_space_group_name_H-M "C 2/M"
_symmetry_group_IT_number 12
_symmetry_cell_setting 'monoclinic'
loop_
_space_group_symop_operation_xyz
x,y,z
-x,y,-z
-x,-y,-z
x,-y,z
1/2+x,1/2+y,z
1/2-x,1/2+y,-z
1/2-x,1/2-y,-z
1/2+x,1/2-y,z
loop_
_atom_site_type_symbol
_atom_site_label
_atom_site_fract_x
_atom_site_fract_y
_atom_site_fract_z
Si Si1 0.154116 0.393358 0.890500
Si Si2 0.942894 0.286855 0.280519
Si Si3 0.735882 0.892492 0.205642
Si Si4 0.463138 0.391481 0.845428
Si Si5 0.836808 0.601116 0.516615
O O1 0.164473 0.500000 0.845221
O O2 0.292490 0.379087 0.922953
O O3 0.151575 0.318720 0.793005
O O4 0.000000 0.385053 0.000000
O O5 0.093129 0.342241 0.215653
O O6 0.002381 0.183192 0.262075
O O7 0.852240 0.322452 0.416503
O O8 0.736758 0.879210 0.340458
O O9 0.901286 0.872768 0.118346
O O10 0.711576 0.000000 0.189221
O O11 0.479459 0.500000 0.812097
O O12 0.787970 0.500000 0.490533
O O13 0.000000 0.591180 0.500000
#
# Coordination Sequence:
#
# PCOD9213336 Si02
#       5
#     8   8   8   8   8
#     4  10  22  40  59  81 111 142 175 224 283 334
#     4  11  19  34  61  82 104 147 191 217 259 332
#     4   9  18  35  58  83 111 142 182 229 266 310
#     4  10  22  38  54  80 117 145 175 230 281 312
#     4   8  15  29  53  84 111 138 180 227 263 308
#
# _framework density 24.641304000000002
#
# number of rings (size 3 to 8) (size 9 to 14) (size 15 to 20)
#    0.000    2.400    0.000    4.200    0.000    1.600 
#    0.000    4.000    0.000   20.400    0.000    0.000 
#    0.000    0.000    0.000    0.000    0.000    0.000 
#
# Total GULP energy -111465.876429 kJ/mol
# GULP energy per Si atom -5573.293821 kJ/mol
# Density = 2.458522 g / cm^3
# Si number density = 24.641304 Si / 1000 Ang^3
#
#
#
# Elastic Constant Matrix: (Units=GPa)
#
#
# Indices 1 2 3 4 5 6 
#
# 1 178.1160 37.3987 41.5678 0.0000 -24.7668 0.0000
# 2 37.3987 74.0500 15.3734 0.0000 5.3114 0.0000
# 3 41.5678 15.3734 69.5894 0.0000 -17.8560 0.0000
# 4 0.0000 0.0000 0.0000 40.0293 0.0000 -11.9111
# 5 -24.7668 5.3114 -17.8560 0.0000 43.6595 0.0000
# 6 0.0000 0.0000 0.0000 -11.9111 0.0000 29.7059
#
#
#
# Elastic Compliance Matrix: (Units=1/GPa)
#
#
# Indices 1 2 3 4 5 6 
#
# 1 0.007482 -0.003449 -0.002805 0.000000 0.003517 0.000000
# 2 -0.003449 0.016196 -0.002822 0.000000 -0.005081 0.000000
# 3 -0.002805 -0.002822 0.018265 0.000000 0.006222 0.000000
# 4 0.000000 0.000000 0.000000 0.028366 0.000000 0.011374
# 5 0.003517 -0.005081 0.006222 0.000000 0.028062 0.000000
# 6 0.000000 0.000000 0.000000 0.011374 0.000000 0.038224
#
#
# Mechanical properties :
#
#
# Convention : Reuss Voigt Hill
#
# Bulk Modulus (GPa) = 42.02901 56.71502 49.37202
# Shear Modulus (GPa) = 30.73554 37.83998 34.28776
#
# Velocity S-wave (km/s) = 3.53557 3.92297 3.73429
# Velocity P-wave (km/s) = 5.81037 6.60195 6.21877
#
# Compressibility (1/GPa) = 0.02379309
#
# Stress axis : x y z
#
# Youngs Moduli (GPa) = 133.65319 61.74219 54.74804
#
# Poissons Ratio (x) = 0.21293 0.15357
# Poissons Ratio (y) = 0.46093 0.15448
# Poissons Ratio (z) = 0.37490 0.17422
#
# Static dielectric constant tensor:
#      x y z
#    x 1.999230 0.000000 -0.036280 
#    y 0.000000 2.024870 0.000000 
#    z -0.036280 0.000000 2.058220 
# 
# From -- ./inp_files/194423.got.cif
#   From: 2010.05.17/outbox.cif.g08.bks.cpg/sg12_98_cif.got.tgz:194423.got - 2010.06.03 13:09:07.
