data_PCOD9213138
_publ_section_title
;
Structure prediction by ZEFSAII (Michael W. Deem and Ramdas Pophale) SiO2 
 PCOD9213138
Probable space group: C 2/M
;
_chemical_formula_sum "Si O2"
_cell_formula_units_Z 64
_cell_length_a 30.956092
_cell_length_b 7.403444
_cell_length_c 12.729990
_cell_angle_alpha 90.000000
_cell_angle_beta 110.139998
_cell_angle_gamma 90.000000
_cell_volume 2739.088732
_symmetry_space_group_name_H-M "C 2/M"
_symmetry_group_IT_number 12
_symmetry_cell_setting 'monoclinic'
loop_
_space_group_symop_operation_xyz
x,y,z
-x,y,-z
-x,-y,-z
x,-y,z
1/2+x,1/2+y,z
1/2-x,1/2+y,-z
1/2-x,1/2-y,-z
1/2+x,1/2-y,z
loop_
_atom_site_type_symbol
_atom_site_label
_atom_site_fract_x
_atom_site_fract_y
_atom_site_fract_z
Si Si1 0.871210 0.789685 0.040351
Si Si2 0.318075 0.780785 0.581955
Si Si3 0.402088 0.220402 0.527115
Si Si4 0.973758 0.780850 0.082515
Si Si5 0.604352 0.781558 0.708100
Si Si6 0.998443 0.708985 0.334269
Si Si7 0.227656 0.782861 0.093719
Si Si8 0.759403 0.294263 0.334785
O O1 0.920860 0.715102 0.047346
O O2 0.869199 0.778733 0.165807
O O3 0.872237 0.000000 0.012423
O O4 0.824624 0.711824 0.953550
O O5 0.369872 0.726810 0.597155
O O6 0.292622 0.707526 0.662795
O O7 0.288943 0.716814 0.455359
O O8 0.315587 0.000000 0.586211
O O9 0.380879 0.272391 0.396408
O O10 0.454391 0.285754 0.581030
O O11 0.403351 0.000000 0.529086
O O12 0.999463 0.719432 0.209231
O O13 0.973082 0.000000 0.084214
O O14 0.000000 0.723245 0.000000
O O15 0.551372 0.716274 0.676148
O O16 0.604828 0.000000 0.712881
O O17 0.997078 0.500000 0.366745
O O18 0.256748 0.712664 0.217045
O O19 0.225523 0.000000 0.105939
O O20 0.250000 0.750000 0.000000
O O21 0.776567 0.500000 0.338631
#
# Coordination Sequence:
#
# PCOD9213138 Si02
#       8
#     8   8   8   8   8   8   8   8
#     4   9  19  35  50  72 104 133 165 209 257 298
#     4   9  18  33  53  75  99 133 169 205 253 304
#     4   9  17  29  49  75 101 129 164 205 248 295
#     4   9  18  33  52  71  97 135 170 201 245 302
#     4   9  17  30  51  73  99 134 167 199 242 301
#     4   9  17  30  47  72 101 128 162 204 246 289
#     4  10  22  37  55  78 105 137 173 216 262 307
#     4   9  19  36  54  73 101 132 165 209 257 304
#
# _framework density 23.365435000000002
#
# number of rings (size 3 to 8) (size 9 to 14) (size 15 to 20)
#    0.000    2.875    0.000    0.375    1.750    3.750 
#    0.000    3.125    0.000    3.000    0.000    0.000 
#    0.000    0.000    0.000    0.000    0.000    0.000 
#
# Total GULP energy -178637.430795 kJ/mol
# GULP energy per Si atom -5582.419712 kJ/mol
# Density = 2.331225 g / cm^3
# Si number density = 23.365435 Si / 1000 Ang^3
#
#
#
# Elastic Constant Matrix: (Units=GPa)
#
#
# Indices 1 2 3 4 5 6 
#
# 1 36.1446 -4.9349 11.5678 0.0000 -7.3719 0.0000
# 2 -4.9349 82.1528 -5.6873 0.0000 4.4695 0.0000
# 3 11.5678 -5.6873 88.6678 0.0000 -13.0949 0.0000
# 4 0.0000 0.0000 0.0000 13.7309 0.0000 -4.5261
# 5 -7.3719 4.4695 -13.0949 0.0000 37.3790 0.0000
# 6 0.0000 0.0000 0.0000 -4.5261 0.0000 11.5316
#
#
#
# Elastic Compliance Matrix: (Units=1/GPa)
#
#
# Indices 1 2 3 4 5 6 
#
# 1 0.029788 0.001322 -0.003119 0.000000 0.004624 0.000000
# 2 0.001322 0.012341 0.000464 0.000000 -0.001053 0.000000
# 3 -0.003119 0.000464 0.012249 0.000000 0.003621 0.000000
# 4 0.000000 0.000000 0.000000 0.083651 0.000000 0.032833
# 5 0.004624 -0.001053 0.003621 0.000000 0.029059 0.000000
# 6 0.000000 0.000000 0.000000 0.032833 0.000000 0.099605
#
#
# Mechanical properties :
#
#
# Convention : Reuss Voigt Hill
#
# Bulk Modulus (GPa) = 19.33748 23.20629 21.27188
# Shear Modulus (GPa) = 17.44606 26.26294 21.85450
#
# Velocity S-wave (km/s) = 2.73547 3.35626 3.06164
# Velocity P-wave (km/s) = 4.27448 4.99728 4.64994
#
# Compressibility (1/GPa) = 0.05171305
#
# Stress axis : x y z
#
# Youngs Moduli (GPa) = 33.57018 81.02937 81.63681
#
# Poissons Ratio (x) = -0.10711 0.25459
# Poissons Ratio (y) = -0.04438 -0.03785
# Poissons Ratio (z) = 0.10469 -0.03757
#
# Static dielectric constant tensor:
#      x y z
#    x 1.892150 0.000000 0.014260 
#    y 0.000000 1.912400 0.000000 
#    z 0.014260 0.000000 1.860510 
# 
# From -- ./inp_files/188364.got.cif
#   From: 2010.05.17/outbox.cif.g08.bks.cpg/sg12_95_cif.got.tgz:188364.got - 2010.06.03 13:09:07.
