data_PCOD9213298
_publ_section_title
;
Structure prediction by ZEFSAII (Michael W. Deem and Ramdas Pophale) SiO2 
 PCOD9213298
Probable space group: C 2/M
;
_chemical_formula_sum "Si O2"
_cell_formula_units_Z 36
_cell_length_a 23.026004
_cell_length_b 19.121634
_cell_length_c 4.935716
_cell_angle_alpha 90.000000
_cell_angle_beta 119.033963
_cell_angle_gamma 90.000000
_cell_volume 1900.072621
_symmetry_space_group_name_H-M "C 2/M"
_symmetry_group_IT_number 12
_symmetry_cell_setting 'monoclinic'
loop_
_space_group_symop_operation_xyz
x,y,z
-x,y,-z
-x,-y,-z
x,-y,z
1/2+x,1/2+y,z
1/2-x,1/2+y,-z
1/2-x,1/2-y,-z
1/2+x,1/2-y,z
loop_
_atom_site_type_symbol
_atom_site_label
_atom_site_fract_x
_atom_site_fract_y
_atom_site_fract_z
Si Si1 0.755539 0.500000 0.091478
Si Si2 0.954371 0.610298 0.159910
Si Si3 0.563216 0.366101 0.304309
Si Si4 0.843237 0.500000 0.790958
Si Si5 0.866968 0.077484 0.009447
Si Si6 0.500000 0.755811 0.500000
O O1 0.819412 0.500000 0.428190
O O2 0.708374 0.565868 0.059203
O O3 0.778568 0.500000 0.835340
O O4 0.000000 0.578277 0.500000
O O5 0.948289 0.691033 0.240332
O O6 0.888176 0.567271 0.960131
O O7 0.000000 0.608936 0.000000
O O8 0.619290 0.367809 0.198289
O O9 0.536975 0.292928 0.366887
O O10 0.500000 0.397081 0.000000
O O11 0.410866 0.406234 0.372723
O O12 0.884463 0.000000 0.937951
#
# Coordination Sequence:
#
# PCOD9213298 Si02
#       6
#     4   8   8   4   8   4
#     4  10  24  41  57  91 118 164 199 249 290 336
#     4  10  22  37  63  97 127 140 190 250 313 355
#     4  12  20  37  59  88 119 164 191 243 313 350
#     4  12  20  41  70  88 120 156 195 243 308 360
#     4  10  23  38  56  86 124 154 206 254 280 344
#     4  10  24  37  57  94 128 152 194 230 322 360
#
# _framework density 18.946643999999999
#
# number of rings (size 3 to 8) (size 9 to 14) (size 15 to 20)
#    1.333    0.000    2.222    4.667    0.000    2.667 
#    0.000    0.000    0.000    8.000    0.000    0.000 
#    0.000    0.000    0.000    0.000    0.000    0.000 
#
# Total GULP energy -100248.278219 kJ/mol
# GULP energy per Si atom -5569.348790 kJ/mol
# Density = 1.890352 g / cm^3
# Si number density = 18.946644 Si / 1000 Ang^3
#
#
#
# Elastic Constant Matrix: (Units=GPa)
#
#
# Indices 1 2 3 4 5 6 
#
# 1 75.0869 27.5527 2.5634 0.0000 -16.3139 0.0000
# 2 27.5527 76.3890 21.5701 0.0000 3.8947 0.0000
# 3 2.5634 21.5701 85.2776 0.0000 -9.8200 0.0000
# 4 0.0000 0.0000 0.0000 -45.8617 0.0000 31.7413
# 5 -16.3139 3.8947 -9.8200 0.0000 38.5411 0.0000
# 6 0.0000 0.0000 0.0000 31.7413 0.0000 -31.9588
#
#
#
# Elastic Compliance Matrix: (Units=1/GPa)
#
#
# Indices 1 2 3 4 5 6 
#
# 1 0.017993 -0.007635 0.002427 0.000000 0.009006 0.000000
# 2 -0.007635 0.017557 -0.004932 0.000000 -0.006263 0.000000
# 3 0.002427 -0.004932 0.013472 0.000000 0.004958 0.000000
# 4 0.000000 0.000000 0.000000 -0.069752 0.000000 -0.069277
# 5 0.009006 -0.006263 0.004958 0.000000 0.031655 0.000000
# 6 0.000000 0.000000 0.000000 -0.069277 0.000000 -0.100096
#
#
# Mechanical properties :
#
#
# Convention : Reuss Voigt Hill
#
# Bulk Modulus (GPa) = 34.79157 37.79176 36.29167
# Shear Modulus (GPa) = -84.30152 4.48193 -39.90980
#
# Velocity S-wave (km/s) = -6.67763 1.53970 -4.59457
# Velocity P-wave (km/s) = 6.40715 4.81151 2.99173
#
# Compressibility (1/GPa) = 0.02874259
#
# Stress axis : x y z
#
# Youngs Moduli (GPa) = 55.57636 56.95841 74.22787
#
# Poissons Ratio (x) = 0.43485 -0.18017
# Poissons Ratio (y) = 0.42430 0.36612
# Poissons Ratio (z) = -0.13490 0.28094
#
# Static dielectric constant tensor:
#      x y z
#    x 1.667330 0.000000 0.010820 
#    y 0.000000 1.671780 0.000000 
#    z 0.010820 0.000000 1.639580 
# 
# From -- ./inp_files/16338.got.cif
#   From: 2010.05.17/outbox.cif.g08.bks.cpg/sg12_9_cif.got.tgz:16338.got - 2010.06.03 13:09:07.
