data_PCOD9213164
_publ_section_title
;
Structure prediction by ZEFSAII (Michael W. Deem and Ramdas Pophale) SiO2 
 PCOD9213164
Probable space group: C 2/M
;
_chemical_formula_sum "Si O2"
_cell_formula_units_Z 56
_cell_length_a 25.488423
_cell_length_b 18.658034
_cell_length_c 9.619678
_cell_angle_alpha 90.000000
_cell_angle_beta 138.849143
_cell_angle_gamma 90.000000
_cell_volume 3010.400147
_symmetry_space_group_name_H-M "C 2/M"
_symmetry_group_IT_number 12
_symmetry_cell_setting 'monoclinic'
loop_
_space_group_symop_operation_xyz
x,y,z
-x,y,-z
-x,-y,-z
x,-y,z
1/2+x,1/2+y,z
1/2-x,1/2+y,-z
1/2-x,1/2-y,-z
1/2+x,1/2-y,z
loop_
_atom_site_type_symbol
_atom_site_label
_atom_site_fract_x
_atom_site_fract_y
_atom_site_fract_z
Si Si1 0.000000 0.798732 0.500000
Si Si2 0.166393 0.837336 0.732982
Si Si3 0.415770 0.228478 0.074079
Si Si4 0.729305 0.919169 0.551784
Si Si5 0.250735 0.197154 0.174541
Si Si6 0.424497 0.081539 0.951028
Si Si7 0.500000 0.683830 0.000000
Si Si8 0.868907 0.916831 0.607878
O O1 0.076713 0.844836 0.610101
O O2 0.028335 0.751831 0.687028
O O3 0.180172 0.755266 0.710960
O O4 0.174439 0.888976 0.617924
O O5 0.226987 0.842166 0.983153
O O6 0.327463 0.257546 0.934268
O O7 0.419577 0.144024 0.054033
O O8 0.447037 0.267666 0.996960
O O9 0.728120 0.859903 0.667311
O O10 0.653834 0.912157 0.300503
O O11 0.807687 0.910791 0.613609
O O12 0.729173 0.000000 0.609732
O O13 0.428412 0.000000 0.014034
O O14 0.500000 0.092133 0.000000
O O15 0.556458 0.633570 0.206935
O O16 0.892098 0.000000 0.639154
#
# Coordination Sequence:
#
# PCOD9213164 Si02
#       8
#     4   8   8   8   8   8   4   8
#     4  10  22  38  58  86 120 144 200 244 284 342
#     4  10  22  39  57  85 117 157 194 242 289 346
#     4  11  21  37  61  87 115 155 195 241 287 346
#     4  10  22  38  60  88 119 150 191 245 292 346
#     4  10  22  38  61  86 116 152 202 238 287 347
#     4  10  22  37  56  87 118 146 188 244 297 344
#     4  12  21  36  59  92 116 156 198 240 289 340
#     4  11  23  39  59  88 124 157 191 240 294 352
#
# _framework density 18.602177000000001
#
# number of rings (size 3 to 8) (size 9 to 14) (size 15 to 20)
#    0.000    1.571    3.571    1.071    4.000    1.714 
#    0.000    0.714    0.000    5.143    0.000    0.000 
#    0.000    0.000    0.000    0.000    0.000    0.000 
#
# Total GULP energy -156364.408099 kJ/mol
# GULP energy per Si atom -5584.443146 kJ/mol
# Density = 1.855984 g / cm^3
# Si number density = 18.602177 Si / 1000 Ang^3
#
#
#
# Elastic Constant Matrix: (Units=GPa)
#
#
# Indices 1 2 3 4 5 6 
#
# 1 34.0154 -4.6395 -3.8881 0.0000 -4.0143 0.0000
# 2 -4.6395 50.7730 10.0706 0.0000 -16.2446 0.0000
# 3 -3.8881 10.0706 18.0020 0.0000 -8.0841 0.0000
# 4 0.0000 0.0000 0.0000 14.7545 0.0000 16.8747
# 5 -4.0143 -16.2446 -8.0841 0.0000 37.0444 0.0000
# 6 0.0000 0.0000 0.0000 16.8747 0.0000 -41.5115
#
#
#
# Elastic Compliance Matrix: (Units=1/GPa)
#
#
# Indices 1 2 3 4 5 6 
#
# 1 0.031553 0.003450 0.007871 0.000000 0.006650 0.000000
# 2 0.003450 0.024751 -0.008935 0.000000 0.009278 0.000000
# 3 0.007871 -0.008935 0.067485 0.000000 0.011662 0.000000
# 4 0.000000 0.000000 0.000000 0.046266 0.000000 0.018807
# 5 0.006650 0.009278 0.011662 0.000000 0.034329 0.000000
# 6 0.000000 0.000000 0.000000 0.018807 0.000000 -0.016444
#
#
# Mechanical properties :
#
#
# Convention : Reuss Voigt Hill
#
# Bulk Modulus (GPa) = 7.77839 11.76405 9.77122
# Shear Modulus (GPa) = 22.12181 8.80731 15.46456
#
# Velocity S-wave (km/s) = 3.45223 2.17826 2.88641
# Velocity P-wave (km/s) = 4.48118 3.55868 4.04631
#
# Compressibility (1/GPa) = 0.12856133
#
# Stress axis : x y z
#
# Youngs Moduli (GPa) = 31.69233 40.40194 14.81819
#
# Poissons Ratio (x) = -0.13937 -0.11664
# Poissons Ratio (y) = -0.10932 0.13240
# Poissons Ratio (z) = -0.24946 0.36098
#
# Static dielectric constant tensor:
#      x y z
#    x 1.656420 0.000000 0.011920 
#    y 0.000000 1.624220 0.000000 
#    z 0.011920 0.000000 1.625650 
# 
# From -- ./inp_files/106064.got.cif
#   From: 2010.05.17/outbox.cif.g08.bks.cpg/sg12_54_cif.got.tgz:106064.got - 2010.06.03 13:09:07.
