data_PCOD9213984
_publ_section_title
;
Structure prediction by ZEFSAII (Michael W. Deem and Ramdas Pophale) SiO2 
 PCOD9213984
Probable space group: C 2/M
;
_chemical_formula_sum "Si O2"
_cell_formula_units_Z 32
_cell_length_a 16.685044
_cell_length_b 14.294465
_cell_length_c 9.651168
_cell_angle_alpha 90.000000
_cell_angle_beta 149.756876
_cell_angle_gamma 90.000000
_cell_volume 1159.368469
_symmetry_space_group_name_H-M "C 2/M"
_symmetry_group_IT_number 12
_symmetry_cell_setting 'monoclinic'
loop_
_space_group_symop_operation_xyz
x,y,z
-x,y,-z
-x,-y,-z
x,-y,z
1/2+x,1/2+y,z
1/2-x,1/2+y,-z
1/2-x,1/2-y,-z
1/2+x,1/2-y,z
loop_
_atom_site_type_symbol
_atom_site_label
_atom_site_fract_x
_atom_site_fract_y
_atom_site_fract_z
Si Si1 0.817011 0.389781 0.464533
Si Si2 0.523087 0.401712 0.701252
Si Si3 0.838136 0.348621 0.098349
Si Si4 0.222827 0.308347 0.300945
O O1 0.773415 0.500000 0.393829
O O2 0.848765 0.359310 0.673082
O O3 0.696613 0.303398 0.248781
O O4 0.976657 0.371467 0.612097
O O5 0.500000 0.395241 0.500000
O O6 0.453875 0.500000 0.648228
O O7 0.415648 0.320904 0.603621
O O8 0.712065 0.406592 0.999205
O O9 0.750000 0.250000 0.000000
O O10 0.815096 0.359145 0.898661
#
# Coordination Sequence:
#
# PCOD9213984 Si02
#       4
#     8   8   8   8
#     4  11  23  40  64  90 120 163 206 247 301 364
#     4   9  17  32  56  82 111 149 194 242 291 345
#     4  11  21  37  60  88 124 157 198 247 304 357
#     4  10  22  39  61  87 123 156 199 255 301 354
#
# _framework density 27.601234000000002
#
# number of rings (size 3 to 8) (size 9 to 14) (size 15 to 20)
#    0.000    1.750    2.500    2.250    0.000    4.000 
#    0.000    3.750    0.000    3.000    0.000    0.000 
#    0.000    0.000    0.000    0.000    0.000    0.000 
#
# Total GULP energy -89237.785021 kJ/mol
# GULP energy per Si atom -5577.361564 kJ/mol
# Density = 2.753841 g / cm^3
# Si number density = 27.601234 Si / 1000 Ang^3
#
#
#
# Elastic Constant Matrix: (Units=GPa)
#
#
# Indices 1 2 3 4 5 6 
#
# 1 165.2206 22.9635 28.6909 0.0000 16.5381 0.0000
# 2 22.9635 216.1174 -3.6013 0.0000 22.5053 0.0000
# 3 28.6909 -3.6013 97.1298 0.0000 27.0411 0.0000
# 4 0.0000 0.0000 0.0000 -3.3229 0.0000 13.2969
# 5 16.5381 22.5053 27.0411 0.0000 54.8334 0.0000
# 6 0.0000 0.0000 0.0000 13.2969 0.0000 27.9299
#
#
#
# Elastic Compliance Matrix: (Units=1/GPa)
#
#
# Indices 1 2 3 4 5 6 
#
# 1 0.006524 -0.000632 -0.001710 0.000000 -0.000865 0.000000
# 2 -0.000632 0.004956 0.001024 0.000000 -0.002349 0.000000
# 3 -0.001710 0.001024 0.012533 0.000000 -0.006085 0.000000
# 4 0.000000 0.000000 0.000000 -0.103592 0.000000 0.049318
# 5 -0.000865 -0.002349 -0.006085 0.000000 0.022463 0.000000
# 6 0.000000 0.000000 0.000000 0.049318 0.000000 0.012325
#
#
# Mechanical properties :
#
#
# Convention : Reuss Voigt Hill
#
# Bulk Modulus (GPa) = 46.77632 63.84155 55.30894
# Shear Modulus (GPa) = -142.72672 44.58238 -49.07217
#
# Velocity S-wave (km/s) = -7.19879 4.02335 -4.22109
# Velocity P-wave (km/s) = 7.21891 6.69054 1.91695
#
# Compressibility (1/GPa) = 0.02137834
#
# Stress axis : x y z
#
# Youngs Moduli (GPa) = 153.28549 201.78130 79.79204
#
# Poissons Ratio (x) = 0.12744 0.13641
# Poissons Ratio (y) = 0.09681 -0.08172
# Poissons Ratio (z) = 0.26205 -0.20666
#
# Static dielectric constant tensor:
#      x y z
#    x 2.090400 0.000000 -0.011360 
#    y 0.000000 2.423910 0.000000 
#    z -0.011360 0.000000 2.349280 
# 
# From -- ./inp_files/45214.got.cif
#   From: 2010.05.17/outbox.cif.g08.bks.cpg/sg12_23_cif.got.tgz:45214.got - 2010.06.03 13:09:07.
