data_PCOD9213095
_publ_section_title
;
Structure prediction by ZEFSAII (Michael W. Deem and Ramdas Pophale) SiO2 
 PCOD9213095
Probable space group: C 2/M
;
_chemical_formula_sum "Si O2"
_cell_formula_units_Z 52
_cell_length_a 15.100649
_cell_length_b 17.072726
_cell_length_c 9.689698
_cell_angle_alpha 90.000000
_cell_angle_beta 79.113682
_cell_angle_gamma 90.000000
_cell_volume 2453.137610
_symmetry_space_group_name_H-M "C 2/M"
_symmetry_group_IT_number 12
_symmetry_cell_setting 'monoclinic'
loop_
_space_group_symop_operation_xyz
x,y,z
-x,y,-z
-x,-y,-z
x,-y,z
1/2+x,1/2+y,z
1/2-x,1/2+y,-z
1/2-x,1/2-y,-z
1/2+x,1/2-y,z
loop_
_atom_site_type_symbol
_atom_site_label
_atom_site_fract_x
_atom_site_fract_y
_atom_site_fract_z
Si Si1 0.416717 0.384296 0.434465
Si Si2 0.287366 0.914055 0.440340
Si Si3 0.588602 0.362532 0.881377
Si Si4 0.854114 0.653135 0.703404
Si Si5 0.000000 0.731635 0.500000
Si Si6 0.232919 0.587755 0.014826
Si Si7 0.201910 0.285986 0.787302
O O1 0.500000 0.415520 0.500000
O O2 0.321219 0.411397 0.518587
O O3 0.424897 0.396808 0.268561
O O4 0.426071 0.290856 0.458482
O O5 0.321023 0.898616 0.585012
O O6 0.317088 0.842702 0.335324
O O7 0.316570 0.000000 0.383804
O O8 0.672036 0.404269 0.932818
O O9 0.621396 0.272509 0.852286
O O10 0.500000 0.368171 0.000000
O O11 0.842589 0.606770 0.848281
O O12 0.785887 0.727507 0.733216
O O13 0.952558 0.682571 0.633000
O O14 0.223984 0.500000 0.961711
O O15 0.228087 0.655259 0.902495
#
# Coordination Sequence:
#
# PCOD9213095 Si02
#       7
#     8   8   8   8   4   8   8
#     4  10  22  38  62  96 128 156 213 265 321 362
#     4  12  23  41  65  93 130 168 206 261 332 383
#     4  11  24  39  68  95 122 166 218 261 314 370
#     4  11  21  41  69  91 122 170 218 262 310 375
#     4  10  22  36  68  96 120 154 222 274 298 372
#     4  11  25  43  63  94 132 167 207 258 325 384
#     4  11  22  42  65  92 126 168 213 258 308 384
#
# _framework density 21.197344000000001
#
# number of rings (size 3 to 8) (size 9 to 14) (size 15 to 20)
#    0.462    0.615    4.615    4.154    6.462    0.615 
#    0.000    1.538    0.000    0.923    0.000    0.000 
#    0.000    0.000    0.000    0.000    0.000    0.000 
#
# Total GULP energy -145321.253738 kJ/mol
# GULP energy per Si atom -5589.278990 kJ/mol
# Density = 2.114910 g / cm^3
# Si number density = 21.197344 Si / 1000 Ang^3
#
#
#
# Elastic Constant Matrix: (Units=GPa)
#
#
# Indices 1 2 3 4 5 6 
#
# 1 36.8929 12.9773 7.4244 0.0000 -10.5058 0.0000
# 2 12.9773 114.0439 12.7840 0.0000 1.9930 0.0000
# 3 7.4244 12.7840 75.7070 0.0000 2.0338 0.0000
# 4 0.0000 0.0000 0.0000 1.1184 0.0000 -4.4053
# 5 -10.5058 1.9930 2.0338 0.0000 40.7544 0.0000
# 6 0.0000 0.0000 0.0000 -4.4053 0.0000 42.4779
#
#
#
# Elastic Compliance Matrix: (Units=1/GPa)
#
#
# Indices 1 2 3 4 5 6 
#
# 1 0.031223 -0.003395 -0.002713 0.000000 0.008350 0.000000
# 2 -0.003395 0.009312 -0.001205 0.000000 -0.001270 0.000000
# 3 -0.002713 -0.001205 0.013714 0.000000 -0.001325 0.000000
# 4 0.000000 0.000000 0.000000 1.511544 0.000000 0.156761
# 5 0.008350 -0.001270 -0.001325 0.000000 0.026818 0.000000
# 6 0.000000 0.000000 0.000000 0.156761 0.000000 0.039799
#
#
# Mechanical properties :
#
#
# Convention : Reuss Voigt Hill
#
# Bulk Modulus (GPa) = 25.23781 32.55724 28.89753
# Shear Modulus (GPa) = 3.01160 29.76737 16.38949
#
# Velocity S-wave (km/s) = 1.19324 3.75146 2.78364
# Velocity P-wave (km/s) = 3.71893 5.84440 4.89834
#
# Compressibility (1/GPa) = 0.03962308
#
# Stress axis : x y z
#
# Youngs Moduli (GPa) = 32.02724 107.38634 72.91812
#
# Poissons Ratio (x) = 0.36455 0.19783
# Poissons Ratio (y) = 0.10873 0.08790
# Poissons Ratio (z) = 0.08689 0.12945
#
# Static dielectric constant tensor:
#      x y z
#    x 1.755690 0.000000 0.024910 
#    y 0.000000 1.790660 0.000000 
#    z 0.024910 0.000000 1.756360 
# 
# From -- ./inp_files/75233.got.cif
#   From: 2010.05.17/outbox.cif.g08.bks.cpg/sg12_38_cif.got.tgz:75233.got - 2010.06.03 13:09:07.
