data_PCOD9213090
_publ_section_title
;
Structure prediction by ZEFSAII (Michael W. Deem and Ramdas Pophale) SiO2 
 PCOD9213090
Probable space group: C 2/M
;
_chemical_formula_sum "Si O2"
_cell_formula_units_Z 40
_cell_length_a 9.213145
_cell_length_b 24.030665
_cell_length_c 11.426664
_cell_angle_alpha 90.000000
_cell_angle_beta 50.034350
_cell_angle_gamma 90.000000
_cell_volume 1938.944872
_symmetry_space_group_name_H-M "C 2/M"
_symmetry_group_IT_number 12
_symmetry_cell_setting 'monoclinic'
loop_
_space_group_symop_operation_xyz
x,y,z
-x,y,-z
-x,-y,-z
x,-y,z
1/2+x,1/2+y,z
1/2-x,1/2+y,-z
1/2-x,1/2-y,-z
1/2+x,1/2-y,z
loop_
_atom_site_type_symbol
_atom_site_label
_atom_site_fract_x
_atom_site_fract_y
_atom_site_fract_z
Si Si1 0.702324 0.000000 0.326320
Si Si2 0.807530 0.192160 0.029032
Si Si3 0.789576 0.399562 0.083427
Si Si4 0.891003 0.000000 0.933107
Si Si5 0.943747 0.619102 0.662619
Si Si6 0.286212 0.435476 0.619601
O O1 0.500000 0.000000 0.500000
O O2 0.681586 0.937800 0.281842
O O3 0.925236 0.000000 0.250064
O O4 0.659474 0.163478 0.198124
O O5 0.750000 0.250000 0.000000
O O6 0.830819 0.150361 0.906828
O O7 0.000000 0.198451 0.000000
O O8 0.747376 0.448058 0.012646
O O9 0.750309 0.429605 0.224885
O O10 0.000000 0.377646 0.000000
O O11 0.000000 0.000000 0.000000
O O12 0.138155 0.600147 0.623547
O O13 0.000000 0.636886 0.500000
O O14 0.500000 0.415719 0.500000
O O15 0.269640 0.500000 0.591931
#
# Coordination Sequence:
#
# PCOD9213090 Si02
#       6
#     4   8   8   4   8   8
#     4  10  22  36  64  98 143 180 219 266 341 424
#     4  12  28  50  73  99 134 182 241 305 356 407
#     4  12  24  43  68  99 140 182 234 286 354 421
#     4  12  25  36  62 102 139 185 234 287 344 426
#     4  11  24  44  71 104 143 188 229 284 354 434
#     4  11  25  40  67 106 151 189 223 279 352 425
#
# _framework density 20.629777000000001
#
# number of rings (size 3 to 8) (size 9 to 14) (size 15 to 20)
#    0.000    0.600    4.000    3.900    8.400    0.000 
#    0.000    2.000    0.000    0.000    0.000    0.000 
#    0.000    0.000    0.000    0.000    0.000    0.000 
#
# Total GULP energy -111492.597853 kJ/mol
# GULP energy per Si atom -5574.629893 kJ/mol
# Density = 2.058282 g / cm^3
# Si number density = 20.629777 Si / 1000 Ang^3
#
#
#
# Elastic Constant Matrix: (Units=GPa)
#
#
# Indices 1 2 3 4 5 6 
#
# 1 177.5674 50.1246 22.5391 0.0000 0.8549 0.0000
# 2 50.1246 125.4964 8.4278 0.0000 1.7175 0.0000
# 3 22.5391 8.4278 79.4059 0.0000 9.8904 0.0000
# 4 0.0000 0.0000 0.0000 21.7359 0.0000 7.3988
# 5 0.8549 1.7175 9.8904 0.0000 37.8607 0.0000
# 6 0.0000 0.0000 0.0000 7.3988 0.0000 38.9596
#
#
#
# Elastic Compliance Matrix: (Units=1/GPa)
#
#
# Indices 1 2 3 4 5 6 
#
# 1 0.006547 -0.002510 -0.001641 0.000000 0.000395 0.000000
# 2 -0.002510 0.008989 -0.000204 0.000000 -0.000298 0.000000
# 3 -0.001641 -0.000204 0.013515 0.000000 -0.003484 0.000000
# 4 0.000000 0.000000 0.000000 0.049187 0.000000 -0.009341
# 5 0.000395 -0.000298 -0.003484 0.000000 0.027327 0.000000
# 6 0.000000 0.000000 0.000000 -0.009341 0.000000 0.027442
#
#
# Mechanical properties :
#
#
# Convention : Reuss Voigt Hill
#
# Bulk Modulus (GPa) = 49.16584 60.51696 54.84140
# Shear Modulus (GPa) = 33.67085 39.80312 36.73698
#
# Velocity S-wave (km/s) = 4.04437 4.39726 4.22450
# Velocity P-wave (km/s) = 6.75969 7.42830 7.10187
#
# Compressibility (1/GPa) = 0.02033932
#
# Stress axis : x y z
#
# Youngs Moduli (GPa) = 152.75136 111.25112 73.99189
#
# Poissons Ratio (x) = 0.27924 0.12142
# Poissons Ratio (y) = 0.38340 0.01513
# Poissons Ratio (z) = 0.25066 0.02275
#
# Static dielectric constant tensor:
#      x y z
#    x 1.722890 0.000000 0.029210 
#    y 0.000000 1.763510 0.000000 
#    z 0.029210 0.000000 1.868800 
# 
# From -- ./inp_files/121728.got.cif
#   From: 2010.05.17/outbox.cif.g08.bks.cpg/sg12_61_cif.got.tgz:121728.got - 2010.06.03 13:09:07.
