data_PCOD9213674
_publ_section_title
;
Structure prediction by ZEFSAII (Michael W. Deem and Ramdas Pophale) SiO2 
 PCOD9213674
Probable space group: C 2/M
;
_chemical_formula_sum "Si O2"
_cell_formula_units_Z 48
_cell_length_a 8.665887
_cell_length_b 32.312082
_cell_length_c 8.000870
_cell_angle_alpha 90.000000
_cell_angle_beta 87.182977
_cell_angle_gamma 90.000000
_cell_volume 2237.639142
_symmetry_space_group_name_H-M "C 2/M"
_symmetry_group_IT_number 12
_symmetry_cell_setting 'monoclinic'
loop_
_space_group_symop_operation_xyz
x,y,z
-x,y,-z
-x,-y,-z
x,-y,z
1/2+x,1/2+y,z
1/2-x,1/2+y,-z
1/2-x,1/2-y,-z
1/2+x,1/2-y,z
loop_
_atom_site_type_symbol
_atom_site_label
_atom_site_fract_x
_atom_site_fract_y
_atom_site_fract_z
Si Si1 0.135663 0.768488 0.869309
Si Si2 0.408466 0.814441 0.328467
Si Si3 0.706415 0.381396 0.203248
Si Si4 0.802081 0.649271 0.832685
Si Si5 0.668316 0.953149 0.575587
Si Si6 0.397895 0.407340 0.353930
O O1 0.103979 0.732682 0.736525
O O2 0.208580 0.809299 0.790995
O O3 0.250000 0.750000 0.000000
O O4 0.000000 0.781785 0.000000
O O5 0.500000 0.816121 0.500000
O O6 0.249090 0.840176 0.312884
O O7 0.521781 0.837889 0.193677
O O8 0.804064 0.418297 0.285168
O O9 0.531681 0.400396 0.209008
O O10 0.753701 0.368237 0.014514
O O11 0.751583 0.616801 0.697636
O O12 0.500000 0.947462 0.500000
O O13 0.814212 0.947397 0.439172
O O14 0.673133 0.000000 0.641723
O O15 0.500000 0.389652 0.500000
#
# Coordination Sequence:
#
# PCOD9213674 Si02
#       6
#     8   8   8   8   8   8
#     4  12  23  43  61  89 128 176 222 275 334 380
#     4  12  25  41  63  91 127 178 227 277 329 390
#     4  11  21  39  65  94 129 168 218 268 323 386
#     4  12  24  41  66  90 133 175 225 275 330 391
#     4  10  22  43  70  99 136 172 208 259 323 395
#     4  10  22  38  63  97 128 168 215 265 323 379
#
# _framework density 21.451180999999998
#
# number of rings (size 3 to 8) (size 9 to 14) (size 15 to 20)
#    0.000    0.833    3.333    5.500    0.000    4.333 
#    0.000    0.833    0.000    9.000    0.000    0.000 
#    0.000    0.000    0.000    0.000    0.000    0.000 
#
# Total GULP energy -133709.919396 kJ/mol
# GULP energy per Si atom -5571.246641 kJ/mol
# Density = 2.140236 g / cm^3
# Si number density = 21.451181 Si / 1000 Ang^3
#
#
#
# Elastic Constant Matrix: (Units=GPa)
#
#
# Indices 1 2 3 4 5 6 
#
# 1 91.2261 11.5982 6.5114 0.0000 -14.3379 0.0000
# 2 11.5982 116.6342 27.9589 0.0000 3.4702 0.0000
# 3 6.5114 27.9589 84.1144 0.0000 6.3824 0.0000
# 4 0.0000 0.0000 0.0000 29.3734 0.0000 -3.0842
# 5 -14.3379 3.4702 6.3824 0.0000 34.7528 0.0000
# 6 0.0000 0.0000 0.0000 -3.0842 0.0000 33.2430
#
#
#
# Elastic Compliance Matrix: (Units=1/GPa)
#
#
# Indices 1 2 3 4 5 6 
#
# 1 0.011995 -0.001120 -0.000954 0.000000 0.005236 0.000000
# 2 -0.001120 0.009425 -0.002981 0.000000 -0.000856 0.000000
# 3 -0.000954 -0.002981 0.013144 0.000000 -0.002510 0.000000
# 4 0.000000 0.000000 0.000000 0.034379 0.000000 0.003190
# 5 0.005236 -0.000856 -0.002510 0.000000 0.031481 0.000000
# 6 0.000000 0.000000 0.000000 0.003190 0.000000 0.030377
#
#
# Mechanical properties :
#
#
# Convention : Reuss Voigt Hill
#
# Bulk Modulus (GPa) = 40.89217 42.67906 41.78562
# Shear Modulus (GPa) = 33.54283 35.86759 34.70521
#
# Velocity S-wave (km/s) = 3.95863 4.09351 4.02664
# Velocity P-wave (km/s) = 6.32445 6.50243 6.41406
#
# Compressibility (1/GPa) = 0.02445456
#
# Stress axis : x y z
#
# Youngs Moduli (GPa) = 83.36718 106.09744 76.08174
#
# Poissons Ratio (x) = 0.11883 0.07255
# Poissons Ratio (y) = 0.09337 0.22682
# Poissons Ratio (z) = 0.07949 0.31630
#
# Static dielectric constant tensor:
#      x y z
#    x 1.757000 0.000000 -0.067490 
#    y 0.000000 1.738510 0.000000 
#    z -0.067490 0.000000 1.834220 
# 
# From -- ./inp_files/42228.got.cif
#   From: 2010.05.17/outbox.cif.g08.bks.cpg/sg12_22_cif.got.tgz:42228.got - 2010.06.03 13:09:07.
