data_PCOD9213508
_publ_section_title
;
Structure prediction by ZEFSAII (Michael W. Deem and Ramdas Pophale) SiO2 
 PCOD9213508
Probable space group: C 2/M
;
_chemical_formula_sum "Si O2"
_cell_formula_units_Z 40
_cell_length_a 10.203899
_cell_length_b 15.409114
_cell_length_c 14.057457
_cell_angle_alpha 90.000000
_cell_angle_beta 112.585375
_cell_angle_gamma 90.000000
_cell_volume 2040.785282
_symmetry_space_group_name_H-M "C 2/M"
_symmetry_group_IT_number 12
_symmetry_cell_setting 'monoclinic'
loop_
_space_group_symop_operation_xyz
x,y,z
-x,y,-z
-x,-y,-z
x,-y,z
1/2+x,1/2+y,z
1/2-x,1/2+y,-z
1/2-x,1/2-y,-z
1/2+x,1/2-y,z
loop_
_atom_site_type_symbol
_atom_site_label
_atom_site_fract_x
_atom_site_fract_y
_atom_site_fract_z
Si Si1 0.167104 0.792659 0.564906
Si Si2 0.168778 0.099694 0.061311
Si Si3 0.295370 0.402779 0.144709
Si Si4 0.116728 0.596156 0.278248
Si Si5 0.858798 0.277466 0.238175
O O1 0.250000 0.750000 0.500000
O O2 0.246356 0.880297 0.620018
O O3 0.179850 0.733054 0.662397
O O4 0.000000 0.804529 0.500000
O O5 0.236429 0.171572 0.147523
O O6 0.191050 0.000000 0.101283
O O7 0.237925 0.106920 0.975628
O O8 0.000000 0.111635 0.000000
O O9 0.360449 0.500000 0.173614
O O10 0.163964 0.400277 0.181062
O O11 0.382994 0.318800 0.201967
O O12 0.064320 0.500000 0.284676
O O13 0.999384 0.666735 0.266414
#
# Coordination Sequence:
#
# PCOD9213508 Si02
#       5
#     8   8   8   8   8
#     4  11  23  43  66  92 127 169 219 272 329 384
#     4  10  22  38  59  93 133 169 213 260 317 388
#     4   9  21  39  59  89 128 167 209 254 313 389
#     4  10  22  40  65  97 128 165 216 268 322 388
#     4  11  22  38  67  89 129 167 217 264 323 376
#
# _framework density 19.600297000000001
#
# number of rings (size 3 to 8) (size 9 to 14) (size 15 to 20)
#    0.000    1.800    2.000    1.200    5.600    1.200 
#    0.000    6.000    0.000    0.000    0.000    0.000 
#    0.000    0.000    0.000    0.000    0.000    0.000 
#
# Total GULP energy -111604.699886 kJ/mol
# GULP energy per Si atom -5580.234994 kJ/mol
# Density = 1.955569 g / cm^3
# Si number density = 19.600297 Si / 1000 Ang^3
#
#
#
# Elastic Constant Matrix: (Units=GPa)
#
#
# Indices 1 2 3 4 5 6 
#
# 1 63.9256 51.7362 39.7227 0.0000 5.3023 0.0000
# 2 51.7362 155.6167 59.9932 0.0000 3.5414 0.0000
# 3 39.7227 59.9932 106.2688 0.0000 -8.9009 0.0000
# 4 0.0000 0.0000 0.0000 7.2244 0.0000 -5.3887
# 5 5.3023 3.5414 -8.9009 0.0000 34.9499 0.0000
# 6 0.0000 0.0000 0.0000 -5.3887 0.0000 23.6485
#
#
#
# Elastic Compliance Matrix: (Units=1/GPa)
#
#
# Indices 1 2 3 4 5 6 
#
# 1 0.024548 -0.005572 -0.006432 0.000000 -0.004798 0.000000
# 2 -0.005572 0.009626 -0.003436 0.000000 -0.001005 0.000000
# 3 -0.006432 -0.003436 0.014167 0.000000 0.004932 0.000000
# 4 0.000000 0.000000 0.000000 0.166763 0.000000 0.037999
# 5 -0.004798 -0.001005 0.004932 0.000000 0.030698 0.000000
# 6 0.000000 0.000000 0.000000 0.037999 0.000000 0.050945
#
#
# Mechanical properties :
#
#
# Convention : Reuss Voigt Hill
#
# Bulk Modulus (GPa) = 57.27011 69.85725 63.56368
# Shear Modulus (GPa) = 14.99495 24.78850 19.89172
#
# Velocity S-wave (km/s) = 2.76893 3.56012 3.18916
# Velocity P-wave (km/s) = 6.28531 7.25380 6.78685
#
# Compressibility (1/GPa) = 0.01746112
#
# Stress axis : x y z
#
# Youngs Moduli (GPa) = 40.73724 103.88597 70.58736
#
# Poissons Ratio (x) = 0.57889 0.45400
# Poissons Ratio (y) = 0.22700 0.24250
# Poissons Ratio (z) = 0.26201 0.35690
#
# Static dielectric constant tensor:
#      x y z
#    x 1.703740 0.000000 0.004750 
#    y 0.000000 1.697860 0.000000 
#    z 0.004750 0.000000 1.684120 
# 
# From -- ./inp_files/194665.got.cif
#   From: 2010.05.17/outbox.cif.g08.bks.cpg/sg12_98_cif.got.tgz:194665.got - 2010.06.03 13:09:07.
