data_PCOD9213045
_publ_section_title
;
Structure prediction by ZEFSAII (Michael W. Deem and Ramdas Pophale) SiO2 
 PCOD9213045
Probable space group: C 2/M
;
_chemical_formula_sum "Si O2"
_cell_formula_units_Z 56
_cell_length_a 11.298489
_cell_length_b 19.628840
_cell_length_c 13.349255
_cell_angle_alpha 90.000000
_cell_angle_beta 68.194519
_cell_angle_gamma 90.000000
_cell_volume 2748.721192
_symmetry_space_group_name_H-M "C 2/M"
_symmetry_group_IT_number 12
_symmetry_cell_setting 'monoclinic'
loop_
_space_group_symop_operation_xyz
x,y,z
-x,y,-z
-x,-y,-z
x,-y,z
1/2+x,1/2+y,z
1/2-x,1/2+y,-z
1/2-x,1/2-y,-z
1/2+x,1/2-y,z
loop_
_atom_site_type_symbol
_atom_site_label
_atom_site_fract_x
_atom_site_fract_y
_atom_site_fract_z
Si Si1 0.400936 0.227651 0.936007
Si Si2 0.291569 0.328030 0.462574
Si Si3 0.732447 0.574341 0.193639
Si Si4 0.888483 0.426184 0.952431
Si Si5 0.554973 0.700936 0.277932
Si Si6 0.089322 0.336082 0.376697
Si Si7 0.128783 0.578927 0.653785
O O1 0.465881 0.273179 0.829071
O O2 0.500000 0.229794 0.000000
O O3 0.250000 0.250000 0.000000
O O4 0.393091 0.148454 0.903408
O O5 0.250000 0.250000 0.500000
O O6 0.436059 0.320693 0.383275
O O7 0.218282 0.358858 0.388803
O O8 0.241672 0.375768 0.568260
O O9 0.676067 0.500000 0.234657
O O10 0.768202 0.575818 0.066109
O O11 0.645461 0.637155 0.244137
O O12 0.851793 0.580971 0.232665
O O13 0.887392 0.500000 0.897908
O O14 0.000000 0.429349 0.000000
O O15 0.616300 0.767077 0.309752
O O16 0.000000 0.318730 0.500000
O O17 0.003706 0.388458 0.341112
O O18 0.137145 0.500000 0.619799
#
# Coordination Sequence:
#
# PCOD9213045 Si02
#       7
#     8   8   8   8   8   8   8
#     4  11  25  41  64  99 124 164 212 270 319 376
#     4  11  22  38  57  87 122 165 205 248 307 371
#     4  10  22  39  61  91 124 163 206 254 307 370
#     4   9  19  37  61  88 121 157 204 261 313 362
#     4  12  24  38  65  87 128 161 207 257 310 375
#     4  10  22  36  58  89 120 165 202 255 306 364
#     4  10  22  39  62  90 124 163 211 259 304 366
#
# _framework density 20.373111000000002
#
# number of rings (size 3 to 8) (size 9 to 14) (size 15 to 20)
#    0.000    1.571    4.286    0.857    6.000    3.143 
#    0.000    1.429    0.000    1.714    0.000    0.000 
#    0.000    0.000    0.000    0.000    0.000    0.000 
#
# Total GULP energy -156043.329091 kJ/mol
# GULP energy per Si atom -5572.976039 kJ/mol
# Density = 2.032674 g / cm^3
# Si number density = 20.373111 Si / 1000 Ang^3
#
#
#
# Elastic Constant Matrix: (Units=GPa)
#
#
# Indices 1 2 3 4 5 6 
#
# 1 41.7007 27.1319 10.6951 0.0000 5.4900 0.0000
# 2 27.1319 169.8557 32.9631 0.0000 -2.0533 0.0000
# 3 10.6951 32.9631 59.9363 0.0000 6.5774 0.0000
# 4 0.0000 0.0000 0.0000 30.1986 0.0000 0.8654
# 5 5.4900 -2.0533 6.5774 0.0000 32.1166 0.0000
# 6 0.0000 0.0000 0.0000 0.8654 0.0000 31.0769
#
#
#
# Elastic Compliance Matrix: (Units=1/GPa)
#
#
# Indices 1 2 3 4 5 6 
#
# 1 0.027794 -0.004063 -0.002225 0.000000 -0.004555 0.000000
# 2 -0.004063 0.007229 -0.003456 0.000000 0.001864 0.000000
# 3 -0.002225 -0.003456 0.019400 0.000000 -0.003814 0.000000
# 4 0.000000 0.000000 0.000000 0.033141 0.000000 -0.000923
# 5 -0.004555 0.001864 -0.003814 0.000000 0.032815 0.000000
# 6 0.000000 0.000000 0.000000 -0.000923 0.000000 0.032204
#
#
# Mechanical properties :
#
#
# Convention : Reuss Voigt Hill
#
# Bulk Modulus (GPa) = 28.62328 45.89700 37.26014
# Shear Modulus (GPa) = 27.21572 32.05860 29.63716
#
# Velocity S-wave (km/s) = 3.65891 3.97113 3.81822
# Velocity P-wave (km/s) = 5.65068 6.60331 6.14548
#
# Compressibility (1/GPa) = 0.03493660
#
# Stress axis : x y z
#
# Youngs Moduli (GPa) = 35.97860 138.32232 51.54514
#
# Poissons Ratio (x) = 0.56199 0.11470
# Poissons Ratio (y) = 0.14618 0.17812
# Poissons Ratio (z) = 0.08006 0.47799
#
# Static dielectric constant tensor:
#      x y z
#    x 1.801680 0.000000 -0.019730 
#    y 0.000000 1.722080 0.000000 
#    z -0.019730 0.000000 1.819800 
# 
# From -- ./inp_files/206537.got.cif
#   From: 2010.05.17/outbox.cif.g08.bks.cpg/sg12_104_cif.got.tgz:206537.got - 2010.06.03 13:09:07.
