data_PCOD9213087
_publ_section_title
;
Structure prediction by ZEFSAII (Michael W. Deem and Ramdas Pophale) SiO2 
 PCOD9213087
Probable space group: C 2/M
;
_chemical_formula_sum "Si O2"
_cell_formula_units_Z 40
_cell_length_a 18.569991
_cell_length_b 16.390892
_cell_length_c 5.790403
_cell_angle_alpha 90.000000
_cell_angle_beta 90.908863
_cell_angle_gamma 90.000000
_cell_volume 1762.253700
_symmetry_space_group_name_H-M "C 2/M"
_symmetry_group_IT_number 12
_symmetry_cell_setting 'monoclinic'
loop_
_space_group_symop_operation_xyz
x,y,z
-x,y,-z
-x,-y,-z
x,-y,z
1/2+x,1/2+y,z
1/2-x,1/2+y,-z
1/2-x,1/2-y,-z
1/2+x,1/2-y,z
loop_
_atom_site_type_symbol
_atom_site_label
_atom_site_fract_x
_atom_site_fract_y
_atom_site_fract_z
Si Si1 0.322465 0.832875 0.096948
Si Si2 0.737461 0.681937 0.694898
Si Si3 0.980866 0.370540 0.248505
Si Si4 0.032474 0.183551 0.250356
Si Si5 0.820674 0.907655 0.689009
O O1 0.312071 0.736020 0.139986
O O2 0.395102 0.858548 0.221711
O O3 0.253860 0.882700 0.190337
O O4 0.311384 0.842455 0.822486
O O5 0.750000 0.750000 0.500000
O O6 0.697846 0.606218 0.581787
O O7 0.000000 0.406957 0.500000
O O8 0.020011 0.281426 0.249130
O O9 0.000000 0.408991 0.000000
O O10 0.114188 0.153092 0.257315
O O11 0.000000 0.155962 0.500000
O O12 0.000000 0.155342 0.000000
O O13 0.840222 0.000000 0.743435
#
# Coordination Sequence:
#
# PCOD9213087 Si02
#       5
#     8   8   8   8   8
#     4  10  22  38  65  95 125 166 225 279 326 384
#     4   9  20  35  64  90 120 163 222 280 320 371
#     4  10  22  36  63  96 129 161 210 280 338 380
#     4  10  23  40  61  91 133 173 215 266 325 391
#     4  11  25  41  63  93 134 180 218 263 325 401
#
# _framework density 22.698208999999999
#
# number of rings (size 3 to 8) (size 9 to 14) (size 15 to 20)
#    0.000    2.000    0.000    2.400   25.200    1.600 
#    0.000    0.000    0.000    1.200    0.000    0.000 
#    0.000    0.000    0.000    0.000    0.000    0.000 
#
# Total GULP energy -111480.254047 kJ/mol
# GULP energy per Si atom -5574.012702 kJ/mol
# Density = 2.264655 g / cm^3
# Si number density = 22.698209 Si / 1000 Ang^3
#
#
#
# Elastic Constant Matrix: (Units=GPa)
#
#
# Indices 1 2 3 4 5 6 
#
# 1 160.0571 48.6630 62.3170 0.0000 19.6580 0.0000
# 2 48.6630 68.7384 22.3535 0.0000 -0.2815 0.0000
# 3 62.3170 22.3535 179.0358 0.0000 24.9249 0.0000
# 4 0.0000 0.0000 0.0000 -5.6836 0.0000 0.5955
# 5 19.6580 -0.2815 24.9249 0.0000 45.5597 0.0000
# 6 0.0000 0.0000 0.0000 0.5955 0.0000 3.8571
#
#
#
# Elastic Compliance Matrix: (Units=1/GPa)
#
#
# Indices 1 2 3 4 5 6 
#
# 1 0.009180 -0.005838 -0.002067 0.000000 -0.002866 0.000000
# 2 -0.005838 0.018940 -0.000757 0.000000 0.003050 0.000000
# 3 -0.002067 -0.000757 0.006793 0.000000 -0.002829 0.000000
# 4 0.000000 0.000000 0.000000 -0.173144 0.000000 0.026733
# 5 -0.002866 0.003050 -0.002829 0.000000 0.024752 0.000000
# 6 0.000000 0.000000 0.000000 0.026733 0.000000 0.255133
#
#
# Mechanical properties :
#
#
# Convention : Reuss Voigt Hill
#
# Bulk Modulus (GPa) = 56.85869 74.94426 65.90148
# Shear Modulus (GPa) = 30.33195 27.04650 28.68922
#
# Velocity S-wave (km/s) = 3.65953 3.45566 3.55905
# Velocity P-wave (km/s) = 6.55442 7.00082 6.78129
#
# Compressibility (1/GPa) = 0.01758746
#
# Stress axis : x y z
#
# Youngs Moduli (GPa) = 108.93680 52.79895 147.20038
#
# Poissons Ratio (x) = 0.30825 0.30430
# Poissons Ratio (y) = 0.63599 0.11147
# Poissons Ratio (z) = 0.22520 0.03998
#
# Static dielectric constant tensor:
#      x y z
#    x 1.866050 0.000000 -0.061600 
#    y 0.000000 1.809630 0.000000 
#    z -0.061600 0.000000 2.174410 
# 
# From -- ./inp_files/15223.got.cif
#   From: 2010.05.17/outbox.cif.g08.bks.cpg/sg12_8_cif.got.tgz:15223.got - 2010.06.03 13:09:07.
