data_PCOD9213634
_publ_section_title
;
Structure prediction by ZEFSAII (Michael W. Deem and Ramdas Pophale) SiO2 
 PCOD9213634
Probable space group: C 2/M
;
_chemical_formula_sum "Si O2"
_cell_formula_units_Z 48
_cell_length_a 11.718704
_cell_length_b 15.332785
_cell_length_c 27.916035
_cell_angle_alpha 90.000000
_cell_angle_beta 151.443643
_cell_angle_gamma 90.000000
_cell_volume 2397.745640
_symmetry_space_group_name_H-M "C 2/M"
_symmetry_group_IT_number 12
_symmetry_cell_setting 'monoclinic'
loop_
_space_group_symop_operation_xyz
x,y,z
-x,y,-z
-x,-y,-z
x,-y,z
1/2+x,1/2+y,z
1/2-x,1/2+y,-z
1/2-x,1/2-y,-z
1/2+x,1/2-y,z
loop_
_atom_site_type_symbol
_atom_site_label
_atom_site_fract_x
_atom_site_fract_y
_atom_site_fract_z
Si Si1 0.406358 0.249604 0.332748
Si Si2 0.172515 0.500000 0.491414
Si Si3 0.481444 0.357055 0.207479
Si Si4 0.132428 0.000000 0.332194
Si Si5 0.695199 0.601750 0.961021
Si Si6 0.372636 0.235897 0.866800
Si Si7 0.879007 0.152731 0.504565
O O1 0.261294 0.278543 0.232924
O O2 0.679022 0.226226 0.419580
O O3 0.427691 0.311407 0.386593
O O4 0.249558 0.168471 0.292865
O O5 0.337934 0.500000 0.599993
O O6 0.236865 0.580954 0.481800
O O7 0.901936 0.500000 0.410293
O O8 0.497564 0.418269 0.259478
O O9 0.365874 0.399581 0.118105
O O10 0.321826 0.273958 0.162989
O O11 0.700678 0.500000 0.979536
O O12 0.499812 0.669052 0.911966
O O13 0.937525 0.657594 0.056544
O O14 0.000000 0.123601 0.500000
#
# Coordination Sequence:
#
# PCOD9213634 Si02
#       7
#     8   4   8   4   8   8   8
#     4  10  22  39  59  88 123 164 215 258 325 375
#     4  11  23  38  56  92 128 167 208 276 325 373
#     4  11  20  38  64  93 122 165 215 266 321 382
#     4  11  22  36  61  96 131 158 215 282 321 374
#     4  10  22  40  64  94 128 164 216 263 326 392
#     4  10  22  38  62  94 128 166 207 274 322 384
#     4  11  22  39  61  86 124 171 214 257 319 396
#
# _framework density 20.018803999999999
#
# number of rings (size 3 to 8) (size 9 to 14) (size 15 to 20)
#    0.000    1.500    2.500    2.750    1.167    2.000 
#    1.500    0.000    1.833   13.000    0.000    0.000 
#    0.000    0.000    0.000    0.000    0.000    0.000 
#
# Total GULP energy -133836.230680 kJ/mol
# GULP energy per Si atom -5576.509612 kJ/mol
# Density = 1.997324 g / cm^3
# Si number density = 20.018804 Si / 1000 Ang^3
#
#
#
# Elastic Constant Matrix: (Units=GPa)
#
#
# Indices 1 2 3 4 5 6 
#
# 1 87.4233 28.5282 11.6984 0.0026 -1.4586 0.0018
# 2 28.5282 100.4169 42.7374 -0.0267 -9.4549 -0.0166
# 3 11.6984 42.7374 81.7707 -0.0332 5.9582 -0.0201
# 4 0.0026 -0.0267 -0.0332********** -0.1824-9559.1097
# 5 -1.4586 -9.4549 5.9582 -0.1824 13.0719 -0.1137
# 6 0.0018 -0.0166 -0.0201-9559.1097 -0.1137-5942.6189
#
#
#
# Elastic Compliance Matrix: (Units=1/GPa)
#
#
# Indices 1 2 3 4 5 6 
#
# 1 0.012633 -0.003875 0.000330 0.000000 -0.001544 0.000000
# 2 -0.003875 0.016437 -0.009176 0.000000 0.015639 0.000000
# 3 0.000330 -0.009176 0.018059 0.000000 -0.014831 0.000000
# 4 0.000000 0.000000 0.000000 0.010126 -0.000001 -0.016289
# 5 -0.001544 0.015639 -0.014831 -0.000001 0.094400 -0.000001
# 6 0.000000 0.000000 0.000000 -0.016289 -0.000001 0.026034
#
#
# Mechanical properties :
#
#
# Convention : Reuss Voigt Hill
#
# Bulk Modulus (GPa) = 46.10927 48.39321 47.25124
# Shear Modulus (GPa) = 23.76884 -4229.01256 -2102.62186
#
# Velocity S-wave (km/s) = 3.44950 -46.01202 -32.44385
# Velocity P-wave (km/s) = 6.24086 52.90162 37.14588
#
# Compressibility (1/GPa) = 0.02168761
#
# Stress axis : x y z
#
# Youngs Moduli (GPa) = 79.15695 60.83747 55.37522
#
# Poissons Ratio (x) = 0.23575 -0.01830
# Poissons Ratio (y) = 0.30674 0.50813
# Poissons Ratio (z) = -0.02616 0.55825
#
# Static dielectric constant tensor:
#      x y z
#    x 1.708430 0.000000 0.020170 
#    y 0.000000 1.823060 0.000000 
#    z 0.020170 0.000000 1.707880 
# 
# From -- ./inp_files/358363.got.cif
#   From: 2010.05.17/outbox.cif.g08.bks.cpg/sg12_180_cif.got.tgz:358363.got - 2010.06.03 13:09:07.
