data_PCOD9213309
_publ_section_title
;
Structure prediction by ZEFSAII (Michael W. Deem and Ramdas Pophale) SiO2 
 PCOD9213309
Probable space group: C 2/M
;
_chemical_formula_sum "Si O2"
_cell_formula_units_Z 48
_cell_length_a 9.786151
_cell_length_b 23.769580
_cell_length_c 9.921190
_cell_angle_alpha 90.000000
_cell_angle_beta 111.131660
_cell_angle_gamma 90.000000
_cell_volume 2152.605897
_symmetry_space_group_name_H-M "C 2/M"
_symmetry_group_IT_number 12
_symmetry_cell_setting 'monoclinic'
loop_
_space_group_symop_operation_xyz
x,y,z
-x,y,-z
-x,-y,-z
x,-y,z
1/2+x,1/2+y,z
1/2-x,1/2+y,-z
1/2-x,1/2-y,-z
1/2+x,1/2-y,z
loop_
_atom_site_type_symbol
_atom_site_label
_atom_site_fract_x
_atom_site_fract_y
_atom_site_fract_z
Si Si1 0.437586 0.436090 0.627528
Si Si2 0.656197 0.000000 0.127212
Si Si3 0.418435 0.802397 0.845346
Si Si4 0.648764 0.895773 0.626621
Si Si5 0.512225 0.000000 0.669844
Si Si6 0.303600 0.380028 0.148953
Si Si7 0.734893 0.806607 0.858441
O O1 0.500000 0.433892 0.500000
O O2 0.458242 0.500000 0.686462
O O3 0.265731 0.423519 0.569322
O O4 0.530823 0.392216 0.748400
O O5 0.623538 0.000000 0.277122
O O6 0.736134 0.057561 0.115053
O O7 0.500000 0.000000 0.000000
O O8 0.288616 0.845977 0.768143
O O9 0.561169 0.789679 0.807497
O O10 0.338890 0.746405 0.870168
O O11 0.500000 0.832292 0.000000
O O12 0.500000 0.877871 0.500000
O O13 0.731334 0.846087 0.728766
O O14 0.601645 0.942383 0.721163
O O15 0.500000 0.000000 0.500000
O O16 0.288773 0.342292 0.008148
#
# Coordination Sequence:
#
# PCOD9213309 Si02
#       7
#     8   4   8   8   4   8   8
#     4  11  26  44  68 100 140 187 222 273 351 419
#     4  12  22  37  67 105 138 174 218 293 347 398
#     4  10  22  42  68  97 133 182 222 279 341 413
#     4  11  25  43  67  98 137 181 229 286 342 419
#     4  10  22  37  65  91 133 182 222 266 337 419
#     4  11  23  41  69 100 138 172 230 277 338 418
#     4  11  25  44  71 102 132 179 237 282 349 404
#
# _framework density 22.298556000000001
#
# number of rings (size 3 to 8) (size 9 to 14) (size 15 to 20)
#    0.000    1.167    1.667    5.500   11.667    0.000 
#    0.000    2.500    0.000    0.000    0.000    0.000 
#    0.000    0.000    0.000    0.000    0.000    0.000 
#
# Total GULP energy -133934.147061 kJ/mol
# GULP energy per Si atom -5580.589461 kJ/mol
# Density = 2.224780 g / cm^3
# Si number density = 22.298556 Si / 1000 Ang^3
#
#
#
# Elastic Constant Matrix: (Units=GPa)
#
#
# Indices 1 2 3 4 5 6 
#
# 1 140.8507 47.1638 37.1212 0.0000 15.6926 0.0000
# 2 47.1638 122.4235 33.8766 0.0000 5.5336 0.0000
# 3 37.1212 33.8766 68.9624 0.0000 14.7820 0.0000
# 4 0.0000 0.0000 0.0000 21.4647 0.0000 3.6183
# 5 15.6926 5.5336 14.7820 0.0000 31.3167 0.0000
# 6 0.0000 0.0000 0.0000 3.6183 0.0000 42.2178
#
#
#
# Elastic Compliance Matrix: (Units=1/GPa)
#
#
# Indices 1 2 3 4 5 6 
#
# 1 0.009045 -0.002517 -0.003066 0.000000 -0.002640 0.000000
# 2 -0.002517 0.010163 -0.003920 0.000000 0.001315 0.000000
# 3 -0.003066 -0.003920 0.019580 0.000000 -0.007013 0.000000
# 4 0.000000 0.000000 0.000000 0.047271 0.000000 -0.004051
# 5 -0.002640 0.001315 -0.007013 0.000000 0.036333 0.000000
# 6 0.000000 0.000000 0.000000 -0.004051 0.000000 0.024034
#
#
# Mechanical properties :
#
#
# Convention : Reuss Voigt Hill
#
# Bulk Modulus (GPa) = 50.55064 63.17330 56.86197
# Shear Modulus (GPa) = 29.06554 33.27151 31.16853
#
# Velocity S-wave (km/s) = 3.61428 3.86695 3.74275
# Velocity P-wave (km/s) = 6.33534 6.95197 6.65081
#
# Compressibility (1/GPa) = 0.01978214
#
# Stress axis : x y z
#
# Youngs Moduli (GPa) = 110.56179 98.39511 51.07254
#
# Poissons Ratio (x) = 0.24762 0.15661
# Poissons Ratio (y) = 0.27824 0.20019
# Poissons Ratio (z) = 0.33903 0.38569
#
# Static dielectric constant tensor:
#      x y z
#    x 1.864490 0.000000 -0.028670 
#    y 0.000000 1.849750 0.000000 
#    z -0.028670 0.000000 1.849380 
# 
# From -- ./inp_files/122592.got.cif
#   From: 2010.05.17/outbox.cif.g08.bks.cpg/sg12_62_cif.got.tgz:122592.got - 2010.06.03 13:09:07.
