data_PCOD9213628
_publ_section_title
;
Structure prediction by ZEFSAII (Michael W. Deem and Ramdas Pophale) SiO2 
 PCOD9213628
Probable space group: C 2/M
;
_chemical_formula_sum "Si O2"
_cell_formula_units_Z 28
_cell_length_a 10.144913
_cell_length_b 22.708906
_cell_length_c 4.997751
_cell_angle_alpha 90.000000
_cell_angle_beta 99.522011
_cell_angle_gamma 90.000000
_cell_volume 1135.517665
_symmetry_space_group_name_H-M "C 2/M"
_symmetry_group_IT_number 12
_symmetry_cell_setting 'monoclinic'
loop_
_space_group_symop_operation_xyz
x,y,z
-x,y,-z
-x,-y,-z
x,-y,z
1/2+x,1/2+y,z
1/2-x,1/2+y,-z
1/2-x,1/2-y,-z
1/2+x,1/2-y,z
loop_
_atom_site_type_symbol
_atom_site_label
_atom_site_fract_x
_atom_site_fract_y
_atom_site_fract_z
Si Si1 0.865743 0.069709 0.299687
Si Si2 0.409390 0.730227 0.732605
Si Si3 0.231841 0.623125 0.736332
Si Si4 0.500000 0.843269 0.000000
O O1 0.751472 0.085762 0.475543
O O2 0.000000 0.091274 0.500000
O O3 0.879544 0.000000 0.266351
O O4 0.827313 0.097433 0.003117
O O5 0.500000 0.729121 0.500000
O O6 0.278906 0.690165 0.687296
O O7 0.396280 0.797701 0.824943
O O8 0.500000 0.704150 0.000000
O O9 0.084786 0.622627 0.811215
#
# Coordination Sequence:
#
# PCOD9213628 Si02
#       4
#     8   8   8   4
#     4  11  25  45  70  95 120 161 221 275 317 365
#     4  10  22  38  62  92 129 170 210 258 301 371
#     4  12  23  42  67  95 132 170 206 262 321 373
#     4  10  28  38  63  98 139 168 210 246 314 398
#
# _framework density 24.658356999999999
#
# number of rings (size 3 to 8) (size 9 to 14) (size 15 to 20)
#    0.857    0.286    0.000    6.857    4.000    3.429 
#    0.000    4.286    0.000    0.000    0.000    0.000 
#    0.000    0.000    0.000    0.000    0.000    0.000 
#
# Total GULP energy -78386.823265 kJ/mol
# GULP energy per Si atom -5599.058805 kJ/mol
# Density = 2.460223 g / cm^3
# Si number density = 24.658357 Si / 1000 Ang^3
#
#
#
# Elastic Constant Matrix: (Units=GPa)
#
#
# Indices 1 2 3 4 5 6 
#
# 1 60.9523 6.5079 11.0550 0.0000 -2.4331 0.0000
# 2 6.5079 59.1703 7.2985 0.0000 8.5582 0.0000
# 3 11.0550 7.2985 162.9179 0.0000 -0.7007 0.0000
# 4 0.0000 0.0000 0.0000 27.7136 0.0000 -12.9386
# 5 -2.4331 8.5582 -0.7007 0.0000 60.5942 0.0000
# 6 0.0000 0.0000 0.0000 -12.9386 0.0000 3.3620
#
#
#
# Elastic Compliance Matrix: (Units=1/GPa)
#
#
# Indices 1 2 3 4 5 6 
#
# 1 0.016833 -0.001855 -0.001055 0.000000 0.000926 0.000000
# 2 -0.001855 0.017558 -0.000672 0.000000 -0.002562 0.000000
# 3 -0.001055 -0.000672 0.006240 0.000000 0.000125 0.000000
# 4 0.000000 0.000000 0.000000 -0.045291 0.000000 -0.174298
# 5 0.000926 -0.002562 0.000125 0.000000 0.016904 0.000000
# 6 0.000000 0.000000 0.000000 -0.174298 0.000000 -0.373335
#
#
# Mechanical properties :
#
#
# Convention : Reuss Voigt Hill
#
# Bulk Modulus (GPa) = 29.88023 36.97369 33.42696
# Shear Modulus (GPa) = -14.58694 35.54590 10.47948
#
# Velocity S-wave (km/s) = -2.43484 3.80088 2.06376
# Velocity P-wave (km/s) = 2.05898 5.85569 4.38911
#
# Compressibility (1/GPa) = 0.03346694
#
# Stress axis : x y z
#
# Youngs Moduli (GPa) = 59.40835 56.95467 160.24907
#
# Poissons Ratio (x) = 0.10566 0.16908
# Poissons Ratio (y) = 0.11021 0.10764
# Poissons Ratio (z) = 0.06268 0.03826
#
# Static dielectric constant tensor:
#      x y z
#    x 1.937700 0.000000 0.072040 
#    y 0.000000 1.920740 0.000000 
#    z 0.072040 0.000000 1.912160 
# 
# From -- ./inp_files/6528.got.cif
#   From: 2010.05.17/outbox.cif.g08.bks.cpg/sg12_4_cif.got.tgz:6528.got - 2010.06.03 13:09:07.
