data_PCOD9213709
_publ_section_title
;
Structure prediction by ZEFSAII (Michael W. Deem and Ramdas Pophale) SiO2 
 PCOD9213709
Probable space group: C 2/M
;
_chemical_formula_sum "Si O2"
_cell_formula_units_Z 42
_cell_length_a 17.270908
_cell_length_b 12.794707
_cell_length_c 8.274409
_cell_angle_alpha 90.000000
_cell_angle_beta 99.329862
_cell_angle_gamma 90.000000
_cell_volume 1804.259639
_symmetry_space_group_name_H-M "C 2/M"
_symmetry_group_IT_number 12
_symmetry_cell_setting 'monoclinic'
loop_
_space_group_symop_operation_xyz
x,y,z
-x,y,-z
-x,-y,-z
x,-y,z
1/2+x,1/2+y,z
1/2-x,1/2+y,-z
1/2-x,1/2-y,-z
1/2+x,1/2-y,z
loop_
_atom_site_type_symbol
_atom_site_label
_atom_site_fract_x
_atom_site_fract_y
_atom_site_fract_z
Si Si1 0.813666 0.000000 0.847524
Si Si2 0.453268 0.880974 0.246201
Si Si3 0.877665 0.382707 0.870201
Si Si4 0.084448 0.822760 0.557078
Si Si5 0.000000 0.000000 0.000000
Si Si6 0.798584 0.207754 0.668590
Si Si7 0.635955 0.500000 0.793718
O O1 0.910221 0.000000 0.873346
O O2 0.776483 0.101436 0.750527
O O3 0.803297 0.000000 0.037535
O O4 0.542402 0.868186 0.209338
O O5 0.428374 0.789730 0.360273
O O6 0.445372 0.000000 0.307749
O O7 0.402461 0.872943 0.065109
O O8 0.851277 0.500000 0.826066
O O9 0.814381 0.297604 0.802114
O O10 0.119937 0.814284 0.392850
O O11 0.000000 0.871340 0.500000
O O12 0.137641 0.897051 0.685243
O O13 0.050023 0.000000 0.850828
O O14 0.750000 0.250000 0.500000
#
# Coordination Sequence:
#
# PCOD9213709 Si02
#       7
#     4   8   8   8   2   8   4
#     4  10  23  44  65  94 120 171 211 252 318 384
#     4   9  19  36  62  93 120 155 211 255 299 368
#     4   9  19  38  62  88 120 166 203 248 308 369
#     4  12  22  37  62  96 124 155 210 268 318 366
#     4   8  20  36  74  92 118 158 216 268 300 356
#     4  12  26  41  62  90 132 166 201 257 330 387
#     4  10  22  38  65  93 122 158 210 270 310 367
#
# _framework density 23.278248000000001
#
# number of rings (size 3 to 8) (size 9 to 14) (size 15 to 20)
#    0.571    1.143    1.905    4.286    1.333    1.143 
#    0.000    3.810    0.000    0.000    0.000    0.000 
#    0.000    0.000    0.000    0.000    0.000    0.000 
#
# Total GULP energy -117069.039274 kJ/mol
# GULP energy per Si atom -5574.716156 kJ/mol
# Density = 2.322527 g / cm^3
# Si number density = 23.278248 Si / 1000 Ang^3
#
#
#
# Elastic Constant Matrix: (Units=GPa)
#
#
# Indices 1 2 3 4 5 6 
#
# 1 35.9446 -2.2161 -9.5006 0.0000 3.9725 0.0000
# 2 -2.2161 196.5585 90.9452 0.0000 18.9368 0.0000
# 3 -9.5006 90.9452 107.9432 0.0000 16.4924 0.0000
# 4 0.0000 0.0000 0.0000 26.1045 0.0000 9.0508
# 5 3.9725 18.9368 16.4924 0.0000 42.9374 0.0000
# 6 0.0000 0.0000 0.0000 9.0508 0.0000 5.4776
#
#
#
# Elastic Compliance Matrix: (Units=1/GPa)
#
#
# Indices 1 2 3 4 5 6 
#
# 1 0.029273 -0.001254 0.004209 0.000000 -0.003772 0.000000
# 2 -0.001254 0.008436 -0.007083 0.000000 -0.000884 0.000000
# 3 0.004209 -0.007083 0.016131 0.000000 -0.003462 0.000000
# 4 0.000000 0.000000 0.000000 0.089688 0.000000 -0.148192
# 5 -0.003772 -0.000884 -0.003462 0.000000 0.025358 0.000000
# 6 0.000000 0.000000 0.000000 -0.148192 0.000000 0.427422
#
#
# Mechanical properties :
#
#
# Convention : Reuss Voigt Hill
#
# Bulk Modulus (GPa) = 21.93729 55.43371 38.68550
# Shear Modulus (GPa) = 8.06769 32.31841 20.19305
#
# Velocity S-wave (km/s) = 1.86368 3.73010 2.94847
# Velocity P-wave (km/s) = 3.75173 6.51282 5.31471
#
# Compressibility (1/GPa) = 0.04558449
#
# Stress axis : x y z
#
# Youngs Moduli (GPa) = 34.16145 118.54564 61.99326
#
# Poissons Ratio (x) = 0.14869 -0.26096
# Poissons Ratio (y) = 0.04285 0.43907
# Poissons Ratio (z) = -0.14380 0.83961
#
# Static dielectric constant tensor:
#      x y z
#    x 2.011770 0.000000 0.039720 
#    y 0.000000 1.880330 0.000000 
#    z 0.039720 0.000000 1.822720 
# 
# From -- ./inp_files/84282.got.cif
#   From: 2010.05.17/outbox.cif.g08.bks.cpg/sg12_43_cif.got.tgz:84282.got - 2010.06.03 13:09:07.
