data_PCOD9213323
_publ_section_title
;
Structure prediction by ZEFSAII (Michael W. Deem and Ramdas Pophale) SiO2 
 PCOD9213323
Probable space group: C 2/M
;
_chemical_formula_sum "Si O2"
_cell_formula_units_Z 48
_cell_length_a 19.788134
_cell_length_b 14.530692
_cell_length_c 19.994969
_cell_angle_alpha 90.000000
_cell_angle_beta 158.486239
_cell_angle_gamma 90.000000
_cell_volume 2108.395168
_symmetry_space_group_name_H-M "C 2/M"
_symmetry_group_IT_number 12
_symmetry_cell_setting 'monoclinic'
loop_
_space_group_symop_operation_xyz
x,y,z
-x,y,-z
-x,-y,-z
x,-y,z
1/2+x,1/2+y,z
1/2-x,1/2+y,-z
1/2-x,1/2-y,-z
1/2+x,1/2-y,z
loop_
_atom_site_type_symbol
_atom_site_label
_atom_site_fract_x
_atom_site_fract_y
_atom_site_fract_z
Si Si1 0.368132 0.393570 0.044822
Si Si2 0.284365 0.399831 0.819820
Si Si3 0.223748 0.218819 0.375955
Si Si4 0.092830 0.781461 0.646994
Si Si5 0.328067 0.396256 0.156790
Si Si6 0.272504 0.896475 0.554167
O O1 0.422462 0.500000 0.107252
O O2 0.548857 0.337430 0.190348
O O3 0.289049 0.362240 0.044374
O O4 0.249869 0.394051 0.868550
O O5 0.209343 0.500000 0.727898
O O6 0.207943 0.303713 0.723607
O O7 0.500000 0.402974 0.000000
O O8 0.415804 0.235357 0.517727
O O9 0.283576 0.158398 0.495361
O O10 0.150041 0.322476 0.322565
O O11 0.000000 0.838197 0.500000
O O12 0.206733 0.834492 0.809585
O O13 0.253686 0.500000 0.095688
O O14 0.552364 0.401929 0.364360
O O15 0.347905 0.000000 0.623149
#
# Coordination Sequence:
#
# PCOD9213323 Si02
#       6
#     8   8   8   8   8   8
#     4   9  17  33  56  76 100 134 165 198 247 305
#     4  10  22  38  53  71 100 138 170 199 248 306
#     4   9  16  28  49  74  97 125 163 205 243 283
#     4  11  22  33  50  76 102 131 170 212 246 284
#     4   8  16  32  53  77 101 128 165 205 249 299
#     4   8  14  26  46  73 103 129 155 195 249 301
#
# _framework density 22.766131000000001
#
# number of rings (size 3 to 8) (size 9 to 14) (size 15 to 20)
#    0.000    2.833    0.000    3.500    0.000    2.667 
#    0.000    0.000    0.000    1.500    0.000    0.000 
#    0.000    0.000    0.000    0.000    0.000    0.000 
#
# Total GULP energy -133609.707705 kJ/mol
# GULP energy per Si atom -5567.071154 kJ/mol
# Density = 2.271431 g / cm^3
# Si number density = 22.766131 Si / 1000 Ang^3
#
#
#
# Elastic Constant Matrix: (Units=GPa)
#
#
# Indices 1 2 3 4 5 6 
#
# 1 39.6862 30.2368 12.0285 -0.0002 -6.1317 0.0040
# 2 30.2368 125.3390 20.3335 -0.0025 -7.1691 0.0045
# 3 12.0285 20.3335 24.9130 -0.0051 -9.7520 0.0006
# 4 -0.0002 -0.0025 -0.0051 21.9832 -0.0021 2.4298
# 5 -6.1317 -7.1691 -9.7520 -0.0021 31.0322 0.0008
# 6 0.0040 0.0045 0.0006 2.4298 0.0008 10.8849
#
#
#
# Elastic Compliance Matrix: (Units=1/GPa)
#
#
# Indices 1 2 3 4 5 6 
#
# 1 0.033385 -0.006283 -0.010236 -0.000002 0.001928 -0.000009
# 2 -0.006283 0.010380 -0.005685 0.000000 -0.000630 -0.000002
# 3 -0.010236 -0.005685 0.055208 0.000014 0.014013 -0.000001
# 4 -0.000002 0.000000 0.000014 0.046640 0.000007 -0.010411
# 5 0.001928 -0.000630 0.014013 0.000007 0.036864 -0.000006
# 6 -0.000009 -0.000002 -0.000001 -0.010411 -0.000006 0.094195
#
#
# Mechanical properties :
#
#
# Convention : Reuss Voigt Hill
#
# Bulk Modulus (GPa) = 18.32705 35.01509 26.67107
# Shear Modulus (GPa) = 14.73759 21.26935 18.00347
#
# Velocity S-wave (km/s) = 2.54706 3.05987 2.81517
# Velocity P-wave (km/s) = 4.08872 5.28181 4.72309
#
# Compressibility (1/GPa) = 0.05456416
#
# Stress axis : x y z
#
# Youngs Moduli (GPa) = 29.95350 96.33602 18.11343
#
# Poissons Ratio (x) = 0.60527 0.18541
# Poissons Ratio (y) = 0.18820 0.10298
# Poissons Ratio (z) = 0.30661 0.54770
#
# Static dielectric constant tensor:
#      x y z
#    x 1.918240 0.000000 -0.063000 
#    y 0.000000 1.914330 0.000000 
#    z -0.063000 0.000000 1.904110 
# 
# From -- ./inp_files/278229.got.cif
#   From: 2010.05.17/outbox.cif.g08.bks.cpg/sg12_140_cif.got.tgz:278229.got - 2010.06.03 13:09:07.
