data_PCOD9213041
_publ_section_title
;
Structure prediction by ZEFSAII (Michael W. Deem and Ramdas Pophale) SiO2 
 PCOD9213041
Probable space group: C 2/M
;
_chemical_formula_sum "Si O2"
_cell_formula_units_Z 32
_cell_length_a 30.092195
_cell_length_b 7.593829
_cell_length_c 29.118386
_cell_angle_alpha 90.000000
_cell_angle_beta 165.385266
_cell_angle_gamma 90.000000
_cell_volume 1678.922164
_symmetry_space_group_name_H-M "C 2/M"
_symmetry_group_IT_number 12
_symmetry_cell_setting 'monoclinic'
loop_
_space_group_symop_operation_xyz
x,y,z
-x,y,-z
-x,-y,-z
x,-y,z
1/2+x,1/2+y,z
1/2-x,1/2+y,-z
1/2-x,1/2-y,-z
1/2+x,1/2-y,z
loop_
_atom_site_type_symbol
_atom_site_label
_atom_site_fract_x
_atom_site_fract_y
_atom_site_fract_z
Si Si1 0.040281 0.500000 0.486712
Si Si2 0.459309 0.290801 0.584297
Si Si3 0.250066 0.209664 0.946499
Si Si4 0.459167 0.790795 0.834172
Si Si5 0.040341 0.000000 0.093911
O O1 0.982217 0.673123 0.400574
O O2 0.249971 0.500000 0.693226
O O3 0.000000 0.500000 0.500000
O O4 0.485563 0.500000 0.602298
O O5 0.576948 0.232309 0.745289
O O6 0.250072 0.264608 0.383309
O O7 0.250075 0.000000 0.943342
O O8 0.250000 0.250000 0.000000
O O9 0.423213 0.267690 0.091566
O O10 0.517687 0.673123 0.936036
O O11 0.485422 0.000000 0.868679
O O12 0.000000 0.000000 0.000000
#
# Coordination Sequence:
#
# PCOD9213041 Si02
#       5
#     4   8   8   8   4
#     4  10  22  36  58  88 110 154 196 233 295 337
#     4   9  20  39  56  78 118 151 186 239 282 344
#     4  10  22  36  58  88 110 154 196 233 295 337
#     4   9  20  39  56  78 118 151 186 239 282 344
#     4  10  22  36  58  88 110 154 196 233 295 337
#
# _framework density 19.059847000000001
#
# number of rings (size 3 to 8) (size 9 to 14) (size 15 to 20)
#    0.000    2.500    0.000    0.000    7.000    2.000 
#    0.000    0.000    0.000    0.000    0.000    0.000 
#    0.000    0.000    0.000    0.000    0.000    0.000 
#
# Total GULP energy -89196.272489 kJ/mol
# GULP energy per Si atom -5574.767031 kJ/mol
# Density = 1.901647 g / cm^3
# Si number density = 19.059847 Si / 1000 Ang^3
#
#
#
# Elastic Constant Matrix: (Units=GPa)
#
#
# Indices 1 2 3 4 5 6 
#
# 1 207.4585 71.5151 73.5708 -0.0002 -17.7868 0.0000
# 2 71.5151 79.5811 51.3138 0.0066 -5.4953 0.0016
# 3 73.5708 51.3138 87.0121 -0.0187 -15.0020 -0.0047
# 4 -0.0002 0.0066 -0.0187 11.1513 -0.0062 -5.8924
# 5 -17.7868 -5.4953 -15.0020 -0.0062 35.0255 -0.0011
# 6 0.0000 0.0016 -0.0047 -5.8924 -0.0011 32.7772
#
#
#
# Elastic Compliance Matrix: (Units=1/GPa)
#
#
# Indices 1 2 3 4 5 6 
#
# 1 0.007832 -0.004583 -0.003626 -0.000003 0.001705 -0.000001
# 2 -0.004583 0.023101 -0.010284 -0.000038 -0.003108 -0.000009
# 3 -0.003626 -0.010284 0.021624 0.000052 0.005807 0.000013
# 4 -0.000003 -0.000038 0.000052 0.099089 0.000033 0.017813
# 5 0.001705 -0.003108 0.005807 0.000033 0.031416 0.000008
# 6 -0.000001 -0.000009 0.000013 0.017813 0.000008 0.033711
#
#
# Mechanical properties :
#
#
# Convention : Reuss Voigt Hill
#
# Bulk Modulus (GPa) = 64.21757 85.20567 74.71162
# Shear Modulus (GPa) = 19.30883 27.63426 23.47154
#
# Velocity S-wave (km/s) = 3.18632 3.81184 3.51303
# Velocity P-wave (km/s) = 6.87769 8.01092 7.46584
#
# Compressibility (1/GPa) = 0.01557206
#
# Stress axis : x y z
#
# Youngs Moduli (GPa) = 127.68348 43.28890 46.24409
#
# Poissons Ratio (x) = 0.19837 0.16766
# Poissons Ratio (y) = 0.58512 0.47559
# Poissons Ratio (z) = 0.46292 0.44520
#
# Static dielectric constant tensor:
#      x y z
#    x 1.672700 0.000000 0.014440 
#    y 0.000000 1.728620 -0.000010 
#    z 0.014440 -0.000010 1.725280 
# 
# From -- ./inp_files/92324.got.cif
#   From: 2010.05.17/outbox.cif.g08.bks.cpg/sg12_47_cif.got.tgz:92324.got - 2010.06.03 13:09:07.
