data_PCOD9213506
_publ_section_title
;
Structure prediction by ZEFSAII (Michael W. Deem and Ramdas Pophale) SiO2 
 PCOD9213506
Probable space group: C 2/M
;
_chemical_formula_sum "Si O2"
_cell_formula_units_Z 64
_cell_length_a 23.200716
_cell_length_b 15.291661
_cell_length_c 16.417426
_cell_angle_alpha 90.000000
_cell_angle_beta 32.630374
_cell_angle_gamma 90.000000
_cell_volume 3140.689097
_symmetry_space_group_name_H-M "C 2/M"
_symmetry_group_IT_number 12
_symmetry_cell_setting 'monoclinic'
loop_
_space_group_symop_operation_xyz
x,y,z
-x,y,-z
-x,-y,-z
x,-y,z
1/2+x,1/2+y,z
1/2-x,1/2+y,-z
1/2-x,1/2-y,-z
1/2+x,1/2-y,z
loop_
_atom_site_type_symbol
_atom_site_label
_atom_site_fract_x
_atom_site_fract_y
_atom_site_fract_z
Si Si1 0.563835 0.849078 0.629357
Si Si2 0.406979 0.728073 0.899834
Si Si3 0.446934 0.397860 0.699797
Si Si4 0.908525 0.405137 0.677316
Si Si5 0.491104 0.600028 0.107483
Si Si6 0.224888 0.099336 0.534538
Si Si7 0.204277 0.219747 0.217861
Si Si8 0.327874 0.683640 0.568484
O O1 0.504059 0.793860 0.769603
O O2 0.472665 0.897234 0.686211
O O3 0.664557 0.897621 0.547620
O O4 0.613804 0.776851 0.509810
O O5 0.410164 0.659262 0.821790
O O6 0.426497 0.668927 0.954918
O O7 0.301120 0.783753 0.039039
O O8 0.420714 0.500000 0.736792
O O9 0.387914 0.348145 0.696996
O O10 0.574342 0.384738 0.541029
O O11 0.851761 0.500000 0.741568
O O12 0.839497 0.318748 0.742184
O O13 0.000000 0.405940 0.500000
O O14 0.515508 0.500000 0.103600
O O15 0.374936 0.620432 0.286438
O O16 0.500000 0.603337 0.000000
O O17 0.227272 0.161246 0.452129
O O18 0.207328 0.000000 0.526666
O O19 0.237030 0.193670 0.270805
#
# Coordination Sequence:
#
# PCOD9213506 Si02
#       8
#     8   8   8   8   8   8   8   8
#     4  11  22  40  62  88 120 168 210 263 309 383
#     4  11  24  39  62  87 131 163 211 259 326 380
#     4  11  22  41  68  94 125 168 218 269 321 376
#     4  11  22  39  63  93 129 168 210 261 316 381
#     4  10  22  38  59  93 128 158 204 262 316 379
#     4  11  23  41  65  92 122 166 215 262 320 380
#     4  12  24  42  61  97 131 170 211 266 319 386
#     4  11  22  39  67  90 128 163 215 262 319 375
#
# _framework density 20.377694000000002
#
# number of rings (size 3 to 8) (size 9 to 14) (size 15 to 20)
#    0.000    1.000    6.250    2.250    1.750    2.500 
#    0.000    0.625    0.000    0.750    0.000    0.000 
#    0.000    0.000    0.000    0.000    0.000    0.000 
#
# Total GULP energy -178590.762794 kJ/mol
# GULP energy per Si atom -5580.961337 kJ/mol
# Density = 2.033131 g / cm^3
# Si number density = 20.377694 Si / 1000 Ang^3
#
#
#
# Elastic Constant Matrix: (Units=GPa)
#
#
# Indices 1 2 3 4 5 6 
#
# 1 71.0744 19.6344 18.5263 0.0000 6.1580 0.0000
# 2 19.6344 76.6026 17.9005 0.0000 2.4824 0.0000
# 3 18.5263 17.9005 54.0845 0.0000 2.7061 0.0000
# 4 0.0000 0.0000 0.0000 11.4489 0.0000 -9.9781
# 5 6.1580 2.4824 2.7061 0.0000 22.8699 0.0000
# 6 0.0000 0.0000 0.0000 -9.9781 0.0000 -48.3249
#
#
#
# Elastic Compliance Matrix: (Units=1/GPa)
#
#
# Indices 1 2 3 4 5 6 
#
# 1 0.016372 -0.003048 -0.004422 0.000000 -0.003554 0.000000
# 2 -0.003048 0.014738 -0.003818 0.000000 -0.000327 0.000000
# 3 -0.004422 -0.003818 0.021314 0.000000 -0.000917 0.000000
# 4 0.000000 0.000000 0.000000 0.074024 0.000000 -0.015284
# 5 -0.003554 -0.000327 -0.000917 0.000000 0.044827 0.000000
# 6 0.000000 0.000000 0.000000 -0.015284 0.000000 -0.017537
#
#
# Mechanical properties :
#
#
# Convention : Reuss Voigt Hill
#
# Bulk Modulus (GPa) = 33.50095 34.87599 34.18847
# Shear Modulus (GPa) = 26.84400 6.91215 16.87807
#
# Velocity S-wave (km/s) = 3.63343 1.84374 2.88108
# Velocity P-wave (km/s) = 5.83765 4.65666 5.28027
#
# Compressibility (1/GPa) = 0.02984990
#
# Stress axis : x y z
#
# Youngs Moduli (GPa) = 61.07889 67.85024 46.91852
#
# Poissons Ratio (x) = 0.20681 0.20745
# Poissons Ratio (y) = 0.18617 0.17911
# Poissons Ratio (z) = 0.27006 0.25902
#
# Static dielectric constant tensor:
#      x y z
#    x 1.763390 0.000000 0.012110 
#    y 0.000000 1.734640 0.000000 
#    z 0.012110 0.000000 1.720620 
# 
# From -- ./inp_files/290105.got.cif
#   From: 2010.05.17/outbox.cif.g08.bks.cpg/sg12_146_cif.got.tgz:290105.got - 2010.06.03 13:09:07.
