data_PCOD9213269
_publ_section_title
;
Structure prediction by ZEFSAII (Michael W. Deem and Ramdas Pophale) SiO2 
 PCOD9213269
Probable space group: C 2/M
;
_chemical_formula_sum "Si O2"
_cell_formula_units_Z 56
_cell_length_a 9.956071
_cell_length_b 29.325337
_cell_length_c 10.045541
_cell_angle_alpha 90.000000
_cell_angle_beta 119.630345
_cell_angle_gamma 90.000000
_cell_volume 2549.415582
_symmetry_space_group_name_H-M "C 2/M"
_symmetry_group_IT_number 12
_symmetry_cell_setting 'monoclinic'
loop_
_space_group_symop_operation_xyz
x,y,z
-x,y,-z
-x,-y,-z
x,-y,z
1/2+x,1/2+y,z
1/2-x,1/2+y,-z
1/2-x,1/2-y,-z
1/2+x,1/2-y,z
loop_
_atom_site_type_symbol
_atom_site_label
_atom_site_fract_x
_atom_site_fract_y
_atom_site_fract_z
Si Si1 0.659886 0.272701 0.616673
Si Si2 0.513391 0.718404 0.205864
Si Si3 0.059229 0.683588 0.888692
Si Si4 0.150001 0.948348 0.481877
Si Si5 0.270139 0.352257 0.786507
Si Si6 0.689088 0.146908 0.446660
Si Si7 0.853873 0.048976 0.831662
O O1 0.500000 0.247267 0.500000
O O2 0.615182 0.288129 0.742612
O O3 0.813902 0.242367 0.680039
O O4 0.677435 0.317765 0.535560
O O5 0.444245 0.762019 0.097972
O O6 0.565862 0.670329 0.172393
O O7 0.946685 0.664122 0.716616
O O8 0.219023 0.672765 0.895443
O O9 0.000000 0.664189 0.000000
O O10 0.263987 0.905526 0.557513
O O11 0.101950 0.947062 0.302507
O O12 0.000000 0.942323 0.500000
O O13 0.211972 0.000000 0.536630
O O14 0.176499 0.348437 0.600322
O O15 0.262772 0.405386 0.816416
O O16 0.772689 0.000000 0.808058
O O17 0.000000 0.049028 0.000000
#
# Coordination Sequence:
#
# PCOD9213269 Si02
#       7
#     8   8   8   8   8   8   8
#     4  11  20  34  58  90 118 156 202 252 295 357
#     4  11  23  37  59  85 124 160 205 247 302 358
#     4  11  26  43  57  85 123 162 204 254 306 364
#     4   9  18  34  59  91 122 150 194 250 300 355
#     4  11  22  40  64  89 119 160 208 248 304 361
#     4  10  22  37  62  86 119 159 206 249 298 365
#     4   9  20  39  62  90 122 157 197 246 306 368
#
# _framework density 21.965819
#
# number of rings (size 3 to 8) (size 9 to 14) (size 15 to 20)
#    0.000    1.714    2.857    1.286    4.000    2.286 
#    2.571    0.714    0.000    4.286    0.000    0.000 
#    0.000    0.000    0.000    0.000    0.000    0.000 
#
# Total GULP energy -155982.798351 kJ/mol
# GULP energy per Si atom -5570.814227 kJ/mol
# Density = 2.191582 g / cm^3
# Si number density = 21.965819 Si / 1000 Ang^3
#
#
#
# Elastic Constant Matrix: (Units=GPa)
#
#
# Indices 1 2 3 4 5 6 
#
# 1 72.8284 22.2381 23.3074 0.0000 -25.6156 0.0000
# 2 22.2381 144.5727 17.7613 0.0000 -15.4496 0.0000
# 3 23.3074 17.7613 83.5722 0.0000 -24.1463 0.0000
# 4 0.0000 0.0000 0.0000 17.6008 0.0000 3.8105
# 5 -25.6156 -15.4496 -24.1463 0.0000 42.8617 0.0000
# 6 0.0000 0.0000 0.0000 3.8105 0.0000 19.3563
#
#
#
# Elastic Compliance Matrix: (Units=1/GPa)
#
#
# Indices 1 2 3 4 5 6 
#
# 1 0.018059 -0.001553 -0.002090 0.000000 0.009055 0.000000
# 2 -0.001553 0.007389 -0.000759 0.000000 0.001307 0.000000
# 3 -0.002090 -0.000759 0.014655 0.000000 0.006733 0.000000
# 4 0.000000 0.000000 0.000000 0.059345 0.000000 -0.011683
# 5 0.009055 0.001307 0.006733 0.000000 0.033007 0.000000
# 6 0.000000 0.000000 0.000000 -0.011683 0.000000 0.053963
#
#
# Mechanical properties :
#
#
# Convention : Reuss Voigt Hill
#
# Bulk Modulus (GPa) = 31.95119 47.50968 39.73043
# Shear Modulus (GPa) = 24.31243 31.80819 28.06031
#
# Velocity S-wave (km/s) = 3.33052 3.80949 3.57803
# Velocity P-wave (km/s) = 5.41915 6.40511 5.93265
#
# Compressibility (1/GPa) = 0.03129774
#
# Stress axis : x y z
#
# Youngs Moduli (GPa) = 55.37372 135.33880 68.23396
#
# Poissons Ratio (x) = 0.21023 0.14261
# Poissons Ratio (y) = 0.08602 0.05182
# Poissons Ratio (z) = 0.11573 0.10278
#
# Static dielectric constant tensor:
#      x y z
#    x 1.925050 0.000000 0.109410 
#    y 0.000000 1.836960 0.000000 
#    z 0.109410 0.000000 1.960100 
# 
# From -- ./inp_files/54305.got.cif
#   From: 2010.05.17/outbox.cif.g08.bks.cpg/sg12_28_cif.got.tgz:54305.got - 2010.06.03 13:09:07.
