data_PCOD9213272
_publ_section_title
;
Structure prediction by ZEFSAII (Michael W. Deem and Ramdas Pophale) SiO2 
 PCOD9213272
Probable space group: C 2/M
;
_chemical_formula_sum "Si O2"
_cell_formula_units_Z 64
_cell_length_a 9.273107
_cell_length_b 21.800419
_cell_length_c 24.172276
_cell_angle_alpha 90.000000
_cell_angle_beta 135.988488
_cell_angle_gamma 90.000000
_cell_volume 3395.230558
_symmetry_space_group_name_H-M "C 2/M"
_symmetry_group_IT_number 12
_symmetry_cell_setting 'monoclinic'
loop_
_space_group_symop_operation_xyz
x,y,z
-x,y,-z
-x,-y,-z
x,-y,z
1/2+x,1/2+y,z
1/2-x,1/2+y,-z
1/2-x,1/2-y,-z
1/2+x,1/2-y,z
loop_
_atom_site_type_symbol
_atom_site_label
_atom_site_fract_x
_atom_site_fract_y
_atom_site_fract_z
Si Si1 0.902131 0.382349 0.740627
Si Si2 0.362460 0.815349 0.519129
Si Si3 0.357174 0.155730 0.297463
Si Si4 0.912713 0.694989 0.915762
Si Si5 0.577926 0.067198 0.137909
Si Si6 0.570052 0.427846 0.406817
Si Si7 0.424501 0.565625 0.719033
Si Si8 0.529477 0.248741 0.182562
O O1 0.990047 0.420500 0.817268
O O2 0.670175 0.405981 0.662555
O O3 0.919021 0.312835 0.768695
O O4 0.026649 0.381407 0.718100
O O5 0.500000 0.812208 0.500000
O O6 0.250000 0.750000 0.500000
O O7 0.501337 0.827170 0.611497
O O8 0.205252 0.873880 0.472074
O O9 0.170240 0.116904 0.270175
O O10 0.244860 0.214780 0.242074
O O11 0.961187 0.624194 0.913119
O O12 0.668283 0.713668 0.849164
O O13 0.014234 0.731718 0.893103
O O14 0.000000 0.709214 0.000000
O O15 0.827903 0.066507 0.211843
O O16 0.506476 0.000000 0.099433
O O17 0.584733 0.500000 0.430176
O O18 0.643312 0.428097 0.363148
O O19 0.350606 0.500000 0.719542
#
# Coordination Sequence:
#
# PCOD9213272 Si02
#       8
#     8   8   8   8   8   8   8   8
#     4  10  22  37  62  88 120 163 203 251 310 367
#     4  12  28  42  62  91 127 166 213 270 325 372
#     4  12  23  37  62  86 119 164 209 254 311 371
#     4  11  22  38  64  94 125 160 199 252 314 370
#     4   9  19  38  61  87 123 158 199 248 300 367
#     4  10  22  44  64  87 124 162 210 267 317 367
#     4   9  18  35  61  86 111 154 205 255 301 354
#     4  11  22  39  59  92 126 159 206 251 301 375
#
# _framework density 18.849971
#
# number of rings (size 3 to 8) (size 9 to 14) (size 15 to 20)
#    0.000    1.500    3.750    2.250    3.500    2.000 
#    0.000    0.625    0.000    0.000    0.000    0.875 
#    0.000    0.000    0.000    0.000    0.000    0.000 
#
# Total GULP energy -178299.124273 kJ/mol
# GULP energy per Si atom -5571.847634 kJ/mol
# Density = 1.880707 g / cm^3
# Si number density = 18.849971 Si / 1000 Ang^3
#
#
#
# Elastic Constant Matrix: (Units=GPa)
#
#
# Indices 1 2 3 4 5 6 
#
# 1 87.8518 23.5658 12.5076 0.0000 -11.3292 -0.0001
# 2 23.5658 82.8486 15.2205 0.0000 -1.8345 -0.0001
# 3 12.5076 15.2205 54.8329 0.0000 -9.5348 -0.0001
# 4 0.0000 0.0000 0.0000 9.1524 0.0000 1.1995
# 5 -11.3292 -1.8345 -9.5348 0.0000 20.1967 0.0000
# 6 -0.0001 -0.0001 -0.0001 1.1995 0.0000 18.6790
#
#
#
# Elastic Compliance Matrix: (Units=1/GPa)
#
#
# Indices 1 2 3 4 5 6 
#
# 1 0.013310 -0.003471 -0.000903 0.000000 0.006724 0.000000
# 2 -0.003471 0.013630 -0.003393 0.000000 -0.002311 0.000000
# 3 -0.000903 -0.003393 0.020965 0.000000 0.009082 0.000000
# 4 0.000000 0.000000 0.000000 0.110188 0.000000 -0.007076
# 5 0.006724 -0.002311 0.009082 0.000000 0.057363 0.000000
# 6 0.000000 0.000000 0.000000 -0.007076 0.000000 0.053990
#
#
# Mechanical properties :
#
#
# Convention : Reuss Voigt Hill
#
# Bulk Modulus (GPa) = 30.89420 36.45790 33.67605
# Shear Modulus (GPa) = 16.90501 21.22160 19.06330
#
# Velocity S-wave (km/s) = 2.99794 3.35896 3.18357
# Velocity P-wave (km/s) = 5.32998 5.86741 5.60514
#
# Compressibility (1/GPa) = 0.03236854
#
# Stress axis : x y z
#
# Youngs Moduli (GPa) = 75.13365 73.36878 47.69953
#
# Poissons Ratio (x) = 0.25466 0.04308
# Poissons Ratio (y) = 0.26079 0.16187
# Poissons Ratio (z) = 0.06786 0.24898
#
# Static dielectric constant tensor:
#      x y z
#    x 1.647940 0.000000 0.002250 
#    y 0.000000 1.715960 0.000000 
#    z 0.002250 0.000000 1.645570 
# 
# From -- ./inp_files/258092.got.cif
#   From: 2010.05.17/outbox.cif.g08.bks.cpg/sg12_130_cif.got.tgz:258092.got - 2010.06.03 13:09:07.
