data_PCOD9213170
_publ_section_title
;
Structure prediction by ZEFSAII (Michael W. Deem and Ramdas Pophale) SiO2 
 PCOD9213170
Probable space group: C 2/M
;
_chemical_formula_sum "Si O2"
_cell_formula_units_Z 20
_cell_length_a 36.323380
_cell_length_b 5.622025
_cell_length_c 13.495915
_cell_angle_alpha 90.000000
_cell_angle_beta 18.157566
_cell_angle_gamma 90.000000
_cell_volume 858.860031
_symmetry_space_group_name_H-M "C 2/M"
_symmetry_group_IT_number 12
_symmetry_cell_setting 'monoclinic'
loop_
_space_group_symop_operation_xyz
x,y,z
-x,y,-z
-x,-y,-z
x,-y,z
1/2+x,1/2+y,z
1/2-x,1/2+y,-z
1/2-x,1/2-y,-z
1/2+x,1/2-y,z
loop_
_atom_site_type_symbol
_atom_site_label
_atom_site_fract_x
_atom_site_fract_y
_atom_site_fract_z
Si Si1 0.693786 0.751019 0.754227
Si Si2 0.379667 0.500000 0.604623
Si Si3 0.609677 0.500000 0.646491
Si Si4 0.903207 0.500000 0.658682
O O1 0.637610 0.500000 0.919838
O O2 0.750000 0.750000 0.500000
O O3 0.804778 0.782592 0.543553
O O4 0.624982 0.000000 0.939034
O O5 0.426226 0.500000 0.373541
O O6 0.412334 0.746015 0.577323
O O7 0.236024 0.500000 0.954728
O O8 0.500000 0.500000 0.000000
O O9 0.000000 0.500000 0.500000
#
# Coordination Sequence:
#
# PCOD9213170 Si02
#       4
#     8   4   4   4
#     4   8  16  32  49  70 110 157 193 224 272 354
#     4  10  23  42  68  98 126 165 218 274 318 385
#     4  10  22  37  56  92 131 158 194 252 316 381
#     4  10  22  47  69  92 124 166 225 275 326 369
#
# _framework density 23.286678999999999
#
# number of rings (size 3 to 8) (size 9 to 14) (size 15 to 20)
#    1.200    1.600    0.000    0.600    2.800    0.800 
#    7.200    0.000    0.000    0.000    0.000    0.000 
#    0.000    0.000    0.000    0.000    0.000    0.000 
#
# Total GULP energy -55728.135997 kJ/mol
# GULP energy per Si atom -5572.813600 kJ/mol
# Density = 2.323368 g / cm^3
# Si number density = 23.286679 Si / 1000 Ang^3
#
#
#
# Elastic Constant Matrix: (Units=GPa)
#
#
# Indices 1 2 3 4 5 6 
#
# 1 206.9095 79.3794 68.6227 -0.0001 -25.7176 0.0001
# 2 79.3794 262.8437 67.0269 -0.0005 -9.0447 0.0007
# 3 68.6227 67.0269 94.3215 0.0000 -9.1905 0.0001
# 4 -0.0001 -0.0005 0.0000 25.9252 0.0001 -1.7870
# 5 -25.7176 -9.0447 -9.1905 0.0001 39.4378 -0.0001
# 6 0.0001 0.0007 0.0001 -1.7870 -0.0001 37.9869
#
#
#
# Elastic Compliance Matrix: (Units=1/GPa)
#
#
# Indices 1 2 3 4 5 6 
#
# 1 0.006965 -0.000951 -0.004062 0.000000 0.003377 0.000000
# 2 -0.000951 0.004780 -0.002720 0.000000 -0.000158 0.000000
# 3 -0.004062 -0.002720 0.015524 0.000000 0.000345 0.000000
# 4 0.000000 0.000000 0.000000 0.038698 0.000000 0.001820
# 5 0.003377 -0.000158 0.000345 0.000000 0.027603 0.000000
# 6 0.000000 0.000000 0.000000 0.001820 0.000000 0.026410
#
#
# Mechanical properties :
#
#
# Convention : Reuss Voigt Hill
#
# Bulk Modulus (GPa) = 84.73279 110.45922 97.59601
# Shear Modulus (GPa) = 35.87278 43.93970 39.90624
#
# Velocity S-wave (km/s) = 3.92916 4.34856 4.14417
# Velocity P-wave (km/s) = 7.55316 8.52941 8.05608
#
# Compressibility (1/GPa) = 0.01180181
#
# Stress axis : x y z
#
# Youngs Moduli (GPa) = 143.57452 209.20293 64.41636
#
# Poissons Ratio (x) = 0.19902 0.26167
# Poissons Ratio (y) = 0.13659 0.17522
# Poissons Ratio (z) = 0.58323 0.56904
#
# Static dielectric constant tensor:
#      x y z
#    x 1.786060 0.000000 -0.010480 
#    y 0.000000 1.920240 0.000000 
#    z -0.010480 0.000000 1.888700 
# 
# From -- ./inp_files/185289.got.cif
#   From: 2010.05.17/outbox.cif.g08.bks.cpg/sg12_93_cif.got.tgz:185289.got - 2010.06.03 13:09:07.
