data_PCOD9213651
_publ_section_title
;
Structure prediction by ZEFSAII (Michael W. Deem and Ramdas Pophale) SiO2 
 PCOD9213651
Probable space group: C 2/M
;
_chemical_formula_sum "Si O2"
_cell_formula_units_Z 40
_cell_length_a 13.503518
_cell_length_b 19.398360
_cell_length_c 11.104256
_cell_angle_alpha 90.000000
_cell_angle_beta 41.850915
_cell_angle_gamma 90.000000
_cell_volume 1940.680184
_symmetry_space_group_name_H-M "C 2/M"
_symmetry_group_IT_number 12
_symmetry_cell_setting 'monoclinic'
loop_
_space_group_symop_operation_xyz
x,y,z
-x,y,-z
-x,-y,-z
x,-y,z
1/2+x,1/2+y,z
1/2-x,1/2+y,-z
1/2-x,1/2-y,-z
1/2+x,1/2-y,z
loop_
_atom_site_type_symbol
_atom_site_label
_atom_site_fract_x
_atom_site_fract_y
_atom_site_fract_z
Si Si1 0.222384 0.314474 0.699348
Si Si2 0.492200 0.078115 0.839438
Si Si3 0.861518 0.578119 0.555592
Si Si4 0.893047 0.173692 0.290630
Si Si5 0.289836 0.676464 0.907346
O O1 0.113201 0.379995 0.807126
O O2 0.122464 0.247000 0.762691
O O3 0.323900 0.319588 0.488257
O O4 0.309120 0.311231 0.746296
O O5 0.576826 0.074079 0.635176
O O6 0.344551 0.123029 0.956217
O O7 0.459718 0.000000 0.906867
O O8 0.838292 0.500000 0.623173
O O9 0.711402 0.621289 0.687554
O O10 0.000000 0.611600 0.500000
O O11 0.061461 0.152128 0.160441
O O12 0.250000 0.750000 0.000000
#
# Coordination Sequence:
#
# PCOD9213651 Si02
#       5
#     8   8   8   8   8
#     4  10  22  40  59  85 119 163 205 244 299 362
#     4  10  22  41  62  88 122 164 204 245 308 367
#     4   9  20  40  64  89 120 163 207 246 299 367
#     4  10  22  38  63  87 117 159 205 253 295 358
#     4  12  24  37  57  93 126 154 197 257 307 357
#
# _framework density 20.611331
#
# number of rings (size 3 to 8) (size 9 to 14) (size 15 to 20)
#    0.000    1.800    2.000    1.200    2.800    2.400 
#    0.000    0.000    0.000    9.600    0.000    0.000 
#    0.000    0.000    0.000    0.000    0.000    0.000 
#
# Total GULP energy -111684.937500 kJ/mol
# GULP energy per Si atom -5584.246875 kJ/mol
# Density = 2.056442 g / cm^3
# Si number density = 20.611331 Si / 1000 Ang^3
#
#
#
# Elastic Constant Matrix: (Units=GPa)
#
#
# Indices 1 2 3 4 5 6 
#
# 1 154.6619 58.1716 7.9827 -0.0019 -29.6739 0.0009
# 2 58.1716 133.5842 24.1786 -0.0010 -20.1492 0.0006
# 3 7.9827 24.1786 22.9957 -0.0020 -13.6366 0.0015
# 4 -0.0019 -0.0010 -0.0020 11.7539 0.0017 -3.4877
# 5 -29.6739 -20.1492 -13.6366 0.0017 35.4053 -0.0011
# 6 0.0009 0.0006 0.0015 -3.4877 -0.0011 27.4754
#
#
#
# Elastic Compliance Matrix: (Units=1/GPa)
#
#
# Indices 1 2 3 4 5 6 
#
# 1 0.009040 -0.003760 0.005235 0.000001 0.007453 0.000000
# 2 -0.003760 0.010916 -0.010831 -0.000001 -0.001110 0.000000
# 3 0.005235 -0.010831 0.067397 0.000007 0.024182 -0.000002
# 4 0.000001 -0.000001 0.000007 0.088408 -0.000001 0.011222
# 5 0.007453 -0.001110 0.024182 -0.000001 0.043173 0.000000
# 6 0.000000 0.000000 -0.000002 0.011222 0.000000 0.037821
#
#
# Mechanical properties :
#
#
# Convention : Reuss Voigt Hill
#
# Bulk Modulus (GPa) = 14.56852 54.65640 34.61246
# Shear Modulus (GPa) = 16.75899 29.65417 23.20658
#
# Velocity S-wave (km/s) = 2.85458 3.79718 3.35910
# Velocity P-wave (km/s) = 4.23655 6.76757 5.64572
#
# Compressibility (1/GPa) = 0.06864116
#
# Stress axis : x y z
#
# Youngs Moduli (GPa) = 110.62451 91.60790 14.83737
#
# Poissons Ratio (x) = 0.34443 -0.07767
# Poissons Ratio (y) = 0.41593 0.16070
# Poissons Ratio (z) = -0.57910 0.99220
#
# Static dielectric constant tensor:
#      x y z
#    x 1.738420 0.000000 0.042400 
#    y 0.000000 1.733100 0.000000 
#    z 0.042400 0.000000 1.770200 
# 
# From -- ./inp_files/144640.got.cif
#   From: 2010.05.17/outbox.cif.g08.bks.cpg/sg12_73_cif.got.tgz:144640.got - 2010.06.03 13:09:07.
