data_PCOD9213950
_publ_section_title
;
Structure prediction by ZEFSAII (Michael W. Deem and Ramdas Pophale) SiO2 
 PCOD9213950
Probable space group: C 2/M
;
_chemical_formula_sum "Si O2"
_cell_formula_units_Z 64
_cell_length_a 29.863086
_cell_length_b 8.946715
_cell_length_c 12.196299
_cell_angle_alpha 90.000000
_cell_angle_beta 64.459018
_cell_angle_gamma 90.000000
_cell_volume 2940.128393
_symmetry_space_group_name_H-M "C 2/M"
_symmetry_group_IT_number 12
_symmetry_cell_setting 'monoclinic'
loop_
_space_group_symop_operation_xyz
x,y,z
-x,y,-z
-x,-y,-z
x,-y,z
1/2+x,1/2+y,z
1/2-x,1/2+y,-z
1/2-x,1/2-y,-z
1/2+x,1/2-y,z
loop_
_atom_site_type_symbol
_atom_site_label
_atom_site_fract_x
_atom_site_fract_y
_atom_site_fract_z
Si Si1 0.199863 0.675328 0.596767
Si Si2 0.653165 0.675505 0.296887
Si Si3 0.003009 0.676840 0.223970
Si Si4 0.051569 0.677320 0.396486
Si Si5 0.403114 0.322704 0.291335
Si Si6 0.419790 0.178356 0.036569
Si Si7 0.163387 0.824303 0.024749
Si Si8 0.238314 0.323505 0.796174
O O1 0.199149 0.500000 0.570677
O O2 0.250000 0.750000 0.500000
O O3 0.148791 0.752496 0.614560
O O4 0.204432 0.689696 0.724297
O O5 0.647269 0.500000 0.325341
O O6 0.602605 0.754508 0.383658
O O7 0.705604 0.724852 0.291827
O O8 0.660228 0.697262 0.158273
O O9 0.991475 0.500000 0.237272
O O10 0.952527 0.764560 0.299181
O O11 0.043628 0.703774 0.275316
O O12 0.028992 0.712798 0.081236
O O13 0.053266 0.500000 0.414585
O O14 0.000000 0.736030 0.500000
O O15 0.399752 0.500000 0.299011
O O16 0.412080 0.265150 0.157435
O O17 0.376827 0.226381 0.997732
O O18 0.417938 0.000000 0.058901
O O19 0.215370 0.772122 0.918076
O O20 0.155077 0.000000 0.011278
O O21 0.240382 0.500000 0.824664
#
# Coordination Sequence:
#
# PCOD9213950 Si02
#       8
#     8   8   8   8   8   8   8   8
#     4  11  24  43  65  87 119 161 207 254 302 355
#     4  10  22  39  60  90 124 157 198 246 299 359
#     4  10  22  40  62  89 122 161 202 245 303 366
#     4  10  22  41  63  88 118 157 205 252 298 353
#     4  12  25  40  62  92 124 157 200 251 304 360
#     4  11  21  37  62  89 122 162 198 241 302 367
#     4  11  21  34  59  92 124 156 196 245 297 359
#     4  10  22  40  62  88 122 162 199 241 300 364
#
# _framework density 21.767755000000001
#
# number of rings (size 3 to 8) (size 9 to 14) (size 15 to 20)
#    0.000    1.375    2.500    3.000    0.000    5.750 
#    0.000    2.500    0.000    0.000    0.000    0.000 
#    0.000    0.000    0.000    0.000    0.000    0.000 
#
# Total GULP energy -178981.218338 kJ/mol
# GULP energy per Si atom -5593.163073 kJ/mol
# Density = 2.171821 g / cm^3
# Si number density = 21.767755 Si / 1000 Ang^3
#
#
#
# Elastic Constant Matrix: (Units=GPa)
#
#
# Indices 1 2 3 4 5 6 
#
# 1 90.4404 35.5009 9.7080 0.0000 -43.5474 0.0000
# 2 35.5009 56.2446 28.1689 0.0000 -17.9176 0.0000
# 3 9.7080 28.1689 83.0405 0.0000 -32.3955 0.0000
# 4 0.0000 0.0000 0.0000 27.1118 0.0000 -14.8399
# 5 -43.5474 -17.9176 -32.3955 0.0000 40.6063 0.0000
# 6 0.0000 0.0000 0.0000 -14.8399 0.0000 27.9839
#
#
#
# Elastic Compliance Matrix: (Units=1/GPa)
#
#
# Indices 1 2 3 4 5 6 
#
# 1 0.046154 -0.022946 0.025767 0.000000 0.059930 0.000000
# 2 -0.022946 0.033643 -0.018204 0.000000 -0.024286 0.000000
# 3 0.025767 -0.018204 0.033178 0.000000 0.046070 0.000000
# 4 0.000000 0.000000 0.000000 0.051969 0.000000 0.027559
# 5 0.059930 -0.024286 0.046070 0.000000 0.114936 0.000000
# 6 0.000000 0.000000 0.000000 0.027559 0.000000 0.050350
#
#
# Mechanical properties :
#
#
# Convention : Reuss Voigt Hill
#
# Bulk Modulus (GPa) = 12.16385 41.83124 26.99755
# Shear Modulus (GPa) = 12.87340 29.56356 21.21848
#
# Velocity S-wave (km/s) = 2.43451 3.68929 3.12551
# Velocity P-wave (km/s) = 3.67458 6.11609 5.04525
#
# Compressibility (1/GPa) = 0.08221078
#
# Stress axis : x y z
#
# Youngs Moduli (GPa) = 21.66642 29.72383 30.14055
#
# Poissons Ratio (x) = 0.68203 -0.77664
# Poissons Ratio (y) = 0.49715 0.54868
# Poissons Ratio (z) = -0.55829 0.54109
#
# Static dielectric constant tensor:
#      x y z
#    x 1.811870 0.000000 0.004590 
#    y 0.000000 1.726410 0.000000 
#    z 0.004590 0.000000 1.825700 
# 
# From -- ./inp_files/249744.got.cif
#   From: 2010.05.17/outbox.cif.g08.bks.cpg/sg12_125_cif.got.tgz:249744.got - 2010.06.03 13:09:07.
