data_PCOD9213072
_publ_section_title
;
Structure prediction by ZEFSAII (Michael W. Deem and Ramdas Pophale) SiO2 
 PCOD9213072
Probable space group: C 2/M
;
_chemical_formula_sum "Si O2"
_cell_formula_units_Z 48
_cell_length_a 21.286928
_cell_length_b 16.940973
_cell_length_c 17.233423
_cell_angle_alpha 90.000000
_cell_angle_beta 25.329327
_cell_angle_gamma 90.000000
_cell_volume 2658.793118
_symmetry_space_group_name_H-M "C 2/M"
_symmetry_group_IT_number 12
_symmetry_cell_setting 'monoclinic'
loop_
_space_group_symop_operation_xyz
x,y,z
-x,y,-z
-x,-y,-z
x,-y,z
1/2+x,1/2+y,z
1/2-x,1/2+y,-z
1/2-x,1/2-y,-z
1/2+x,1/2-y,z
loop_
_atom_site_type_symbol
_atom_site_label
_atom_site_fract_x
_atom_site_fract_y
_atom_site_fract_z
Si Si1 0.116184 0.500000 0.490566
Si Si2 0.784156 0.500000 0.793239
Si Si3 0.066086 0.810496 0.656760
Si Si4 0.099802 0.809676 0.312862
Si Si5 0.231551 0.841911 0.933969
Si Si6 0.152838 0.593505 0.029657
Si Si7 0.656203 0.132945 0.573863
O O1 0.205152 0.500000 0.311301
O O2 0.147115 0.575041 0.510562
O O3 0.947088 0.500000 0.650495
O O4 0.712660 0.419894 0.903914
O O5 0.189179 0.867456 0.554492
O O6 0.132402 0.723135 0.573918
O O7 0.001153 0.835815 0.646855
O O8 0.926399 0.805435 0.869932
O O9 0.162607 0.722210 0.223601
O O10 0.242940 0.865887 0.150285
O O11 0.000000 0.810595 0.500000
O O12 0.300226 0.868297 0.939850
O O13 0.177576 0.500000 0.005251
O O14 0.979359 0.610008 0.218804
#
# Coordination Sequence:
#
# PCOD9213072 Si02
#       7
#     4   4   8   8   8   8   8
#     4  11  22  35  59  95 122 154 180 246 300 357
#     4  11  22  33  61  95 126 147 194 234 300 358
#     4  10  22  36  61  83 115 157 202 236 281 357
#     4  11  23  38  62  88 117 151 201 257 293 335
#     4  11  19  38  59  89 116 157 196 236 291 357
#     4  11  19  38  63  84 116 155 200 238 286 357
#     4  11  19  38  58  86 118 155 195 231 290 360
#
# _framework density 18.053305000000002
#
# number of rings (size 3 to 8) (size 9 to 14) (size 15 to 20)
#    0.000    1.167    6.667    1.000    4.667    1.000 
#    1.500    2.500    0.000    1.000    0.000    0.000 
#    0.000    0.000    0.000    0.000    0.000    0.000 
#
# Total GULP energy -133965.058617 kJ/mol
# GULP energy per Si atom -5581.877442 kJ/mol
# Density = 1.801221 g / cm^3
# Si number density = 18.053305 Si / 1000 Ang^3
#
#
#
# Elastic Constant Matrix: (Units=GPa)
#
#
# Indices 1 2 3 4 5 6 
#
# 1 77.5819 28.5930 60.8514 0.0003 1.9070 -0.0002
# 2 28.5930 83.7554 27.9055 0.0004 7.1161 -0.0004
# 3 60.8514 27.9055 121.5423 0.0006 17.8471 -0.0005
# 4 0.0003 0.0004 0.0006 22.4646 -0.0003 -0.8453
# 5 1.9070 7.1161 17.8471 -0.0003 32.0567 0.0003
# 6 -0.0002 -0.0004 -0.0005 -0.8453 0.0003 13.7538
#
#
#
# Elastic Compliance Matrix: (Units=1/GPa)
#
#
# Indices 1 2 3 4 5 6 
#
# 1 0.023595 -0.004699 -0.011632 0.000000 0.006115 0.000000
# 2 -0.004699 0.013916 -0.000468 0.000000 -0.002549 0.000000
# 3 -0.011632 -0.000468 0.015292 0.000000 -0.007718 0.000001
# 4 0.000000 0.000000 0.000000 0.044618 0.000001 0.002742
# 5 0.006115 -0.002549 -0.007718 0.000001 0.035694 -0.000001
# 6 0.000000 0.000000 0.000001 0.002742 -0.000001 0.072876
#
#
# Mechanical properties :
#
#
# Convention : Reuss Voigt Hill
#
# Bulk Modulus (GPa) = 52.07105 57.50882 54.78993
# Shear Modulus (GPa) = 20.32602 24.69032 22.50817
#
# Velocity S-wave (km/s) = 3.35907 3.70217 3.53478
# Velocity P-wave (km/s) = 6.62948 7.08512 6.86108
#
# Compressibility (1/GPa) = 0.01920453
#
# Stress axis : x y z
#
# Youngs Moduli (GPa) = 42.38241 71.85843 65.39344
#
# Poissons Ratio (x) = 0.33766 0.76066
# Poissons Ratio (y) = 0.19915 0.03062
# Poissons Ratio (z) = 0.49299 0.03365
#
# Static dielectric constant tensor:
#      x y z
#    x 1.603290 0.000000 -0.019380 
#    y 0.000000 1.633500 0.000000 
#    z -0.019380 0.000000 1.638720 
# 
# From -- ./inp_files/226767.got.cif
#   From: 2010.05.17/outbox.cif.g08.bks.cpg/sg12_114_cif.got.tgz:226767.got - 2010.06.03 13:09:07.
