data_PCOD9213615
_publ_section_title
;
Structure prediction by ZEFSAII (Michael W. Deem and Ramdas Pophale) SiO2 
 PCOD9213615
Probable space group: C 2/M
;
_chemical_formula_sum "Si O2"
_cell_formula_units_Z 64
_cell_length_a 14.610647
_cell_length_b 18.879405
_cell_length_c 23.640048
_cell_angle_alpha 90.000000
_cell_angle_beta 151.431520
_cell_angle_gamma 90.000000
_cell_volume 3118.341347
_symmetry_space_group_name_H-M "C 2/M"
_symmetry_group_IT_number 12
_symmetry_cell_setting 'monoclinic'
loop_
_space_group_symop_operation_xyz
x,y,z
-x,y,-z
-x,-y,-z
x,-y,z
1/2+x,1/2+y,z
1/2-x,1/2+y,-z
1/2-x,1/2-y,-z
1/2+x,1/2-y,z
loop_
_atom_site_type_symbol
_atom_site_label
_atom_site_fract_x
_atom_site_fract_y
_atom_site_fract_z
Si Si1 0.006697 0.293019 0.436253
Si Si2 0.047532 0.414528 0.191977
Si Si3 0.148800 0.420897 0.798578
Si Si4 0.368002 0.320392 0.841688
Si Si5 0.312573 0.923399 0.523731
Si Si6 0.803452 0.675384 0.875498
Si Si7 0.777771 0.827204 0.041355
Si Si8 0.442351 0.363320 0.362806
O O1 0.805337 0.312451 0.297134
O O2 0.033454 0.212296 0.429682
O O3 0.000000 0.293432 0.500000
O O4 0.155998 0.353020 0.496697
O O5 0.050906 0.500000 0.188004
O O6 0.263416 0.385002 0.304888
O O7 0.952345 0.394006 0.199909
O O8 0.904587 0.377087 0.069999
O O9 0.218525 0.500000 0.847684
O O10 0.311079 0.372805 0.860735
O O11 0.985035 0.423126 0.661976
O O12 0.377686 0.244817 0.880243
O O13 0.541720 0.350573 0.898709
O O14 0.116661 0.916704 0.452081
O O15 0.317170 0.000000 0.495831
O O16 0.696302 0.684370 0.877427
O O17 0.658330 0.640144 0.753291
O O18 0.000000 0.636836 0.000000
O O19 0.750000 0.750000 0.000000
#
# Coordination Sequence:
#
# PCOD9213615 Si02
#       8
#     8   8   8   8   8   8   8   8
#     4  10  23  40  62  97 125 159 214 269 314 368
#     4  11  24  40  62  96 129 161 207 262 315 377
#     4   9  21  40  61  88 123 159 201 256 313 372
#     4  10  22  38  62  89 120 165 203 257 315 370
#     4  10  22  42  64  89 126 169 207 258 324 382
#     4  11  21  39  58  88 121 159 206 254 306 360
#     4  12  22  38  63  90 120 162 213 254 307 375
#     4  11  23  41  63  93 125 165 211 255 316 380
#
# _framework density 20.523731000000002
#
# number of rings (size 3 to 8) (size 9 to 14) (size 15 to 20)
#    0.000    1.500    2.500    2.250    3.500    0.750 
#    0.000    5.000    0.000    0.000    0.000    0.000 
#    0.000    0.000    0.000    0.000    0.000    0.000 
#
# Total GULP energy -178447.578705 kJ/mol
# GULP energy per Si atom -5576.486835 kJ/mol
# Density = 2.047702 g / cm^3
# Si number density = 20.523731 Si / 1000 Ang^3
#
#
#
# Elastic Constant Matrix: (Units=GPa)
#
#
# Indices 1 2 3 4 5 6 
#
# 1 123.6796 43.9037 11.9786 -0.0011 -1.9663 -0.0006
# 2 43.9037 79.6192 25.9263 0.0030 7.4934 0.0006
# 3 11.9786 25.9263 36.3628 0.0040 8.9208 0.0002
# 4 -0.0011 0.0030 0.0040 11.5960 0.0009 1.2636
# 5 -1.9663 7.4934 8.9208 0.0009 39.4535 0.0000
# 6 -0.0006 0.0006 0.0002 1.2636 0.0000 25.9351
#
#
#
# Elastic Compliance Matrix: (Units=1/GPa)
#
#
# Indices 1 2 3 4 5 6 
#
# 1 0.010158 -0.005904 0.000491 0.000002 0.001516 0.000000
# 2 -0.005904 0.019798 -0.011833 -0.000001 -0.001379 0.000000
# 3 0.000491 -0.011833 0.037286 -0.000009 -0.006159 0.000000
# 4 0.000002 -0.000001 -0.000009 0.086697 0.000000 -0.004224
# 5 0.001516 -0.001379 -0.006159 0.000000 0.027076 0.000000
# 6 0.000000 0.000000 0.000000 -0.004224 0.000000 0.038764
#
#
# Mechanical properties :
#
#
# Convention : Reuss Voigt Hill
#
# Bulk Modulus (GPa) = 30.53294 44.80875 37.67084
# Shear Modulus (GPa) = 18.85460 25.92045 22.38752
#
# Velocity S-wave (km/s) = 3.03425 3.55766 3.30633
# Velocity P-wave (km/s) = 5.21390 6.22543 5.74198
#
# Compressibility (1/GPa) = 0.03275152
#
# Stress axis : x y z
#
# Youngs Moduli (GPa) = 98.44761 50.50975 26.81942
#
# Poissons Ratio (x) = 0.29820 -0.01317
# Poissons Ratio (y) = 0.58122 0.31735
# Poissons Ratio (z) = -0.04836 0.59767
#
# Static dielectric constant tensor:
#      x y z
#    x 1.779940 0.000000 0.037630 
#    y 0.000000 1.769680 0.000000 
#    z 0.037630 0.000000 1.746380 
# 
# From -- ./inp_files/340847.got.cif
#   From: 2010.05.17/outbox.cif.g08.bks.cpg/sg12_171_cif.got.tgz:340847.got - 2010.06.03 13:09:07.
