data_PCOD9213884
_publ_section_title
;
Structure prediction by ZEFSAII (Michael W. Deem and Ramdas Pophale) SiO2 
 PCOD9213884
Probable space group: C 2/M
;
_chemical_formula_sum "Si O2"
_cell_formula_units_Z 56
_cell_length_a 12.468677
_cell_length_b 28.511647
_cell_length_c 9.957453
_cell_angle_alpha 90.000000
_cell_angle_beta 50.146066
_cell_angle_gamma 90.000000
_cell_volume 2717.512365
_symmetry_space_group_name_H-M "C 2/M"
_symmetry_group_IT_number 12
_symmetry_cell_setting 'monoclinic'
loop_
_space_group_symop_operation_xyz
x,y,z
-x,y,-z
-x,-y,-z
x,-y,z
1/2+x,1/2+y,z
1/2-x,1/2+y,-z
1/2-x,1/2-y,-z
1/2+x,1/2-y,z
loop_
_atom_site_type_symbol
_atom_site_label
_atom_site_fract_x
_atom_site_fract_y
_atom_site_fract_z
Si Si1 0.419091 0.345272 0.707987
Si Si2 0.599224 0.293077 0.789016
Si Si3 0.352174 0.909599 0.334179
Si Si4 0.902066 0.550521 0.715468
Si Si5 0.331988 0.131850 0.629651
Si Si6 0.641801 0.809481 0.804690
Si Si7 0.864623 0.051981 0.703557
O O1 0.500000 0.346956 0.500000
O O2 0.514317 0.318209 0.737924
O O3 0.275807 0.317468 0.792321
O O4 0.385274 0.399838 0.771120
O O5 0.737308 0.323009 0.708545
O O6 0.645022 0.239562 0.723432
O O7 0.500000 0.293438 0.000000
O O8 0.493464 0.938045 0.247527
O O9 0.291141 0.899338 0.531446
O O10 0.370841 0.856376 0.271719
O O11 0.259850 0.936320 0.300476
O O12 0.834803 0.500000 0.781619
O O13 0.807884 0.595922 0.771006
O O14 0.000000 0.548799 0.500000
O O15 0.500000 0.143081 0.500000
O O16 0.500000 0.807651 0.000000
O O17 0.000000 0.048963 0.500000
O O18 0.845630 0.000000 0.781373
#
# Coordination Sequence:
#
# PCOD9213884 Si02
#       7
#     8   8   8   8   8   8   8
#     4  10  22  39  59  86 115 143 185 235 275 322
#     4  11  24  40  58  81 113 153 186 223 284 340
#     4   9  17  31  52  78 107 138 184 234 275 316
#     4   8  15  28  50  80 108 135 175 227 275 321
#     4   9  19  33  54  82 110 143 187 231 272 324
#     4  10  23  38  56  80 109 147 187 228 279 333
#     4   9  16  28  50  78 107 141 179 222 273 326
#
# _framework density 20.607081999999998
#
# number of rings (size 3 to 8) (size 9 to 14) (size 15 to 20)
#    0.000    2.857    0.000    3.000    0.000   10.286 
#    0.000    1.429    0.000   15.857    0.000    0.000 
#    0.000    0.000    0.000    0.000    0.000    0.000 
#
# Total GULP energy -155985.542695 kJ/mol
# GULP energy per Si atom -5570.912239 kJ/mol
# Density = 2.056018 g / cm^3
# Si number density = 20.607082 Si / 1000 Ang^3
#
#
#
# Elastic Constant Matrix: (Units=GPa)
#
#
# Indices 1 2 3 4 5 6 
#
# 1 99.0109 80.6750 18.6902 0.0000 -11.5013 0.0000
# 2 80.6750 180.7645 21.3889 0.0000 -11.1948 0.0000
# 3 18.6902 21.3889 36.9800 0.0000 -7.9347 0.0000
# 4 0.0000 0.0000 0.0000 414.6444 0.0000 -72.6364
# 5 -11.5013 -11.1948 -7.9347 0.0000 21.4699 0.0000
# 6 0.0000 0.0000 0.0000 -72.6364 0.0000 30.6025
#
#
#
# Elastic Compliance Matrix: (Units=1/GPa)
#
#
# Indices 1 2 3 4 5 6 
#
# 1 0.016829 -0.006821 -0.003681 0.000000 0.004098 0.000000
# 2 -0.006821 0.008782 -0.001557 0.000000 0.000350 0.000000
# 3 -0.003681 -0.001557 0.031721 0.000000 0.008939 0.000000
# 4 0.000000 0.000000 0.000000 0.004128 0.000000 0.009798
# 5 0.004098 0.000350 0.008939 0.000000 0.052258 0.000000
# 6 0.000000 0.000000 0.000000 0.009798 0.000000 0.055934
#
#
# Mechanical properties :
#
#
# Convention : Reuss Voigt Hill
#
# Bulk Modulus (GPa) = 30.10826 62.02929 46.06877
# Shear Modulus (GPa) = 24.40908 106.41011 65.40959
#
# Velocity S-wave (km/s) = 3.44539 7.19373 5.64006
# Velocity P-wave (km/s) = 5.51996 9.95821 8.05096
#
# Compressibility (1/GPa) = 0.03321348
#
# Stress axis : x y z
#
# Youngs Moduli (GPa) = 59.42156 113.86503 31.52524
#
# Poissons Ratio (x) = 0.77672 0.11604
# Poissons Ratio (y) = 0.40534 0.04908
# Poissons Ratio (z) = 0.21872 0.17728
#
# Static dielectric constant tensor:
#      x y z
#    x 1.751750 0.000000 0.018190 
#    y 0.000000 1.787290 0.000000 
#    z 0.018190 0.000000 1.777360 
# 
# From -- ./inp_files/136921.got.cif
#   From: 2010.05.17/outbox.cif.g08.bks.cpg/sg12_69_cif.got.tgz:136921.got - 2010.06.03 13:09:07.
