data_PCOD9213059
_publ_section_title
;
Structure prediction by ZEFSAII (Michael W. Deem and Ramdas Pophale) SiO2 
 PCOD9213059
Probable space group: C 2/M
;
_chemical_formula_sum "Si O2"
_cell_formula_units_Z 40
_cell_length_a 10.651810
_cell_length_b 27.935841
_cell_length_c 15.053835
_cell_angle_alpha 90.000000
_cell_angle_beta 154.141231
_cell_angle_gamma 90.000000
_cell_volume 1953.765830
_symmetry_space_group_name_H-M "C 2/M"
_symmetry_group_IT_number 12
_symmetry_cell_setting 'monoclinic'
loop_
_space_group_symop_operation_xyz
x,y,z
-x,y,-z
-x,-y,-z
x,-y,z
1/2+x,1/2+y,z
1/2-x,1/2+y,-z
1/2-x,1/2-y,-z
1/2+x,1/2-y,z
loop_
_atom_site_type_symbol
_atom_site_label
_atom_site_fract_x
_atom_site_fract_y
_atom_site_fract_z
Si Si1 0.218277 0.500000 0.996714
Si Si2 0.288114 0.181884 0.946129
Si Si3 0.500000 0.581668 0.500000
Si Si4 0.088263 0.000000 0.688527
Si Si5 0.335425 0.260296 0.728106
Si Si6 0.000000 0.171650 0.000000
Si Si7 0.640031 0.895801 0.887269
O O1 0.428038 0.500000 0.215851
O O2 0.224272 0.451537 0.943420
O O3 0.911309 0.500000 0.852937
O O4 0.480433 0.212385 0.138689
O O5 0.211336 0.130043 0.934075
O O6 0.500000 0.177937 0.000000
O O7 0.996603 0.212085 0.750372
O O8 0.463890 0.547212 0.562867
O O9 0.800256 0.609065 0.691900
O O10 0.392072 0.294187 0.851023
O O11 0.000000 0.252566 0.500000
O O12 0.248739 0.135587 0.123911
#
# Coordination Sequence:
#
# PCOD9213059 Si02
#       7
#     4   8   4   4   8   4   8
#     4   9  18  35  55  81 113 158 184 238 295 333
#     4  10  22  38  58  92 117 148 207 243 281 362
#     4   9  18  32  54  86 108 150 194 240 288 331
#     4   8  16  32  53  78 116 143 193 243 285 337
#     4  10  22  42  62  83 123 162 187 244 306 340
#     4  10  22  45  56  86 124 153 198 240 284 366
#     4  10  22  36  60  84 115 154 192 238 294 342
#
# _framework density 20.473282000000001
#
# number of rings (size 3 to 8) (size 9 to 14) (size 15 to 20)
#    0.000    2.400    1.000    0.600    7.000    2.800 
#    3.600    0.000    0.000    1.200    0.000    0.000 
#    0.000    0.000    0.000    0.000    0.000    0.000 
#
# Total GULP energy -111431.944796 kJ/mol
# GULP energy per Si atom -5571.597240 kJ/mol
# Density = 2.042668 g / cm^3
# Si number density = 20.473282 Si / 1000 Ang^3
#
#
#
# Elastic Constant Matrix: (Units=GPa)
#
#
# Indices 1 2 3 4 5 6 
#
# 1 56.3884 17.2215 -4.4304 0.0000 8.9220 0.0000
# 2 17.2215 119.5953 13.9489 0.0000 6.4979 0.0001
# 3 -4.4304 13.9489 71.0343 0.0002 11.1073 -0.0002
# 4 0.0000 0.0000 0.0002 22.6598 0.0000 11.5230
# 5 8.9220 6.4979 11.1073 0.0000 24.6897 -0.0002
# 6 0.0000 0.0001 -0.0002 11.5230 -0.0002 31.3014
#
#
#
# Elastic Compliance Matrix: (Units=1/GPa)
#
#
# Indices 1 2 3 4 5 6 
#
# 1 0.020080 -0.002818 0.003038 0.000000 -0.007882 0.000000
# 2 -0.002818 0.009013 -0.001865 0.000000 -0.000515 0.000000
# 3 0.003038 -0.001865 0.015843 0.000000 -0.007734 0.000000
# 4 0.000000 0.000000 0.000000 0.054295 0.000000 -0.019988
# 5 -0.007882 -0.000515 -0.007734 0.000000 0.046966 0.000000
# 6 0.000000 0.000000 0.000000 -0.019988 0.000000 0.039306
#
#
# Mechanical properties :
#
#
# Convention : Reuss Voigt Hill
#
# Bulk Modulus (GPa) = 24.01144 33.38864 28.70004
# Shear Modulus (GPa) = 24.67013 30.41538 27.54276
#
# Velocity S-wave (km/s) = 3.47506 3.85855 3.67182
# Velocity P-wave (km/s) = 5.27779 6.01623 5.65907
#
# Compressibility (1/GPa) = 0.04164682
#
# Stress axis : x y z
#
# Youngs Moduli (GPa) = 49.79968 110.95367 63.12007
#
# Poissons Ratio (x) = 0.31263 -0.19177
# Poissons Ratio (y) = 0.14032 0.11772
# Poissons Ratio (z) = -0.15130 0.20694
#
# Static dielectric constant tensor:
#      x y z
#    x 1.787350 0.000000 -0.029740 
#    y 0.000000 1.743780 0.000000 
#    z -0.029740 0.000000 1.779970 
# 
# From -- ./inp_files/266239.got.cif
#   From: 2010.05.17/outbox.cif.g08.bks.cpg/sg12_134_cif.got.tgz:266239.got - 2010.06.03 13:09:07.
