data_PCOD9213748
_publ_section_title
;
Structure prediction by ZEFSAII (Michael W. Deem and Ramdas Pophale) SiO2 
 PCOD9213748
Probable space group: C 2/M
;
_chemical_formula_sum "Si O2"
_cell_formula_units_Z 36
_cell_length_a 8.655022
_cell_length_b 29.843074
_cell_length_c 13.687956
_cell_angle_alpha 90.000000
_cell_angle_beta 149.358527
_cell_angle_gamma 90.000000
_cell_volume 1801.916099
_symmetry_space_group_name_H-M "C 2/M"
_symmetry_group_IT_number 12
_symmetry_cell_setting 'monoclinic'
loop_
_space_group_symop_operation_xyz
x,y,z
-x,y,-z
-x,-y,-z
x,-y,z
1/2+x,1/2+y,z
1/2-x,1/2+y,-z
1/2-x,1/2-y,-z
1/2+x,1/2-y,z
loop_
_atom_site_type_symbol
_atom_site_label
_atom_site_fract_x
_atom_site_fract_y
_atom_site_fract_z
Si Si1 0.939104 0.814345 0.143697
Si Si2 0.662771 0.886621 0.855350
Si Si3 0.713414 0.051317 0.211463
Si Si4 0.274805 0.886615 0.456702
Si Si5 0.500000 0.743831 0.000000
O O1 0.135543 0.844777 0.322055
O O2 0.102066 0.787968 0.144400
O O3 0.709433 0.847877 0.961660
O O4 0.763859 0.776372 0.107582
O O5 0.483298 0.926817 0.809163
O O6 0.467237 0.872481 0.655529
O O7 0.000000 0.898407 0.000000
O O8 0.005992 0.081253 0.346245
O O9 0.796193 0.000000 0.277734
O O10 0.500000 0.052158 0.000000
O O11 0.500000 0.909358 0.500000
#
# Coordination Sequence:
#
# PCOD9213748 Si02
#       5
#     8   8   8   8   4
#     4  11  21  43  61  97 126 169 214 269 315 396
#     4  12  23  43  70  92 132 176 216 263 320 386
#     4  11  24  43  67 100 133 168 215 268 320 379
#     4  12  23  42  70  94 130 178 215 260 323 386
#     4  10  22  38  68  88 136 162 208 280 324 360
#
# _framework density 19.978732999999998
#
# number of rings (size 3 to 8) (size 9 to 14) (size 15 to 20)
#    0.000    0.667    5.556    2.000    0.000    2.667 
#    0.000   12.222    0.000    0.000    0.000    0.000 
#    0.000    0.000    0.000    0.000    0.000    0.000 
#
# Total GULP energy -100605.057033 kJ/mol
# GULP energy per Si atom -5589.169835 kJ/mol
# Density = 1.993326 g / cm^3
# Si number density = 19.978733 Si / 1000 Ang^3
#
#
#
# Elastic Constant Matrix: (Units=GPa)
#
#
# Indices 1 2 3 4 5 6 
#
# 1 123.3498 93.0078 66.6491 0.0000 -4.4978 0.0000
# 2 93.0078 139.0528 71.9288 0.0000 9.6148 0.0000
# 3 66.6491 71.9288 150.3296 0.0000 -19.6064 0.0000
# 4 0.0000 0.0000 0.0000 1.0873 0.0000 -13.8912
# 5 -4.4978 9.6148 -19.6064 0.0000 45.2200 0.0000
# 6 0.0000 0.0000 0.0000 -13.8912 0.0000 25.7185
#
#
#
# Elastic Compliance Matrix: (Units=1/GPa)
#
#
# Indices 1 2 3 4 5 6 
#
# 1 0.017579 -0.010829 -0.002209 0.000000 0.003093 0.000000
# 2 -0.010829 0.017069 -0.004218 0.000000 -0.006535 0.000000
# 3 -0.002209 -0.004218 0.010321 0.000000 0.005152 0.000000
# 4 0.000000 0.000000 0.000000 -0.155866 0.000000 -0.084187
# 5 0.003093 -0.006535 0.005152 0.000000 0.026045 0.000000
# 6 0.000000 0.000000 0.000000 -0.084187 0.000000 -0.006589
#
#
# Mechanical properties :
#
#
# Convention : Reuss Voigt Hill
#
# Bulk Modulus (GPa) = 95.63012 97.32263 96.47637
# Shear Modulus (GPa) = -93.55459 26.48159 -33.53650
#
# Velocity S-wave (km/s) = -6.85046 3.64468 -4.10153
# Velocity P-wave (km/s) = 3.82123 8.15662 5.09552
#
# Compressibility (1/GPa) = 0.01045696
#
# Stress axis : x y z
#
# Youngs Moduli (GPa) = 56.88765 58.58741 96.88569
#
# Poissons Ratio (x) = 0.63445 0.21398
# Poissons Ratio (y) = 0.61604 0.40867
# Poissons Ratio (z) = 0.12564 0.24712
#
# Static dielectric constant tensor:
#      x y z
#    x 1.736510 0.000000 0.004980 
#    y 0.000000 1.686180 0.000000 
#    z 0.004980 0.000000 1.698870 
# 
# From -- ./inp_files/67482.got.cif
#   From: 2010.05.17/outbox.cif.g08.bks.cpg/sg12_34_cif.got.tgz:67482.got - 2010.06.03 13:09:07.
