data_PCOD9213185
_publ_section_title
;
Structure prediction by ZEFSAII (Michael W. Deem and Ramdas Pophale) SiO2 
 PCOD9213185
Probable space group: C 2/M
;
_chemical_formula_sum "Si O2"
_cell_formula_units_Z 64
_cell_length_a 30.552459
_cell_length_b 7.860422
_cell_length_c 15.805530
_cell_angle_alpha 90.000000
_cell_angle_beta 132.072883
_cell_angle_gamma 90.000000
_cell_volume 2817.581551
_symmetry_space_group_name_H-M "C 2/M"
_symmetry_group_IT_number 12
_symmetry_cell_setting 'monoclinic'
loop_
_space_group_symop_operation_xyz
x,y,z
-x,y,-z
-x,-y,-z
x,-y,z
1/2+x,1/2+y,z
1/2-x,1/2+y,-z
1/2-x,1/2-y,-z
1/2+x,1/2-y,z
loop_
_atom_site_type_symbol
_atom_site_label
_atom_site_fract_x
_atom_site_fract_y
_atom_site_fract_z
Si Si1 0.566548 0.708764 0.603596
Si Si2 0.712838 0.294882 0.093588
Si Si3 0.976905 0.205391 0.119933
Si Si4 0.125076 0.205436 0.131844
Si Si5 0.612772 0.292951 0.845633
Si Si6 0.611504 0.808428 0.302242
Si Si7 0.286509 0.311542 0.466947
Si Si8 0.681021 0.297139 0.666355
O O1 0.500000 0.764758 0.500000
O O2 0.565905 0.500000 0.602907
O O3 0.591187 0.764959 0.726578
O O4 0.615181 0.765974 0.598631
O O5 0.714746 0.500000 0.093964
O O6 0.672550 0.244275 0.122516
O O7 0.777659 0.230250 0.198675
O O8 0.676254 0.235228 0.964120
O O9 0.936384 0.251181 0.147802
O O10 0.041846 0.278433 0.209800
O O11 0.982079 0.000000 0.124596
O O12 0.938774 0.255709 0.988400
O O13 0.134376 0.276746 0.236700
O O14 0.126047 0.000000 0.138968
O O15 0.615120 0.500000 0.846571
O O16 0.646295 0.690910 0.412497
O O17 0.625040 0.000000 0.345488
O O18 0.263941 0.500000 0.422559
O O19 0.250000 0.250000 0.500000
O O20 0.288529 0.221419 0.378397
O O21 0.676157 0.500000 0.647240
#
# Coordination Sequence:
#
# PCOD9213185 Si02
#       8
#     8   8   8   8   8   8   8   8
#     4   9  18  33  57  87 116 145 185 238 284 326
#     4   9  18  34  57  83 112 148 184 225 279 340
#     4   9  18  33  55  80 108 145 189 236 281 332
#     4   9  18  34  54  78 108 147 193 235 280 333
#     4   8  16  32  56  84 112 145 189 230 274 335
#     4  12  24  34  50  78 111 148 189 233 285 344
#     4  11  24  41  59  81 111 146 190 238 286 338
#     4  10  22  37  57  88 114 142 189 239 284 335
#
# _framework density 22.714514999999999
#
# number of rings (size 3 to 8) (size 9 to 14) (size 15 to 20)
#    0.000    2.375    0.000    4.125    1.750    6.000 
#    0.000    1.875    0.000    1.125    0.000    0.000 
#    0.000    0.000    0.000    0.000    0.000    0.000 
#
# Total GULP energy -178738.005386 kJ/mol
# GULP energy per Si atom -5585.562668 kJ/mol
# Density = 2.266282 g / cm^3
# Si number density = 22.714515 Si / 1000 Ang^3
#
#
#
# Elastic Constant Matrix: (Units=GPa)
#
#
# Indices 1 2 3 4 5 6 
#
# 1 89.4946 9.2567 57.5066 0.0000 10.0557 0.0000
# 2 9.2567 27.7418 -2.4772 0.0000 -2.3730 0.0000
# 3 57.5066 -2.4772 135.2154 0.0000 4.7921 0.0000
# 4 0.0000 0.0000 0.0000 19.1436 0.0000 5.6989
# 5 10.0557 -2.3730 4.7921 0.0000 41.3115 0.0000
# 6 0.0000 0.0000 0.0000 5.6989 0.0000 6.4582
#
#
#
# Elastic Compliance Matrix: (Units=1/GPa)
#
#
# Indices 1 2 3 4 5 6 
#
# 1 0.016869 -0.006581 -0.007166 0.000000 -0.003653 0.000000
# 2 -0.006581 0.038839 0.003389 0.000000 0.003440 0.000000
# 3 -0.007166 0.003389 0.010480 0.000000 0.000723 0.000000
# 4 0.000000 0.000000 0.000000 0.070848 0.000000 -0.062518
# 5 -0.003653 0.003440 0.000723 0.000000 0.025209 0.000000
# 6 0.000000 0.000000 0.000000 -0.062518 0.000000 0.210009
#
#
# Mechanical properties :
#
#
# Convention : Reuss Voigt Hill
#
# Bulk Modulus (GPa) = 21.99155 42.33600 32.16377
# Shear Modulus (GPa) = 12.25106 25.92706 19.08906
#
# Velocity S-wave (km/s) = 2.32491 3.38217 2.90209
# Velocity P-wave (km/s) = 4.11214 5.82502 5.04185
#
# Compressibility (1/GPa) = 0.04547202
#
# Stress axis : x y z
#
# Youngs Moduli (GPa) = 59.27875 25.74703 95.42379
#
# Poissons Ratio (x) = 0.16945 0.68377
# Poissons Ratio (y) = 0.39013 -0.32335
# Poissons Ratio (z) = 0.42477 -0.08725
#
# Static dielectric constant tensor:
#      x y z
#    x 1.870270 0.000000 -0.006910 
#    y 0.000000 1.847240 0.000000 
#    z -0.006910 0.000000 1.829940 
# 
# From -- ./inp_files/250131.got.cif
#   From: 2010.05.17/outbox.cif.g08.bks.cpg/sg12_126_cif.got.tgz:250131.got - 2010.06.03 13:09:07.
