data_PCOD9213883
_publ_section_title
;
Structure prediction by ZEFSAII (Michael W. Deem and Ramdas Pophale) SiO2 
 PCOD9213883
Probable space group: C 2/M
;
_chemical_formula_sum "Si O2"
_cell_formula_units_Z 48
_cell_length_a 11.672076
_cell_length_b 16.270624
_cell_length_c 19.939820
_cell_angle_alpha 90.000000
_cell_angle_beta 41.341656
_cell_angle_gamma 90.000000
_cell_volume 2501.368787
_symmetry_space_group_name_H-M "C 2/M"
_symmetry_group_IT_number 12
_symmetry_cell_setting 'monoclinic'
loop_
_space_group_symop_operation_xyz
x,y,z
-x,y,-z
-x,-y,-z
x,-y,z
1/2+x,1/2+y,z
1/2-x,1/2+y,-z
1/2-x,1/2-y,-z
1/2+x,1/2-y,z
loop_
_atom_site_type_symbol
_atom_site_label
_atom_site_fract_x
_atom_site_fract_y
_atom_site_fract_z
Si Si1 0.624462 0.403985 0.190715
Si Si2 0.306763 0.597711 0.580460
Si Si3 0.214275 0.673413 0.754906
Si Si4 0.885080 0.701424 0.988620
Si Si5 0.870320 0.403670 0.476305
Si Si6 0.756696 0.349675 0.667121
O O1 0.654003 0.500000 0.189310
O O2 0.644718 0.356253 0.252603
O O3 0.432989 0.389565 0.245343
O O4 0.768808 0.366328 0.077679
O O5 0.500000 0.633161 0.500000
O O6 0.319590 0.500000 0.566573
O O7 0.212859 0.616220 0.690783
O O8 0.211319 0.627518 0.556410
O O9 0.248876 0.763666 0.709593
O O10 0.032805 0.669878 0.873605
O O11 0.750000 0.750000 0.000000
O O12 0.000000 0.742154 0.000000
O O13 0.822548 0.500000 0.510937
O O14 0.803196 0.348731 0.567406
O O15 0.077835 0.399323 0.378600
#
# Coordination Sequence:
#
# PCOD9213883 Si02
#       6
#     8   8   8   8   8   8
#     4  11  23  42  68  93 125 168 210 254 318 385
#     4  10  22  39  59  85 125 163 202 257 313 366
#     4  11  24  37  63  94 124 156 211 262 311 371
#     4  10  22  42  64  94 128 166 210 269 323 377
#     4  10  22  39  59  86 124 167 210 254 304 379
#     4  11  22  37  63  88 125 162 206 257 310 367
#
# _framework density 19.189492999999999
#
# number of rings (size 3 to 8) (size 9 to 14) (size 15 to 20)
#    0.000    1.500    1.667    3.500    4.667    5.667 
#    0.000    0.000    0.000    0.500    0.000    0.000 
#    0.000    0.000    0.000    0.000    0.000    0.000 
#
# Total GULP energy -133849.512729 kJ/mol
# GULP energy per Si atom -5577.063030 kJ/mol
# Density = 1.914582 g / cm^3
# Si number density = 19.189493 Si / 1000 Ang^3
#
#
#
# Elastic Constant Matrix: (Units=GPa)
#
#
# Indices 1 2 3 4 5 6 
#
# 1 159.6413 36.7608 68.4925 0.0000 7.0890 0.0000
# 2 36.7608 71.1445 28.1159 -0.0002 5.1238 0.0001
# 3 68.4925 28.1159 111.7991 -0.0002 5.0103 0.0001
# 4 0.0000 -0.0002 -0.0002 16.6007 0.0001 6.5781
# 5 7.0890 5.1238 5.0103 0.0001 29.9076 0.0000
# 6 0.0000 0.0001 0.0001 6.5781 0.0000 29.1140
#
#
#
# Elastic Compliance Matrix: (Units=1/GPa)
#
#
# Indices 1 2 3 4 5 6 
#
# 1 0.008973 -0.002684 -0.004783 0.000000 -0.000866 0.000000
# 2 -0.002684 0.016533 -0.002434 0.000000 -0.001789 0.000000
# 3 -0.004783 -0.002434 0.012512 0.000000 -0.000545 0.000000
# 4 0.000000 0.000000 0.000000 0.066162 0.000000 -0.014949
# 5 -0.000866 -0.001789 -0.000545 0.000000 0.034039 0.000000
# 6 0.000000 0.000000 0.000000 -0.014949 0.000000 0.037725
#
#
# Mechanical properties :
#
#
# Convention : Reuss Voigt Hill
#
# Bulk Modulus (GPa) = 54.89599 67.70258 61.29929
# Shear Modulus (GPa) = 24.77497 29.07220 26.92358
#
# Velocity S-wave (km/s) = 3.59704 3.89653 3.74978
# Velocity P-wave (km/s) = 6.77651 7.45665 7.12470
#
# Compressibility (1/GPa) = 0.01821627
#
# Stress axis : x y z
#
# Youngs Moduli (GPa) = 111.44953 60.48482 79.92618
#
# Poissons Ratio (x) = 0.16231 0.38231
# Poissons Ratio (y) = 0.29908 0.19451
# Poissons Ratio (z) = 0.53310 0.14720
#
# Static dielectric constant tensor:
#      x y z
#    x 1.667510 0.000000 0.041790 
#    y 0.000000 1.681650 0.000000 
#    z 0.041790 0.000000 1.546730 
# 
# From -- ./inp_files/305627.got.cif
#   From: 2010.05.17/outbox.cif.g08.bks.cpg/sg12_153_cif.got.tgz:305627.got - 2010.06.03 13:09:07.
