data_PCOD9213906
_publ_section_title
;
Structure prediction by ZEFSAII (Michael W. Deem and Ramdas Pophale) SiO2 
 PCOD9213906
Probable space group: C 2/M
;
_chemical_formula_sum "Si O2"
_cell_formula_units_Z 32
_cell_length_a 5.370318
_cell_length_b 29.520944
_cell_length_c 10.088357
_cell_angle_alpha 90.000000
_cell_angle_beta 67.527398
_cell_angle_gamma 90.000000
_cell_volume 1477.923637
_symmetry_space_group_name_H-M "C 2/M"
_symmetry_group_IT_number 12
_symmetry_cell_setting 'monoclinic'
loop_
_space_group_symop_operation_xyz
x,y,z
-x,y,-z
-x,-y,-z
x,-y,z
1/2+x,1/2+y,z
1/2-x,1/2+y,-z
1/2-x,1/2-y,-z
1/2+x,1/2-y,z
loop_
_atom_site_type_symbol
_atom_site_label
_atom_site_fract_x
_atom_site_fract_y
_atom_site_fract_z
Si Si1 0.784533 0.857022 0.451634
Si Si2 0.886409 0.279533 0.308746
Si Si3 0.179325 0.548931 0.096386
Si Si4 0.764735 0.147117 0.155288
O O1 0.500000 0.881860 0.500000
O O2 0.712904 0.811150 0.549031
O O3 0.874209 0.847433 0.283702
O O4 0.000000 0.881061 0.500000
O O5 0.631131 0.253064 0.303733
O O6 0.033774 0.315452 0.182557
O O7 0.119214 0.500000 0.174062
O O8 0.138935 0.596888 0.174778
O O9 0.500000 0.548605 0.000000
O O10 0.000000 0.550509 0.000000
O O11 0.000000 0.151565 0.000000
#
# Coordination Sequence:
#
# PCOD9213906 Si02
#       4
#     8   8   8   8
#     4  10  22  39  60  81 113 161 204 236 288 357
#     4  11  24  41  59  81 117 167 207 235 287 362
#     4   9  19  37  61  88 119 154 189 233 299 367
#     4  10  23  39  62  92 121 149 198 260 298 335
#
# _framework density 21.651997000000001
#
# number of rings (size 3 to 8) (size 9 to 14) (size 15 to 20)
#    0.000    2.000    0.000    3.000    0.000   26.000 
#    0.000    0.000    0.000    7.500    0.000    0.000 
#    0.000    2.000    0.000    0.000    0.000    0.750 
#
# Total GULP energy -89271.213337 kJ/mol
# GULP energy per Si atom -5579.450834 kJ/mol
# Density = 2.160272 g / cm^3
# Si number density = 21.651997 Si / 1000 Ang^3
#
#
#
# Elastic Constant Matrix: (Units=GPa)
#
#
# Indices 1 2 3 4 5 6 
#
# 1 154.3827 16.3140 32.0791 0.0000 6.4792 0.0000
# 2 16.3140 139.1901 27.8318 0.0000 0.0803 0.0000
# 3 32.0791 27.8318 127.5781 0.0000 -16.1176 0.0000
# 4 0.0000 0.0000 0.0000 0.9045 0.0000 34.0884
# 5 6.4792 0.0803 -16.1176 0.0000 20.5781 0.0000
# 6 0.0000 0.0000 0.0000 34.0884 0.0000 -2.7173
#
#
#
# Elastic Compliance Matrix: (Units=1/GPa)
#
#
# Indices 1 2 3 4 5 6 
#
# 1 0.007146 -0.000392 -0.002214 0.000000 -0.003983 0.000000
# 2 -0.000392 0.007573 -0.001711 0.000000 -0.001246 0.000000
# 3 -0.002214 -0.001711 0.009830 0.000000 0.008403 0.000000
# 4 0.000000 0.000000 0.000000 0.002334 0.000000 0.029274
# 5 -0.003983 -0.001246 0.008403 0.000000 0.056436 0.000000
# 6 0.000000 0.000000 0.000000 0.029274 0.000000 -0.000777
#
#
# Mechanical properties :
#
#
# Convention : Reuss Voigt Hill
#
# Bulk Modulus (GPa) = 62.83847 63.73342 63.28594
# Shear Modulus (GPa) = 51.82288 26.74811 39.28550
#
# Velocity S-wave (km/s) = 4.89759 3.51859 4.26420
# Velocity P-wave (km/s) = 7.81453 6.78281 7.31688
#
# Compressibility (1/GPa) = 0.01591382
#
# Stress axis : x y z
#
# Youngs Moduli (GPa) = 139.93476 132.04397 101.72930
#
# Poissons Ratio (x) = 0.05183 0.22527
# Poissons Ratio (y) = 0.05492 0.17404
# Poissons Ratio (z) = 0.30988 0.22591
#
# Static dielectric constant tensor:
#      x y z
#    x 1.915090 0.000000 -0.000940 
#    y 0.000000 1.841640 0.000000 
#    z -0.000940 0.000000 1.808450 
# 
# From -- ./inp_files/34505.got.cif
#   From: 2010.05.17/outbox.cif.g08.bks.cpg/sg12_18_cif.got.tgz:34505.got - 2010.06.03 13:09:07.
