data_PCOD9213962
_publ_section_title
;
Structure prediction by ZEFSAII (Michael W. Deem and Ramdas Pophale) SiO2 
 PCOD9213962
Probable space group: C 2/M
;
_chemical_formula_sum "Si O2"
_cell_formula_units_Z 40
_cell_length_a 11.182815
_cell_length_b 23.148040
_cell_length_c 11.387075
_cell_angle_alpha 90.000000
_cell_angle_beta 37.600412
_cell_angle_gamma 90.000000
_cell_volume 1798.517939
_symmetry_space_group_name_H-M "C 2/M"
_symmetry_group_IT_number 12
_symmetry_cell_setting 'monoclinic'
loop_
_space_group_symop_operation_xyz
x,y,z
-x,y,-z
-x,-y,-z
x,-y,z
1/2+x,1/2+y,z
1/2-x,1/2+y,-z
1/2-x,1/2-y,-z
1/2+x,1/2-y,z
loop_
_atom_site_type_symbol
_atom_site_label
_atom_site_fract_x
_atom_site_fract_y
_atom_site_fract_z
Si Si1 0.457212 0.376482 0.812576
Si Si2 0.756413 0.788801 0.114062
Si Si3 0.782641 0.178085 0.721217
Si Si4 0.915113 0.500000 0.435197
Si Si5 0.482034 0.500000 0.872873
Si Si6 0.103123 0.627185 0.632349
O O1 0.320842 0.357442 0.810205
O O2 0.394144 0.440066 0.899916
O O3 0.685098 0.370039 0.597920
O O4 0.416187 0.335391 0.953383
O O5 0.786813 0.742354 0.192664
O O6 0.556502 0.826172 0.287589
O O7 0.750000 0.750000 0.000000
O O8 0.649591 0.145386 0.730419
O O9 0.000000 0.184440 0.500000
O O10 0.685277 0.500000 0.642464
O O11 0.963501 0.560628 0.334132
O O12 0.000000 0.500000 0.500000
O O13 0.500000 0.500000 0.000000
#
# Coordination Sequence:
#
# PCOD9213962 Si02
#       6
#     8   8   8   4   4   8
#     4   9  21  40  61  92 125 162 209 257 312 367
#     4  10  22  39  60  92 127 166 206 251 309 374
#     4   9  20  40  62  91 126 162 207 257 306 373
#     4  10  24  43  67  94 122 163 209 262 319 371
#     4  10  22  41  61  90 122 163 209 260 316 374
#     4  10  22  43  65  93 126 163 210 257 315 367
#
# _framework density 22.240535000000001
#
# number of rings (size 3 to 8) (size 9 to 14) (size 15 to 20)
#    0.000    2.400    0.000    0.000    2.800   12.000 
#   10.800    6.000    0.000    6.000    0.000    0.000 
#    0.000    0.000    0.000    0.000    0.000    0.000 
#
# Total GULP energy -111701.564579 kJ/mol
# GULP energy per Si atom -5585.078229 kJ/mol
# Density = 2.218991 g / cm^3
# Si number density = 22.240535 Si / 1000 Ang^3
#
#
#
# Elastic Constant Matrix: (Units=GPa)
#
#
# Indices 1 2 3 4 5 6 
#
# 1 109.2481 95.0446 47.1698 0.0000 23.5286 0.0000
# 2 95.0446 242.5847 65.6863 0.0000 21.2822 0.0000
# 3 47.1698 65.6863 106.7134 0.0000 -5.9161 0.0000
# 4 0.0000 0.0000 0.0000 22.9633 0.0000 20.5682
# 5 23.5286 21.2822 -5.9161 0.0000 32.8886 0.0000
# 6 0.0000 0.0000 0.0000 20.5682 0.0000 32.3357
#
#
#
# Elastic Compliance Matrix: (Units=1/GPa)
#
#
# Indices 1 2 3 4 5 6 
#
# 1 0.017905 -0.004499 -0.005752 0.000000 -0.010933 0.000000
# 2 -0.004499 0.006593 -0.002149 0.000000 -0.001434 0.000000
# 3 -0.005752 -0.002149 0.013678 0.000000 0.007966 0.000000
# 4 0.000000 0.000000 0.000000 0.101213 0.000000 -0.064380
# 5 -0.010933 -0.001434 0.007966 0.000000 0.040588 0.000000
# 6 0.000000 0.000000 0.000000 -0.064380 0.000000 0.071876
#
#
# Mechanical properties :
#
#
# Convention : Reuss Voigt Hill
#
# Bulk Modulus (GPa) = 74.75512 97.14971 85.95242
# Shear Modulus (GPa) = 17.78663 34.34723 26.06693
#
# Velocity S-wave (km/s) = 2.83103 3.93409 3.42723
# Velocity P-wave (km/s) = 6.66119 8.02573 7.37508
#
# Compressibility (1/GPa) = 0.01337701
#
# Stress axis : x y z
#
# Youngs Moduli (GPa) = 55.84948 151.68549 73.11240
#
# Poissons Ratio (x) = 0.68239 0.42051
# Poissons Ratio (y) = 0.25125 0.15712
# Poissons Ratio (z) = 0.32122 0.32597
#
# Static dielectric constant tensor:
#      x y z
#    x 1.855080 0.000000 -0.044230 
#    y 0.000000 1.845550 0.000000 
#    z -0.044230 0.000000 1.843430 
# 
# From -- ./inp_files/135145.got.cif
#   From: 2010.05.17/outbox.cif.g08.bks.cpg/sg12_68_cif.got.tgz:135145.got - 2010.06.03 13:09:07.
