data_PCOD9213295
_publ_section_title
;
Structure prediction by ZEFSAII (Michael W. Deem and Ramdas Pophale) SiO2 
 PCOD9213295
Probable space group: C 2/M
;
_chemical_formula_sum "Si O2"
_cell_formula_units_Z 60
_cell_length_a 18.719417
_cell_length_b 31.953123
_cell_length_c 5.341710
_cell_angle_alpha 90.000000
_cell_angle_beta 68.495130
_cell_angle_gamma 90.000000
_cell_volume 2972.687768
_symmetry_space_group_name_H-M "C 2/M"
_symmetry_group_IT_number 12
_symmetry_cell_setting 'monoclinic'
loop_
_space_group_symop_operation_xyz
x,y,z
-x,y,-z
-x,-y,-z
x,-y,z
1/2+x,1/2+y,z
1/2-x,1/2+y,-z
1/2-x,1/2-y,-z
1/2+x,1/2-y,z
loop_
_atom_site_type_symbol
_atom_site_label
_atom_site_fract_x
_atom_site_fract_y
_atom_site_fract_z
Si Si1 0.176904 0.652323 0.219790
Si Si2 0.836925 0.138024 0.743432
Si Si3 0.453996 0.797891 0.800693
Si Si4 0.050061 0.500000 0.683667
Si Si5 0.429148 0.702662 0.901084
Si Si6 0.774065 0.796898 0.412246
Si Si7 0.819315 0.564559 0.596039
Si Si8 0.218212 0.951179 0.229334
O O1 0.122825 0.674254 0.088916
O O2 0.194478 0.686227 0.404933
O O3 0.148694 0.610120 0.378825
O O4 0.262957 0.641272 0.019851
O O5 0.911737 0.162511 0.748675
O O6 0.805661 0.167590 0.560500
O O7 0.842774 0.087625 0.705742
O O8 0.500000 0.814268 0.500000
O O9 0.439607 0.748473 0.767191
O O10 0.500000 0.800456 0.000000
O O11 0.107937 0.538364 0.583417
O O12 0.000000 0.500000 0.500000
O O13 0.000000 0.500000 0.000000
O O14 0.500000 0.695641 0.000000
O O15 0.347684 0.707939 0.141106
O O16 0.750000 0.750000 0.500000
O O17 0.763430 0.560901 0.427260
O O18 0.773734 0.550422 0.909370
O O19 0.192135 0.000000 0.282386
#
# Coordination Sequence:
#
# PCOD9213295 Si02
#       8
#     8   8   8   4   8   8   8   8
#     4  10  23  40  59  92 127 160 219 274 320 375
#     4  10  22  37  63  96 123 163 217 268 326 385
#     4  11  26  41  62  88 127 180 221 257 322 386
#     4  12  24  40  62  88 122 170 223 257 321 395
#     4  10  24  40  60  92 131 173 214 261 323 393
#     4  11  21  36  66  92 124 165 218 270 320 373
#     4  11  22  40  63  88 122 165 206 273 325 370
#     4  11  20  39  66  94 122 155 207 267 331 384
#
# _framework density 20.183752999999999
#
# number of rings (size 3 to 8) (size 9 to 14) (size 15 to 20)
#    0.000    1.333    2.667    2.400    9.333    2.667 
#    0.000    1.333    0.000    0.400    0.000    0.933 
#    0.000    0.000    0.000    0.000    0.000    0.000 
#
# Total GULP energy -167044.679153 kJ/mol
# GULP energy per Si atom -5568.155972 kJ/mol
# Density = 2.013781 g / cm^3
# Si number density = 20.183753 Si / 1000 Ang^3
#
#
#
# Elastic Constant Matrix: (Units=GPa)
#
#
# Indices 1 2 3 4 5 6 
#
# 1 88.4050 47.5888 11.4754 0.0000 8.9188 0.0000
# 2 47.5888 171.2281 22.4191 0.0000 8.0053 0.0000
# 3 11.4754 22.4191 82.8508 0.0000 9.2159 0.0000
# 4 0.0000 0.0000 0.0000 6.8157 0.0000 -8.0319
# 5 8.9188 8.0053 9.2159 0.0000 21.0672 0.0000
# 6 0.0000 0.0000 0.0000 -8.0319 0.0000 23.0149
#
#
#
# Elastic Compliance Matrix: (Units=1/GPa)
#
#
# Indices 1 2 3 4 5 6 
#
# 1 0.013713 -0.003551 -0.000465 0.000000 -0.004252 0.000000
# 2 -0.003551 0.007031 -0.001346 0.000000 -0.000579 0.000000
# 3 -0.000465 -0.001346 0.013055 0.000000 -0.005002 0.000000
# 4 0.000000 0.000000 0.000000 0.249208 0.000000 0.086970
# 5 -0.004252 -0.000579 -0.005002 0.000000 0.051676 0.000000
# 6 0.000000 0.000000 0.000000 0.086970 0.000000 0.073802
#
#
# Mechanical properties :
#
#
# Convention : Reuss Voigt Hill
#
# Bulk Modulus (GPa) = 43.34146 56.16117 49.75131
# Shear Modulus (GPa) = 11.71234 27.57960 19.64597
#
# Velocity S-wave (km/s) = 2.41152 3.70053 3.12325
# Velocity P-wave (km/s) = 5.41054 6.79293 6.14076
#
# Compressibility (1/GPa) = 0.02307260
#
# Stress axis : x y z
#
# Youngs Moduli (GPa) = 72.92515 142.23706 76.59876
#
# Poissons Ratio (x) = 0.50514 0.03564
# Poissons Ratio (y) = 0.25899 0.10311
# Poissons Ratio (z) = 0.03393 0.19147
#
# Static dielectric constant tensor:
#      x y z
#    x 1.712050 0.000000 0.023990 
#    y 0.000000 1.670760 0.000000 
#    z 0.023990 0.000000 1.812470 
# 
# From -- ./inp_files/18288.got.cif
#   From: 2010.05.17/outbox.cif.g08.bks.cpg/sg12_10_cif.got.tgz:18288.got - 2010.06.03 13:09:07.
