data_PCOD9213498
_publ_section_title
;
Structure prediction by ZEFSAII (Michael W. Deem and Ramdas Pophale) SiO2 
 PCOD9213498
Probable space group: C 2/M
;
_chemical_formula_sum "Si O2"
_cell_formula_units_Z 40
_cell_length_a 14.083735
_cell_length_b 25.593867
_cell_length_c 12.754953
_cell_angle_alpha 90.000000
_cell_angle_beta 159.691478
_cell_angle_gamma 90.000000
_cell_volume 1595.717955
_symmetry_space_group_name_H-M "C 2/M"
_symmetry_group_IT_number 12
_symmetry_cell_setting 'monoclinic'
loop_
_space_group_symop_operation_xyz
x,y,z
-x,y,-z
-x,-y,-z
x,-y,z
1/2+x,1/2+y,z
1/2-x,1/2+y,-z
1/2-x,1/2-y,-z
1/2+x,1/2-y,z
loop_
_atom_site_type_symbol
_atom_site_label
_atom_site_fract_x
_atom_site_fract_y
_atom_site_fract_z
Si Si1 0.145779 0.153651 0.542557
Si Si2 0.368234 0.443498 0.035320
Si Si3 0.304281 0.331485 0.978112
Si Si4 0.187446 0.725464 0.592341
Si Si5 0.592579 0.056485 0.279242
O O1 0.940748 0.157268 0.231683
O O2 0.000000 0.140438 0.500000
O O3 0.245436 0.213213 0.655075
O O4 0.358602 0.108031 0.736847
O O5 0.318512 0.500000 0.930710
O O6 0.201960 0.445404 0.972616
O O7 0.267067 0.388410 0.884788
O O8 0.687368 0.440132 0.396758
O O9 0.529457 0.301477 0.142830
O O10 0.032402 0.297828 0.718013
O O11 0.000000 0.712824 0.500000
O O12 0.644490 0.000000 0.280587
#
# Coordination Sequence:
#
# PCOD9213498 Si02
#       5
#     8   8   8   8   8
#     4  10  22  38  59  90 123 156 195 236 284 348
#     4   9  18  34  58  85 112 148 191 236 288 343
#     4  11  21  40  63  85 117 156 194 238 295 348
#     4  11  24  40  60  86 117 154 199 247 292 341
#     4   9  18  34  54  81 118 155 190 228 276 340
#
# _framework density 25.067086
#
# number of rings (size 3 to 8) (size 9 to 14) (size 15 to 20)
#    0.000    2.000    0.000    4.200    0.000    3.600 
#    0.000   15.000    0.000   14.400    0.000    0.000 
#    0.000    0.000    0.000    0.000    0.000    0.000 
#
# Total GULP energy -111760.976734 kJ/mol
# GULP energy per Si atom -5588.048837 kJ/mol
# Density = 2.501003 g / cm^3
# Si number density = 25.067086 Si / 1000 Ang^3
#
#
#
# Elastic Constant Matrix: (Units=GPa)
#
#
# Indices 1 2 3 4 5 6 
#
# 1 59.2190 11.0873 15.6745 -0.0306 16.6390 0.0141
# 2 11.0873 203.2652 25.0092 0.0143 36.3566 -0.0039
# 3 15.6745 25.0092 100.0609 0.0490 19.4433 -0.0150
# 4 -0.0306 0.0143 0.0490 -59.1991 0.0097 60.8304
# 5 16.6390 36.3566 19.4433 0.0097 32.9111 -0.0022
# 6 0.0141 -0.0039 -0.0150 60.8304 -0.0022 0.6570
#
#
#
# Elastic Compliance Matrix: (Units=1/GPa)
#
#
# Indices 1 2 3 4 5 6 
#
# 1 0.019971 0.000922 -0.001355 -0.000005 -0.010315 0.000007
# 2 0.000922 0.006179 -0.000307 0.000000 -0.007111 0.000000
# 3 -0.001355 -0.000307 0.011392 0.000003 -0.005706 -0.000006
# 4 -0.000005 0.000000 0.000003 -0.000176 0.000002 0.016268
# 5 -0.010315 -0.007111 -0.005706 0.000002 0.046826 -0.000004
# 6 0.000007 0.000000 -0.000006 0.016268 -0.000004 0.015832
#
#
# Mechanical properties :
#
#
# Convention : Reuss Voigt Hill
#
# Bulk Modulus (GPa) = 27.72954 51.78745 39.75849
# Shear Modulus (GPa) = 44.04400 15.59210 29.81805
#
# Velocity S-wave (km/s) = 4.19626 2.49673 3.45270
# Velocity P-wave (km/s) = 5.87914 5.38664 5.63827
#
# Compressibility (1/GPa) = 0.03606263
#
# Stress axis : x y z
#
# Youngs Moduli (GPa) = 50.07360 161.83835 87.78401
#
# Poissons Ratio (x) = -0.14927 0.11890
# Poissons Ratio (y) = -0.04619 0.02696
# Poissons Ratio (z) = 0.06782 0.04971
#
# Static dielectric constant tensor:
#      x y z
#    x 2.056780 0.000000 -0.138910 
#    y 0.000000 2.060420 0.000000 
#    z -0.138910 0.000000 2.009620 
# 
# From -- ./inp_files/12019.got.cif
#   From: 2010.05.17/outbox.cif.g08.bks.cpg/sg12_7_cif.got.tgz:12019.got - 2010.06.03 13:09:07.
