data_PCOD9213151
_publ_section_title
;
Structure prediction by ZEFSAII (Michael W. Deem and Ramdas Pophale) SiO2 
 PCOD9213151
Probable space group: C 2/M
;
_chemical_formula_sum "Si O2"
_cell_formula_units_Z 48
_cell_length_a 13.025763
_cell_length_b 20.953143
_cell_length_c 15.416674
_cell_angle_alpha 90.000000
_cell_angle_beta 142.405540
_cell_angle_gamma 90.000000
_cell_volume 2566.975227
_symmetry_space_group_name_H-M "C 2/M"
_symmetry_group_IT_number 12
_symmetry_cell_setting 'monoclinic'
loop_
_space_group_symop_operation_xyz
x,y,z
-x,y,-z
-x,-y,-z
x,-y,z
1/2+x,1/2+y,z
1/2-x,1/2+y,-z
1/2-x,1/2-y,-z
1/2+x,1/2-y,z
loop_
_atom_site_type_symbol
_atom_site_label
_atom_site_fract_x
_atom_site_fract_y
_atom_site_fract_z
Si Si1 0.319464 0.428796 0.424742
Si Si2 0.163354 0.336252 0.876303
Si Si3 0.114183 0.294356 0.656747
Si Si4 0.991982 0.426117 0.091342
Si Si5 0.513307 0.289941 0.166896
Si Si6 0.884149 0.191991 0.579987
O O1 0.500000 0.426289 0.500000
O O2 0.300512 0.500000 0.452100
O O3 0.309171 0.368864 0.481811
O O4 0.176734 0.422811 0.256586
O O5 0.106399 0.337740 0.737995
O O6 0.126165 0.393820 0.916159
O O7 0.058115 0.278269 0.849329
O O8 0.361282 0.320177 0.011463
O O9 0.307816 0.285755 0.759939
O O10 0.000000 0.318068 0.500000
O O11 0.035983 0.225483 0.629597
O O12 0.941516 0.500000 0.047953
O O13 0.000000 0.396891 0.000000
O O14 0.548988 0.326641 0.280716
O O15 0.750000 0.250000 0.500000
#
# Coordination Sequence:
#
# PCOD9213151 Si02
#       6
#     8   8   8   8   8   8
#     4  10  22  37  58  88 124 158 199 249 304 369
#     4  10  23  38  58  85 119 156 200 248 296 363
#     4  11  21  35  59  87 119 157 193 250 300 361
#     4  10  23  41  61  86 117 158 198 244 306 366
#     4  10  22  37  55  88 119 157 197 245 308 349
#     4  11  21  35  59  90 119 163 205 248 309 362
#
# _framework density 18.699051000000001
#
# number of rings (size 3 to 8) (size 9 to 14) (size 15 to 20)
#    0.000    1.667    1.667    3.000    4.667    2.667 
#    0.000    0.000    0.000    3.500    0.000    0.000 
#    0.000    0.000    0.000    0.000    0.000    0.000 
#
# Total GULP energy -133935.153810 kJ/mol
# GULP energy per Si atom -5580.631409 kJ/mol
# Density = 1.865649 g / cm^3
# Si number density = 18.699051 Si / 1000 Ang^3
#
#
#
# Elastic Constant Matrix: (Units=GPa)
#
#
# Indices 1 2 3 4 5 6 
#
# 1 119.9141 40.8394 64.4032 0.0000 4.7227 0.0000
# 2 40.8394 82.4855 42.7681 0.0000 -12.1616 0.0000
# 3 64.4032 42.7681 108.5197 0.0000 -5.1066 0.0000
# 4 0.0000 0.0000 0.0000 21.4523 0.0000 -2.2060
# 5 4.7227 -12.1616 -5.1066 0.0000 50.6512 0.0000
# 6 0.0000 0.0000 0.0000 -2.2060 0.0000 26.1442
#
#
#
# Elastic Compliance Matrix: (Units=1/GPa)
#
#
# Indices 1 2 3 4 5 6 
#
# 1 0.013167 -0.003524 -0.006554 0.000000 -0.002735 0.000000
# 2 -0.003524 0.016670 -0.004295 0.000000 0.003898 0.000000
# 3 -0.006554 -0.004295 0.014848 0.000000 0.001077 0.000000
# 4 0.000000 0.000000 0.000000 0.047023 0.000000 0.003968
# 5 -0.002735 0.003898 0.001077 0.000000 0.021042 0.000000
# 6 0.000000 0.000000 0.000000 0.003968 0.000000 0.038584
#
#
# Mechanical properties :
#
#
# Convention : Reuss Voigt Hill
#
# Bulk Modulus (GPa) = 62.74010 67.43786 65.08898
# Shear Modulus (GPa) = 26.96964 30.51011 28.73987
#
# Velocity S-wave (km/s) = 3.80188 4.04374 3.92467
# Velocity P-wave (km/s) = 7.27309 7.61220 7.44457
#
# Compressibility (1/GPa) = 0.01593877
#
# Stress axis : x y z
#
# Youngs Moduli (GPa) = 75.94526 59.98924 67.34963
#
# Poissons Ratio (x) = 0.21141 0.44143
# Poissons Ratio (y) = 0.26764 0.28924
# Poissons Ratio (z) = 0.49776 0.25763
#
# Static dielectric constant tensor:
#      x y z
#    x 1.682290 0.000000 -0.011890 
#    y 0.000000 1.656300 0.000000 
#    z -0.011890 0.000000 1.678260 
# 
# From -- ./inp_files/208019.got.cif
#   From: 2010.05.17/outbox.cif.g08.bks.cpg/sg12_105_cif.got.tgz:208019.got - 2010.06.03 13:09:07.
