data_PCOD9213210
_publ_section_title
;
Structure prediction by ZEFSAII (Michael W. Deem and Ramdas Pophale) SiO2 
 PCOD9213210
Probable space group: C 2/M
;
_chemical_formula_sum "Si O2"
_cell_formula_units_Z 56
_cell_length_a 13.903171
_cell_length_b 29.952699
_cell_length_c 7.961554
_cell_angle_alpha 90.000000
_cell_angle_beta 122.369399
_cell_angle_gamma 90.000000
_cell_volume 2800.308890
_symmetry_space_group_name_H-M "C 2/M"
_symmetry_group_IT_number 12
_symmetry_cell_setting 'monoclinic'
loop_
_space_group_symop_operation_xyz
x,y,z
-x,y,-z
-x,-y,-z
x,-y,z
1/2+x,1/2+y,z
1/2-x,1/2+y,-z
1/2-x,1/2-y,-z
1/2+x,1/2-y,z
loop_
_atom_site_type_symbol
_atom_site_label
_atom_site_fract_x
_atom_site_fract_y
_atom_site_fract_z
Si Si1 0.825688 0.188851 0.522457
Si Si2 0.307214 0.885343 0.429641
Si Si3 0.111778 0.448628 0.219055
Si Si4 0.660768 0.450413 0.787329
Si Si5 0.626231 0.450132 0.135289
Si Si6 0.079683 0.720422 0.241342
Si Si7 0.000000 0.123939 0.500000
Si Si8 0.000000 0.664335 0.500000
O O1 0.768123 0.158331 0.609139
O O2 0.896518 0.229931 0.664131
O O3 0.709661 0.204555 0.318767
O O4 0.908752 0.156315 0.500332
O O5 0.384310 0.907360 0.647977
O O6 0.212933 0.923002 0.324389
O O7 0.393406 0.868609 0.368664
O O8 0.113446 0.500000 0.292577
O O9 0.224982 0.443750 0.211622
O O10 0.000000 0.445772 0.000000
O O11 0.615798 0.500000 0.700757
O O12 0.572259 0.410628 0.678835
O O13 0.682822 0.451793 0.005738
O O14 0.610396 0.500000 0.189305
O O15 0.500000 0.430444 0.000000
O O16 0.030149 0.692769 0.358358
O O17 0.000000 0.718598 0.000000
#
# Coordination Sequence:
#
# PCOD9213210 Si02
#       8
#     8   8   8   8   8   8   4   4
#     4  10  23  40  66  98 125 156 222 255 313 406
#     4  11  22  41  62  94 128 161 206 271 311 364
#     4  10  22  40  63  91 127 173 220 259 308 371
#     4  10  22  37  58  89 127 173 219 253 306 372
#     4  10  22  38  56  86 131 174 212 255 308 368
#     4  10  23  48  70  91 130 169 197 268 333 387
#     4  12  20  38  62  95 128 163 206 270 304 364
#     4  10  25  42  67  99 124 157 223 260 321 402
#
# _framework density 19.997792
#
# number of rings (size 3 to 8) (size 9 to 14) (size 15 to 20)
#    0.000    1.714    1.429    1.929    2.000    5.143 
#    0.000   10.714    0.000    0.000    0.000    0.000 
#    0.000    0.000    0.000    0.000    0.000    0.000 
#
# Total GULP energy -155912.839234 kJ/mol
# GULP energy per Si atom -5568.315687 kJ/mol
# Density = 1.995228 g / cm^3
# Si number density = 19.997792 Si / 1000 Ang^3
#
#
#
# Elastic Constant Matrix: (Units=GPa)
#
#
# Indices 1 2 3 4 5 6 
#
# 1 90.3707 34.5255 22.9408 0.0000 6.2805 0.0000
# 2 34.5255 81.3361 24.8471 0.0000 13.3825 0.0000
# 3 22.9408 24.8471 83.5497 0.0000 18.7061 0.0000
# 4 0.0000 0.0000 0.0000 -179.6572 0.0000 -86.9339
# 5 6.2805 13.3825 18.7061 0.0000 21.5364 0.0000
# 6 0.0000 0.0000 0.0000 -86.9339 0.0000 -3.7528
#
#
#
# Elastic Compliance Matrix: (Units=1/GPa)
#
#
# Indices 1 2 3 4 5 6 
#
# 1 0.013605 -0.005253 -0.002503 0.000000 0.001470 0.000000
# 2 -0.005253 0.016228 -0.001824 0.000000 -0.006968 0.000000
# 3 -0.002503 -0.001824 0.015867 0.000000 -0.011919 0.000000
# 4 0.000000 0.000000 0.000000 0.000545 0.000000 -0.012630
# 5 0.001470 -0.006968 -0.011919 0.000000 0.060686 0.000000
# 6 0.000000 0.000000 0.000000 -0.012630 0.000000 0.026100
#
#
# Mechanical properties :
#
#
# Convention : Reuss Voigt Hill
#
# Bulk Modulus (GPa) = 37.67606 46.65370 42.16488
# Shear Modulus (GPa) = 31.04862 -20.84519 5.10172
#
# Velocity S-wave (km/s) = 3.94458 -3.23208 1.59896
# Velocity P-wave (km/s) = 6.29502 3.07434 4.95373
#
# Compressibility (1/GPa) = 0.02654206
#
# Stress axis : x y z
#
# Youngs Moduli (GPa) = 73.50022 61.62249 63.02399
#
# Poissons Ratio (x) = 0.32367 0.15774
# Poissons Ratio (y) = 0.38606 0.11494
# Poissons Ratio (z) = 0.18396 0.11238
#
# Static dielectric constant tensor:
#      x y z
#    x 1.651850 0.000000 0.010890 
#    y 0.000000 1.767670 0.000000 
#    z 0.010890 0.000000 1.740760 
# 
# From -- ./inp_files/68332.got.cif
#   From: 2010.05.17/outbox.cif.g08.bks.cpg/sg12_35_cif.got.tgz:68332.got - 2010.06.03 13:09:07.
