data_PCOD9213352
_publ_section_title
;
Structure prediction by ZEFSAII (Michael W. Deem and Ramdas Pophale) SiO2 
 PCOD9213352
Probable space group: C 2/M
;
_chemical_formula_sum "Si O2"
_cell_formula_units_Z 56
_cell_length_a 29.355319
_cell_length_b 7.971204
_cell_length_c 13.284416
_cell_angle_alpha 90.000000
_cell_angle_beta 62.378487
_cell_angle_gamma 90.000000
_cell_volume 2754.237627
_symmetry_space_group_name_H-M "C 2/M"
_symmetry_group_IT_number 12
_symmetry_cell_setting 'monoclinic'
loop_
_space_group_symop_operation_xyz
x,y,z
-x,y,-z
-x,-y,-z
x,-y,z
1/2+x,1/2+y,z
1/2-x,1/2+y,-z
1/2-x,1/2-y,-z
1/2+x,1/2-y,z
loop_
_atom_site_type_symbol
_atom_site_label
_atom_site_fract_x
_atom_site_fract_y
_atom_site_fract_z
Si Si1 0.388449 0.688102 0.232585
Si Si2 0.496938 0.813444 0.123155
Si Si3 0.591155 0.703769 0.579070
Si Si4 0.389984 0.703554 0.004066
Si Si5 0.979927 0.309096 0.635146
Si Si6 0.691581 0.297373 0.079270
Si Si7 0.874714 0.194783 0.674415
O O1 0.366797 0.500000 0.252348
O O2 0.450444 0.684324 0.180066
O O3 0.377469 0.764883 0.354350
O O4 0.379959 0.764179 0.130074
O O5 0.482855 0.000000 0.174769
O O6 0.500000 0.827733 0.000000
O O7 0.554462 0.762376 0.093948
O O8 0.592969 0.500000 0.576781
O O9 0.530427 0.751969 0.643248
O O10 0.613803 0.766700 0.448681
O O11 0.392084 0.500000 0.007111
O O12 0.345493 0.758058 0.973812
O O13 0.966289 0.500000 0.673476
O O14 0.000000 0.303155 0.500000
O O15 0.927674 0.204541 0.684513
O O16 0.687768 0.500000 0.085916
O O17 0.669054 0.231730 0.208623
O O18 0.750000 0.250000 0.000000
O O19 0.862420 0.000000 0.669931
#
# Coordination Sequence:
#
# PCOD9213352 Si02
#       7
#     8   8   8   8   8   8   8
#     4   9  17  29  47  70  98 132 164 193 230 283
#     4   9  17  28  43  68 101 134 164 194 232 280
#     4   9  17  29  47  70  98 132 164 193 230 283
#     4   9  18  33  50  69  94 125 163 203 242 287
#     4   9  17  28  43  68 101 134 164 194 232 280
#     4  10  22  38  56  74  92 120 162 212 257 294
#     4   9  18  33  50  69  94 125 163 203 242 287
#
# _framework density 20.332305000000002
#
# number of rings (size 3 to 8) (size 9 to 14) (size 15 to 20)
#    0.000    2.857    0.000    0.857    2.000    5.143 
#    0.000    0.000    0.000    0.857    0.000    0.000 
#    0.000    0.000    0.000    0.000    0.000    0.000 
#
# Total GULP energy -155875.494525 kJ/mol
# GULP energy per Si atom -5566.981947 kJ/mol
# Density = 2.028603 g / cm^3
# Si number density = 20.332305 Si / 1000 Ang^3
#
#
#
# Elastic Constant Matrix: (Units=GPa)
#
#
# Indices 1 2 3 4 5 6 
#
# 1 70.0536 -0.7067 34.1197 0.0000 -0.7769 0.0000
# 2 -0.7067 31.5633 -0.0006 0.0000 0.8235 0.0000
# 3 34.1197 -0.0006 102.5673 0.0000 3.7983 0.0000
# 4 0.0000 0.0000 0.0000 14.3099 0.0000 -5.7244
# 5 -0.7769 0.8235 3.7983 0.0000 33.2005 0.0000
# 6 0.0000 0.0000 0.0000 -5.7244 0.0000 13.4104
#
#
#
# Elastic Compliance Matrix: (Units=1/GPa)
#
#
# Indices 1 2 3 4 5 6 
#
# 1 0.017075 0.000355 -0.005719 0.000000 0.001045 0.000000
# 2 0.000355 0.031710 -0.000089 0.000000 -0.000768 0.000000
# 3 -0.005719 -0.000089 0.011707 0.000000 -0.001471 0.000000
# 4 0.000000 0.000000 0.000000 0.084272 0.000000 0.035973
# 5 0.001045 -0.000768 -0.001471 0.000000 0.030332 0.000000
# 6 0.000000 0.000000 0.000000 0.035973 0.000000 0.089924
#
#
# Mechanical properties :
#
#
# Convention : Reuss Voigt Hill
#
# Bulk Modulus (GPa) = 20.16723 30.11212 25.13967
# Shear Modulus (GPa) = 17.09660 23.56894 20.33277
#
# Velocity S-wave (km/s) = 2.90290 3.40838 3.16574
# Velocity P-wave (km/s) = 4.60175 5.50741 5.07482
#
# Compressibility (1/GPa) = 0.04958540
#
# Stress axis : x y z
#
# Youngs Moduli (GPa) = 58.56384 31.53549 85.42182
#
# Poissons Ratio (x) = -0.01119 0.48852
# Poissons Ratio (y) = -0.02079 0.00764
# Poissons Ratio (z) = 0.33492 0.00282
#
# Static dielectric constant tensor:
#      x y z
#    x 1.704540 0.000000 0.081030 
#    y 0.000000 1.744190 0.000000 
#    z 0.081030 0.000000 1.850520 
# 
# From -- ./inp_files/243618.got.cif
#   From: 2010.05.17/outbox.cif.g08.bks.cpg/sg12_122_cif.got.tgz:243618.got - 2010.06.03 13:09:07.
