data_PCOD9213878
_publ_section_title
;
Structure prediction by ZEFSAII (Michael W. Deem and Ramdas Pophale) SiO2 
 PCOD9213878
Probable space group: C 2/M
;
_chemical_formula_sum "Si O2"
_cell_formula_units_Z 40
_cell_length_a 9.143735
_cell_length_b 26.273349
_cell_length_c 15.184096
_cell_angle_alpha 90.000000
_cell_angle_beta 145.701563
_cell_angle_gamma 90.000000
_cell_volume 2055.533858
_symmetry_space_group_name_H-M "C 2/M"
_symmetry_group_IT_number 12
_symmetry_cell_setting 'monoclinic'
loop_
_space_group_symop_operation_xyz
x,y,z
-x,y,-z
-x,-y,-z
x,-y,z
1/2+x,1/2+y,z
1/2-x,1/2+y,-z
1/2-x,1/2-y,-z
1/2+x,1/2-y,z
loop_
_atom_site_type_symbol
_atom_site_label
_atom_site_fract_x
_atom_site_fract_y
_atom_site_fract_z
Si Si1 0.803714 0.672781 0.659136
Si Si2 0.552140 0.275563 0.833856
Si Si3 0.630761 0.149271 0.662431
Si Si4 0.752951 0.627322 0.822472
Si Si5 0.313608 0.557832 0.674916
O O1 0.500000 0.679305 0.500000
O O2 0.844260 0.642438 0.770218
O O3 0.929680 0.728412 0.722144
O O4 0.917110 0.645246 0.630457
O O5 0.322242 0.303791 0.771579
O O6 0.667105 0.319525 0.827639
O O7 0.750000 0.250000 0.000000
O O8 0.500000 0.156298 0.500000
O O9 0.805750 0.098411 0.750010
O O10 0.511988 0.587374 0.707533
O O11 0.000000 0.607204 0.000000
O O12 0.399032 0.500000 0.731282
O O13 0.000000 0.555028 0.500000
#
# Coordination Sequence:
#
# PCOD9213878 Si02
#       5
#     8   8   8   8   8
#     4  12  23  36  60  88 122 160 200 245 293 355
#     4  11  22  38  56  84 123 164 196 235 292 356
#     4  10  22  39  59  85 118 156 201 244 291 352
#     4  11  23  40  60  92 124 154 201 252 300 354
#     4   9  19  40  66  86 115 158 201 249 307 363
#
# _framework density 19.459664
#
# number of rings (size 3 to 8) (size 9 to 14) (size 15 to 20)
#    0.000    1.400    2.000    5.400    0.000    3.600 
#    0.000    1.000    0.000    8.400    0.000    0.000 
#    0.000    0.000    0.000    0.000    0.000    0.000 
#
# Total GULP energy -111471.607563 kJ/mol
# GULP energy per Si atom -5573.580378 kJ/mol
# Density = 1.941537 g / cm^3
# Si number density = 19.459664 Si / 1000 Ang^3
#
#
#
# Elastic Constant Matrix: (Units=GPa)
#
#
# Indices 1 2 3 4 5 6 
#
# 1 154.1990 46.3896 33.4865 0.0000 -0.6239 0.0000
# 2 46.3896 131.7147 26.8910 0.0000 3.2547 0.0000
# 3 33.4865 26.8910 77.3568 0.0000 -0.5326 0.0000
# 4 0.0000 0.0000 0.0000 13.3203 0.0000 15.6466
# 5 -0.6239 3.2547 -0.5326 0.0000 21.3489 0.0000
# 6 0.0000 0.0000 0.0000 15.6466 0.0000 13.7048
#
#
#
# Elastic Compliance Matrix: (Units=1/GPa)
#
#
# Indices 1 2 3 4 5 6 
#
# 1 0.007707 -0.002203 -0.002567 0.000000 0.000497 0.000000
# 2 -0.002203 0.008839 -0.002129 0.000000 -0.001465 0.000000
# 3 -0.002567 -0.002129 0.014783 0.000000 0.000618 0.000000
# 4 0.000000 0.000000 0.000000 -0.220111 0.000000 0.251298
# 5 0.000497 -0.001465 0.000618 0.000000 0.047094 0.000000
# 6 0.000000 0.000000 0.000000 0.251298 0.000000 -0.213936
#
#
# Mechanical properties :
#
#
# Convention : Reuss Voigt Hill
#
# Bulk Modulus (GPa) = 57.04240 64.08943 60.56592
# Shear Modulus (GPa) = -14.88175 26.77504 5.94665
#
# Velocity S-wave (km/s) = -2.76841 3.71337 1.75000
# Velocity P-wave (km/s) = 4.37699 7.16879 5.93925
#
# Compressibility (1/GPa) = 0.01753082
#
# Stress axis : x y z
#
# Youngs Moduli (GPa) = 129.74719 113.13721 67.64599
#
# Poissons Ratio (x) = 0.24920 0.17366
# Poissons Ratio (y) = 0.28579 0.14403
# Poissons Ratio (z) = 0.33309 0.24089
#
# Static dielectric constant tensor:
#      x y z
#    x 1.710550 0.000000 0.026880 
#    y 0.000000 1.697160 0.000000 
#    z 0.026880 0.000000 1.745030 
# 
# From -- ./inp_files/40313.got.cif
#   From: 2010.05.17/outbox.cif.g08.bks.cpg/sg12_21_cif.got.tgz:40313.got - 2010.06.03 13:09:07.
