data_PCOD9213949
_publ_section_title
;
Structure prediction by ZEFSAII (Michael W. Deem and Ramdas Pophale) SiO2 
 PCOD9213949
Probable space group: C 2/M
;
_chemical_formula_sum "Si O2"
_cell_formula_units_Z 64
_cell_length_a 31.702109
_cell_length_b 8.840489
_cell_length_c 14.570130
_cell_angle_alpha 90.000000
_cell_angle_beta 122.811068
_cell_angle_gamma 90.000000
_cell_volume 3431.989285
_symmetry_space_group_name_H-M "C 2/M"
_symmetry_group_IT_number 12
_symmetry_cell_setting 'monoclinic'
loop_
_space_group_symop_operation_xyz
x,y,z
-x,y,-z
-x,-y,-z
x,-y,z
1/2+x,1/2+y,z
1/2-x,1/2+y,-z
1/2-x,1/2-y,-z
1/2+x,1/2-y,z
loop_
_atom_site_type_symbol
_atom_site_label
_atom_site_fract_x
_atom_site_fract_y
_atom_site_fract_z
Si Si1 0.161184 0.319012 0.497342
Si Si2 0.558252 0.817384 0.060352
Si Si3 0.221028 0.318569 0.052093
Si Si4 0.240919 0.181955 0.269700
Si Si5 0.043806 0.818253 0.678364
Si Si6 0.145117 0.181127 0.278806
Si Si7 0.569590 0.682462 0.501929
Si Si8 0.604195 0.182125 0.918495
O O1 0.159841 0.500000 0.486839
O O2 0.212330 0.277084 0.610517
O O3 0.158068 0.245525 0.393660
O O4 0.114291 0.262208 0.501753
O O5 0.592979 0.745966 0.179409
O O6 0.561575 0.000000 0.070756
O O7 0.500000 0.774699 0.000000
O O8 0.580357 0.770267 0.987532
O O9 0.223419 0.500000 0.051699
O O10 0.243632 0.259866 0.174324
O O11 0.250000 0.250000 0.000000
O O12 0.162405 0.271631 0.981226
O O13 0.189264 0.224820 0.259776
O O14 0.241206 0.000000 0.257987
O O15 0.067311 0.776897 0.607124
O O16 0.072749 0.745697 0.796704
O O17 0.984875 0.777306 0.604230
O O18 0.046336 0.000000 0.688403
O O19 0.142982 0.000000 0.280540
O O20 0.574872 0.500000 0.501903
O O21 0.602511 0.000000 0.913553
#
# Coordination Sequence:
#
# PCOD9213949 Si02
#       8
#     8   8   8   8   8   8   8   8
#     4  11  24  39  61  89 119 154 196 247 299 353
#     4  10  22  41  63  89 124 161 200 247 300 359
#     4  11  24  41  63  90 124 162 202 249 299 356
#     4  10  23  43  63  88 120 155 199 247 297 355
#     4   9  20  38  61  84 119 159 195 243 295 351
#     4  11  23  41  64  89 119 155 198 247 296 356
#     4   9  20  40  59  86 120 155 198 244 295 351
#     4  10  22  39  60  90 123 158 200 246 298 358
#
# _framework density 18.648077000000001
#
# number of rings (size 3 to 8) (size 9 to 14) (size 15 to 20)
#    0.000    1.875    1.250    2.250    3.500    4.250 
#    0.000    1.250    0.000    0.000    0.000    0.000 
#    0.000    0.000    0.000    0.000    0.000    0.000 
#
# Total GULP energy -178820.322865 kJ/mol
# GULP energy per Si atom -5588.135090 kJ/mol
# Density = 1.860563 g / cm^3
# Si number density = 18.648077 Si / 1000 Ang^3
#
#
#
# Elastic Constant Matrix: (Units=GPa)
#
#
# Indices 1 2 3 4 5 6 
#
# 1 136.1987 42.0256 76.0414 0.0000 12.8249 0.0000
# 2 42.0256 27.4832 48.0796 0.0000 1.3816 0.0000
# 3 76.0414 48.0796 177.2761 0.0000 -0.0158 0.0000
# 4 0.0000 0.0000 0.0000 37.9773 0.0000 -0.1921
# 5 12.8249 1.3816 -0.0158 0.0000 6.3850 0.0000
# 6 0.0000 0.0000 0.0000 -0.1921 0.0000 24.0683
#
#
#
# Elastic Compliance Matrix: (Units=1/GPa)
#
#
# Indices 1 2 3 4 5 6 
#
# 1 0.018766 -0.024704 -0.001353 0.000000 -0.032352 0.000000
# 2 -0.024704 0.103228 -0.017398 0.000000 0.027240 0.000000
# 3 -0.001353 -0.017398 0.010940 0.000000 0.006509 0.000000
# 4 0.000000 0.000000 0.000000 0.026333 0.000000 0.000210
# 5 -0.032352 0.027240 0.006509 0.000000 0.215720 0.000000
# 6 0.000000 0.000000 0.000000 0.000210 0.000000 0.041550
#
#
# Mechanical properties :
#
#
# Convention : Reuss Voigt Hill
#
# Bulk Modulus (GPa) = 21.72677 74.80568 48.26623
# Shear Modulus (GPa) = 9.63786 25.34022 17.48904
#
# Velocity S-wave (km/s) = 2.27585 3.69028 3.06575
# Velocity P-wave (km/s) = 4.31071 7.63931 6.20247
#
# Compressibility (1/GPa) = 0.04602618
#
# Stress axis : x y z
#
# Youngs Moduli (GPa) = 53.28711 9.68731 91.40569
#
# Poissons Ratio (x) = 0.23931 0.12364
# Poissons Ratio (y) = 1.31638 1.59027
# Poissons Ratio (z) = 0.07208 0.16854
#
# Static dielectric constant tensor:
#      x y z
#    x 1.627490 0.000000 0.007170 
#    y 0.000000 1.626960 0.000000 
#    z 0.007170 0.000000 1.611780 
# 
# From -- ./inp_files/249908.got.cif
#   From: 2010.05.17/outbox.cif.g08.bks.cpg/sg12_125_cif.got.tgz:249908.got - 2010.06.03 13:09:07.
