data_PCOD9213501
_publ_section_title
;
Structure prediction by ZEFSAII (Michael W. Deem and Ramdas Pophale) SiO2 
 PCOD9213501
Probable space group: C 2/M
;
_chemical_formula_sum "Si O2"
_cell_formula_units_Z 40
_cell_length_a 9.036438
_cell_length_b 21.655980
_cell_length_c 14.507758
_cell_angle_alpha 90.000000
_cell_angle_beta 134.691588
_cell_angle_gamma 90.000000
_cell_volume 2018.299458
_symmetry_space_group_name_H-M "C 2/M"
_symmetry_group_IT_number 12
_symmetry_cell_setting 'monoclinic'
loop_
_space_group_symop_operation_xyz
x,y,z
-x,y,-z
-x,-y,-z
x,-y,z
1/2+x,1/2+y,z
1/2-x,1/2+y,-z
1/2-x,1/2-y,-z
1/2+x,1/2-y,z
loop_
_atom_site_type_symbol
_atom_site_label
_atom_site_fract_x
_atom_site_fract_y
_atom_site_fract_z
Si Si1 0.400882 0.321952 0.599426
Si Si2 0.733240 0.071673 0.618180
Si Si3 0.043554 0.928995 0.911033
Si Si4 0.820585 0.290085 0.678489
Si Si5 0.858919 0.683642 0.030553
O O1 0.395844 0.392511 0.625612
O O2 0.611586 0.298823 0.645533
O O3 0.223542 0.314251 0.443925
O O4 0.362371 0.281721 0.674252
O O5 0.500000 0.096783 0.500000
O O6 0.826784 0.078444 0.760958
O O7 0.728034 0.000000 0.591954
O O8 0.117063 0.000000 0.923255
O O9 0.202202 0.874180 0.954139
O O10 0.000000 0.924345 0.000000
O O11 0.998277 0.322414 0.815460
O O12 0.750000 0.750000 0.000000
O O13 0.000000 0.687131 0.000000
#
# Coordination Sequence:
#
# PCOD9213501 Si02
#       5
#     8   8   8   8   8
#     4  10  22  39  61  87 120 152 201 247 298 353
#     4  10  22  39  63  88 118 160 203 247 293 352
#     4  10  23  42  63  90 124 162 205 251 303 364
#     4  10  22  38  59  91 117 158 193 247 304 352
#     4  12  24  39  62  90 125 161 202 248 307 363
#
# _framework density 19.818664999999999
#
# number of rings (size 3 to 8) (size 9 to 14) (size 15 to 20)
#    0.000    1.600    0.000    4.200    8.400    0.400 
#    0.000    3.000    0.000    0.000    0.000    0.000 
#    0.000    0.000    0.000    0.000    0.000    0.000 
#
# Total GULP energy -111566.876024 kJ/mol
# GULP energy per Si atom -5578.343801 kJ/mol
# Density = 1.977356 g / cm^3
# Si number density = 19.818665 Si / 1000 Ang^3
#
#
#
# Elastic Constant Matrix: (Units=GPa)
#
#
# Indices 1 2 3 4 5 6 
#
# 1 96.7071 64.1342 24.2470 0.0000 4.5812 0.0000
# 2 64.1342 109.1210 46.2414 0.0000 7.8739 0.0000
# 3 24.2470 46.2414 125.2840 0.0000 2.7863 0.0000
# 4 0.0000 0.0000 0.0000 29.8197 0.0000 3.0779
# 5 4.5812 7.8739 2.7863 0.0000 22.2654 0.0000
# 6 0.0000 0.0000 0.0000 3.0779 0.0000 20.7025
#
#
#
# Elastic Compliance Matrix: (Units=1/GPa)
#
#
# Indices 1 2 3 4 5 6 
#
# 1 0.016969 -0.010176 0.000471 0.000000 0.000048 0.000000
# 2 -0.010176 0.017221 -0.004310 0.000000 -0.003457 0.000000
# 3 0.000471 -0.004310 0.009476 0.000000 0.000241 0.000000
# 4 0.000000 0.000000 0.000000 0.034058 0.000000 -0.005063
# 5 0.000048 -0.003457 0.000241 0.000000 0.046095 0.000000
# 6 0.000000 0.000000 0.000000 -0.005063 0.000000 0.049056
#
#
# Mechanical properties :
#
#
# Convention : Reuss Voigt Hill
#
# Bulk Modulus (GPa) = 63.95722 66.70638 65.33180
# Shear Modulus (GPa) = 24.25816 27.65682 25.95749
#
# Velocity S-wave (km/s) = 3.50237 3.73968 3.62297
# Velocity P-wave (km/s) = 6.97831 7.23729 7.10898
#
# Compressibility (1/GPa) = 0.01563545
#
# Stress axis : x y z
#
# Youngs Moduli (GPa) = 58.93176 58.06955 105.52905
#
# Poissons Ratio (x) = 0.59092 -0.04968
# Poissons Ratio (y) = 0.59970 0.45480
# Poissons Ratio (z) = -0.02774 0.25026
#
# Static dielectric constant tensor:
#      x y z
#    x 1.664240 0.000000 0.016510 
#    y 0.000000 1.731060 0.000000 
#    z 0.016510 0.000000 1.762500 
# 
# From -- ./inp_files/198681.got.cif
#   From: 2010.05.17/outbox.cif.g08.bks.cpg/sg12_100_cif.got.tgz:198681.got - 2010.06.03 13:09:07.
