data_PCOD9213362
_publ_section_title
;
Structure prediction by ZEFSAII (Michael W. Deem and Ramdas Pophale) SiO2 
 PCOD9213362
Probable space group: C 2/M
;
_chemical_formula_sum "Si O2"
_cell_formula_units_Z 64
_cell_length_a 20.520156
_cell_length_b 9.110430
_cell_length_c 15.174632
_cell_angle_alpha 90.000000
_cell_angle_beta 97.550286
_cell_angle_gamma 90.000000
_cell_volume 2812.262894
_symmetry_space_group_name_H-M "C 2/M"
_symmetry_group_IT_number 12
_symmetry_cell_setting 'monoclinic'
loop_
_space_group_symop_operation_xyz
x,y,z
-x,y,-z
-x,-y,-z
x,-y,z
1/2+x,1/2+y,z
1/2-x,1/2+y,-z
1/2-x,1/2-y,-z
1/2+x,1/2-y,z
loop_
_atom_site_type_symbol
_atom_site_label
_atom_site_fract_x
_atom_site_fract_y
_atom_site_fract_z
Si Si1 0.682283 0.168208 0.634823
Si Si2 0.446170 0.824585 0.566049
Si Si3 0.926809 0.661239 0.950906
Si Si4 0.380251 0.333252 0.795305
Si Si5 0.181666 0.175679 0.408753
Si Si6 0.238804 0.339012 0.844404
Si Si7 0.556788 0.178664 0.713016
Si Si8 0.123182 0.828252 0.892188
O O1 0.743131 0.234263 0.589313
O O2 0.713236 0.159673 0.738930
O O3 0.610696 0.227994 0.648428
O O4 0.673220 0.000000 0.601964
O O5 0.500000 0.794236 0.500000
O O6 0.374500 0.751516 0.541843
O O7 0.485402 0.779825 0.662387
O O8 0.436857 0.000000 0.567673
O O9 0.895417 0.500000 0.946458
O O10 0.928142 0.721448 0.851645
O O11 0.894314 0.769319 0.015249
O O12 0.000000 0.649062 0.000000
O O13 0.405777 0.500000 0.801194
O O14 0.351544 0.303739 0.693807
O O15 0.316082 0.323900 0.847221
O O16 0.184992 0.000000 0.426232
O O17 0.198727 0.214689 0.886301
O O18 0.277137 0.000000 0.120287
O O19 0.580357 0.246143 0.809109
O O20 0.560206 0.000000 0.718416
O O21 0.112256 0.000000 0.883031
#
# Coordination Sequence:
#
# PCOD9213362 Si02
#       8
#     8   8   8   8   8   8   8   8
#     4   7  12  28  54  80 103 138 182 220 261 318
#     4  10  22  38  56  82 114 147 182 221 269 329
#     4  11  25  40  52  71 106 148 190 229 270 322
#     4   9  19  36  58  83 108 141 182 226 274 322
#     4   9  18  34  58  84 110 141 181 226 277 328
#     4   8  15  32  56  79 107 140 178 219 267 328
#     4   9  18  36  60  79 107 148 188 224 268 333
#     4  11  22  35  55  82 109 139 179 229 278 321
#
# _framework density 22.757476
#
# number of rings (size 3 to 8) (size 9 to 14) (size 15 to 20)
#    0.000    2.750    0.000    3.750    1.750    3.250 
#    0.000    5.625    0.000    0.000    0.000    0.000 
#    0.000    0.000    0.000    0.000    0.000    0.000 
#
# Total GULP energy -178550.200047 kJ/mol
# GULP energy per Si atom -5579.693751 kJ/mol
# Density = 2.270568 g / cm^3
# Si number density = 22.757476 Si / 1000 Ang^3
#
#
#
# Elastic Constant Matrix: (Units=GPa)
#
#
# Indices 1 2 3 4 5 6 
#
# 1 110.1423 15.6209 1.9293 0.0000 -5.1661 0.0000
# 2 15.6209 35.4146 8.2841 0.0000 -1.5894 0.0000
# 3 1.9293 8.2841 60.3879 0.0000 -5.1026 0.0000
# 4 0.0000 0.0000 0.0000 5.7346 0.0000 -5.5634
# 5 -5.1661 -1.5894 -5.1026 0.0000 37.3832 0.0000
# 6 0.0000 0.0000 0.0000 -5.5634 0.0000 12.9891
#
#
#
# Elastic Compliance Matrix: (Units=1/GPa)
#
#
# Indices 1 2 3 4 5 6 
#
# 1 0.009744 -0.004334 0.000386 0.000000 0.001215 0.000000
# 2 -0.004334 0.031119 -0.004117 0.000000 0.000162 0.000000
# 3 0.000386 -0.004117 0.017301 0.000000 0.002240 0.000000
# 4 0.000000 0.000000 0.000000 0.298352 0.000000 0.127789
# 5 0.001215 0.000162 0.002240 0.000000 0.027231 0.000000
# 6 0.000000 0.000000 0.000000 0.127789 0.000000 0.131721
#
#
# Mechanical properties :
#
#
# Convention : Reuss Voigt Hill
#
# Bulk Modulus (GPa) = 23.78976 28.62371 26.20673
# Shear Modulus (GPa) = 9.16407 23.22874 16.19640
#
# Velocity S-wave (km/s) = 2.00888 3.19832 2.67066
# Velocity P-wave (km/s) = 3.98209 5.12289 4.58809
#
# Compressibility (1/GPa) = 0.04203489
#
# Stress axis : x y z
#
# Youngs Moduli (GPa) = 102.62704 32.13494 57.79917
#
# Poissons Ratio (x) = 0.13926 -0.02230
# Poissons Ratio (y) = 0.44475 0.23795
# Poissons Ratio (z) = -0.03960 0.13229
#
# Static dielectric constant tensor:
#      x y z
#    x 1.919730 0.000000 0.002790 
#    y 0.000000 1.817340 0.000000 
#    z 0.002790 0.000000 1.916400 
# 
# From -- ./inp_files/238797.got.cif
#   From: 2010.05.17/outbox.cif.g08.bks.cpg/sg12_120_cif.got.tgz:238797.got - 2010.06.03 13:09:07.
