data_PCOD9213416
_publ_section_title
;
Structure prediction by ZEFSAII (Michael W. Deem and Ramdas Pophale) SiO2 
 PCOD9213416
Probable space group: C 2/M
;
_chemical_formula_sum "Si O2"
_cell_formula_units_Z 40
_cell_length_a 10.065564
_cell_length_b 13.774853
_cell_length_c 20.118404
_cell_angle_alpha 90.000000
_cell_angle_beta 36.132497
_cell_angle_gamma 90.000000
_cell_volume 1644.811969
_symmetry_space_group_name_H-M "C 2/M"
_symmetry_group_IT_number 12
_symmetry_cell_setting 'monoclinic'
loop_
_space_group_symop_operation_xyz
x,y,z
-x,y,-z
-x,-y,-z
x,-y,z
1/2+x,1/2+y,z
1/2-x,1/2+y,-z
1/2-x,1/2-y,-z
1/2+x,1/2-y,z
loop_
_atom_site_type_symbol
_atom_site_label
_atom_site_fract_x
_atom_site_fract_y
_atom_site_fract_z
Si Si1 0.119350 0.885552 0.669527
Si Si2 0.373500 0.608716 0.981994
Si Si3 0.760336 0.112494 0.632889
Si Si4 0.017931 0.752925 0.815518
Si Si5 0.078126 0.614614 0.570292
O O1 0.948249 0.816628 0.778236
O O2 0.219723 0.848278 0.558757
O O3 0.342577 0.878328 0.627019
O O4 0.055520 0.000000 0.691294
O O5 0.318343 0.500000 0.979967
O O6 0.158722 0.674737 0.085267
O O7 0.500000 0.600069 0.000000
O O8 0.530253 0.665781 0.867006
O O9 0.723187 0.185555 0.708075
O O10 0.587009 0.140264 0.643900
O O11 0.000000 0.121620 0.500000
O O12 0.729533 0.000000 0.665329
O O13 0.129197 0.500000 0.551479
#
# Coordination Sequence:
#
# PCOD9213416 Si02
#       5
#     8   8   8   8   8
#     4   9  18  34  58  90 124 160 205 258 302 356
#     4  10  24  46  67  88 118 161 215 270 317 365
#     4  10  22  38  57  89 133 172 201 244 308 381
#     4  11  23  37  64  96 119 157 212 261 311 370
#     4   8  17  34  55  84 126 169 204 243 297 360
#
# _framework density 24.31889
#
# number of rings (size 3 to 8) (size 9 to 14) (size 15 to 20)
#    0.000    2.400    0.000    2.400    5.600    2.400 
#    0.000    0.000    0.000   20.400    0.000    0.000 
#    0.000    0.000    0.000    0.000    0.000    0.000 
#
# Total GULP energy -111697.817127 kJ/mol
# GULP energy per Si atom -5584.890856 kJ/mol
# Density = 2.426354 g / cm^3
# Si number density = 24.318890 Si / 1000 Ang^3
#
#
#
# Elastic Constant Matrix: (Units=GPa)
#
#
# Indices 1 2 3 4 5 6 
#
# 1 41.5137 2.2418 13.8814 -0.0002 7.1255 0.0003
# 2 2.2418 196.6877 81.7138 -0.0004 9.1153 0.0003
# 3 13.8814 81.7138 133.3328 -0.0003 19.5611 0.0001
# 4 -0.0002 -0.0004 -0.0003 52.4286 0.0002 13.0066
# 5 7.1255 9.1153 19.5611 0.0002 25.4552 -0.0002
# 6 0.0003 0.0003 0.0001 13.0066 -0.0002 16.8682
#
#
#
# Elastic Compliance Matrix: (Units=1/GPa)
#
#
# Indices 1 2 3 4 5 6 
#
# 1 0.025836 0.000993 -0.002463 0.000000 -0.005695 -0.000001
# 2 0.000993 0.006876 -0.004413 0.000000 0.000651 0.000000
# 3 -0.002463 -0.004413 0.011415 0.000000 -0.006502 0.000000
# 4 0.000000 0.000000 0.000000 0.023585 -0.000001 -0.018186
# 5 -0.005695 0.000651 -0.006502 -0.000001 0.045642 0.000001
# 6 -0.000001 0.000000 0.000000 -0.018186 0.000001 0.073306
#
#
# Mechanical properties :
#
#
# Convention : Reuss Voigt Hill
#
# Bulk Modulus (GPa) = 30.90155 63.02313 46.96234
# Shear Modulus (GPa) = 23.89914 37.19687 30.54801
#
# Velocity S-wave (km/s) = 3.13827 3.91518 3.54806
# Velocity P-wave (km/s) = 5.08587 6.81247 6.01148
#
# Compressibility (1/GPa) = 0.03236083
#
# Stress axis : x y z
#
# Youngs Moduli (GPa) = 38.70602 145.43255 87.60577
#
# Poissons Ratio (x) = -0.14435 0.21573
# Poissons Ratio (y) = -0.03842 0.38659
# Poissons Ratio (z) = 0.09532 0.64177
#
# Static dielectric constant tensor:
#      x y z
#    x 1.981120 0.000000 -0.001620 
#    y 0.000000 1.982470 0.000000 
#    z -0.001620 0.000000 1.972460 
# 
# From -- ./inp_files/129607.got.cif
#   From: 2010.05.17/outbox.cif.g08.bks.cpg/sg12_65_cif.got.tgz:129607.got - 2010.06.03 13:09:07.
