data_PCOD9213911
_publ_section_title
;
Structure prediction by ZEFSAII (Michael W. Deem and Ramdas Pophale) SiO2 
 PCOD9213911
Probable space group: C 2/M
;
_chemical_formula_sum "Si O2"
_cell_formula_units_Z 56
_cell_length_a 9.340857
_cell_length_b 22.153938
_cell_length_c 18.393030
_cell_angle_alpha 90.000000
_cell_angle_beta 55.099532
_cell_angle_gamma 90.000000
_cell_volume 3121.639493
_symmetry_space_group_name_H-M "C 2/M"
_symmetry_group_IT_number 12
_symmetry_cell_setting 'monoclinic'
loop_
_space_group_symop_operation_xyz
x,y,z
-x,y,-z
-x,-y,-z
x,-y,z
1/2+x,1/2+y,z
1/2-x,1/2+y,-z
1/2-x,1/2-y,-z
1/2+x,1/2-y,z
loop_
_atom_site_type_symbol
_atom_site_label
_atom_site_fract_x
_atom_site_fract_y
_atom_site_fract_z
Si Si1 0.903719 0.198843 0.951175
Si Si2 0.041503 0.932782 0.574845
Si Si3 0.682058 0.314141 0.490142
Si Si4 0.807810 0.632918 0.089513
Si Si5 0.179544 0.567033 0.769324
Si Si6 0.417430 0.176262 0.289536
Si Si7 0.761899 0.745801 0.210952
O O1 0.819889 0.138766 0.941892
O O2 0.057176 0.219733 0.853423
O O3 0.750000 0.250000 0.000000
O O4 0.000000 0.192174 0.000000
O O5 0.146364 0.870167 0.555504
O O6 0.000000 0.932882 0.500000
O O7 0.863759 0.928391 0.673013
O O8 0.118237 0.000000 0.568228
O O9 0.500000 0.303892 0.500000
O O10 0.750000 0.250000 0.500000
O O11 0.827871 0.338000 0.391630
O O12 0.793549 0.580665 0.153260
O O13 0.768387 0.692517 0.149450
O O14 0.000000 0.635519 0.000000
O O15 0.110497 0.500000 0.778864
O O16 0.058376 0.617874 0.768257
O O17 0.594843 0.212761 0.248802
O O18 0.276761 0.216306 0.285793
#
# Coordination Sequence:
#
# PCOD9213911 Si02
#       7
#     8   8   8   8   8   8   8
#     4  12  19  33  54  83 117 151 193 235 291 360
#     4   9  17  35  59  84 111 154 207 247 282 347
#     4  11  21  34  53  86 127 153 185 242 309 350
#     4  11  22  36  58  86 119 149 195 243 295 357
#     4  10  22  39  60  83 113 156 207 250 286 340
#     4  11  21  33  54  87 118 154 191 239 297 358
#     4  11  20  32  53  84 121 150 187 233 298 356
#
# _framework density 17.939291999999998
#
# number of rings (size 3 to 8) (size 9 to 14) (size 15 to 20)
#    0.000    1.286    7.143    0.857    4.000    0.286 
#    0.000    0.000    0.000    1.714    0.000    1.000 
#    0.000    0.000    0.000    0.000    0.000    0.000 
#
# Total GULP energy -156039.594980 kJ/mol
# GULP energy per Si atom -5572.842678 kJ/mol
# Density = 1.789846 g / cm^3
# Si number density = 17.939292 Si / 1000 Ang^3
#
#
#
# Elastic Constant Matrix: (Units=GPa)
#
#
# Indices 1 2 3 4 5 6 
#
# 1 79.2069 38.4213 17.5265 0.0000 -5.8141 0.0000
# 2 38.4213 115.7876 3.4361 0.0000 -12.0109 0.0000
# 3 17.5265 3.4361 58.8766 0.0000 -11.7486 0.0000
# 4 0.0000 0.0000 0.0000 12.4345 0.0000 4.1205
# 5 -5.8141 -12.0109 -11.7486 0.0000 16.8692 0.0000
# 6 0.0000 0.0000 0.0000 4.1205 0.0000 11.6758
#
#
#
# Elastic Compliance Matrix: (Units=1/GPa)
#
#
# Indices 1 2 3 4 5 6 
#
# 1 0.016193 -0.005399 -0.004830 0.000000 -0.001627 0.000000
# 2 -0.005399 0.011167 0.002521 0.000000 0.007846 0.000000
# 3 -0.004830 0.002521 0.021255 0.000000 0.014934 0.000000
# 4 0.000000 0.000000 0.000000 0.091072 0.000000 -0.032140
# 5 -0.001627 0.007846 0.014934 0.000000 0.074706 0.000000
# 6 0.000000 0.000000 0.000000 -0.032140 0.000000 0.096990
#
#
# Mechanical properties :
#
#
# Convention : Reuss Voigt Hill
#
# Bulk Modulus (GPa) = 30.12026 41.40432 35.76229
# Shear Modulus (GPa) = 14.79877 21.16170 17.98024
#
# Velocity S-wave (km/s) = 2.87529 3.43830 3.16932
# Velocity P-wave (km/s) = 5.27727 6.23642 5.77678
#
# Compressibility (1/GPa) = 0.03320024
#
# Stress axis : x y z
#
# Youngs Moduli (GPa) = 61.75383 89.54948 47.04706
#
# Poissons Ratio (x) = 0.48346 0.22724
# Poissons Ratio (y) = 0.33339 -0.11861
# Poissons Ratio (z) = 0.29827 -0.22576
#
# Static dielectric constant tensor:
#      x y z
#    x 1.635500 0.000000 0.042610 
#    y 0.000000 1.676140 0.000000 
#    z 0.042610 0.000000 1.663240 
# 
# From -- ./inp_files/258853.got.cif
#   From: 2010.05.17/outbox.cif.g08.bks.cpg/sg12_130_cif.got.tgz:258853.got - 2010.06.03 13:09:07.
