data_PCOD9213914
_publ_section_title
;
Structure prediction by ZEFSAII (Michael W. Deem and Ramdas Pophale) SiO2 
 PCOD9213914
Probable space group: C 2/M
;
_chemical_formula_sum "Si O2"
_cell_formula_units_Z 48
_cell_length_a 9.278722
_cell_length_b 15.145263
_cell_length_c 29.589513
_cell_angle_alpha 90.000000
_cell_angle_beta 148.043532
_cell_angle_gamma 90.000000
_cell_volume 2200.817362
_symmetry_space_group_name_H-M "C 2/M"
_symmetry_group_IT_number 12
_symmetry_cell_setting 'monoclinic'
loop_
_space_group_symop_operation_xyz
x,y,z
-x,y,-z
-x,-y,-z
x,-y,z
1/2+x,1/2+y,z
1/2-x,1/2+y,-z
1/2-x,1/2-y,-z
1/2+x,1/2-y,z
loop_
_atom_site_type_symbol
_atom_site_label
_atom_site_fract_x
_atom_site_fract_y
_atom_site_fract_z
Si Si1 0.865449 0.400452 0.511901
Si Si2 0.633116 0.207226 0.126833
Si Si3 0.822658 0.315738 0.591103
Si Si4 0.714563 0.094654 0.330405
Si Si5 0.904694 0.895064 0.027467
Si Si6 0.339660 0.228679 0.760434
O O1 0.939926 0.500000 0.545673
O O2 0.932883 0.335517 0.570584
O O3 0.542064 0.398326 0.418337
O O4 0.000000 0.383026 0.500000
O O5 0.548981 0.308449 0.089470
O O6 0.631717 0.198705 0.180708
O O7 0.937686 0.194425 0.188185
O O8 0.410510 0.135988 0.051496
O O9 0.500000 0.299889 0.500000
O O10 0.854557 0.394704 0.635347
O O11 0.020756 0.246811 0.667189
O O12 0.596310 0.164018 0.264252
O O13 0.631422 0.000000 0.291070
O O14 0.943190 0.000000 0.051485
O O15 0.000000 0.891258 0.000000
#
# Coordination Sequence:
#
# PCOD9213914 Si02
#       6
#     8   8   8   8   8   8
#     4   9  19  35  56  84 119 163 219 280 327 370
#     4  11  24  44  67 103 140 168 210 276 330 390
#     4  10  22  40  62  88 125 179 227 270 321 383
#     4  10  22  39  60  84 119 170 222 267 321 387
#     4  10  22  45  77 102 130 175 214 255 330 415
#     4  12  24  41  62  97 136 173 212 277 329 375
#
# _framework density 21.810079000000002
#
# number of rings (size 3 to 8) (size 9 to 14) (size 15 to 20)
#    0.000    1.667    3.333    0.500    2.333    6.667 
#    0.000    3.333    0.000    0.000    0.000    0.000 
#    0.000    0.000    0.000    0.000    0.000    0.000 
#
# Total GULP energy -133715.844539 kJ/mol
# GULP energy per Si atom -5571.493522 kJ/mol
# Density = 2.176044 g / cm^3
# Si number density = 21.810079 Si / 1000 Ang^3
#
#
#
# Elastic Constant Matrix: (Units=GPa)
#
#
# Indices 1 2 3 4 5 6 
#
# 1 81.2934 -8.0051 7.4710 0.0000 -9.8373 0.0000
# 2 -8.0051 88.2780 16.0120 0.0000 -13.2935 0.0000
# 3 7.4710 16.0120 78.5262 0.0002 -3.7782 0.0002
# 4 0.0000 0.0000 0.0002 13.8548 0.0001 3.1192
# 5 -9.8373 -13.2935 -3.7782 0.0001 31.3902 0.0001
# 6 0.0000 0.0000 0.0002 3.1192 0.0001 9.8915
#
#
#
# Elastic Compliance Matrix: (Units=1/GPa)
#
#
# Indices 1 2 3 4 5 6 
#
# 1 0.013248 0.002208 -0.001474 0.000000 0.004909 0.000000
# 2 0.002208 0.012870 -0.002554 0.000000 0.005835 0.000000
# 3 -0.001474 -0.002554 0.013399 0.000000 0.000069 0.000000
# 4 0.000000 0.000000 0.000000 0.077693 0.000000 -0.024500
# 5 0.004909 0.005835 0.000069 0.000000 0.035875 0.000000
# 6 0.000000 0.000000 0.000000 -0.024500 0.000000 0.108823
#
#
# Mechanical properties :
#
#
# Convention : Reuss Voigt Hill
#
# Bulk Modulus (GPa) = 27.87298 31.00594 29.43946
# Shear Modulus (GPa) = 18.01756 26.53526 22.27641
#
# Velocity S-wave (km/s) = 2.87733 3.49184 3.19937
# Velocity P-wave (km/s) = 4.88327 5.52308 5.21300
#
# Compressibility (1/GPa) = 0.03587703
#
# Stress axis : x y z
#
# Youngs Moduli (GPa) = 75.48227 77.70052 74.63294
#
# Poissons Ratio (x) = -0.17157 0.11004
# Poissons Ratio (y) = -0.16667 0.19058
# Poissons Ratio (z) = 0.11130 0.19842
#
# Static dielectric constant tensor:
#      x y z
#    x 1.816110 0.000000 0.054810 
#    y 0.000000 1.883450 0.000000 
#    z 0.054810 0.000000 1.793140 
# 
# From -- ./inp_files/373029.got.cif
#   From: 2010.05.17/outbox.cif.g08.bks.cpg/sg12_187_cif.got.tgz:373029.got - 2010.06.03 13:09:07.
