data_PCOD9213384
_publ_section_title
;
Structure prediction by ZEFSAII (Michael W. Deem and Ramdas Pophale) SiO2 
 PCOD9213384
Probable space group: C 2/M
;
_chemical_formula_sum "Si O2"
_cell_formula_units_Z 44
_cell_length_a 11.150884
_cell_length_b 25.002285
_cell_length_c 8.632477
_cell_angle_alpha 90.000000
_cell_angle_beta 125.000167
_cell_angle_gamma 90.000000
_cell_volume 1971.460420
_symmetry_space_group_name_H-M "C 2/M"
_symmetry_group_IT_number 12
_symmetry_cell_setting 'monoclinic'
loop_
_space_group_symop_operation_xyz
x,y,z
-x,y,-z
-x,-y,-z
x,-y,z
1/2+x,1/2+y,z
1/2-x,1/2+y,-z
1/2-x,1/2-y,-z
1/2+x,1/2-y,z
loop_
_atom_site_type_symbol
_atom_site_label
_atom_site_fract_x
_atom_site_fract_y
_atom_site_fract_z
Si Si1 0.840117 0.390860 0.421822
Si Si2 0.591607 0.880312 0.199397
Si Si3 0.847043 0.941198 0.977944
Si Si4 0.854697 0.787878 0.677151
Si Si5 0.399032 0.644269 0.285502
Si Si6 0.000000 0.716347 0.000000
O O1 0.867219 0.411949 0.616775
O O2 0.724341 0.343746 0.353519
O O3 0.000000 0.369318 0.500000
O O4 0.778762 0.428154 0.241028
O O5 0.739737 0.852858 0.245511
O O6 0.489987 0.826177 0.135897
O O7 0.500000 0.911516 0.000000
O O8 0.869513 0.896151 0.123173
O O9 0.820698 0.000000 0.027340
O O10 0.000000 0.942494 0.000000
O O11 0.750000 0.750000 0.500000
O O12 0.877467 0.757535 0.855420
O O13 0.009741 0.804308 0.710419
O O14 0.500000 0.622151 0.500000
#
# Coordination Sequence:
#
# PCOD9213384 Si02
#       6
#     8   8   8   8   8   4
#     4  12  24  44  66  93 138 174 215 278 333 388
#     4  10  22  43  60  95 129 182 215 271 329 380
#     4  11  24  44  71  99 127 169 223 274 338 401
#     4  12  22  39  60  99 130 175 226 259 321 385
#     4  12  22  42  70  92 137 172 217 283 325 387
#     4  10  22  38  56  92 134 170 234 250 310 390
#
# _framework density 22.318480999999998
#
# number of rings (size 3 to 8) (size 9 to 14) (size 15 to 20)
#    0.545    0.182    5.455    2.182    0.000    3.636 
#    0.000    0.909    0.000    2.182    0.000    0.000 
#    0.000    0.000    0.000    0.000    0.000    0.000 
#
# Total GULP energy -122505.154561 kJ/mol
# GULP energy per Si atom -5568.416116 kJ/mol
# Density = 2.226768 g / cm^3
# Si number density = 22.318481 Si / 1000 Ang^3
#
#
#
# Elastic Constant Matrix: (Units=GPa)
#
#
# Indices 1 2 3 4 5 6 
#
# 1 73.4699 -2.3478 21.4664 0.0000 7.4369 0.0000
# 2 -2.3478 53.8182 42.6432 0.0000 -12.8779 0.0000
# 3 21.4664 42.6432 187.8819 0.0000 3.4639 0.0000
# 4 0.0000 0.0000 0.0000 -12.0402 0.0000 17.2039
# 5 7.4369 -12.8779 3.4639 0.0000 31.0694 0.0000
# 6 0.0000 0.0000 0.0000 17.2039 0.0000 0.4401
#
#
#
# Elastic Compliance Matrix: (Units=1/GPa)
#
#
# Indices 1 2 3 4 5 6 
#
# 1 0.014498 0.001566 -0.001964 0.000000 -0.002602 0.000000
# 2 0.001566 0.026404 -0.006380 0.000000 0.011280 0.000000
# 3 -0.001964 -0.006380 0.007049 0.000000 -0.002960 0.000000
# 4 0.000000 0.000000 0.000000 -0.001461 0.000000 0.057104
# 5 -0.002602 0.011280 -0.002960 0.000000 0.037815 0.000000
# 6 0.000000 0.000000 0.000000 0.057104 0.000000 0.039965
#
#
# Mechanical properties :
#
#
# Convention : Reuss Voigt Hill
#
# Bulk Modulus (GPa) = 29.07315 48.74371 38.90843
# Shear Modulus (GPa) = 33.49174 20.78774 27.13974
#
# Velocity S-wave (km/s) = 3.87800 3.05522 3.49093
# Velocity P-wave (km/s) = 5.75383 5.85946 5.80689
#
# Compressibility (1/GPa) = 0.03439600
#
# Stress axis : x y z
#
# Youngs Moduli (GPa) = 68.97364 37.87359 141.85531
#
# Poissons Ratio (x) = -0.05931 0.27859
# Poissons Ratio (y) = -0.10801 0.90499
# Poissons Ratio (z) = 0.13546 0.24162
#
# Static dielectric constant tensor:
#      x y z
#    x 1.941670 0.000000 0.002280 
#    y 0.000000 1.815230 0.000000 
#    z 0.002280 0.000000 1.919540 
# 
# From -- ./inp_files/53403.got.cif
#   From: 2010.05.17/outbox.cif.g08.bks.cpg/sg12_27_cif.got.tgz:53403.got - 2010.06.03 13:09:07.
