data_PCOD9213338
_publ_section_title
;
Structure prediction by ZEFSAII (Michael W. Deem and Ramdas Pophale) SiO2 
 PCOD9213338
Probable space group: C 2/M
;
_chemical_formula_sum "Si O2"
_cell_formula_units_Z 56
_cell_length_a 14.373256
_cell_length_b 28.379906
_cell_length_c 14.819067
_cell_angle_alpha 90.000000
_cell_angle_beta 151.220631
_cell_angle_gamma 90.000000
_cell_volume 2910.230812
_symmetry_space_group_name_H-M "C 2/M"
_symmetry_group_IT_number 12
_symmetry_cell_setting 'monoclinic'
loop_
_space_group_symop_operation_xyz
x,y,z
-x,y,-z
-x,-y,-z
x,-y,z
1/2+x,1/2+y,z
1/2-x,1/2+y,-z
1/2-x,1/2-y,-z
1/2+x,1/2-y,z
loop_
_atom_site_type_symbol
_atom_site_label
_atom_site_fract_x
_atom_site_fract_y
_atom_site_fract_z
Si Si1 0.378862 0.238950 0.987088
Si Si2 0.548512 0.365553 0.275879
Si Si3 0.461219 0.705148 0.568149
Si Si4 0.327558 0.175961 0.098727
Si Si5 0.905782 0.943674 0.561375
Si Si6 0.118047 0.690494 0.508077
Si Si7 0.798313 0.557345 0.790341
O O1 0.438704 0.197346 0.106409
O O2 0.500000 0.246538 0.000000
O O3 0.168963 0.224037 0.774680
O O4 0.332393 0.285032 0.005971
O O5 0.585970 0.333640 0.397777
O O6 0.613752 0.417077 0.361661
O O7 0.692448 0.341531 0.327434
O O8 0.321594 0.364850 0.056548
O O9 0.500000 0.687072 0.500000
O O10 0.334426 0.753383 0.462684
O O11 0.479387 0.172481 0.308960
O O12 0.749706 0.928878 0.353021
O O13 0.114732 0.930368 0.696131
O O14 0.899367 0.000000 0.564287
O O15 0.000000 0.687959 0.500000
O O16 0.805441 0.500000 0.796600
O O17 0.000000 0.575795 0.000000
#
# Coordination Sequence:
#
# PCOD9213338 Si02
#       7
#     8   8   8   8   8   8   8
#     4   9  18  32  52  73 107 146 173 216 263 308
#     4  11  22  34  55  77 109 143 175 229 268 315
#     4   9  20  32  49  79 107 142 180 207 263 323
#     4   9  21  35  49  79 105 137 187 215 263 323
#     4   9  19  34  52  80 110 141 183 222 269 329
#     4  10  22  38  55  77 103 145 186 228 267 318
#     4   8  15  31  54  76 107 147 178 211 263 328
#
# _framework density 19.242460000000001
#
# number of rings (size 3 to 8) (size 9 to 14) (size 15 to 20)
#    0.000    2.714    0.000    2.143   10.000    1.143 
#    0.000    2.857    0.000    0.429    0.000    1.000 
#    0.000    0.000    0.000    0.000    0.000    0.000 
#
# Total GULP energy -156150.763509 kJ/mol
# GULP energy per Si atom -5576.812982 kJ/mol
# Density = 1.919866 g / cm^3
# Si number density = 19.242460 Si / 1000 Ang^3
#
#
#
# Elastic Constant Matrix: (Units=GPa)
#
#
# Indices 1 2 3 4 5 6 
#
# 1 65.8246 9.1801 1.9115 0.0000 -3.9884 0.0000
# 2 9.1801 31.7646 10.3702 0.0000 3.1893 0.0000
# 3 1.9115 10.3702 90.7692 0.0002 0.3453 0.0000
# 4 0.0000 0.0000 0.0002 19.9980 0.0001 -4.5872
# 5 -3.9884 3.1893 0.3453 0.0001 23.4306 0.0000
# 6 0.0000 0.0000 0.0000 -4.5872 0.0000 14.5795
#
#
#
# Elastic Compliance Matrix: (Units=1/GPa)
#
#
# Indices 1 2 3 4 5 6 
#
# 1 0.016100 -0.005071 0.000227 0.000000 0.003428 0.000000
# 2 -0.005071 0.034758 -0.003843 0.000000 -0.005538 0.000000
# 3 0.000227 -0.003843 0.011450 0.000000 0.000393 0.000000
# 4 0.000000 0.000000 0.000000 0.053895 0.000000 0.016957
# 5 0.003428 -0.005538 0.000393 0.000000 0.044011 0.000000
# 6 0.000000 0.000000 0.000000 0.016957 0.000000 0.073925
#
#
# Mechanical properties :
#
#
# Convention : Reuss Voigt Hill
#
# Bulk Modulus (GPa) = 22.25511 25.69798 23.97654
# Shear Modulus (GPa) = 18.76240 22.72805 20.74523
#
# Velocity S-wave (km/s) = 3.12597 3.44050 3.28700
# Velocity P-wave (km/s) = 4.96182 5.40061 5.18586
#
# Compressibility (1/GPa) = 0.04493350
#
# Stress axis : x y z
#
# Youngs Moduli (GPa) = 62.11091 28.77038 87.33820
#
# Poissons Ratio (x) = 0.14591 -0.01985
# Poissons Ratio (y) = 0.31499 0.33566
# Poissons Ratio (z) = -0.01412 0.11057
#
# Static dielectric constant tensor:
#      x y z
#    x 1.723710 0.000000 -0.042980 
#    y 0.000000 1.720410 0.000000 
#    z -0.042980 0.000000 1.768440 
# 
# From -- ./inp_files/219147.got.cif
#   From: 2010.05.17/outbox.cif.g08.bks.cpg/sg12_110_cif.got.tgz:219147.got - 2010.06.03 13:09:07.
