data_PCOD9213419
_publ_section_title
;
Structure prediction by ZEFSAII (Michael W. Deem and Ramdas Pophale) SiO2 
 PCOD9213419
Probable space group: C 2/M
;
_chemical_formula_sum "Si O2"
_cell_formula_units_Z 40
_cell_length_a 12.483118
_cell_length_b 13.072862
_cell_length_c 14.603548
_cell_angle_alpha 90.000000
_cell_angle_beta 49.539437
_cell_angle_gamma 90.000000
_cell_volume 1813.229518
_symmetry_space_group_name_H-M "C 2/M"
_symmetry_group_IT_number 12
_symmetry_cell_setting 'monoclinic'
loop_
_space_group_symop_operation_xyz
x,y,z
-x,y,-z
-x,-y,-z
x,-y,z
1/2+x,1/2+y,z
1/2-x,1/2+y,-z
1/2-x,1/2-y,-z
1/2+x,1/2-y,z
loop_
_atom_site_type_symbol
_atom_site_label
_atom_site_fract_x
_atom_site_fract_y
_atom_site_fract_z
Si Si1 0.134262 0.275577 0.669158
Si Si2 0.087809 0.119256 0.545828
Si Si3 0.171769 0.122963 0.995014
Si Si4 0.840154 0.878703 0.203414
Si Si5 0.451169 0.122295 0.927568
O O1 0.050333 0.205708 0.642195
O O2 0.248467 0.352368 0.563176
O O3 0.218029 0.191407 0.684019
O O4 0.039705 0.337946 0.792711
O O5 0.000000 0.129006 0.500000
O O6 0.072152 0.000000 0.585210
O O7 0.209287 0.152354 0.870195
O O8 0.289738 0.153141 0.001696
O O9 0.177072 0.000000 0.988571
O O10 0.009468 0.142460 0.108765
O O11 0.818337 0.000000 0.229235
O O12 0.461871 0.000000 0.921549
O O13 0.500000 0.158112 0.000000
#
# Coordination Sequence:
#
# PCOD9213419 Si02
#       5
#     8   8   8   8   8
#     4  11  23  37  66  93 117 157 215 255 304 368
#     4  10  24  46  65  86 121 163 210 265 321 371
#     4   8  17  34  54  81 124 164 192 234 294 356
#     4   9  18  34  57  87 121 158 199 246 297 354
#     4  10  22  38  57  90 133 167 196 242 305 372
#
# _framework density 22.060085999999998
#
# number of rings (size 3 to 8) (size 9 to 14) (size 15 to 20)
#    0.000    2.400    0.000    2.400    5.600    2.400 
#    0.000    4.000    0.000    3.600    0.000    0.000 
#    0.000    0.000    0.000    0.000    0.000    0.000 
#
# Total GULP energy -111650.840137 kJ/mol
# GULP energy per Si atom -5582.542007 kJ/mol
# Density = 2.200988 g / cm^3
# Si number density = 22.060086 Si / 1000 Ang^3
#
#
#
# Elastic Constant Matrix: (Units=GPa)
#
#
# Indices 1 2 3 4 5 6 
#
# 1 133.7694 33.4558 21.8319 0.0000 20.9019 0.0000
# 2 33.4558 117.0066 22.7191 0.0000 9.4417 0.0000
# 3 21.8319 22.7191 54.6935 0.0000 14.2197 0.0000
# 4 0.0000 0.0000 0.0000 31.3153 0.0000 8.3917
# 5 20.9019 9.4417 14.2197 0.0000 22.9063 0.0000
# 6 0.0000 0.0000 0.0000 8.3917 0.0000 19.8708
#
#
#
# Elastic Compliance Matrix: (Units=1/GPa)
#
#
# Indices 1 2 3 4 5 6 
#
# 1 0.009206 -0.001858 -0.001094 0.000000 -0.006955 0.000000
# 2 -0.001858 0.009728 -0.003217 0.000000 -0.000317 0.000000
# 3 -0.001094 -0.003217 0.023196 0.000000 -0.012075 0.000000
# 4 0.000000 0.000000 0.000000 0.036008 0.000000 -0.015207
# 5 -0.006955 -0.000317 -0.012075 0.000000 0.057629 0.000000
# 6 0.000000 0.000000 0.000000 -0.015207 0.000000 0.056747
#
#
# Mechanical properties :
#
#
# Convention : Reuss Voigt Hill
#
# Bulk Modulus (GPa) = 33.56756 51.27589 42.42172
# Shear Modulus (GPa) = 23.27926 29.98265 26.63096
#
# Velocity S-wave (km/s) = 3.25201 3.69065 3.47825
# Velocity P-wave (km/s) = 5.41758 6.43858 5.95002
#
# Compressibility (1/GPa) = 0.02979067
#
# Stress axis : x y z
#
# Youngs Moduli (GPa) = 108.62863 102.79510 43.11070
#
# Poissons Ratio (x) = 0.19104 0.04718
# Poissons Ratio (y) = 0.20188 0.13867
# Poissons Ratio (z) = 0.11889 0.33066
#
# Static dielectric constant tensor:
#      x y z
#    x 1.832340 0.000000 0.009670 
#    y 0.000000 1.869050 0.000000 
#    z 0.009670 0.000000 1.822230 
# 
# From -- ./inp_files/204159.got.cif
#   From: 2010.05.17/outbox.cif.g08.bks.cpg/sg12_103_cif.got.tgz:204159.got - 2010.06.03 13:09:07.
