data_PCOD9213611
_publ_section_title
;
Structure prediction by ZEFSAII (Michael W. Deem and Ramdas Pophale) SiO2 
 PCOD9213611
Probable space group: C 2/M
;
_chemical_formula_sum "Si O2"
_cell_formula_units_Z 28
_cell_length_a 27.873719
_cell_length_b 8.313003
_cell_length_c 16.919920
_cell_angle_alpha 90.000000
_cell_angle_beta 161.191907
_cell_angle_gamma 90.000000
_cell_volume 1263.995107
_symmetry_space_group_name_H-M "C 2/M"
_symmetry_group_IT_number 12
_symmetry_cell_setting 'monoclinic'
loop_
_space_group_symop_operation_xyz
x,y,z
-x,y,-z
-x,-y,-z
x,-y,z
1/2+x,1/2+y,z
1/2-x,1/2+y,-z
1/2-x,1/2-y,-z
1/2+x,1/2-y,z
loop_
_atom_site_type_symbol
_atom_site_label
_atom_site_fract_x
_atom_site_fract_y
_atom_site_fract_z
Si Si1 0.816836 0.000000 0.783836
Si Si2 0.500000 0.256873 0.500000
Si Si3 0.956014 0.500000 0.550266
Si Si4 0.310506 0.500000 0.105787
Si Si5 0.235352 0.685043 0.388015
Si Si6 0.016102 0.000000 0.788240
O O1 0.639221 0.000000 0.520681
O O2 0.844074 0.829856 0.782812
O O3 0.897381 0.000000 0.993962
O O4 0.379548 0.353632 0.262676
O O5 0.415737 0.151223 0.433080
O O6 0.133654 0.500000 0.833318
O O7 0.379829 0.500000 0.126135
O O8 0.172210 0.500000 0.289493
O O9 0.250000 0.750000 0.500000
O O10 0.400641 0.650310 0.609785
#
# Coordination Sequence:
#
# PCOD9213611 Si02
#       6
#     4   4   4   4   8   4
#     4  12  23  45  68  99 140 175 218 279 330 392
#     4  10  22  38  62  88 130 176 220 268 312 374
#     4  11  23  37  64  94 130 179 219 255 327 393
#     4  11  22  42  63  95 135 176 218 269 316 387
#     4  10  23  45  71  98 131 170 220 279 337 401
#     4  10  24  41  67 102 137 170 225 280 327 395
#
# _framework density 22.151986000000001
#
# number of rings (size 3 to 8) (size 9 to 14) (size 15 to 20)
#    0.857    0.571    1.429    4.286    0.000    4.571 
#    2.571    1.429    0.000    0.000    0.000    0.000 
#    0.000    0.000    0.000    0.000    0.000    0.000 
#
# Total GULP energy -78122.547469 kJ/mol
# GULP energy per Si atom -5580.181962 kJ/mol
# Density = 2.210157 g / cm^3
# Si number density = 22.151986 Si / 1000 Ang^3
#
#
#
# Elastic Constant Matrix: (Units=GPa)
#
#
# Indices 1 2 3 4 5 6 
#
# 1 107.4203 53.7467 70.4021 0.0000 1.5521 0.0000
# 2 53.7467 185.7306 53.9817 0.0000 -18.8790 0.0000
# 3 70.4021 53.9817 125.6069 0.0000 -4.7106 0.0000
# 4 0.0000 0.0000 0.0000 -17.2402 0.0000 -27.4956
# 5 1.5521 -18.8790 -4.7106 0.0000 48.4300 0.0000
# 6 0.0000 0.0000 0.0000 -27.4956 0.0000 67.5365
#
#
#
# Elastic Compliance Matrix: (Units=1/GPa)
#
#
# Indices 1 2 3 4 5 6 
#
# 1 0.015718 -0.002504 -0.007818 0.000000 -0.002240 0.000000
# 2 -0.002504 0.006783 -0.001415 0.000000 0.002587 0.000000
# 3 -0.007818 -0.001415 0.012987 0.000000 0.000962 0.000000
# 4 0.000000 0.000000 0.000000 -0.035169 0.000000 -0.014318
# 5 -0.002240 0.002587 0.000962 0.000000 0.021822 0.000000
# 6 0.000000 0.000000 0.000000 -0.014318 0.000000 0.008978
#
#
# Mechanical properties :
#
#
# Convention : Reuss Voigt Hill
#
# Bulk Modulus (GPa) = 83.22628 86.11322 84.66975
# Shear Modulus (GPa) = 85.32834 35.78706 60.55770
#
# Velocity S-wave (km/s) = 6.21314 4.02372 5.23419
# Velocity P-wave (km/s) = 9.44050 7.78108 8.65067
#
# Compressibility (1/GPa) = 0.01201544
#
# Stress axis : x y z
#
# Youngs Moduli (GPa) = 63.62049 147.43133 76.99868
#
# Poissons Ratio (x) = 0.36917 0.60196
# Poissons Ratio (y) = 0.15931 0.10892
# Poissons Ratio (z) = 0.49738 0.20855
#
# Static dielectric constant tensor:
#      x y z
#    x 1.775260 0.000000 0.030300 
#    y 0.000000 1.908850 0.000000 
#    z 0.030300 0.000000 1.820930 
# 
# From -- ./inp_files/294938.got.cif
#   From: 2010.05.17/outbox.cif.g08.bks.cpg/sg12_148_cif.got.tgz:294938.got - 2010.06.03 13:09:07.
