data_PCOD9213712
_publ_section_title
;
Structure prediction by ZEFSAII (Michael W. Deem and Ramdas Pophale) SiO2 
 PCOD9213712
Probable space group: C 2/M
;
_chemical_formula_sum "Si O2"
_cell_formula_units_Z 60
_cell_length_a 9.304417
_cell_length_b 19.325126
_cell_length_c 21.769141
_cell_angle_alpha 90.000000
_cell_angle_beta 131.747627
_cell_angle_gamma 90.000000
_cell_volume 2920.391488
_symmetry_space_group_name_H-M "C 2/M"
_symmetry_group_IT_number 12
_symmetry_cell_setting 'monoclinic'
loop_
_space_group_symop_operation_xyz
x,y,z
-x,y,-z
-x,-y,-z
x,-y,z
1/2+x,1/2+y,z
1/2-x,1/2+y,-z
1/2-x,1/2-y,-z
1/2+x,1/2-y,z
loop_
_atom_site_type_symbol
_atom_site_label
_atom_site_fract_x
_atom_site_fract_y
_atom_site_fract_z
Si Si1 0.374899 0.360614 0.066943
Si Si2 0.188715 0.420406 0.509336
Si Si3 0.824428 0.621631 0.193042
Si Si4 0.105090 0.823411 0.342379
Si Si5 0.756374 0.120194 0.163845
Si Si6 0.031149 0.678578 0.639741
Si Si7 0.596111 0.800604 0.896548
Si Si8 0.556766 0.000000 0.189611
O O1 0.593625 0.384243 0.120215
O O2 0.285076 0.398597 0.100439
O O3 0.367261 0.279565 0.082649
O O4 0.247123 0.356081 0.969110
O O5 0.233212 0.500000 0.504778
O O6 0.354656 0.383131 0.595791
O O7 0.131650 0.369852 0.437282
O O8 0.000000 0.423132 0.500000
O O9 0.898840 0.686516 0.174163
O O10 0.874845 0.636135 0.277626
O O11 0.942989 0.559418 0.197725
O O12 0.038899 0.752582 0.355562
O O13 0.304836 0.809449 0.364336
O O14 0.952999 0.853147 0.250272
O O15 0.602337 0.181873 0.126597
O O16 0.666041 0.060007 0.179296
#
# Coordination Sequence:
#
# PCOD9213712 Si02
#       8
#     8   8   8   8   8   8   8   4
#     4  11  20  39  67 100 122 166 222 269 325 389
#     4   9  21  42  65  97 132 169 214 265 322 390
#     4  11  23  41  62  91 132 173 219 262 328 381
#     4  11  23  40  69  99 132 170 217 272 326 389
#     4  11  23  41  62  91 132 173 219 262 328 381
#     4  11  23  40  69  99 132 170 217 272 326 389
#     4  10  22  38  65  97 135 160 206 280 331 371
#     4  10  28  44  58  89 130 178 212 282 308 389
#
# _framework density 20.545190000000002
#
# number of rings (size 3 to 8) (size 9 to 14) (size 15 to 20)
#    0.000    1.467    1.333    3.600    5.600    2.667 
#    0.000   10.667    0.000    1.600    0.000    0.000 
#    0.000    0.000    0.000    0.000    0.000    0.000 
#
# Total GULP energy -167013.787957 kJ/mol
# GULP energy per Si atom -5567.126265 kJ/mol
# Density = 2.049843 g / cm^3
# Si number density = 20.545190 Si / 1000 Ang^3
#
#
#
# Elastic Constant Matrix: (Units=GPa)
#
#
# Indices 1 2 3 4 5 6 
#
# 1 91.6035 25.0617 0.6705 0.0000 -7.3881 0.0000
# 2 25.0617 101.3156 10.8597 0.0000 -2.0466 0.0000
# 3 0.6705 10.8597 74.3595 0.0000 -8.2194 0.0000
# 4 0.0000 0.0000 0.0000 -21.8657 -0.0001 -15.7085
# 5 -7.3881 -2.0466 -8.2194 -0.0001 14.0836 0.0000
# 6 0.0000 0.0000 0.0000 -15.7085 0.0000 -8.8924
#
#
#
# Elastic Compliance Matrix: (Units=1/GPa)
#
#
# Indices 1 2 3 4 5 6 
#
# 1 0.012267 -0.003015 0.001061 0.000000 0.006616 0.000000
# 2 -0.003015 0.010773 -0.001655 0.000000 -0.000982 0.000000
# 3 0.001061 -0.001655 0.014661 0.000000 0.008872 0.000000
# 4 0.000000 0.000000 0.000000 0.169966 0.000000 -0.300247
# 5 0.006616 -0.000982 0.008872 0.000000 0.079511 0.000000
# 6 0.000000 0.000000 0.000000 -0.300247 0.000000 0.417933
#
#
# Mechanical properties :
#
#
# Convention : Reuss Voigt Hill
#
# Bulk Modulus (GPa) = 32.80286 37.82913 35.31600
# Shear Modulus (GPa) = 6.92052 12.04422 9.48237
#
# Velocity S-wave (km/s) = 1.83732 2.42385 2.15067
# Velocity P-wave (km/s) = 4.52790 5.12699 4.83673
#
# Compressibility (1/GPa) = 0.03048514
#
# Stress axis : x y z
#
# Youngs Moduli (GPa) = 81.51805 92.82150 68.20815
#
# Poissons Ratio (x) = 0.27981 -0.07237
# Poissons Ratio (y) = 0.24574 0.11286
# Poissons Ratio (z) = -0.08649 0.15359
#
# Static dielectric constant tensor:
#      x y z
#    x 1.706740 0.000000 0.002180 
#    y 0.000000 1.722260 0.000000 
#    z 0.002180 0.000000 1.775710 
# 
# From -- ./inp_files/301940.got.cif
#   From: 2010.05.17/outbox.cif.g08.bks.cpg/sg12_151_cif.got.tgz:301940.got - 2010.06.03 13:09:07.
