data_PCOD9213975
_publ_section_title
;
Structure prediction by ZEFSAII (Michael W. Deem and Ramdas Pophale) SiO2 
 PCOD9213975
Probable space group: C 2/M
;
_chemical_formula_sum "Si O2"
_cell_formula_units_Z 56
_cell_length_a 25.989127
_cell_length_b 7.738809
_cell_length_c 15.080988
_cell_angle_alpha 90.000000
_cell_angle_beta 123.088695
_cell_angle_gamma 90.000000
_cell_volume 2541.263398
_symmetry_space_group_name_H-M "C 2/M"
_symmetry_group_IT_number 12
_symmetry_cell_setting 'monoclinic'
loop_
_space_group_symop_operation_xyz
x,y,z
-x,y,-z
-x,-y,-z
x,-y,z
1/2+x,1/2+y,z
1/2-x,1/2+y,-z
1/2-x,1/2-y,-z
1/2+x,1/2-y,z
loop_
_atom_site_type_symbol
_atom_site_label
_atom_site_fract_x
_atom_site_fract_y
_atom_site_fract_z
Si Si1 0.243189 0.699649 0.757593
Si Si2 0.295923 0.706591 0.622706
Si Si3 0.994876 0.710537 0.394705
Si Si4 0.859424 0.712030 0.210593
Si Si5 0.469295 0.699173 0.060222
Si Si6 0.836267 0.300734 0.993286
Si Si7 0.933958 0.702876 0.704632
O O1 0.228058 0.500000 0.723136
O O2 0.269006 0.775918 0.690633
O O3 0.182777 0.773605 0.748107
O O4 0.295365 0.706315 0.882091
O O5 0.301578 0.500000 0.635752
O O6 0.250000 0.750000 0.500000
O O7 0.363617 0.773758 0.664470
O O8 0.994881 0.500000 0.398993
O O9 0.929870 0.762815 0.290903
O O10 0.000000 0.773758 0.500000
O O11 0.049263 0.761348 0.379187
O O12 0.857888 0.500000 0.207247
O O13 0.833514 0.769414 0.091004
O O14 0.451828 0.500000 0.025815
O O15 0.520535 0.705924 0.184227
O O16 0.500000 0.771820 0.000000
O O17 0.407541 0.792190 0.032293
O O18 0.816101 0.500000 0.974687
O O19 0.949215 0.500000 0.724565
#
# Coordination Sequence:
#
# PCOD9213975 Si02
#       7
#     8   8   8   8   8   8   8
#     4  10  22  39  61  86 118 160 202 242 292 355
#     4  11  25  43  63  88 119 158 203 246 292 349
#     4   9  18  33  60  91 118 150 194 242 293 356
#     4   9  18  35  58  88 120 152 195 244 293 353
#     4  11  23  38  58  84 119 161 201 240 289 351
#     4  11  21  36  59  89 122 152 193 247 301 353
#     4  11  22  39  64  92 120 153 195 245 300 349
#
# _framework density 22.036282
#
# number of rings (size 3 to 8) (size 9 to 14) (size 15 to 20)
#    0.000    1.714    1.429    3.000    2.000    5.714 
#    0.000    0.714    0.000    1.714    0.000    0.000 
#    0.000    0.000    0.000    0.000    0.000    0.000 
#
# Total GULP energy -156528.707389 kJ/mol
# GULP energy per Si atom -5590.310978 kJ/mol
# Density = 2.198613 g / cm^3
# Si number density = 22.036282 Si / 1000 Ang^3
#
#
#
# Elastic Constant Matrix: (Units=GPa)
#
#
# Indices 1 2 3 4 5 6 
#
# 1 160.0517 -0.3834 32.7992 0.0000 -32.8858 0.0000
# 2 -0.3834 41.8206 -8.0462 0.0000 -6.4232 0.0000
# 3 32.7992 -8.0462 69.1625 0.0000 -32.3319 0.0000
# 4 0.0000 0.0000 0.0000 19.5568 0.0000 4.8025
# 5 -32.8858 -6.4232 -32.3319 0.0000 45.0572 0.0000
# 6 0.0000 0.0000 0.0000 4.8025 0.0000 13.0392
#
#
#
# Elastic Compliance Matrix: (Units=1/GPa)
#
#
# Indices 1 2 3 4 5 6 
#
# 1 0.007461 0.000506 -0.001354 0.000000 0.004546 0.000000
# 2 0.000506 0.026758 0.007266 0.000000 0.009398 0.000000
# 3 -0.001354 0.007266 0.024029 0.000000 0.017290 0.000000
# 4 0.000000 0.000000 0.000000 0.056218 0.000000 -0.020705
# 5 0.004546 0.009398 0.017290 0.000000 0.039258 0.000000
# 6 0.000000 0.000000 0.000000 -0.020705 0.000000 0.084318
#
#
# Mechanical properties :
#
#
# Convention : Reuss Voigt Hill
#
# Bulk Modulus (GPa) = 14.06797 35.53046 24.79922
# Shear Modulus (GPa) = 20.08844 31.97499 26.03172
#
# Velocity S-wave (km/s) = 3.02256 3.81335 3.44075
# Velocity P-wave (km/s) = 4.31034 5.96217 5.20224
#
# Compressibility (1/GPa) = 0.07108344
#
# Stress axis : x y z
#
# Youngs Moduli (GPa) = 134.03524 37.37240 41.61647
#
# Poissons Ratio (x) = -0.01891 0.05636
# Poissons Ratio (y) = -0.06782 -0.30240
# Poissons Ratio (z) = 0.18152 -0.27156
#
# Static dielectric constant tensor:
#      x y z
#    x 1.799700 0.000000 -0.039140 
#    y 0.000000 1.845500 0.000000 
#    z -0.039140 0.000000 1.756620 
# 
# From -- ./inp_files/238906.got.cif
#   From: 2010.05.17/outbox.cif.g08.bks.cpg/sg12_120_cif.got.tgz:238906.got - 2010.06.03 13:09:07.
