data_PCOD9213583
_publ_section_title
;
Structure prediction by ZEFSAII (Michael W. Deem and Ramdas Pophale) SiO2 
 PCOD9213583
Probable space group: C 2/M
;
_chemical_formula_sum "Si O2"
_cell_formula_units_Z 48
_cell_length_a 9.204192
_cell_length_b 16.072368
_cell_length_c 14.841874
_cell_angle_alpha 90.000000
_cell_angle_beta 90.537779
_cell_angle_gamma 90.000000
_cell_volume 2195.508623
_symmetry_space_group_name_H-M "C 2/M"
_symmetry_group_IT_number 12
_symmetry_cell_setting 'monoclinic'
loop_
_space_group_symop_operation_xyz
x,y,z
-x,y,-z
-x,-y,-z
x,-y,z
1/2+x,1/2+y,z
1/2-x,1/2+y,-z
1/2-x,1/2-y,-z
1/2+x,1/2-y,z
loop_
_atom_site_type_symbol
_atom_site_label
_atom_site_fract_x
_atom_site_fract_y
_atom_site_fract_z
Si Si1 0.642919 0.364875 0.034130
Si Si2 0.288007 0.500000 0.577545
Si Si3 0.617683 0.908899 0.830433
Si Si4 0.648038 0.191191 0.122443
Si Si5 0.886027 0.000000 0.371387
Si Si6 0.277238 0.171328 0.667272
Si Si7 0.114207 0.663290 0.637294
O O1 0.745922 0.410812 0.103975
O O2 0.599238 0.281388 0.088283
O O3 0.270058 0.338087 0.054191
O O4 0.500000 0.409178 0.000000
O O5 0.344421 0.500000 0.476297
O O6 0.437869 0.500000 0.637550
O O7 0.194007 0.583963 0.592899
O O8 0.485524 0.871435 0.884995
O O9 0.639152 0.851955 0.744069
O O10 0.580209 0.000000 0.795193
O O11 0.696032 0.191240 0.226774
O O12 0.811996 0.915152 0.335174
O O13 0.187756 0.246853 0.620333
O O14 0.438931 0.163327 0.624234
#
# Coordination Sequence:
#
# PCOD9213583 Si02
#       7
#     8   4   8   8   4   8   8
#     4  11  22  37  61  91 128 175 224 282 331 386
#     4  11  25  49  73 102 147 174 217 285 348 409
#     4  11  23  41  61  92 131 176 227 279 340 400
#     4  10  22  38  61  89 127 174 224 275 329 397
#     4  11  27  47  73 108 137 178 223 281 346 421
#     4  11  24  42  71 104 136 180 234 276 346 413
#     4  11  23  43  72 102 138 184 225 287 342 415
#
# _framework density 21.862815999999999
#
# number of rings (size 3 to 8) (size 9 to 14) (size 15 to 20)
#    0.000    1.167    2.500    4.000    5.833    5.000 
#    0.000    0.000    0.000    0.000    0.000    0.000 
#    0.000    0.000    0.000    0.000    0.000    0.000 
#
# Total GULP energy -134135.973561 kJ/mol
# GULP energy per Si atom -5588.998898 kJ/mol
# Density = 2.181306 g / cm^3
# Si number density = 21.862816 Si / 1000 Ang^3
#
#
#
# Elastic Constant Matrix: (Units=GPa)
#
#
# Indices 1 2 3 4 5 6 
#
# 1 81.1634 59.8389 4.3658 0.0000 4.4455 0.0000
# 2 59.8389 158.0244 -4.5154 0.0000 3.1834 0.0000
# 3 4.3658 -4.5154 34.2960 0.0000 -0.1303 0.0000
# 4 0.0000 0.0000 0.0000 10.3488 0.0000 23.8942
# 5 4.4455 3.1834 -0.1303 0.0000 20.5497 0.0000
# 6 0.0000 0.0000 0.0000 23.8942 0.0000 -25.8639
#
#
#
# Elastic Compliance Matrix: (Units=1/GPa)
#
#
# Indices 1 2 3 4 5 6 
#
# 1 0.017572 -0.006687 -0.003128 0.000000 -0.002785 0.000000
# 2 -0.006687 0.008917 0.002026 0.000000 0.000078 0.000000
# 3 -0.003128 0.002026 0.029825 0.000000 0.000552 0.000000
# 4 0.000000 0.000000 0.000000 0.030842 0.000000 0.028493
# 5 -0.002785 0.000078 0.000552 0.000000 0.049256 0.000000
# 6 0.000000 0.000000 0.000000 0.028493 0.000000 -0.012341
#
#
# Mechanical properties :
#
#
# Convention : Reuss Voigt Hill
#
# Bulk Modulus (GPa) = 24.54930 43.65138 34.10034
# Shear Modulus (GPa) = 32.63103 15.25989 23.94546
#
# Velocity S-wave (km/s) = 3.86753 2.64480 3.31306
# Velocity P-wave (km/s) = 5.58541 5.41627 5.50149
#
# Compressibility (1/GPa) = 0.04073436
#
# Stress axis : x y z
#
# Youngs Moduli (GPa) = 56.90919 112.14945 33.52901
#
# Poissons Ratio (x) = 0.74996 0.10488
# Poissons Ratio (y) = 0.38056 -0.06791
# Poissons Ratio (z) = 0.17801 -0.22716
#
# Static dielectric constant tensor:
#      x y z
#    x 1.817720 0.000000 0.023390 
#    y 0.000000 1.777240 0.000000 
#    z 0.023390 0.000000 1.789080 
# 
# From -- ./inp_files/196024.got.cif
#   From: 2010.05.17/outbox.cif.g08.bks.cpg/sg12_99_cif.got.tgz:196024.got - 2010.06.03 13:09:07.
