data_PCOD9213955
_publ_section_title
;
Structure prediction by ZEFSAII (Michael W. Deem and Ramdas Pophale) SiO2 
 PCOD9213955
Probable space group: C 2/M
;
_chemical_formula_sum "Si O2"
_cell_formula_units_Z 40
_cell_length_a 14.153568
_cell_length_b 28.650476
_cell_length_c 4.918049
_cell_angle_alpha 90.000000
_cell_angle_beta 116.515613
_cell_angle_gamma 90.000000
_cell_volume 1784.525622
_symmetry_space_group_name_H-M "C 2/M"
_symmetry_group_IT_number 12
_symmetry_cell_setting 'monoclinic'
loop_
_space_group_symop_operation_xyz
x,y,z
-x,y,-z
-x,-y,-z
x,-y,z
1/2+x,1/2+y,z
1/2-x,1/2+y,-z
1/2-x,1/2-y,-z
1/2+x,1/2-y,z
loop_
_atom_site_type_symbol
_atom_site_label
_atom_site_fract_x
_atom_site_fract_y
_atom_site_fract_z
Si Si1 0.927346 0.447057 0.171418
Si Si2 0.737794 0.816098 0.703800
Si Si3 0.073522 0.236999 0.346537
Si Si4 0.076931 0.947921 0.346331
Si Si5 0.746070 0.122583 0.239978
O O1 0.896061 0.500000 0.207190
O O2 0.000000 0.427036 0.500000
O O3 0.827410 0.415801 0.990751
O O4 0.000000 0.449073 0.000000
O O5 0.845756 0.798464 0.698265
O O6 0.651104 0.775094 0.586528
O O7 0.693728 0.854193 0.436138
O O8 0.761968 0.838026 0.028575
O O9 0.000000 0.218903 0.500000
O O10 0.000000 0.254704 0.000000
O O11 0.155905 0.906445 0.516615
O O12 0.000000 0.952302 0.500000
O O13 0.126111 0.000000 0.360598
O O14 0.000000 0.936493 0.000000
#
# Coordination Sequence:
#
# PCOD9213955 Si02
#       5
#     8   8   8   8   8
#     4  10  22  39  60  90 129 174 217 254 308 378
#     4  11  26  41  64 101 124 159 220 263 319 403
#     4  11  24  46  69  89 127 170 205 263 334 394
#     4  10  22  40  62  90 127 173 217 254 307 374
#     4  12  23  40  64  94 133 163 208 275 319 363
#
# _framework density 22.414919999999999
#
# number of rings (size 3 to 8) (size 9 to 14) (size 15 to 20)
#    0.000    1.200    0.000    5.400    0.000   11.200 
#    0.000    8.000    0.000    0.000    0.000    0.000 
#    0.000    0.000    0.000    0.000    0.000    0.000 
#
# Total GULP energy -111805.686728 kJ/mol
# GULP energy per Si atom -5590.284336 kJ/mol
# Density = 2.236390 g / cm^3
# Si number density = 22.414920 Si / 1000 Ang^3
#
#
#
# Elastic Constant Matrix: (Units=GPa)
#
#
# Indices 1 2 3 4 5 6 
#
# 1 52.0199 9.6597 29.5812 0.0000 -0.4265 0.0000
# 2 9.6597 75.3160 42.2032 0.0000 18.1672 0.0000
# 3 29.5812 42.2032 175.5610 0.0000 -8.7606 0.0000
# 4 0.0000 0.0000 0.0000 82.3439 0.0000 19.4412
# 5 -0.4265 18.1672 -8.7606 0.0000 31.6983 0.0000
# 6 0.0000 0.0000 0.0000 19.4412 0.0000 34.3916
#
#
#
# Elastic Compliance Matrix: (Units=1/GPa)
#
#
# Indices 1 2 3 4 5 6 
#
# 1 0.021307 -0.000765 -0.003417 0.000000 -0.000219 0.000000
# 2 -0.000765 0.019250 -0.005120 0.000000 -0.012458 0.000000
# 3 -0.003417 -0.005120 0.007754 0.000000 0.005031 0.000000
# 4 0.000000 0.000000 0.000000 0.014015 0.000000 -0.007922
# 5 -0.000219 -0.012458 0.005031 0.000000 0.040075 0.000000
# 6 0.000000 0.000000 0.000000 -0.007922 0.000000 0.033555
#
#
# Mechanical properties :
#
#
# Convention : Reuss Voigt Hill
#
# Bulk Modulus (GPa) = 33.66384 51.75389 42.70886
# Shear Modulus (GPa) = 30.40224 44.45028 37.42626
#
# Velocity S-wave (km/s) = 3.68685 4.45799 4.09063
# Velocity P-wave (km/s) = 5.75976 7.04539 6.43476
#
# Compressibility (1/GPa) = 0.02970547
#
# Stress axis : x y z
#
# Youngs Moduli (GPa) = 46.93327 51.94916 128.97047
#
# Poissons Ratio (x) = 0.03974 0.44071
# Poissons Ratio (y) = 0.03591 0.66035
# Poissons Ratio (z) = 0.16038 0.26599
#
# Static dielectric constant tensor:
#      x y z
#    x 1.801990 0.000000 0.008630 
#    y 0.000000 1.912440 0.000000 
#    z 0.008630 0.000000 1.808990 
# 
# From -- ./inp_files/12243.got.cif
#   From: 2010.05.17/outbox.cif.g08.bks.cpg/sg12_7_cif.got.tgz:12243.got - 2010.06.03 13:09:07.
