data_PCOD9213973
_publ_section_title
;
Structure prediction by ZEFSAII (Michael W. Deem and Ramdas Pophale) SiO2 
 PCOD9213973
Probable space group: C 2/M
;
_chemical_formula_sum "Si O2"
_cell_formula_units_Z 48
_cell_length_a 10.674618
_cell_length_b 22.174876
_cell_length_c 10.258916
_cell_angle_alpha 90.000000
_cell_angle_beta 98.139950
_cell_angle_gamma 90.000000
_cell_volume 2403.905461
_symmetry_space_group_name_H-M "C 2/M"
_symmetry_group_IT_number 12
_symmetry_cell_setting 'monoclinic'
loop_
_space_group_symop_operation_xyz
x,y,z
-x,y,-z
-x,-y,-z
x,-y,z
1/2+x,1/2+y,z
1/2-x,1/2+y,-z
1/2-x,1/2-y,-z
1/2+x,1/2-y,z
loop_
_atom_site_type_symbol
_atom_site_label
_atom_site_fract_x
_atom_site_fract_y
_atom_site_fract_z
Si Si1 0.368192 0.068768 0.945561
Si Si2 0.454951 0.368696 0.644143
Si Si3 0.581149 0.893752 0.325328
Si Si4 0.613230 0.763835 0.413584
Si Si5 0.317163 0.929775 0.377649
Si Si6 0.598097 0.572604 0.899252
O O1 0.366472 0.070392 0.789159
O O2 0.234934 0.094899 0.967800
O O3 0.373282 0.000000 0.997300
O O4 0.500000 0.099834 0.000000
O O5 0.500000 0.376799 0.500000
O O6 0.431840 0.297531 0.660404
O O7 0.320785 0.400898 0.649920
O O8 0.554362 0.395799 0.760237
O O9 0.622258 0.823882 0.329025
O O10 0.428730 0.899821 0.309212
O O11 0.635883 0.921115 0.466730
O O12 0.500000 0.778086 0.500000
O O13 0.750000 0.750000 0.500000
O O14 0.311198 0.000000 0.343236
O O15 0.605661 0.500000 0.878341
O O16 0.500000 0.583294 0.000000
#
# Coordination Sequence:
#
# PCOD9213973 Si02
#       6
#     8   8   8   8   8   8
#     4  10  22  39  61  86 117 159 204 248 302 369
#     4  11  23  37  63  93 123 166 207 259 311 374
#     4  11  20  37  58  88 122 155 202 252 303 368
#     4  11  21  39  60  87 126 163 202 248 310 369
#     4  11  21  34  57  91 124 155 196 259 317 366
#     4  10  23  42  62  89 126 163 201 253 315 375
#
# _framework density 19.967507999999999
#
# number of rings (size 3 to 8) (size 9 to 14) (size 15 to 20)
#    0.000    1.333    3.333    3.500    4.667    2.667 
#    0.000    0.833    0.000    2.000    0.000    0.000 
#    0.000    0.000    0.000    0.000    0.000    0.000 
#
# Total GULP energy -134013.196495 kJ/mol
# GULP energy per Si atom -5583.883187 kJ/mol
# Density = 1.992206 g / cm^3
# Si number density = 19.967508 Si / 1000 Ang^3
#
#
#
# Elastic Constant Matrix: (Units=GPa)
#
#
# Indices 1 2 3 4 5 6 
#
# 1 139.2510 18.1714 9.8236 0.0000 12.1151 0.0000
# 2 18.1714 101.9579 11.0767 0.0000 6.8487 0.0000
# 3 9.8236 11.0767 32.0757 0.0000 -0.2808 0.0000
# 4 0.0000 0.0000 0.0000 -60.3994 0.0000 17.0857
# 5 12.1151 6.8487 -0.2808 0.0000 25.2988 0.0000
# 6 0.0000 0.0000 0.0000 17.0857 0.0000 18.2131
#
#
#
# Elastic Compliance Matrix: (Units=1/GPa)
#
#
# Indices 1 2 3 4 5 6 
#
# 1 0.007752 -0.000921 -0.002087 0.000000 -0.003486 0.000000
# 2 -0.000921 0.010502 -0.003366 0.000000 -0.002439 0.000000
# 3 -0.002087 -0.003366 0.032998 0.000000 0.002277 0.000000
# 4 0.000000 0.000000 0.000000 -0.013084 0.000000 0.012274
# 5 -0.003486 -0.002439 0.002277 0.000000 0.041883 0.000000
# 6 0.000000 0.000000 0.000000 0.012274 0.000000 0.043391
#
#
# Mechanical properties :
#
#
# Convention : Reuss Voigt Hill
#
# Bulk Modulus (GPa) = 25.97098 39.04757 32.50927
# Shear Modulus (GPa) = 33.55210 12.23669 22.89439
#
# Velocity S-wave (km/s) = 4.10364 2.47823 3.38980
# Velocity P-wave (km/s) = 5.95718 5.27132 5.62471
#
# Compressibility (1/GPa) = 0.03850452
#
# Stress axis : x y z
#
# Youngs Moduli (GPa) = 129.00002 95.22366 30.30521
#
# Poissons Ratio (x) = 0.08767 0.06324
# Poissons Ratio (y) = 0.11877 0.10200
# Poissons Ratio (z) = 0.26918 0.32051
#
# Static dielectric constant tensor:
#      x y z
#    x 1.755370 0.000000 0.012180 
#    y 0.000000 1.689860 0.000000 
#    z 0.012180 0.000000 1.705850 
# 
# From -- ./inp_files/122043.got.cif
#   From: 2010.05.17/outbox.cif.g08.bks.cpg/sg12_62_cif.got.tgz:122043.got - 2010.06.03 13:09:07.
