data_PCOD9213060
_publ_section_title
;
Structure prediction by ZEFSAII (Michael W. Deem and Ramdas Pophale) SiO2 
 PCOD9213060
Probable space group: C 2/M
;
_chemical_formula_sum "Si O2"
_cell_formula_units_Z 64
_cell_length_a 9.029892
_cell_length_b 22.868500
_cell_length_c 21.201551
_cell_angle_alpha 90.000000
_cell_angle_beta 128.070373
_cell_angle_gamma 90.000000
_cell_volume 3446.694034
_symmetry_space_group_name_H-M "C 2/M"
_symmetry_group_IT_number 12
_symmetry_cell_setting 'monoclinic'
loop_
_space_group_symop_operation_xyz
x,y,z
-x,y,-z
-x,-y,-z
x,-y,z
1/2+x,1/2+y,z
1/2-x,1/2+y,-z
1/2-x,1/2-y,-z
1/2+x,1/2-y,z
loop_
_atom_site_type_symbol
_atom_site_label
_atom_site_fract_x
_atom_site_fract_y
_atom_site_fract_z
Si Si1 0.790365 0.398421 0.939422
Si Si2 0.810872 0.687154 0.411197
Si Si3 0.868301 0.937143 0.822293
Si Si4 0.558786 0.245828 0.682201
Si Si5 0.711350 0.692777 0.029191
Si Si6 0.240751 0.136694 0.783790
Si Si7 0.085882 0.656030 0.799677
Si Si8 0.358966 0.567119 0.671636
O O1 0.594768 0.433815 0.885757
O O2 0.786827 0.365057 0.870543
O O3 0.762950 0.358894 0.994389
O O4 0.000000 0.425753 0.000000
O O5 0.632681 0.722925 0.390994
O O6 0.838429 0.714396 0.348708
O O7 0.761892 0.618189 0.392894
O O8 0.000000 0.695559 0.500000
O O9 0.761418 0.884667 0.827803
O O10 0.813141 0.933537 0.734206
O O11 0.807577 0.000000 0.832201
O O12 0.676093 0.298358 0.745565
O O13 0.525022 0.195801 0.725332
O O14 0.845625 0.695427 0.124672
O O15 0.500000 0.688177 0.000000
O O16 0.750000 0.750000 0.000000
O O17 0.414883 0.120302 0.785034
O O18 0.071644 0.091778 0.725912
O O19 0.341831 0.500000 0.644058
#
# Coordination Sequence:
#
# PCOD9213060 Si02
#       8
#     8   8   8   8   8   8   8   8
#     4  11  21  39  55  82 119 150 196 250 300 345
#     4  11  22  38  63  93 124 154 186 238 299 356
#     4  10  22  40  61  82 110 156 206 252 294 347
#     4  11  22  38  57  91 122 154 194 233 289 363
#     4  12  25  36  54  84 118 153 193 247 298 349
#     4  10  22  36  60  84 118 161 198 240 297 351
#     4  12  22  37  60  83 117 160 199 244 296 356
#     4   9  20  40  62  86 118 155 201 245 287 353
#
# _framework density 18.568518999999998
#
# number of rings (size 3 to 8) (size 9 to 14) (size 15 to 20)
#    0.000    1.250    5.000    1.500    1.750    1.000 
#    0.000    1.250    0.000    0.000    0.000    0.875 
#    0.000    0.000    0.000    0.000    0.000    0.000 
#
# Total GULP energy -178456.151285 kJ/mol
# GULP energy per Si atom -5576.754728 kJ/mol
# Density = 1.852626 g / cm^3
# Si number density = 18.568519 Si / 1000 Ang^3
#
#
#
# Elastic Constant Matrix: (Units=GPa)
#
#
# Indices 1 2 3 4 5 6 
#
# 1 90.3258 31.8532 9.2034 0.0000 8.1824 0.0000
# 2 31.8532 86.5046 9.6579 0.0000 1.9810 0.0000
# 3 9.2034 9.6579 55.7228 0.0000 14.4807 0.0000
# 4 0.0000 0.0000 0.0000 6.6505 0.0000 -5.0593
# 5 8.1824 1.9810 14.4807 0.0000 26.5466 0.0000
# 6 0.0000 0.0000 0.0000 -5.0593 0.0000 9.9773
#
#
#
# Elastic Compliance Matrix: (Units=1/GPa)
#
#
# Indices 1 2 3 4 5 6 
#
# 1 0.013082 -0.004687 -0.000456 0.000000 -0.003434 0.000000
# 2 -0.004687 0.013470 -0.001951 0.000000 0.001504 0.000000
# 3 -0.000456 -0.001951 0.021305 0.000000 -0.011336 0.000000
# 4 0.000000 0.000000 0.000000 0.244800 0.000000 0.124135
# 5 -0.003434 0.001504 -0.011336 0.000000 0.044799 0.000000
# 6 0.000000 0.000000 0.000000 0.124135 0.000000 0.163175
#
#
# Mechanical properties :
#
#
# Convention : Reuss Voigt Hill
#
# Bulk Modulus (GPa) = 29.70242 37.10913 33.40578
# Shear Modulus (GPa) = 9.50495 20.75744 15.13120
#
# Velocity S-wave (km/s) = 2.26494 3.34710 2.85771
# Velocity P-wave (km/s) = 4.78234 5.91319 5.37758
#
# Compressibility (1/GPa) = 0.03366729
#
# Stress axis : x y z
#
# Youngs Moduli (GPa) = 76.44352 74.24169 46.93683
#
# Poissons Ratio (x) = 0.34800 0.02140
# Poissons Ratio (y) = 0.35832 0.09158
# Poissons Ratio (z) = 0.03485 0.14486
#
# Static dielectric constant tensor:
#      x y z
#    x 1.654160 0.000000 0.028820 
#    y 0.000000 1.645530 0.000000 
#    z 0.028820 0.000000 1.639510 
# 
# From -- ./inp_files/302355.got.cif
#   From: 2010.05.17/outbox.cif.g08.bks.cpg/sg12_152_cif.got.tgz:302355.got - 2010.06.03 13:09:07.
