data_PCOD9213349
_publ_section_title
;
Structure prediction by ZEFSAII (Michael W. Deem and Ramdas Pophale) SiO2 
 PCOD9213349
Probable space group: C 2/M
;
_chemical_formula_sum "Si O2"
_cell_formula_units_Z 56
_cell_length_a 9.420201
_cell_length_b 14.014806
_cell_length_c 17.827756
_cell_angle_alpha 90.000000
_cell_angle_beta 110.681298
_cell_angle_gamma 90.000000
_cell_volume 2201.989730
_symmetry_space_group_name_H-M "C 2/M"
_symmetry_group_IT_number 12
_symmetry_cell_setting 'monoclinic'
loop_
_space_group_symop_operation_xyz
x,y,z
-x,y,-z
-x,-y,-z
x,-y,z
1/2+x,1/2+y,z
1/2-x,1/2+y,-z
1/2-x,1/2-y,-z
1/2+x,1/2-y,z
loop_
_atom_site_type_symbol
_atom_site_label
_atom_site_fract_x
_atom_site_fract_y
_atom_site_fract_z
Si Si1 0.530560 0.896980 0.132929
Si Si2 0.032518 0.107182 0.716349
Si Si3 0.792979 0.769084 0.593569
Si Si4 0.042245 0.386794 0.643254
Si Si5 0.748339 0.398287 0.967214
Si Si6 0.693012 0.398161 0.185475
Si Si7 0.853312 0.759793 0.153827
O O1 0.662452 0.895143 0.096303
O O2 0.501701 0.807991 0.180281
O O3 0.541240 0.000000 0.173818
O O4 0.379388 0.896203 0.052490
O O5 0.922041 0.150520 0.633682
O O6 0.938181 0.104468 0.777247
O O7 0.153320 0.183073 0.768046
O O8 0.083399 0.000000 0.708924
O O9 0.750000 0.750000 0.500000
O O10 0.643707 0.816753 0.606467
O O11 0.884616 0.669984 0.631385
O O12 0.020834 0.500000 0.614200
O O13 0.156128 0.395010 0.734871
O O14 0.667929 0.500000 0.957459
O O15 0.640732 0.312076 0.926056
O O16 0.686038 0.500000 0.144871
O O17 0.711255 0.312363 0.131845
#
# Coordination Sequence:
#
# PCOD9213349 Si02
#       7
#     8   8   8   8   8   8   8
#     4   9  19  34  51  74 108 143 184 233 284 343
#     4  10  22  38  55  81 117 152 185 239 309 369
#     4  11  22  40  67  94 123 167 216 258 316 385
#     4  10  22  43  67  94 129 170 214 266 323 386
#     4   9  19  34  49  73 108 146 182 228 288 349
#     4   9  19  35  54  78 112 147 186 239 303 360
#     4  12  18  31  57  82 103 141 193 237 286 355
#
# _framework density 25.431543000000001
#
# number of rings (size 3 to 8) (size 9 to 14) (size 15 to 20)
#    0.000    2.000    1.429    4.714    0.000    1.714 
#    0.000    1.429    0.000    4.286    0.000   12.000 
#    0.000    0.000    0.000    0.000    0.000    0.000 
#
# Total GULP energy -156070.216914 kJ/mol
# GULP energy per Si atom -5573.936318 kJ/mol
# Density = 2.537366 g / cm^3
# Si number density = 25.431543 Si / 1000 Ang^3
#
#
#
# Elastic Constant Matrix: (Units=GPa)
#
#
# Indices 1 2 3 4 5 6 
#
# 1 67.1521 1.8352 -2.6170 0.0000 -2.7757 0.0000
# 2 1.8352 159.0663 7.5807 0.0000 1.8723 0.0000
# 3 -2.6170 7.5807 83.0642 0.0000 11.9335 0.0000
# 4 0.0000 0.0000 0.0000 30.1384 0.0000 -3.3698
# 5 -2.7757 1.8723 11.9335 0.0000 33.7467 0.0000
# 6 0.0000 0.0000 0.0000 -3.3698 0.0000 19.1308
#
#
#
# Elastic Compliance Matrix: (Units=1/GPa)
#
#
# Indices 1 2 3 4 5 6 
#
# 1 0.014956 -0.000201 0.000328 0.000000 0.001125 0.000000
# 2 -0.000201 0.006318 -0.000559 0.000000 -0.000170 0.000000
# 3 0.000328 -0.000559 0.012739 0.000000 -0.004447 0.000000
# 4 0.000000 0.000000 0.000000 0.033847 0.000000 0.005962
# 5 0.001125 -0.000170 -0.004447 0.000000 0.031307 0.000000
# 6 0.000000 0.000000 0.000000 0.005962 0.000000 0.053322
#
#
# Mechanical properties :
#
#
# Convention : Reuss Voigt Hill
#
# Bulk Modulus (GPa) = 30.16690 35.87559 33.02124
# Shear Modulus (GPa) = 30.41313 36.76876 33.59094
#
# Velocity S-wave (km/s) = 3.46190 3.80648 3.63828
# Velocity P-wave (km/s) = 5.27896 5.78415 5.53732
#
# Compressibility (1/GPa) = 0.03314892
#
# Stress axis : x y z
#
# Youngs Moduli (GPa) = 66.86118 158.28727 78.49882
#
# Poissons Ratio (x) = 0.03188 -0.02574
# Poissons Ratio (y) = 0.01347 0.04385
# Poissons Ratio (z) = -0.02193 0.08841
#
# Static dielectric constant tensor:
#      x y z
#    x 2.179680 0.000000 0.017860 
#    y 0.000000 2.461530 0.000000 
#    z 0.017860 0.000000 1.963550 
# 
# From -- ./inp_files/304782.got.cif
#   From: 2010.05.17/outbox.cif.g08.bks.cpg/sg12_153_cif.got.tgz:304782.got - 2010.06.03 13:09:07.
