data_PCOD9213401
_publ_section_title
;
Structure prediction by ZEFSAII (Michael W. Deem and Ramdas Pophale) SiO2 
 PCOD9213401
Probable space group: C 2/M
;
_chemical_formula_sum "Si O2"
_cell_formula_units_Z 48
_cell_length_a 33.027454
_cell_length_b 13.905180
_cell_length_c 16.792057
_cell_angle_alpha 90.000000
_cell_angle_beta 163.621861
_cell_angle_gamma 90.000000
_cell_volume 2174.537259
_symmetry_space_group_name_H-M "C 2/M"
_symmetry_group_IT_number 12
_symmetry_cell_setting 'monoclinic'
loop_
_space_group_symop_operation_xyz
x,y,z
-x,y,-z
-x,-y,-z
x,-y,z
1/2+x,1/2+y,z
1/2-x,1/2+y,-z
1/2-x,1/2-y,-z
1/2+x,1/2-y,z
loop_
_atom_site_type_symbol
_atom_site_label
_atom_site_fract_x
_atom_site_fract_y
_atom_site_fract_z
Si Si1 0.245785 0.239808 0.163804
Si Si2 0.831345 0.610836 0.184363
Si Si3 0.607185 0.393534 0.628687
Si Si4 0.645188 0.771882 0.229811
Si Si5 0.409744 0.888180 0.020953
Si Si6 0.745375 0.110932 0.667809
O O1 0.244951 0.183577 0.078117
O O2 0.387773 0.307945 0.424090
O O3 0.132960 0.315772 0.988381
O O4 0.256637 0.156009 0.248518
O O5 0.819071 0.500000 0.190369
O O6 0.000000 0.635557 0.500000
O O7 0.761076 0.610713 0.964365
O O8 0.500000 0.381232 0.500000
O O9 0.583283 0.500000 0.549879
O O10 0.750000 0.750000 0.500000
O O11 0.673532 0.852501 0.215628
O O12 0.647263 0.674101 0.182262
O O13 0.500000 0.796956 0.000000
O O14 0.379862 0.000000 0.983718
O O15 0.580288 0.879159 0.326606
O O16 0.783929 0.000000 0.740799
#
# Coordination Sequence:
#
# PCOD9213401 Si02
#       6
#     8   8   8   8   8   8
#     4  11  22  36  62  86 121 163 208 256 303 366
#     4  10  22  38  59  88 119 160 214 266 315 363
#     4  10  22  38  57  84 119 160 209 262 314 362
#     4  11  22  42  71  96 124 160 204 250 300 365
#     4  10  23  41  64  94 127 167 206 245 304 375
#     4  10  23  41  63  94 129 164 204 250 307 369
#
# _framework density 22.073661999999999
#
# number of rings (size 3 to 8) (size 9 to 14) (size 15 to 20)
#    0.000    1.667    1.667    2.000    4.667    1.333 
#    0.000    0.000    0.000    0.000    0.000    0.000 
#    0.000    0.000    0.000    0.000    0.000    0.000 
#
# Total GULP energy -133929.895763 kJ/mol
# GULP energy per Si atom -5580.412323 kJ/mol
# Density = 2.202342 g / cm^3
# Si number density = 22.073662 Si / 1000 Ang^3
#
#
#
# Elastic Constant Matrix: (Units=GPa)
#
#
# Indices 1 2 3 4 5 6 
#
# 1 93.4725 34.8467 -6.4341 0.0000 -3.7236 0.0000
# 2 34.8467 141.9477 -17.2115 0.0000 -2.7525 0.0000
# 3 -6.4341 -17.2115 35.2598 0.0000 -3.1460 0.0000
# 4 0.0000 0.0000 0.0000 21.2396 0.0000 3.0711
# 5 -3.7236 -2.7525 -3.1460 0.0000 28.1685 0.0000
# 6 0.0000 0.0000 0.0000 3.0711 0.0000 25.0745
#
#
#
# Elastic Compliance Matrix: (Units=1/GPa)
#
#
# Indices 1 2 3 4 5 6 
#
# 1 0.011851 -0.002769 0.000936 0.000000 0.001401 0.000000
# 2 -0.002769 0.008172 0.003558 0.000000 0.000830 0.000000
# 3 0.000936 0.003558 0.030616 0.000000 0.003891 0.000000
# 4 0.000000 0.000000 0.000000 0.047931 0.000000 -0.005871
# 5 0.001401 0.000830 0.003891 0.000000 0.036201 0.000000
# 6 0.000000 0.000000 0.000000 -0.005871 0.000000 0.040600
#
#
# Mechanical properties :
#
#
# Convention : Reuss Voigt Hill
#
# Bulk Modulus (GPa) = 18.48807 32.56469 25.52638
# Shear Modulus (GPa) = 26.32277 32.19511 29.25894
#
# Velocity S-wave (km/s) = 3.45700 3.82321 3.64471
# Velocity P-wave (km/s) = 4.93237 5.85440 5.41306
#
# Compressibility (1/GPa) = 0.05408892
#
# Stress axis : x y z
#
# Youngs Moduli (GPa) = 84.38332 122.36906 32.66308
#
# Poissons Ratio (x) = 0.33879 -0.03057
# Poissons Ratio (y) = 0.23362 -0.11621
# Poissons Ratio (z) = -0.07898 -0.43537
#
# Static dielectric constant tensor:
#      x y z
#    x 1.826740 0.000000 -0.021280 
#    y 0.000000 1.839180 0.000000 
#    z -0.021280 0.000000 1.902710 
# 
# From -- ./inp_files/251513.got.cif
#   From: 2010.05.17/outbox.cif.g08.bks.cpg/sg12_126_cif.got.tgz:251513.got - 2010.06.03 13:09:07.
