data_PCOD9213740
_publ_section_title
;
Structure prediction by ZEFSAII (Michael W. Deem and Ramdas Pophale) SiO2 
 PCOD9213740
Probable space group: C 2/M
;
_chemical_formula_sum "Si O2"
_cell_formula_units_Z 58
_cell_length_a 17.246238
_cell_length_b 18.340990
_cell_length_c 17.558348
_cell_angle_alpha 90.000000
_cell_angle_beta 149.452484
_cell_angle_gamma 90.000000
_cell_volume 2822.802775
_symmetry_space_group_name_H-M "C 2/M"
_symmetry_group_IT_number 12
_symmetry_cell_setting 'monoclinic'
loop_
_space_group_symop_operation_xyz
x,y,z
-x,y,-z
-x,-y,-z
x,-y,z
1/2+x,1/2+y,z
1/2-x,1/2+y,-z
1/2-x,1/2-y,-z
1/2+x,1/2-y,z
loop_
_atom_site_type_symbol
_atom_site_label
_atom_site_fract_x
_atom_site_fract_y
_atom_site_fract_z
Si Si1 0.000000 0.000000 0.000000
Si Si2 0.565922 0.695580 0.242384
Si Si3 0.684238 0.361748 0.084284
Si Si4 0.150043 0.113266 0.596901
Si Si5 0.826257 0.275731 0.345280
Si Si6 0.474628 0.849740 0.223333
Si Si7 0.491690 0.918336 0.908857
Si Si8 0.694837 0.587270 0.467243
O O1 0.107529 0.064587 0.050976
O O2 0.724395 0.714317 0.334395
O O3 0.512210 0.763520 0.248747
O O4 0.600896 0.623151 0.319687
O O5 0.441047 0.680215 0.072289
O O6 0.741629 0.314569 0.204516
O O7 0.831632 0.369872 0.154379
O O8 0.162690 0.188795 0.653546
O O9 0.311507 0.075580 0.741784
O O10 0.131815 0.122872 0.491412
O O11 0.000000 0.075519 0.500000
O O12 0.000000 0.303727 0.500000
O O13 0.447292 0.874964 0.112382
O O14 0.626834 0.889696 0.383052
O O15 0.559673 0.000000 0.969385
O O16 0.500000 0.884067 0.000000
O O17 0.681857 0.500000 0.458635
#
# Coordination Sequence:
#
# PCOD9213740 Si02
#       8
#     2   8   8   8   8   8   8   8
#     4  12  28  48  70 100 150 184 224 312 346 440
#     4  12  24  44  70 102 136 181 238 296 350 419
#     4  12  28  46  70 102 141 182 241 292 370 411
#     4  10  22  38  67  91 132 174 222 278 343 409
#     4  11  23  43  70 100 134 180 231 293 344 411
#     4  11  24  44  72  99 135 187 242 299 343 426
#     4  10  22  39  63  97 138 179 226 282 352 419
#     4  11  25  42  65 102 141 181 227 290 360 423
#
# _framework density 20.546953999999999
#
# number of rings (size 3 to 8) (size 9 to 14) (size 15 to 20)
#    0.000    0.966    4.138    3.310    8.690    2.207 
#    0.000    1.724    0.000    0.000    0.000    0.000 
#    0.000    0.000    0.000    0.000    0.000    0.000 
#
# Total GULP energy -161666.545482 kJ/mol
# GULP energy per Si atom -5574.708465 kJ/mol
# Density = 2.050019 g / cm^3
# Si number density = 20.546954 Si / 1000 Ang^3
#
#
#
# Elastic Constant Matrix: (Units=GPa)
#
#
# Indices 1 2 3 4 5 6 
#
# 1 138.4507 42.1317 37.4442 -0.0117 29.7620 -0.0302
# 2 42.1317 136.1105 36.6556 -0.0150 -5.6787 -0.0376
# 3 37.4442 36.6556 80.3881 -0.0107 -4.0192 -0.0194
# 4 -0.0117 -0.0150 -0.0107 92.2845 -0.0050 202.1461
# 5 29.7620 -5.6787 -4.0192 -0.0050 42.1899 -0.0087
# 6 -0.0302 -0.0376 -0.0194 202.1461 -0.0087 613.5756
#
#
#
# Elastic Compliance Matrix: (Units=1/GPa)
#
#
# Indices 1 2 3 4 5 6 
#
# 1 0.011036 -0.002592 -0.004386 -0.000001 -0.008552 0.000000
# 2 -0.002592 0.009009 -0.002762 0.000001 0.002778 0.000000
# 3 -0.004386 -0.002762 0.015954 0.000002 0.004242 -0.000001
# 4 -0.000001 0.000001 0.000002 0.038931 0.000003 -0.012826
# 5 -0.008552 0.002778 0.004242 0.000003 0.030513 -0.000001
# 6 0.000000 0.000000 -0.000001 -0.012826 -0.000001 0.005855
#
#
# Mechanical properties :
#
#
# Convention : Reuss Voigt Hill
#
# Bulk Modulus (GPa) = 60.53447 65.26806 62.90126
# Shear Modulus (GPa) = 36.68775 165.52452 101.10614
#
# Velocity S-wave (km/s) = 4.23017 8.98521 7.02241
# Velocity P-wave (km/s) = 7.30648 11.81015 9.81999
#
# Compressibility (1/GPa) = 0.01651951
#
# Stress axis : x y z
#
# Youngs Moduli (GPa) = 90.61184 111.00179 62.67924
#
# Poissons Ratio (x) = 0.28768 0.27493
# Poissons Ratio (y) = 0.23483 0.17311
# Poissons Ratio (z) = 0.39746 0.30657
#
# Static dielectric constant tensor:
#      x y z
#    x 1.763580 0.000000 -0.002310 
#    y 0.000000 1.738480 0.000000 
#    z -0.002310 0.000000 1.740340 
# 
# From -- ./inp_files/278842.got.cif
#   From: 2010.05.17/outbox.cif.g08.bks.cpg/sg12_140_cif.got.tgz:278842.got - 2010.06.03 13:09:07.
