data_PCOD9213082
_publ_section_title
;
Structure prediction by ZEFSAII (Michael W. Deem and Ramdas Pophale) SiO2 
 PCOD9213082
Probable space group: C 2/M
;
_chemical_formula_sum "Si O2"
_cell_formula_units_Z 44
_cell_length_a 20.915619
_cell_length_b 14.366383
_cell_length_c 27.024772
_cell_angle_alpha 90.000000
_cell_angle_beta 162.721660
_cell_angle_gamma 90.000000
_cell_volume 2411.887240
_symmetry_space_group_name_H-M "C 2/M"
_symmetry_group_IT_number 12
_symmetry_cell_setting 'monoclinic'
loop_
_space_group_symop_operation_xyz
x,y,z
-x,y,-z
-x,-y,-z
x,-y,z
1/2+x,1/2+y,z
1/2-x,1/2+y,-z
1/2-x,1/2-y,-z
1/2+x,1/2-y,z
loop_
_atom_site_type_symbol
_atom_site_label
_atom_site_fract_x
_atom_site_fract_y
_atom_site_fract_z
Si Si1 0.141679 0.000000 0.362695
Si Si2 0.221672 0.160680 0.185418
Si Si3 0.601124 0.841526 0.390417
Si Si4 0.866764 0.500000 0.026373
Si Si5 0.519049 0.500000 0.573357
Si Si6 0.048241 0.500000 0.270626
Si Si7 0.611447 0.137544 0.135030
Si Si8 0.488102 0.000000 0.433936
O O1 0.242733 0.912604 0.465516
O O2 0.266796 0.000000 0.403590
O O3 0.886925 0.000000 0.171263
O O4 0.384706 0.183960 0.260857
O O5 0.149702 0.252152 0.162562
O O6 0.357182 0.088362 0.317229
O O7 0.000000 0.119925 0.000000
O O8 0.750000 0.750000 0.500000
O O9 0.527504 0.905326 0.288600
O O10 0.911671 0.500000 0.118555
O O11 0.976117 0.589061 0.079229
O O12 0.500000 0.500000 0.500000
O O13 0.291616 0.500000 0.430906
O O14 0.657546 0.588621 0.691961
O O15 0.500000 0.115432 0.000000
O O16 0.500000 0.000000 0.500000
#
# Coordination Sequence:
#
# PCOD9213082 Si02
#       8
#     4   8   8   4   4   4   8   4
#     4   9  23  39  63  87 125 160 206 255 302 380
#     4  10  22  40  63  90 116 160 222 252 294 363
#     4  10  22  40  63  89 121 169 210 247 305 373
#     4  11  22  40  58 104 131 153 200 256 340 370
#     4  11  19  35  54  90 130 158 196 250 315 381
#     4  11  23  38  62  91 127 163 206 262 320 356
#     4  10  22  36  62  91 127 166 200 251 310 383
#     4  10  22  43  61  87 117 169 207 260 306 351
#
# _framework density 18.242975000000001
#
# number of rings (size 3 to 8) (size 9 to 14) (size 15 to 20)
#    0.000    1.818    1.818    3.000   10.182    2.182 
#    6.545    0.909    0.000    0.000    0.000    0.000 
#    0.000    0.000    0.000    0.000    0.000    0.000 
#
# Total GULP energy -122583.480790 kJ/mol
# GULP energy per Si atom -5571.976400 kJ/mol
# Density = 1.820145 g / cm^3
# Si number density = 18.242975 Si / 1000 Ang^3
#
#
#
# Elastic Constant Matrix: (Units=GPa)
#
#
# Indices 1 2 3 4 5 6 
#
# 1 107.6329 44.8512 30.6440 0.0239 1.3835 -0.0193
# 2 44.8512 102.1709 13.1394 0.0639 10.7191 -0.0169
# 3 30.6440 13.1394 104.3016 0.0802 22.9688 -0.0567
# 4 0.0239 0.0639 0.0802 15.5526 -0.0093 2.9189
# 5 1.3835 10.7191 22.9688 -0.0093 32.2627 -0.0007
# 6 -0.0193 -0.0169 -0.0567 2.9189 -0.0007 12.3476
#
#
#
# Elastic Compliance Matrix: (Units=1/GPa)
#
#
# Indices 1 2 3 4 5 6 
#
# 1 0.012633 -0.005468 -0.003918 0.000028 0.004064 -0.000012
# 2 -0.005468 0.012543 0.001058 -0.000056 -0.004687 0.000027
# 3 -0.003918 0.001058 0.012625 -0.000083 -0.009172 0.000072
# 4 0.000028 -0.000056 -0.000083 0.067284 0.000095 -0.015906
# 5 0.004064 -0.004687 -0.009172 0.000095 0.038908 -0.000063
# 6 -0.000012 0.000027 0.000072 -0.015906 -0.000063 0.084748
#
#
# Mechanical properties :
#
#
# Convention : Reuss Voigt Hill
#
# Bulk Modulus (GPa) = 47.28852 54.59715 50.94284
# Shear Modulus (GPa) = 19.80632 27.06396 23.43514
#
# Velocity S-wave (km/s) = 3.29856 3.85584 3.58804
# Velocity P-wave (km/s) = 6.36279 7.05805 6.71942
#
# Compressibility (1/GPa) = 0.02114678
#
# Stress axis : x y z
#
# Youngs Moduli (GPa) = 79.16067 79.72259 79.20707
#
# Poissons Ratio (x) = 0.43593 0.31030
# Poissons Ratio (y) = 0.43285 -0.08384
# Poissons Ratio (z) = 0.31012 -0.08438
#
# Static dielectric constant tensor:
#      x y z
#    x 1.660380 0.000150 0.002810 
#    y 0.000150 1.720720 0.000050 
#    z 0.002810 0.000050 1.604150 
# 
# From -- ./inp_files/85636.got.cif
#   From: 2010.05.17/outbox.cif.g08.bks.cpg/sg12_43_cif.got.tgz:85636.got - 2010.06.03 13:09:07.
