data_PCOD9213467
_publ_section_title
;
Structure prediction by ZEFSAII (Michael W. Deem and Ramdas Pophale) SiO2 
 PCOD9213467
Probable space group: C 2/M
;
_chemical_formula_sum "Si O2"
_cell_formula_units_Z 44
_cell_length_a 5.713557
_cell_length_b 26.565408
_cell_length_c 18.467911
_cell_angle_alpha 90.000000
_cell_angle_beta 140.982261
_cell_angle_gamma 90.000000
_cell_volume 1764.731437
_symmetry_space_group_name_H-M "C 2/M"
_symmetry_group_IT_number 12
_symmetry_cell_setting 'monoclinic'
loop_
_space_group_symop_operation_xyz
x,y,z
-x,y,-z
-x,-y,-z
x,-y,z
1/2+x,1/2+y,z
1/2-x,1/2+y,-z
1/2-x,1/2-y,-z
1/2+x,1/2-y,z
loop_
_atom_site_type_symbol
_atom_site_label
_atom_site_fract_x
_atom_site_fract_y
_atom_site_fract_z
Si Si1 0.427597 0.103027 0.126262
Si Si2 0.072867 0.500000 0.932557
Si Si3 0.577856 0.057575 0.432871
Si Si4 0.249261 0.199540 0.872123
Si Si5 0.263602 0.732187 0.352144
Si Si6 0.067677 0.369328 0.720896
O O1 0.555964 0.158644 0.133340
O O2 0.485180 0.094269 0.225017
O O3 0.599737 0.053403 0.132000
O O4 0.000000 0.102427 0.000000
O O5 0.500000 0.500000 0.000000
O O6 0.000000 0.500000 0.000000
O O7 0.500000 0.064847 0.500000
O O8 0.380181 0.101953 0.341107
O O9 0.000000 0.061000 0.500000
O O10 0.458140 0.000000 0.388286
O O11 0.054905 0.242444 0.777426
O O12 0.925679 0.164093 0.825946
O O13 0.500000 0.217230 0.000000
O O14 0.629200 0.749012 0.398046
O O15 0.255403 0.672091 0.356635
#
# Coordination Sequence:
#
# PCOD9213467 Si02
#       6
#     8   4   8   8   8   8
#     4  11  22  39  60  94 135 185 229 269 322 398
#     4  10  24  40  56  80 130 175 220 273 314 380
#     4  10  25  50  77 103 129 165 224 291 354 411
#     4  11  22  38  62  94 143 188 231 266 316 388
#     4  10  22  38  58  91 133 175 224 269 314 378
#     4  11  24  40  67  99 132 177 222 282 337 397
#
# _framework density 24.932974000000002
#
# number of rings (size 3 to 8) (size 9 to 14) (size 15 to 20)
#    0.000    1.455    3.636    0.545    6.364    3.636 
#    1.636    0.000    0.000   13.091    0.000    0.000 
#    0.000    0.000    0.000    0.000    0.000    0.000 
#
# Total GULP energy -122879.254470 kJ/mol
# GULP energy per Si atom -5585.420658 kJ/mol
# Density = 2.487623 g / cm^3
# Si number density = 24.932974 Si / 1000 Ang^3
#
#
#
# Elastic Constant Matrix: (Units=GPa)
#
#
# Indices 1 2 3 4 5 6 
#
# 1 154.9334 45.7157 58.7843 -0.0001 -34.7392 0.0000
# 2 45.7157 141.0123 58.2317 -0.0001 -25.6606 0.0000
# 3 58.7843 58.2317 89.9187 -0.0008 -26.7718 -0.0002
# 4 -0.0001 -0.0001 -0.0008 32.1694 -0.0002 -26.9152
# 5 -34.7392 -25.6606 -26.7718 -0.0002 58.3876 -0.0001
# 6 0.0000 0.0000 -0.0002 -26.9152 -0.0001 49.2315
#
#
#
# Elastic Compliance Matrix: (Units=1/GPa)
#
#
# Indices 1 2 3 4 5 6 
#
# 1 0.009059 -0.000427 -0.004745 0.000000 0.003027 0.000000
# 2 -0.000427 0.009831 -0.005648 0.000000 0.001477 0.000000
# 3 -0.004745 -0.005648 0.018878 0.000001 0.003351 0.000001
# 4 0.000000 0.000000 0.000001 0.057291 0.000000 0.031321
# 5 0.003027 0.001477 0.003351 0.000000 0.021113 0.000000
# 6 0.000000 0.000000 0.000001 0.031321 0.000000 0.037436
#
#
# Mechanical properties :
#
#
# Convention : Reuss Voigt Hill
#
# Bulk Modulus (GPa) = 61.99778 79.03641 70.51710
# Shear Modulus (GPa) = 27.68169 42.83323 35.25746
#
# Velocity S-wave (km/s) = 3.33565 4.14929 3.76452
# Velocity P-wave (km/s) = 6.30517 7.39756 6.87310
#
# Compressibility (1/GPa) = 0.01612961
#
# Stress axis : x y z
#
# Youngs Moduli (GPa) = 110.38386 101.71882 52.97059
#
# Poissons Ratio (x) = 0.04341 0.25134
# Poissons Ratio (y) = 0.04710 0.29917
# Poissons Ratio (z) = 0.52377 0.57449
#
# Static dielectric constant tensor:
#      x y z
#    x 2.000870 0.000000 0.113710 
#    y 0.000000 1.929950 0.000000 
#    z 0.113710 0.000000 2.005580 
# 
# From -- ./inp_files/253691.got.cif
#   From: 2010.05.17/outbox.cif.g08.bks.cpg/sg12_127_cif.got.tgz:253691.got - 2010.06.03 13:09:07.
