data_PCOD9213433
_publ_section_title
;
Structure prediction by ZEFSAII (Michael W. Deem and Ramdas Pophale) SiO2 
 PCOD9213433
Probable space group: C 2/M
;
_chemical_formula_sum "Si O2"
_cell_formula_units_Z 56
_cell_length_a 11.193328
_cell_length_b 29.745852
_cell_length_c 11.176886
_cell_angle_alpha 90.000000
_cell_angle_beta 50.040379
_cell_angle_gamma 90.000000
_cell_volume 2852.443614
_symmetry_space_group_name_H-M "C 2/M"
_symmetry_group_IT_number 12
_symmetry_cell_setting 'monoclinic'
loop_
_space_group_symop_operation_xyz
x,y,z
-x,y,-z
-x,-y,-z
x,-y,z
1/2+x,1/2+y,z
1/2-x,1/2+y,-z
1/2-x,1/2-y,-z
1/2+x,1/2-y,z
loop_
_atom_site_type_symbol
_atom_site_label
_atom_site_fract_x
_atom_site_fract_y
_atom_site_fract_z
Si Si1 0.673191 0.701489 0.046330
Si Si2 0.184328 0.798198 0.692261
Si Si3 0.322713 0.146040 0.160804
Si Si4 0.171650 0.790654 0.419465
Si Si5 0.060068 0.552891 0.324423
Si Si6 0.818059 0.873628 0.147696
Si Si7 0.124586 0.449722 0.808965
O O1 0.489762 0.709727 0.147767
O O2 0.712566 0.672117 0.138251
O O3 0.750000 0.750000 0.000000
O O4 0.729581 0.668238 0.906000
O O5 0.177257 0.790539 0.556977
O O6 0.300348 0.758477 0.657895
O O7 0.212470 0.850151 0.704921
O O8 0.306126 0.176442 0.288089
O O9 0.277829 0.094643 0.218955
O O10 0.500000 0.146614 0.000000
O O11 0.000000 0.807600 0.500000
O O12 0.099350 0.500000 0.300480
O O13 0.209501 0.583783 0.203183
O O14 0.000000 0.563084 0.500000
O O15 0.949910 0.558577 0.276168
O O16 0.000000 0.883045 0.000000
O O17 0.196452 0.500000 0.759369
O O18 0.000000 0.451561 0.000000
#
# Coordination Sequence:
#
# PCOD9213433 Si02
#       7
#     8   8   8   8   8   8   8
#     4  11  21  38  59  85 123 157 196 247 293 358
#     4  10  23  38  55  82 118 155 198 241 294 349
#     4  11  21  35  60  88 112 153 198 239 301 351
#     4  11  22  39  57  82 116 157 196 244 292 358
#     4  10  22  40  62  91 124 158 202 258 312 365
#     4  10  22  38  58  84 116 155 198 243 300 361
#     4   9  19  37  61  90 120 152 201 254 301 362
#
# _framework density 19.632290000000001
#
# number of rings (size 3 to 8) (size 9 to 14) (size 15 to 20)
#    0.000    1.714    1.429    3.429    2.000    2.000 
#    0.000    0.000    0.000    1.286    0.000    0.000 
#    0.000    0.000    0.000    0.000    0.000    0.000 
#
# Total GULP energy -155924.959241 kJ/mol
# GULP energy per Si atom -5568.748544 kJ/mol
# Density = 1.958761 g / cm^3
# Si number density = 19.632290 Si / 1000 Ang^3
#
#
#
# Elastic Constant Matrix: (Units=GPa)
#
#
# Indices 1 2 3 4 5 6 
#
# 1 41.6675 37.0466 21.1827 0.0000 10.4040 0.0000
# 2 37.0466 130.9511 36.1221 0.0000 -9.0241 0.0000
# 3 21.1827 36.1221 77.7599 0.0000 10.8644 0.0000
# 4 0.0000 0.0000 0.0000 14.4824 0.0000 0.9523
# 5 10.4040 -9.0241 10.8644 0.0000 28.1949 0.0000
# 6 0.0000 0.0000 0.0000 0.9523 0.0000 33.7736
#
#
#
# Elastic Compliance Matrix: (Units=1/GPa)
#
#
# Indices 1 2 3 4 5 6 
#
# 1 0.040421 -0.011789 -0.003090 0.000000 -0.017498 0.000000
# 2 -0.011789 0.012806 -0.004141 0.000000 0.010044 0.000000
# 3 -0.003090 -0.004141 0.016542 0.000000 -0.006559 0.000000
# 4 0.000000 0.000000 0.000000 0.069177 0.000000 -0.001951
# 5 -0.017498 0.010044 -0.006559 0.000000 0.047666 0.000000
# 6 0.000000 0.000000 0.000000 -0.001951 0.000000 0.029664
#
#
# Mechanical properties :
#
#
# Convention : Reuss Voigt Hill
#
# Bulk Modulus (GPa) = 31.51652 48.78683 40.15167
# Shear Modulus (GPa) = 18.87565 25.69198 22.28381
#
# Velocity S-wave (km/s) = 3.10410 3.62146 3.37272
# Velocity P-wave (km/s) = 5.37918 6.51083 5.97187
#
# Compressibility (1/GPa) = 0.03172940
#
# Stress axis : x y z
#
# Youngs Moduli (GPa) = 24.73978 78.08927 60.45277
#
# Poissons Ratio (x) = 0.92056 0.18681
# Poissons Ratio (y) = 0.29165 0.25032
# Poissons Ratio (z) = 0.07645 0.32335
#
# Static dielectric constant tensor:
#      x y z
#    x 1.726770 0.000000 0.039110 
#    y 0.000000 1.702430 0.000000 
#    z 0.039110 0.000000 1.671990 
# 
# From -- ./inp_files/136900.got.cif
#   From: 2010.05.17/outbox.cif.g08.bks.cpg/sg12_69_cif.got.tgz:136900.got - 2010.06.03 13:09:07.
