data_PCOD9213841
_publ_section_title
;
Structure prediction by ZEFSAII (Michael W. Deem and Ramdas Pophale) SiO2 
 PCOD9213841
Probable space group: C 2/M
;
_chemical_formula_sum "Si O2"
_cell_formula_units_Z 64
_cell_length_a 31.301092
_cell_length_b 8.727250
_cell_length_c 19.016159
_cell_angle_alpha 90.000000
_cell_angle_beta 39.151534
_cell_angle_gamma 90.000000
_cell_volume 3279.790439
_symmetry_space_group_name_H-M "C 2/M"
_symmetry_group_IT_number 12
_symmetry_cell_setting 'monoclinic'
loop_
_space_group_symop_operation_xyz
x,y,z
-x,y,-z
-x,-y,-z
x,-y,z
1/2+x,1/2+y,z
1/2-x,1/2+y,-z
1/2-x,1/2-y,-z
1/2+x,1/2-y,z
loop_
_atom_site_type_symbol
_atom_site_label
_atom_site_fract_x
_atom_site_fract_y
_atom_site_fract_z
Si Si1 0.029544 0.820202 0.790553
Si Si2 0.754001 0.684784 0.573968
Si Si3 0.003607 0.815094 0.414274
Si Si4 0.403317 0.818007 0.431978
Si Si5 0.612150 0.681306 0.960309
Si Si6 0.780716 0.184995 0.065295
Si Si7 0.351213 0.315184 0.829543
Si Si8 0.116495 0.681373 0.805388
O O1 0.055522 0.729577 0.690152
O O2 0.068575 0.762524 0.809737
O O3 0.043748 0.000000 0.761544
O O4 0.950103 0.802307 0.906498
O O5 0.749138 0.500000 0.577853
O O6 0.750000 0.750000 0.500000
O O7 0.825642 0.727831 0.517137
O O8 0.691567 0.754783 0.695829
O O9 0.939970 0.757761 0.451154
O O10 0.000000 0.765435 0.500000
O O11 0.073920 0.763235 0.287965
O O12 0.003666 0.000000 0.412901
O O13 0.404815 0.000000 0.438265
O O14 0.616871 0.500000 0.936296
O O15 0.680157 0.729436 0.913845
O O16 0.597440 0.774293 0.908854
O O17 0.706693 0.254236 0.148853
O O18 0.776445 0.000000 0.069827
O O19 0.826075 0.231878 0.939552
O O20 0.351028 0.500000 0.828295
O O21 0.114036 0.500000 0.797593
#
# Coordination Sequence:
#
# PCOD9213841 Si02
#       8
#     8   8   8   8   8   8   8   8
#     4  11  22  39  64  87 117 159 200 245 300 362
#     4  11  23  41  64  89 120 158 200 250 302 358
#     4  10  22  40  61  86 119 158 199 244 297 361
#     4  11  24  40  63  93 121 153 201 254 305 361
#     4  10  22  39  58  85 120 159 200 241 299 366
#     4   9  18  34  57  83 112 148 191 239 291 352
#     4   9  18  35  58  84 114 148 191 239 290 351
#     4  12  25  39  58  87 121 158 200 249 299 353
#
# _framework density 19.513442999999999
#
# number of rings (size 3 to 8) (size 9 to 14) (size 15 to 20)
#    0.000    1.625    1.250    3.375    0.000    8.250 
#    0.000    5.000    0.000    0.000    0.000    0.000 
#    0.000    0.000    0.000    0.000    0.000    0.000 
#
# Total GULP energy -178855.674559 kJ/mol
# GULP energy per Si atom -5589.239830 kJ/mol
# Density = 1.946903 g / cm^3
# Si number density = 19.513443 Si / 1000 Ang^3
#
#
#
# Elastic Constant Matrix: (Units=GPa)
#
#
# Indices 1 2 3 4 5 6 
#
# 1 117.1569 1.2461 3.3402 0.0037 -12.2608 0.0007
# 2 1.2461 1.1730 1.0499 0.0031 -13.0839 0.0081
# 3 3.3402 1.0499 25.4019 0.0076 -16.7828 0.0026
# 4 0.0037 0.0031 0.0076 22.3746 0.0011 0.5213
# 5 -12.2608 -13.0839 -16.7828 0.0011 25.4794 -0.0016
# 6 0.0007 0.0081 0.0026 0.5213 -0.0016 34.3365
#
#
#
# Elastic Compliance Matrix: (Units=1/GPa)
#
#
# Indices 1 2 3 4 5 6 
#
# 1 0.008646 -0.006842 -0.000755 0.000000 0.000149 0.000002
# 2 -0.006842 -0.099430 -0.054708 0.000037 -0.090385 0.000023
# 3 -0.000755 -0.054708 0.040592 -0.000006 -0.001719 0.000010
# 4 0.000000 0.000037 -0.000006 0.044709 0.000013 -0.000679
# 5 0.000149 -0.090385 -0.001719 0.000013 -0.008227 0.000021
# 6 0.000002 0.000023 0.000010 -0.000679 0.000021 0.029134
#
#
# Mechanical properties :
#
#
# Convention : Reuss Voigt Hill
#
# Bulk Modulus (GPa) = -5.72075 17.22271 5.75098
# Shear Modulus (GPa) = 61.15048 25.64447 43.39748
#
# Velocity S-wave (km/s) = 5.60407 3.62912 4.72102
# Velocity P-wave (km/s) = 6.23988 5.13866 5.71586
#
# Compressibility (1/GPa) = -0.17480215
#
# Stress axis : x y z
#
# Youngs Moduli (GPa) = 115.66700 -10.05735 24.63567
#
# Poissons Ratio (x) = -0.06881 0.01861
# Poissons Ratio (y) = 0.79136 1.34776
# Poissons Ratio (z) = 0.08737 -0.55021
#
# Static dielectric constant tensor:
#      x y z
#    x 1.669680 0.000000 0.001050 
#    y 0.000000 1.659880 0.000010 
#    z 0.001050 0.000010 1.706300 
# 
# From -- ./inp_files/295669.got.cif
#   From: 2010.05.17/outbox.cif.g08.bks.cpg/sg12_148_cif.got.tgz:295669.got - 2010.06.03 13:09:07.
