data_PCOD9213086
_publ_section_title
;
Structure prediction by ZEFSAII (Michael W. Deem and Ramdas Pophale) SiO2 
 PCOD9213086
Probable space group: C 2/M
;
_chemical_formula_sum "Si O2"
_cell_formula_units_Z 56
_cell_length_a 28.981568
_cell_length_b 14.121691
_cell_length_c 12.345565
_cell_angle_alpha 90.000000
_cell_angle_beta 143.614537
_cell_angle_gamma 90.000000
_cell_volume 2997.308338
_symmetry_space_group_name_H-M "C 2/M"
_symmetry_group_IT_number 12
_symmetry_cell_setting 'monoclinic'
loop_
_space_group_symop_operation_xyz
x,y,z
-x,y,-z
-x,-y,-z
x,-y,z
1/2+x,1/2+y,z
1/2-x,1/2+y,-z
1/2-x,1/2-y,-z
1/2+x,1/2-y,z
loop_
_atom_site_type_symbol
_atom_site_label
_atom_site_fract_x
_atom_site_fract_y
_atom_site_fract_z
Si Si1 0.545180 0.109343 0.699893
Si Si2 0.253088 0.217973 0.330071
Si Si3 0.040367 0.103344 0.191408
Si Si4 0.072918 0.743317 0.411928
Si Si5 0.410544 0.393991 0.365630
Si Si6 0.180855 0.234295 0.955837
Si Si7 0.776572 0.105178 0.516004
O O1 0.500000 0.111310 0.500000
O O2 0.481972 0.157429 0.658752
O O3 0.620491 0.177482 0.838348
O O4 0.564166 0.000000 0.761292
O O5 0.345854 0.210527 0.485764
O O6 0.228273 0.137960 0.368548
O O7 0.237870 0.316368 0.365790
O O8 0.212276 0.219493 0.136477
O O9 0.024334 0.189098 0.240366
O O10 0.132942 0.103448 0.346882
O O11 0.018149 0.000000 0.194918
O O12 0.000000 0.114566 0.000000
O O13 0.096079 0.813306 0.555105
O O14 0.500000 0.396351 0.500000
O O15 0.386917 0.500000 0.356939
O O16 0.363189 0.357950 0.172618
O O17 0.250000 0.250000 0.000000
O O18 0.744308 0.000000 0.440753
#
# Coordination Sequence:
#
# PCOD9213086 Si02
#       7
#     8   8   8   8   8   8   8
#     4  11  23  40  60  82 115 162 203 237 286 352
#     4  10  22  36  63  86 115 162 195 243 303 351
#     4   9  19  33  57  88 114 147 191 242 303 358
#     4  11  19  40  59  82 119 156 195 244 299 355
#     4  11  22  37  59  88 120 155 193 239 300 361
#     4  12  22  40  60  89 126 154 198 247 296 354
#     4   9  20  39  57  84 118 153 198 245 296 352
#
# _framework density 18.683430000000001
#
# number of rings (size 3 to 8) (size 9 to 14) (size 15 to 20)
#    0.000    1.571    4.286    0.429    2.000    2.857 
#    0.000    0.000    0.000    0.429    0.000    0.000 
#    0.000    0.000    0.000    0.000    0.000    0.000 
#
# Total GULP energy -156239.627432 kJ/mol
# GULP energy per Si atom -5579.986694 kJ/mol
# Density = 1.864091 g / cm^3
# Si number density = 18.683430 Si / 1000 Ang^3
#
#
#
# Elastic Constant Matrix: (Units=GPa)
#
#
# Indices 1 2 3 4 5 6 
#
# 1 63.4333 25.7076 2.7397 0.0000 -3.4838 0.0000
# 2 25.7076 75.7383 3.8387 0.0000 7.2558 0.0000
# 3 2.7397 3.8387 62.2747 0.0000 -10.0284 0.0000
# 4 0.0000 0.0000 0.0000 8.8782 0.0000 -3.5815
# 5 -3.4838 7.2558 -10.0284 0.0000 27.6145 0.0000
# 6 0.0000 0.0000 0.0000 -3.5815 0.0000 2.2606
#
#
#
# Elastic Compliance Matrix: (Units=1/GPa)
#
#
# Indices 1 2 3 4 5 6 
#
# 1 0.018733 -0.006779 0.000277 0.000000 0.004245 0.000000
# 2 -0.006779 0.016130 -0.001610 0.000000 -0.005678 0.000000
# 3 0.000277 -0.001610 0.017226 0.000000 0.006714 0.000000
# 4 0.000000 0.000000 0.000000 0.312122 0.000000 0.494510
# 5 0.004245 -0.005678 0.006714 0.000000 0.040679 0.000000
# 6 0.000000 0.000000 0.000000 0.494510 0.000000 1.225844
#
#
# Mechanical properties :
#
#
# Convention : Reuss Voigt Hill
#
# Bulk Modulus (GPa) = 27.88259 29.55758 28.72009
# Shear Modulus (GPa) = 3.01402 19.02802 11.02102
#
# Velocity S-wave (km/s) = 1.27150 3.19477 2.43138
# Velocity P-wave (km/s) = 4.13663 5.42801 4.82571
#
# Compressibility (1/GPa) = 0.03586467
#
# Stress axis : x y z
#
# Youngs Moduli (GPa) = 53.38115 61.99613 58.05135
#
# Poissons Ratio (x) = 0.42029 -0.01610
# Poissons Ratio (y) = 0.36189 0.09349
# Poissons Ratio (z) = -0.01481 0.09984
#
# Static dielectric constant tensor:
#      x y z
#    x 1.656400 0.000000 -0.004580 
#    y 0.000000 1.669510 0.000000 
#    z -0.004580 0.000000 1.638710 
# 
# From -- ./inp_files/183553.got.cif
#   From: 2010.05.17/outbox.cif.g08.bks.cpg/sg12_92_cif.got.tgz:183553.got - 2010.06.03 13:09:07.
