data_PCOD9213032
_publ_section_title
;
Structure prediction by ZEFSAII (Michael W. Deem and Ramdas Pophale) SiO2 
 PCOD9213032
Probable space group: C 2/M
;
_chemical_formula_sum "Si O2"
_cell_formula_units_Z 56
_cell_length_a 14.625879
_cell_length_b 25.284059
_cell_length_c 12.499771
_cell_angle_alpha 90.000000
_cell_angle_beta 40.576683
_cell_angle_gamma 90.000000
_cell_volume 3006.733079
_symmetry_space_group_name_H-M "C 2/M"
_symmetry_group_IT_number 12
_symmetry_cell_setting 'monoclinic'
loop_
_space_group_symop_operation_xyz
x,y,z
-x,y,-z
-x,-y,-z
x,-y,z
1/2+x,1/2+y,z
1/2-x,1/2+y,-z
1/2-x,1/2-y,-z
1/2+x,1/2-y,z
loop_
_atom_site_type_symbol
_atom_site_label
_atom_site_fract_x
_atom_site_fract_y
_atom_site_fract_z
Si Si1 0.877445 0.271275 0.188555
Si Si2 0.838781 0.391270 0.152896
Si Si3 0.137575 0.705369 0.316406
Si Si4 0.616065 0.360964 0.991423
Si Si5 0.363707 0.562221 0.845016
Si Si6 0.990984 0.781141 0.280957
Si Si7 0.600374 0.379118 0.513077
O O1 0.844729 0.328144 0.167678
O O2 0.743175 0.234208 0.302935
O O3 0.928644 0.266141 0.264186
O O4 0.000000 0.250442 0.000000
O O5 0.753575 0.408129 0.123348
O O6 0.741588 0.405641 0.341375
O O7 0.000000 0.409838 0.000000
O O8 0.233361 0.660026 0.181430
O O9 0.000000 0.686530 0.500000
O O10 0.092152 0.751274 0.273600
O O11 0.500000 0.364507 0.000000
O O12 0.636274 0.415908 0.035187
O O13 0.567395 0.319334 0.127005
O O14 0.343379 0.500000 0.854662
O O15 0.512686 0.580299 0.662724
O O16 0.890371 0.822964 0.432686
O O17 0.500000 0.367655 0.500000
#
# Coordination Sequence:
#
# PCOD9213032 Si02
#       7
#     8   8   8   8   8   8   8
#     4  11  21  36  53  86 123 168 196 221 275 338
#     4  10  22  36  57  91 126 151 186 233 293 351
#     4  12  23  34  54  87 122 162 197 230 282 338
#     4  11  22  42  59  84 116 148 197 251 285 342
#     4  10  23  43  67  84 103 150 201 251 305 340
#     4  11  20  35  60  80 123 162 199 225 268 339
#     4   9  19  37  57  86 118 150 196 245 277 336
#
# _framework density 18.624865
#
# number of rings (size 3 to 8) (size 9 to 14) (size 15 to 20)
#    0.000    1.429    2.857    4.286    4.000    5.429 
#    0.000    0.000    0.000    0.429    0.000    0.000 
#    0.000    0.000    0.000    0.000    0.000    0.000 
#
# Total GULP energy -156109.441921 kJ/mol
# GULP energy per Si atom -5575.337211 kJ/mol
# Density = 1.858247 g / cm^3
# Si number density = 18.624865 Si / 1000 Ang^3
#
#
#
# Elastic Constant Matrix: (Units=GPa)
#
#
# Indices 1 2 3 4 5 6 
#
# 1 64.2072 24.2129 44.0277 0.0000 -1.7181 0.0000
# 2 24.2129 73.5217 12.1421 0.0000 5.0377 0.0000
# 3 44.0277 12.1421 121.7627 0.0000 -18.1310 0.0000
# 4 0.0000 0.0000 0.0000 19.5017 0.0000 2.4332
# 5 -1.7181 5.0377 -18.1310 0.0000 30.8416 0.0000
# 6 0.0000 0.0000 0.0000 2.4332 0.0000 13.6958
#
#
#
# Elastic Compliance Matrix: (Units=1/GPa)
#
#
# Indices 1 2 3 4 5 6 
#
# 1 0.023510 -0.006205 -0.008259 0.000000 -0.002532 0.000000
# 2 -0.006205 0.015793 0.000256 0.000000 -0.002775 0.000000
# 3 -0.008259 0.000256 0.012164 0.000000 0.006649 0.000000
# 4 0.000000 0.000000 0.000000 0.052440 0.000000 -0.009316
# 5 -0.002532 -0.002775 0.006649 0.000000 0.036645 0.000000
# 6 0.000000 0.000000 0.000000 -0.009316 0.000000 0.074670
#
#
# Mechanical properties :
#
#
# Convention : Reuss Voigt Hill
#
# Bulk Modulus (GPa) = 43.38525 46.69522 45.04023
# Shear Modulus (GPa) = 19.89477 24.74842 22.32159
#
# Velocity S-wave (km/s) = 3.27185 3.64920 3.46567
# Velocity P-wave (km/s) = 6.13337 6.54839 6.34427
#
# Compressibility (1/GPa) = 0.02304931
#
# Stress axis : x y z
#
# Youngs Moduli (GPa) = 42.53458 63.31963 82.21195
#
# Poissons Ratio (x) = 0.39291 0.67901
# Poissons Ratio (y) = 0.26393 -0.02101
# Poissons Ratio (z) = 0.35130 -0.01618
#
# Static dielectric constant tensor:
#      x y z
#    x 1.629880 0.000000 0.036180 
#    y 0.000000 1.644930 0.000000 
#    z 0.036180 0.000000 1.370120 
# 
# From -- ./inp_files/149434.got.cif
#   From: 2010.05.17/outbox.cif.g08.bks.cpg/sg12_75_cif.got.tgz:149434.got - 2010.06.03 13:09:07.
