data_PCOD9213541
_publ_section_title
;
Structure prediction by ZEFSAII (Michael W. Deem and Ramdas Pophale) SiO2 
 PCOD9213541
Probable space group: C 2/M
;
_chemical_formula_sum "Si O2"
_cell_formula_units_Z 56
_cell_length_a 23.297777
_cell_length_b 13.916059
_cell_length_c 10.006429
_cell_angle_alpha 90.000000
_cell_angle_beta 60.578861
_cell_angle_gamma 90.000000
_cell_volume 2825.818674
_symmetry_space_group_name_H-M "C 2/M"
_symmetry_group_IT_number 12
_symmetry_cell_setting 'monoclinic'
loop_
_space_group_symop_operation_xyz
x,y,z
-x,y,-z
-x,-y,-z
x,-y,z
1/2+x,1/2+y,z
1/2-x,1/2+y,-z
1/2-x,1/2-y,-z
1/2+x,1/2-y,z
loop_
_atom_site_type_symbol
_atom_site_label
_atom_site_fract_x
_atom_site_fract_y
_atom_site_fract_z
Si Si1 0.999358 0.225584 0.161459
Si Si2 0.985602 0.391495 0.371582
Si Si3 0.653812 0.696474 0.624991
Si Si4 0.297859 0.390268 0.698997
Si Si5 0.725416 0.696307 0.818083
Si Si6 0.828489 0.606248 0.530300
Si Si7 0.876715 0.113209 0.863814
O O1 0.056022 0.157852 0.156776
O O2 0.010116 0.328224 0.220765
O O3 0.925264 0.195256 0.285851
O O4 0.000000 0.230598 0.000000
O O5 0.012949 0.500000 0.337051
O O6 0.906748 0.397706 0.456032
O O7 0.000000 0.346851 0.500000
O O8 0.680414 0.628991 0.477526
O O9 0.680099 0.673103 0.741126
O O10 0.680442 0.804009 0.559174
O O11 0.275263 0.500000 0.743689
O O12 0.244880 0.308345 0.796303
O O13 0.360774 0.374686 0.724978
O O14 0.791918 0.637319 0.708323
O O15 0.684689 0.663306 0.991520
O O16 0.805678 0.500000 0.513627
O O17 0.875937 0.000000 0.894315
#
# Coordination Sequence:
#
# PCOD9213541 Si02
#       7
#     8   8   8   8   8   8   8
#     4  11  23  41  61  87 125 164 205 250 307 356
#     4   9  20  38  63  92 120 155 202 248 297 358
#     4  10  22  38  60  90 119 157 200 247 298 359
#     4  10  23  41  62  91 121 153 202 256 308 364
#     4  11  21  39  62  88 122 157 196 243 305 362
#     4   9  18  33  57  86 116 151 192 238 289 347
#     4  11  25  42  61  88 123 162 204 253 303 365
#
# _framework density 19.817266
#
# number of rings (size 3 to 8) (size 9 to 14) (size 15 to 20)
#    0.000    1.857    1.429    2.571    6.000    4.000 
#    0.000    2.143    0.000    0.000    0.000    0.000 
#    0.000    0.000    0.000    0.000    0.000    0.000 
#
# Total GULP energy -156249.846367 kJ/mol
# GULP energy per Si atom -5580.351656 kJ/mol
# Density = 1.977216 g / cm^3
# Si number density = 19.817266 Si / 1000 Ang^3
#
#
#
# Elastic Constant Matrix: (Units=GPa)
#
#
# Indices 1 2 3 4 5 6 
#
# 1 65.9460 38.2817 35.0186 0.0000 12.9267 0.0000
# 2 38.2817 106.0770 32.4633 0.0000 -3.2440 0.0000
# 3 35.0186 32.4633 56.4622 0.0000 3.6424 0.0000
# 4 0.0000 0.0000 0.0000 3.4793 0.0000 -0.0770
# 5 12.9267 -3.2440 3.6424 0.0000 39.3102 0.0000
# 6 0.0000 0.0000 0.0000 -0.0770 0.0000 23.2754
#
#
#
# Elastic Compliance Matrix: (Units=1/GPa)
#
#
# Indices 1 2 3 4 5 6 
#
# 1 0.027114 -0.006132 -0.012759 0.000000 -0.008240 0.000000
# 2 -0.006132 0.012923 -0.003849 0.000000 0.003440 0.000000
# 3 -0.012759 -0.003849 0.027753 0.000000 0.001307 0.000000
# 4 0.000000 0.000000 0.000000 0.287438 0.000000 0.000951
# 5 -0.008240 0.003440 0.001307 0.000000 0.028311 0.000000
# 6 0.000000 0.000000 0.000000 0.000951 0.000000 0.042967
#
#
# Mechanical properties :
#
#
# Convention : Reuss Voigt Hill
#
# Bulk Modulus (GPa) = 44.82350 48.89028 46.85689
# Shear Modulus (GPa) = 10.42917 21.39441 15.91179
#
# Velocity S-wave (km/s) = 2.29654 3.28927 2.83667
# Velocity P-wave (km/s) = 5.44974 6.25698 5.86726
#
# Compressibility (1/GPa) = 0.02230973
#
# Stress axis : x y z
#
# Youngs Moduli (GPa) = 36.88065 77.37973 36.03206
#
# Poissons Ratio (x) = 0.47453 0.45974
# Poissons Ratio (y) = 0.22617 0.13868
# Poissons Ratio (z) = 0.47057 0.29782
#
# Static dielectric constant tensor:
#      x y z
#    x 1.709020 0.000000 0.005220 
#    y 0.000000 1.720130 0.000000 
#    z 0.005220 0.000000 1.675020 
# 
# From -- ./inp_files/96794.got.cif
#   From: 2010.05.17/outbox.cif.g08.bks.cpg/sg12_49_cif.got.tgz:96794.got - 2010.06.03 13:09:07.
