data_PCOD9213191
_publ_section_title
;
Structure prediction by ZEFSAII (Michael W. Deem and Ramdas Pophale) SiO2 
 PCOD9213191
Probable space group: C 2/M
;
_chemical_formula_sum "Si O2"
_cell_formula_units_Z 56
_cell_length_a 17.621300
_cell_length_b 27.358802
_cell_length_c 5.844223
_cell_angle_alpha 90.000000
_cell_angle_beta 101.783656
_cell_angle_gamma 90.000000
_cell_volume 2758.109621
_symmetry_space_group_name_H-M "C 2/M"
_symmetry_group_IT_number 12
_symmetry_cell_setting 'monoclinic'
loop_
_space_group_symop_operation_xyz
x,y,z
-x,y,-z
-x,-y,-z
x,-y,z
1/2+x,1/2+y,z
1/2-x,1/2+y,-z
1/2-x,1/2-y,-z
1/2+x,1/2-y,z
loop_
_atom_site_type_symbol
_atom_site_label
_atom_site_fract_x
_atom_site_fract_y
_atom_site_fract_z
Si Si1 0.985149 0.210024 0.743781
Si Si2 0.229333 0.946861 0.309279
Si Si3 0.711962 0.854272 0.882962
Si Si4 0.310621 0.289245 0.636132
Si Si5 0.176612 0.114057 0.660772
Si Si6 0.076177 0.944692 0.897058
Si Si7 0.461791 0.817012 0.225075
O O1 0.897130 0.230872 0.710484
O O2 0.000000 0.187448 0.500000
O O3 0.038654 0.258066 0.773305
O O4 0.000000 0.183981 0.000000
O O5 0.282566 0.901096 0.279902
O O6 0.197935 0.935128 0.539802
O O7 0.265713 0.000000 0.310075
O O8 0.152827 0.945242 0.103675
O O9 0.769509 0.811395 0.833873
O O10 0.625450 0.835946 0.837766
O O11 0.750623 0.873643 0.135943
O O12 0.250000 0.250000 0.500000
O O13 0.328077 0.338392 0.499995
O O14 0.097817 0.099130 0.740295
O O15 0.068028 0.000000 0.793143
O O16 0.000000 0.935928 0.000000
O O17 0.500000 0.830887 0.500000
O O18 0.500000 0.831212 0.000000
#
# Coordination Sequence:
#
# PCOD9213191 Si02
#       7
#     8   8   8   8   8   8   8
#     4  10  23  41  59  88 121 165 216 266 319 371
#     4   9  19  38  63  92 122 157 205 258 319 384
#     4  10  23  40  65  91 121 160 214 264 315 384
#     4  11  24  40  61  84 122 170 216 266 317 379
#     4  10  22  37  57  91 121 163 212 259 316 374
#     4   9  18  36  60  87 123 165 207 254 314 384
#     4  10  22  40  67  91 122 160 213 267 318 382
#
# _framework density 20.303763
#
# number of rings (size 3 to 8) (size 9 to 14) (size 15 to 20)
#    0.000    2.143    0.000    2.143   10.000    1.714 
#    7.714    2.143    0.000    0.857    0.000    0.000 
#    0.000    0.000    0.000    0.000    0.000    0.000 
#
# Total GULP energy -156006.052174 kJ/mol
# GULP energy per Si atom -5571.644720 kJ/mol
# Density = 2.025755 g / cm^3
# Si number density = 20.303763 Si / 1000 Ang^3
#
#
#
# Elastic Constant Matrix: (Units=GPa)
#
#
# Indices 1 2 3 4 5 6 
#
# 1 95.5049 31.6296 34.3041 0.0000 -11.4572 0.0000
# 2 31.6296 81.5237 8.5209 0.0000 -1.7784 0.0000
# 3 34.3041 8.5209 72.8909 0.0000 -15.6847 0.0000
# 4 0.0000 0.0000 0.0000 6.4558 0.0000 10.6920
# 5 -11.4572 -1.7784 -15.6847 0.0000 19.1197 0.0000
# 6 0.0000 0.0000 0.0000 10.6920 0.0000 21.7203
#
#
#
# Elastic Compliance Matrix: (Units=1/GPa)
#
#
# Indices 1 2 3 4 5 6 
#
# 1 0.014530 -0.004986 -0.005442 0.000000 0.003779 0.000000
# 2 -0.004986 0.014129 0.000407 0.000000 -0.001340 0.000000
# 3 -0.005442 0.000407 0.018870 0.000000 0.012257 0.000000
# 4 0.000000 0.000000 0.000000 0.838541 0.000000 -0.412780
# 5 0.003779 -0.001340 0.012257 0.000000 0.064497 0.000000
# 6 0.000000 0.000000 0.000000 -0.412780 0.000000 0.249235
#
#
# Mechanical properties :
#
#
# Convention : Reuss Voigt Hill
#
# Bulk Modulus (GPa) = 36.38232 44.31429 40.34831
# Shear Modulus (GPa) = 4.06832 21.15680 12.61256
#
# Velocity S-wave (km/s) = 1.41707 3.23153 2.49508
# Velocity P-wave (km/s) = 4.54261 5.98304 5.31188
#
# Compressibility (1/GPa) = 0.02748588
#
# Stress axis : x y z
#
# Youngs Moduli (GPa) = 68.82285 70.77560 52.99337
#
# Poissons Ratio (x) = 0.35290 0.28840
# Poissons Ratio (y) = 0.34316 -0.02154
# Poissons Ratio (z) = 0.37455 -0.02877
#
# Static dielectric constant tensor:
#      x y z
#    x 1.714970 0.000000 -0.076870 
#    y 0.000000 1.730880 0.000000 
#    z -0.076870 0.000000 1.812260 
# 
# From -- ./inp_files/17656.got.cif
#   From: 2010.05.17/outbox.cif.g08.bks.cpg/sg12_9_cif.got.tgz:17656.got - 2010.06.03 13:09:07.
