data_PCOD9213919
_publ_section_title
;
Structure prediction by ZEFSAII (Michael W. Deem and Ramdas Pophale) SiO2 
 PCOD9213919
Probable space group: C 2/M
;
_chemical_formula_sum "Si O2"
_cell_formula_units_Z 40
_cell_length_a 31.531581
_cell_length_b 8.966490
_cell_length_c 15.752795
_cell_angle_alpha 90.000000
_cell_angle_beta 151.486165
_cell_angle_gamma 90.000000
_cell_volume 2126.090880
_symmetry_space_group_name_H-M "C 2/M"
_symmetry_group_IT_number 12
_symmetry_cell_setting 'monoclinic'
loop_
_space_group_symop_operation_xyz
x,y,z
-x,y,-z
-x,-y,-z
x,-y,z
1/2+x,1/2+y,z
1/2-x,1/2+y,-z
1/2-x,1/2-y,-z
1/2+x,1/2-y,z
loop_
_atom_site_type_symbol
_atom_site_label
_atom_site_fract_x
_atom_site_fract_y
_atom_site_fract_z
Si Si1 0.755507 0.173039 0.100804
Si Si2 0.905857 0.675203 0.596439
Si Si3 0.523882 0.320173 0.947354
Si Si4 0.792563 0.179567 0.814022
Si Si5 0.929322 0.670565 0.450650
O O1 0.701184 0.250276 0.081162
O O2 0.856684 0.204441 0.305881
O O3 0.733184 0.000000 0.055302
O O4 0.750000 0.250000 0.000000
O O5 0.904976 0.500000 0.616503
O O6 0.953348 0.763386 0.754385
O O7 0.803440 0.719790 0.395725
O O8 0.958629 0.690796 0.599562
O O9 0.522382 0.500000 0.944791
O O10 0.500000 0.268140 0.000000
O O11 0.622935 0.273570 0.092902
O O12 0.793211 0.000000 0.822789
O O13 0.890313 0.500000 0.379495
O O14 0.000000 0.676909 0.500000
#
# Coordination Sequence:
#
# PCOD9213919 Si02
#       5
#     8   8   8   8   8
#     4  11  22  35  54  82 114 150 193 235 282 339
#     4   9  19  36  57  82 115 152 190 233 285 345
#     4  10  22  39  60  86 115 149 192 242 295 345
#     4   9  20  40  59  80 115 155 190 234 294 350
#     4   9  19  36  56  81 115 152 186 229 287 345
#
# _framework density 18.813872
#
# number of rings (size 3 to 8) (size 9 to 14) (size 15 to 20)
#    0.000    2.400    0.000    3.000    2.800    5.600 
#    0.000    0.000    0.000    0.000    0.000    0.000 
#    0.000    0.000    0.000    0.000    0.000    0.000 
#
# Total GULP energy -111511.562877 kJ/mol
# GULP energy per Si atom -5575.578144 kJ/mol
# Density = 1.877105 g / cm^3
# Si number density = 18.813872 Si / 1000 Ang^3
#
#
#
# Elastic Constant Matrix: (Units=GPa)
#
#
# Indices 1 2 3 4 5 6 
#
# 1 192.6642 41.6064 75.7490 0.0000 -5.7053 0.0000
# 2 41.6064 31.5828 24.8178 0.0000 -4.8621 0.0000
# 3 75.7490 24.8178 83.6359 0.0000 -13.4318 0.0000
# 4 0.0000 0.0000 0.0000 33.0102 0.0000 -6.5793
# 5 -5.7053 -4.8621 -13.4318 0.0000 29.9729 0.0000
# 6 0.0000 0.0000 0.0000 -6.5793 0.0000 23.8546
#
#
#
# Elastic Compliance Matrix: (Units=1/GPa)
#
#
# Indices 1 2 3 4 5 6 
#
# 1 0.009336 -0.007461 -0.006628 0.000000 -0.002403 0.000000
# 2 -0.007461 0.047301 -0.006760 0.000000 0.003223 0.000000
# 3 -0.006628 -0.006760 0.021106 0.000000 0.007100 0.000000
# 4 0.000000 0.000000 0.000000 0.032056 0.000000 0.008841
# 5 -0.002403 0.003223 0.007100 0.000000 0.036611 0.000000
# 6 0.000000 0.000000 0.000000 0.008841 0.000000 0.044359
#
#
# Mechanical properties :
#
#
# Convention : Reuss Voigt Hill
#
# Bulk Modulus (GPa) = 27.74425 65.80324 46.77375
# Shear Modulus (GPa) = 20.45140 28.41486 24.43313
#
# Velocity S-wave (km/s) = 3.30060 3.89049 3.60762
# Velocity P-wave (km/s) = 5.41332 7.43190 6.50143
#
# Compressibility (1/GPa) = 0.03604350
#
# Stress axis : x y z
#
# Youngs Moduli (GPa) = 107.10822 21.14134 47.38039
#
# Poissons Ratio (x) = 0.15774 0.31403
# Poissons Ratio (y) = 0.79917 0.32031
# Poissons Ratio (z) = 0.70990 0.14293
#
# Static dielectric constant tensor:
#      x y z
#    x 1.671110 0.000000 0.019070 
#    y 0.000000 1.643280 0.000000 
#    z 0.019070 0.000000 1.597070 
# 
# From -- ./inp_files/211449.got.cif
#   From: 2010.05.17/outbox.cif.g08.bks.cpg/sg12_106_cif.got.tgz:211449.got - 2010.06.03 13:09:07.
