data_PCOD9213284
_publ_section_title
;
Structure prediction by ZEFSAII (Michael W. Deem and Ramdas Pophale) SiO2 
 PCOD9213284
Probable space group: C 2/M
;
_chemical_formula_sum "Si O2"
_cell_formula_units_Z 56
_cell_length_a 12.006643
_cell_length_b 28.372377
_cell_length_c 8.480165
_cell_angle_alpha 90.000000
_cell_angle_beta 54.285555
_cell_angle_gamma 90.000000
_cell_volume 2345.544218
_symmetry_space_group_name_H-M "C 2/M"
_symmetry_group_IT_number 12
_symmetry_cell_setting 'monoclinic'
loop_
_space_group_symop_operation_xyz
x,y,z
-x,y,-z
-x,-y,-z
x,-y,z
1/2+x,1/2+y,z
1/2-x,1/2+y,-z
1/2-x,1/2-y,-z
1/2+x,1/2-y,z
loop_
_atom_site_type_symbol
_atom_site_label
_atom_site_fract_x
_atom_site_fract_y
_atom_site_fract_z
Si Si1 0.839964 0.203680 0.430113
Si Si2 0.267461 0.551057 0.543453
Si Si3 0.961006 0.082535 0.852214
Si Si4 0.187897 0.551812 0.973671
Si Si5 0.371667 0.319681 0.774196
Si Si6 0.622617 0.137913 0.507687
Si Si7 0.080689 0.341033 0.089650
O O1 0.750000 0.250000 0.500000
O O2 0.842038 0.183503 0.610184
O O3 0.763593 0.167786 0.370795
O O4 0.002133 0.212082 0.271940
O O5 0.215459 0.500000 0.536194
O O6 0.418519 0.557324 0.344716
O O7 0.253461 0.553376 0.743814
O O8 0.177847 0.593264 0.553705
O O9 0.819202 0.053972 0.978472
O O10 0.926012 0.128913 0.779912
O O11 0.000000 0.093551 0.000000
O O12 0.118088 0.500000 0.046791
O O13 0.108763 0.601564 0.063891
O O14 0.225570 0.315451 0.978746
O O15 0.500000 0.118919 0.500000
O O16 0.525091 0.172031 0.688465
O O17 0.000000 0.329666 0.000000
#
# Coordination Sequence:
#
# PCOD9213284 Si02
#       7
#     8   8   8   8   8   8   8
#     4  11  24  45  76 108 136 178 227 287 355 431
#     4  11  23  41  64  97 140 192 246 293 353 428
#     4  11  23  39  66 101 138 187 237 297 354 414
#     4  10  22  37  62  95 136 186 243 295 349 414
#     4  10  23  43  77  99 136 179 230 276 344 424
#     4  12  26  43  67 100 143 186 234 297 356 425
#     4  11  21  42  68  97 136 184 232 287 348 411
#
# _framework density 23.875057000000002
#
# number of rings (size 3 to 8) (size 9 to 14) (size 15 to 20)
#    0.000    1.143    4.286    1.714   10.000    3.429 
#    0.000    0.714    6.286    0.000    0.000    0.000 
#    0.000    0.000    0.000    0.000    0.000    0.000 
#
# Total GULP energy -156211.320946 kJ/mol
# GULP energy per Si atom -5578.975748 kJ/mol
# Density = 2.382072 g / cm^3
# Si number density = 23.875057 Si / 1000 Ang^3
#
#
#
# Elastic Constant Matrix: (Units=GPa)
#
#
# Indices 1 2 3 4 5 6 
#
# 1 151.8250 37.5778 11.3034 0.0000 -22.9970 0.0000
# 2 37.5778 98.0848 -2.4739 0.0000 -4.2627 0.0000
# 3 11.3034 -2.4739 37.9602 0.0000 -17.9049 0.0000
# 4 0.0000 0.0000 0.0000 9.1792 0.0000 -1.6030
# 5 -22.9970 -4.2627 -17.9049 0.0000 45.6802 0.0000
# 6 0.0000 0.0000 0.0000 -1.6030 0.0000 6.7676
#
#
#
# Elastic Compliance Matrix: (Units=1/GPa)
#
#
# Indices 1 2 3 4 5 6 
#
# 1 0.007878 -0.002899 -0.000971 0.000000 0.003315 0.000000
# 2 -0.002899 0.011362 0.001736 0.000000 0.000282 0.000000
# 3 -0.000971 0.001736 0.032623 0.000000 0.012460 0.000000
# 4 0.000000 0.000000 0.000000 0.113643 0.000000 0.026919
# 5 0.003315 0.000282 0.012460 0.000000 0.028470 0.000000
# 6 0.000000 0.000000 0.000000 0.026919 0.000000 0.154140
#
#
# Mechanical properties :
#
#
# Convention : Reuss Voigt Hill
#
# Bulk Modulus (GPa) = 21.01019 42.29827 31.65423
# Shear Modulus (GPa) = 13.57777 28.42290 21.00034
#
# Velocity S-wave (km/s) = 2.38733 3.45408 2.96901
# Velocity P-wave (km/s) = 4.05195 5.80194 5.00404
#
# Compressibility (1/GPa) = 0.04759596
#
# Stress axis : x y z
#
# Youngs Moduli (GPa) = 126.92855 88.01379 30.65339
#
# Poissons Ratio (x) = 0.25513 0.02977
# Poissons Ratio (y) = 0.36794 -0.05323
# Poissons Ratio (z) = 0.12328 -0.15283
#
# Static dielectric constant tensor:
#      x y z
#    x 1.774000 0.000000 -0.054180 
#    y 0.000000 1.926900 0.000000 
#    z -0.054180 0.000000 1.940080 
# 
# From -- ./inp_files/54572.got.cif
#   From: 2010.05.17/outbox.cif.g08.bks.cpg/sg12_28_cif.got.tgz:54572.got - 2010.06.03 13:09:07.
