data_PCOD9213849
_publ_section_title
;
Structure prediction by ZEFSAII (Michael W. Deem and Ramdas Pophale) SiO2 
 PCOD9213849
Probable space group: C 2/M
;
_chemical_formula_sum "Si O2"
_cell_formula_units_Z 44
_cell_length_a 14.061960
_cell_length_b 11.660510
_cell_length_c 19.082701
_cell_angle_alpha 90.000000
_cell_angle_beta 38.098795
_cell_angle_gamma 90.000000
_cell_volume 1930.643182
_symmetry_space_group_name_H-M "C 2/M"
_symmetry_group_IT_number 12
_symmetry_cell_setting 'monoclinic'
loop_
_space_group_symop_operation_xyz
x,y,z
-x,y,-z
-x,-y,-z
x,-y,z
1/2+x,1/2+y,z
1/2-x,1/2+y,-z
1/2-x,1/2-y,-z
1/2+x,1/2-y,z
loop_
_atom_site_type_symbol
_atom_site_label
_atom_site_fract_x
_atom_site_fract_y
_atom_site_fract_z
Si Si1 0.151651 0.500000 0.513164
Si Si2 0.345760 0.366625 0.777063
Si Si3 0.291124 0.000000 0.678713
Si Si4 0.332262 0.748232 0.241213
Si Si5 0.597489 0.184369 0.653229
Si Si6 0.841182 0.500000 0.857278
Si Si7 0.877708 0.217152 0.007134
O O1 0.232474 0.500000 0.391213
O O2 0.969468 0.500000 0.597746
O O3 0.177961 0.612779 0.544886
O O4 0.373796 0.500000 0.768938
O O5 0.251892 0.336726 0.760878
O O6 0.501249 0.293777 0.684073
O O7 0.236508 0.318039 0.902248
O O8 0.220880 0.881172 0.746955
O O9 0.299466 0.778585 0.340517
O O10 0.514508 0.751300 0.120196
O O11 0.467416 0.098068 0.758691
O O12 0.715508 0.601307 0.948419
O O13 0.000000 0.201450 0.000000
#
# Coordination Sequence:
#
# PCOD9213849 Si02
#       7
#     4   8   4   8   8   4   8
#     4  10  22  45  69  89 108 151 199 267 312 355
#     4  10  22  39  58  87 132 167 195 235 286 356
#     4  11  23  42  71  87 111 150 207 256 313 359
#     4  11  23  38  62  93 118 161 201 247 296 352
#     4  10  22  39  61  90 121 155 200 251 299 349
#     4   9  18  33  55  84 118 160 197 244 279 340
#     4   9  19  34  56  86 124 162 205 238 284 342
#
# _framework density 22.790333
#
# number of rings (size 3 to 8) (size 9 to 14) (size 15 to 20)
#    0.000    2.000    1.818    0.818    6.364    6.909 
#    3.273    0.000    0.000    1.091    0.000    0.000 
#    0.000    0.000    0.000    0.000    0.000    0.000 
#
# Total GULP energy -122599.014463 kJ/mol
# GULP energy per Si atom -5572.682476 kJ/mol
# Density = 2.273846 g / cm^3
# Si number density = 22.790333 Si / 1000 Ang^3
#
#
#
# Elastic Constant Matrix: (Units=GPa)
#
#
# Indices 1 2 3 4 5 6 
#
# 1 55.0736 17.6889 2.6232 0.0000 0.9010 0.0000
# 2 17.6889 183.9691 19.0306 0.0000 -6.1650 0.0000
# 3 2.6232 19.0306 60.0407 0.0000 -1.1718 0.0000
# 4 0.0000 0.0000 0.0000 21.7241 0.0000 9.9716
# 5 0.9010 -6.1650 -1.1718 0.0000 24.8163 0.0000
# 6 0.0000 0.0000 0.0000 9.9716 0.0000 9.0164
#
#
#
# Elastic Compliance Matrix: (Units=1/GPa)
#
#
# Indices 1 2 3 4 5 6 
#
# 1 0.018772 -0.001816 -0.000267 0.000000 -0.001145 0.000000
# 2 -0.001816 0.005839 -0.001743 0.000000 0.001434 0.000000
# 3 -0.000267 -0.001743 0.017227 0.000000 0.000390 0.000000
# 4 0.000000 0.000000 0.000000 0.093492 0.000000 -0.103397
# 5 -0.001145 0.001434 0.000390 0.000000 0.040712 0.000000
# 6 0.000000 0.000000 0.000000 -0.103397 0.000000 0.225261
#
#
# Mechanical properties :
#
#
# Convention : Reuss Voigt Hill
#
# Bulk Modulus (GPa) = 29.25177 41.97432 35.61305
# Shear Modulus (GPa) = 11.89482 28.42741 20.16112
#
# Velocity S-wave (km/s) = 2.28704 3.53561 2.97751
# Velocity P-wave (km/s) = 4.45389 5.92663 5.24224
#
# Compressibility (1/GPa) = 0.03418596
#
# Stress axis : x y z
#
# Youngs Moduli (GPa) = 53.27042 171.27171 58.04768
#
# Poissons Ratio (x) = 0.31098 0.01550
# Poissons Ratio (y) = 0.09672 0.10120
# Poissons Ratio (z) = 0.01422 0.29858
#
# Static dielectric constant tensor:
#      x y z
#    x 1.891440 0.000000 0.044580 
#    y 0.000000 1.802670 0.000000 
#    z 0.044580 0.000000 1.859560 
# 
# From -- ./inp_files/309723.got.cif
#   From: 2010.05.17/outbox.cif.g08.bks.cpg/sg12_155_cif.got.tgz:309723.got - 2010.06.03 13:09:07.
