data_PCOD9213828
_publ_section_title
;
Structure prediction by ZEFSAII (Michael W. Deem and Ramdas Pophale) SiO2 
 PCOD9213828
Probable space group: C 2/M
;
_chemical_formula_sum "Si O2"
_cell_formula_units_Z 56
_cell_length_a 20.823308
_cell_length_b 8.969695
_cell_length_c 31.506683
_cell_angle_alpha 90.000000
_cell_angle_beta 146.892847
_cell_angle_gamma 90.000000
_cell_volume 3214.304218
_symmetry_space_group_name_H-M "C 2/M"
_symmetry_group_IT_number 12
_symmetry_cell_setting 'monoclinic'
loop_
_space_group_symop_operation_xyz
x,y,z
-x,y,-z
-x,-y,-z
x,-y,z
1/2+x,1/2+y,z
1/2-x,1/2+y,-z
1/2-x,1/2-y,-z
1/2+x,1/2-y,z
loop_
_atom_site_type_symbol
_atom_site_label
_atom_site_fract_x
_atom_site_fract_y
_atom_site_fract_z
Si Si1 0.475967 0.678015 0.181402
Si Si2 0.275871 0.178422 0.916588
Si Si3 0.123760 0.678370 0.335201
Si Si4 0.329322 0.321844 0.506852
Si Si5 0.006800 0.321584 0.901468
Si Si6 0.207656 0.821353 0.166348
Si Si7 0.472891 0.821741 0.336262
O O1 0.482189 0.500000 0.180442
O O2 0.351344 0.716011 0.134518
O O3 0.577700 0.736592 0.268807
O O4 0.482861 0.753469 0.139482
O O5 0.296636 0.263367 0.884234
O O6 0.279064 0.000000 0.910316
O O7 0.377372 0.213767 0.006639
O O8 0.114653 0.500000 0.323644
O O9 0.256685 0.713289 0.423918
O O10 0.038693 0.716237 0.328206
O O11 0.329625 0.500000 0.511650
O O12 0.250000 0.250000 0.500000
O O13 0.457927 0.257621 0.587247
O O14 0.996664 0.500000 0.893372
O O15 0.894817 0.253942 0.863443
O O16 0.336518 0.782885 0.256205
O O17 0.195625 0.000000 0.160419
O O18 0.484318 0.000000 0.347625
#
# Coordination Sequence:
#
# PCOD9213828 Si02
#       7
#     8   8   8   8   8   8   8
#     4  11  22  36  57  83 109 142 186 229 271 326
#     4  10  22  39  58  82 109 141 185 231 276 327
#     4   9  17  32  51  77 110 143 177 217 271 322
#     4   9  17  28  47  76 110 142 176 220 267 318
#     4  11  24  40  56  77 111 149 183 227 279 329
#     4  11  22  37  58  83 112 145 184 229 273 325
#     4   9  18  32  51  78 110 142 178 221 270 321
#
# _framework density 17.422122000000002
#
# number of rings (size 3 to 8) (size 9 to 14) (size 15 to 20)
#    0.000    2.000    1.429    3.429    0.000    7.429 
#    0.000    0.000    0.000    0.857    0.000    6.000 
#    0.000    0.000    0.000    0.000    0.000    0.000 
#
# Total GULP energy -156277.256918 kJ/mol
# GULP energy per Si atom -5581.330604 kJ/mol
# Density = 1.738247 g / cm^3
# Si number density = 17.422122 Si / 1000 Ang^3
#
#
#
# Elastic Constant Matrix: (Units=GPa)
#
#
# Indices 1 2 3 4 5 6 
#
# 1 12.0796 -4.2254 -26.8921 0.0000 31.5945 -0.0001
# 2 -4.2254 18.9563 10.9086 0.0001 21.9287 -0.0001
# 3 -26.8921 10.9086 67.2209 0.0000 42.1219 0.0000
# 4 0.0000 0.0001 0.0000 33.8997 0.0000 -3.1770
# 5 31.5945 21.9287 42.1219 0.0000 -28.2146 0.0000
# 6 -0.0001 -0.0001 0.0000 -3.1770 0.0000 28.2436
#
#
#
# Elastic Compliance Matrix: (Units=1/GPa)
#
#
# Indices 1 2 3 4 5 6 
#
# 1 0.027988 -0.017728 0.001586 0.000000 0.019929 0.000000
# 2 -0.017728 0.058051 -0.016712 0.000000 0.000317 0.000000
# 3 0.001586 -0.016712 0.013045 0.000000 0.008262 0.000000
# 4 0.000000 0.000000 0.000000 0.029813 0.000000 0.003354
# 5 0.019929 0.000317 0.008262 0.000000 -0.000544 0.000000
# 6 0.000000 0.000000 0.000000 0.003354 0.000000 0.035783
#
#
# Mechanical properties :
#
#
# Convention : Reuss Voigt Hill
#
# Bulk Modulus (GPa) = 29.96168 6.42657 18.19412
# Shear Modulus (GPa) = 20.74954 14.68345 17.71649
#
# Velocity S-wave (km/s) = 3.45481 2.90626 3.19234
# Velocity P-wave (km/s) = 5.75753 3.86763 4.90447
#
# Compressibility (1/GPa) = 0.03337597
#
# Stress axis : x y z
#
# Youngs Moduli (GPa) = 35.72998 17.22624 76.65660
#
# Poissons Ratio (x) = 0.30539 -0.12154
# Poissons Ratio (y) = 0.63342 1.28105
# Poissons Ratio (z) = -0.05665 0.28788
#
# Static dielectric constant tensor:
#      x y z
#    x 1.554490 0.000000 0.013550 
#    y 0.000000 1.578520 0.000000 
#    z 0.013550 0.000000 1.610180 
# 
# From -- ./inp_files/275134.got.cif
#   From: 2010.05.17/outbox.cif.g08.bks.cpg/sg12_138_cif.got.tgz:275134.got - 2010.06.03 13:09:07.
