data_PCOD9213019
_publ_section_title
;
Structure prediction by ZEFSAII (Michael W. Deem and Ramdas Pophale) SiO2 
 PCOD9213019
Probable space group: C 2/M
;
_chemical_formula_sum "Si O2"
_cell_formula_units_Z 36
_cell_length_a 16.562729
_cell_length_b 22.185551
_cell_length_c 5.334944
_cell_angle_alpha 90.000000
_cell_angle_beta 120.306412
_cell_angle_gamma 90.000000
_cell_volume 1692.440394
_symmetry_space_group_name_H-M "C 2/M"
_symmetry_group_IT_number 12
_symmetry_cell_setting 'monoclinic'
loop_
_space_group_symop_operation_xyz
x,y,z
-x,y,-z
-x,-y,-z
x,-y,z
1/2+x,1/2+y,z
1/2-x,1/2+y,-z
1/2-x,1/2-y,-z
1/2+x,1/2-y,z
loop_
_atom_site_type_symbol
_atom_site_label
_atom_site_fract_x
_atom_site_fract_y
_atom_site_fract_z
Si Si1 0.000000 0.237363 0.500000
Si Si2 0.390203 0.927899 0.292345
Si Si3 0.834018 0.743733 0.938761
Si Si4 0.905277 0.853347 0.739853
Si Si5 0.205278 0.378172 0.359454
O O1 0.060738 0.193118 0.420142
O O2 0.071408 0.276512 0.772307
O O3 0.500000 0.914602 0.500000
O O4 0.334256 0.899075 0.437052
O O5 0.379350 0.000000 0.289677
O O6 0.349413 0.906611 0.961251
O O7 0.862519 0.809125 0.883242
O O8 0.808568 0.694027 0.694090
O O9 0.750000 0.750000 0.000000
O O10 0.816569 0.891635 0.514098
O O11 0.000000 0.882556 0.000000
#
# Coordination Sequence:
#
# PCOD9213019 Si02
#       5
#     4   8   8   8   8
#     4  10  22  36  56  86 144 172 206 254 314 370
#     4  11  27  48  68  96 130 165 220 286 340 386
#     4  11  22  38  58  94 139 172 217 259 307 393
#     4  10  23  39  60  94 137 176 206 260 315 390
#     4  12  24  41  73  96 125 181 223 262 329 397
#
# _framework density 21.271059999999999
#
# number of rings (size 3 to 8) (size 9 to 14) (size 15 to 20)
#    0.000    1.111    2.222    3.333    7.778    5.333 
#    0.000    0.000    0.000    4.000    0.000    0.000 
#    0.000    0.000    0.000    0.000    0.000    0.000 
#
# Total GULP energy -100672.666466 kJ/mol
# GULP energy per Si atom -5592.925915 kJ/mol
# Density = 2.122265 g / cm^3
# Si number density = 21.271060 Si / 1000 Ang^3
#
#
#
# Elastic Constant Matrix: (Units=GPa)
#
#
# Indices 1 2 3 4 5 6 
#
# 1 128.3513 13.6679 31.2413 0.0000 8.4522 0.0000
# 2 13.6679 44.2396 4.5212 0.0000 3.8418 0.0000
# 3 31.2413 4.5212 111.4983 0.0000 31.3582 0.0000
# 4 0.0000 0.0000 0.0000 25.4958 0.0000 -3.6237
# 5 8.4522 3.8418 31.3582 0.0000 57.1113 0.0000
# 6 0.0000 0.0000 0.0000 -3.6237 0.0000 23.8107
#
#
#
# Elastic Compliance Matrix: (Units=1/GPa)
#
#
# Indices 1 2 3 4 5 6 
#
# 1 0.008614 -0.002436 -0.002368 0.000000 0.000189 0.000000
# 2 -0.002436 0.023458 0.000087 0.000000 -0.001265 0.000000
# 3 -0.002368 0.000087 0.011273 0.000000 -0.005845 0.000000
# 4 0.000000 0.000000 0.000000 0.040089 0.000000 0.006101
# 5 0.000189 -0.001265 -0.005845 0.000000 0.020776 0.000000
# 6 0.000000 0.000000 0.000000 0.006101 0.000000 0.042926
#
#
# Mechanical properties :
#
#
# Convention : Reuss Voigt Hill
#
# Bulk Modulus (GPa) = 29.48890 42.54999 36.01945
# Shear Modulus (GPa) = 29.78426 36.92748 33.35587
#
# Velocity S-wave (km/s) = 3.74602 4.17111 3.96426
# Velocity P-wave (km/s) = 5.70996 6.57606 6.15826
#
# Compressibility (1/GPa) = 0.03391107
#
# Stress axis : x y z
#
# Youngs Moduli (GPa) = 116.08378 42.62986 88.71076
#
# Poissons Ratio (x) = 0.10384 0.21008
# Poissons Ratio (y) = 0.28276 -0.00773
# Poissons Ratio (z) = 0.27491 -0.00372
#
# Static dielectric constant tensor:
#      x y z
#    x 1.767930 0.000000 0.034520 
#    y 0.000000 1.748600 0.000000 
#    z 0.034520 0.000000 1.871080 
# 
# From -- ./inp_files/15939.got.cif
#   From: 2010.05.17/outbox.cif.g08.bks.cpg/sg12_8_cif.got.tgz:15939.got - 2010.06.03 13:09:07.
