data_PCOD9213439
_publ_section_title
;
Structure prediction by ZEFSAII (Michael W. Deem and Ramdas Pophale) SiO2 
 PCOD9213439
Probable space group: C 2/M
;
_chemical_formula_sum "Si O2"
_cell_formula_units_Z 48
_cell_length_a 10.435315
_cell_length_b 9.739474
_cell_length_c 24.139668
_cell_angle_alpha 90.000000
_cell_angle_beta 105.906811
_cell_angle_gamma 90.000000
_cell_volume 2359.477932
_symmetry_space_group_name_H-M "C 2/M"
_symmetry_group_IT_number 12
_symmetry_cell_setting 'monoclinic'
loop_
_space_group_symop_operation_xyz
x,y,z
-x,y,-z
-x,-y,-z
x,-y,z
1/2+x,1/2+y,z
1/2-x,1/2+y,-z
1/2-x,1/2-y,-z
1/2+x,1/2-y,z
loop_
_atom_site_type_symbol
_atom_site_label
_atom_site_fract_x
_atom_site_fract_y
_atom_site_fract_z
Si Si1 0.134008 0.652559 0.032747
Si Si2 0.397590 0.659149 0.381813
Si Si3 0.860265 0.161002 0.245571
Si Si4 0.213639 0.835136 0.440672
Si Si5 0.557483 0.837518 0.194939
Si Si6 0.821363 0.646846 0.089922
O O1 0.100711 0.500000 0.049785
O O2 0.226239 0.725632 0.087634
O O3 0.193368 0.634137 0.978169
O O4 0.000000 0.732069 0.000000
O O5 0.367194 0.500000 0.394709
O O6 0.373496 0.671197 0.313358
O O7 0.303832 0.765051 0.403600
O O8 0.555003 0.681737 0.411425
O O9 0.710615 0.206984 0.212011
O O10 0.971473 0.252082 0.228895
O O11 0.876339 0.000000 0.232066
O O12 0.250000 0.750000 0.500000
O O13 0.239075 0.000000 0.448155
O O14 0.469659 0.824545 0.128501
O O15 0.559064 0.000000 0.209386
O O16 0.780612 0.500000 0.109790
#
# Coordination Sequence:
#
# PCOD9213439 Si02
#       6
#     8   8   8   8   8   8
#     4   9  18  32  53  75  99 136 178 219 275 341
#     4  10  22  40  60  86 120 155 195 242 287 339
#     4  10  22  40  62  86 115 154 195 238 289 341
#     4  11  23  38  60  90 122 157 197 240 287 341
#     4  10  22  38  58  85 116 148 190 241 288 341
#     4   9  19  34  49  74 107 136 174 227 279 334
#
# _framework density 20.343482999999999
#
# number of rings (size 3 to 8) (size 9 to 14) (size 15 to 20)
#    0.000    2.167    0.000    2.000    2.333    5.667 
#    0.000    0.000    0.000    0.000    0.000    0.000 
#    0.000    0.000    0.000    0.000    0.000    0.000 
#
# Total GULP energy -133778.362741 kJ/mol
# GULP energy per Si atom -5574.098448 kJ/mol
# Density = 2.029718 g / cm^3
# Si number density = 20.343483 Si / 1000 Ang^3
#
#
#
# Elastic Constant Matrix: (Units=GPa)
#
#
# Indices 1 2 3 4 5 6 
#
# 1 80.9880 42.0211 25.2740 0.0000 1.3448 0.0000
# 2 42.0211 70.9950 35.4455 0.0000 2.2469 0.0000
# 3 25.2740 35.4455 92.2503 0.0000 13.3473 0.0000
# 4 0.0000 0.0000 0.0000 -42.9486 0.0000 27.0258
# 5 1.3448 2.2469 13.3473 0.0000 35.6559 0.0000
# 6 0.0000 0.0000 0.0000 27.0258 0.0000 22.1231
#
#
#
# Elastic Compliance Matrix: (Units=1/GPa)
#
#
# Indices 1 2 3 4 5 6 
#
# 1 0.017904 -0.010064 -0.001091 0.000000 0.000368 0.000000
# 2 -0.010064 0.023161 -0.006328 0.000000 0.001289 0.000000
# 3 -0.001091 -0.006328 0.014281 0.000000 -0.004906 0.000000
# 4 0.000000 0.000000 0.000000 -0.013164 0.000000 0.016082
# 5 0.000368 0.001289 -0.004906 0.000000 0.029787 0.000000
# 6 0.000000 0.000000 0.000000 0.016082 0.000000 0.025556
#
#
# Mechanical properties :
#
#
# Convention : Reuss Voigt Hill
#
# Bulk Modulus (GPa) = 49.07314 49.96829 49.52072
# Shear Modulus (GPa) = 35.89787 12.39891 24.14839
#
# Velocity S-wave (km/s) = 4.20526 2.47144 3.44907
# Velocity P-wave (km/s) = 6.91040 5.72360 6.34481
#
# Compressibility (1/GPa) = 0.02037775
#
# Stress axis : x y z
#
# Youngs Moduli (GPa) = 55.85463 43.17630 70.02553
#
# Poissons Ratio (x) = 0.43451 0.07643
# Poissons Ratio (y) = 0.56210 0.44316
# Poissons Ratio (z) = 0.06097 0.27324
#
# Static dielectric constant tensor:
#      x y z
#    x 1.746160 0.000000 -0.025680 
#    y 0.000000 1.813450 0.000000 
#    z -0.025680 0.000000 1.735300 
# 
# From -- ./inp_files/357371.got.cif
#   From: 2010.05.17/outbox.cif.g08.bks.cpg/sg12_179_cif.got.tgz:357371.got - 2010.06.03 13:09:07.
