data_PCOD9213924
_publ_section_title
;
Structure prediction by ZEFSAII (Michael W. Deem and Ramdas Pophale) SiO2 
 PCOD9213924
Probable space group: C 2/M
;
_chemical_formula_sum "Si O2"
_cell_formula_units_Z 40
_cell_length_a 21.245401
_cell_length_b 8.242356
_cell_length_c 10.854484
_cell_angle_alpha 90.000000
_cell_angle_beta 100.155465
_cell_angle_gamma 90.000000
_cell_volume 1870.972954
_symmetry_space_group_name_H-M "C 2/M"
_symmetry_group_IT_number 12
_symmetry_cell_setting 'monoclinic'
loop_
_space_group_symop_operation_xyz
x,y,z
-x,y,-z
-x,-y,-z
x,-y,z
1/2+x,1/2+y,z
1/2-x,1/2+y,-z
1/2-x,1/2-y,-z
1/2+x,1/2-y,z
loop_
_atom_site_type_symbol
_atom_site_label
_atom_site_fract_x
_atom_site_fract_y
_atom_site_fract_z
Si Si1 0.930567 0.807756 0.025100
Si Si2 0.792272 0.307309 0.900670
Si Si3 0.415739 0.196818 0.562460
Si Si4 0.212537 0.695796 0.367026
Si Si5 0.557942 0.196401 0.695201
O O1 0.924264 0.771422 0.168590
O O2 0.929647 0.000000 0.004204
O O3 0.867151 0.735531 0.941064
O O4 0.000000 0.745542 0.000000
O O5 0.787505 0.500000 0.896909
O O6 0.766972 0.243103 0.760091
O O7 0.750000 0.250000 0.000000
O O8 0.360017 0.250652 0.632557
O O9 0.484868 0.243203 0.637172
O O10 0.405092 0.247775 0.416616
O O11 0.416294 0.000000 0.559374
O O12 0.213914 0.500000 0.365251
O O13 0.250000 0.750000 0.500000
O O14 0.561792 0.000000 0.707535
#
# Coordination Sequence:
#
# PCOD9213924 Si02
#       5
#     8   8   8   8   8
#     4  11  24  40  60  89 127 165 208 260 315 372
#     4  11  25  44  66  93 128 169 214 261 313 377
#     4   8  16  33  57  86 117 148 195 249 302 363
#     4  10  22  39  60  87 119 158 203 250 302 367
#     4   9  17  33  60  88 114 151 197 250 307 368
#
# _framework density 21.379249999999999
#
# number of rings (size 3 to 8) (size 9 to 14) (size 15 to 20)
#    0.000    2.200    0.000    3.600    2.800    4.800 
#    0.000    3.000    0.000    0.000    0.000    0.000 
#    0.000    0.000    0.000    0.000    0.000    0.000 
#
# Total GULP energy -111652.293703 kJ/mol
# GULP energy per Si atom -5582.614685 kJ/mol
# Density = 2.133059 g / cm^3
# Si number density = 21.379250 Si / 1000 Ang^3
#
#
#
# Elastic Constant Matrix: (Units=GPa)
#
#
# Indices 1 2 3 4 5 6 
#
# 1 83.3363 16.9451 51.3393 0.0000 -19.0532 0.0000
# 2 16.9451 25.0303 14.8134 0.0000 -7.8300 0.0000
# 3 51.3393 14.8134 170.5246 0.0000 -20.6386 0.0000
# 4 0.0000 0.0000 0.0000 27.8816 0.0000 1.0788
# 5 -19.0532 -7.8300 -20.6386 0.0000 30.9971 0.0000
# 6 0.0000 0.0000 0.0000 1.0788 0.0000 25.1644
#
#
#
# Elastic Compliance Matrix: (Units=1/GPa)
#
#
# Indices 1 2 3 4 5 6 
#
# 1 0.017286 -0.007514 -0.003802 0.000000 0.006196 0.000000
# 2 -0.007514 0.047781 -0.001073 0.000000 0.006736 0.000000
# 3 -0.003802 -0.001073 0.007381 0.000000 0.002307 0.000000
# 4 0.000000 0.000000 0.000000 0.035925 0.000000 -0.001540
# 5 0.006196 0.006736 0.002307 0.000000 0.039307 0.000000
# 6 0.000000 0.000000 0.000000 -0.001540 0.000000 0.039805
#
#
# Mechanical properties :
#
#
# Convention : Reuss Voigt Hill
#
# Bulk Modulus (GPa) = 20.97743 49.45407 35.21575
# Shear Modulus (GPa) = 21.91507 29.86153 25.88830
#
# Velocity S-wave (km/s) = 3.20513 3.74137 3.48359
# Velocity P-wave (km/s) = 4.85083 6.46883 5.71736
#
# Compressibility (1/GPa) = 0.04767027
#
# Stress axis : x y z
#
# Youngs Moduli (GPa) = 57.85019 20.92883 135.47936
#
# Poissons Ratio (x) = 0.15726 0.51504
# Poissons Ratio (y) = 0.43470 0.14539
# Poissons Ratio (z) = 0.21992 0.02246
#
# Static dielectric constant tensor:
#      x y z
#    x 1.832820 0.000000 -0.051560 
#    y 0.000000 1.746390 0.000000 
#    z -0.051560 0.000000 1.906070 
# 
# From -- ./inp_files/162723.got.cif
#   From: 2010.05.17/outbox.cif.g08.bks.cpg/sg12_82_cif.got.tgz:162723.got - 2010.06.03 13:09:07.
