data_PCOD9213903
_publ_section_title
;
Structure prediction by ZEFSAII (Michael W. Deem and Ramdas Pophale) SiO2 
 PCOD9213903
Probable space group: C 2/M
;
_chemical_formula_sum "Si O2"
_cell_formula_units_Z 40
_cell_length_a 10.466235
_cell_length_b 28.400242
_cell_length_c 5.570208
_cell_angle_alpha 90.000000
_cell_angle_beta 74.681444
_cell_angle_gamma 90.000000
_cell_volume 1596.884547
_symmetry_space_group_name_H-M "C 2/M"
_symmetry_group_IT_number 12
_symmetry_cell_setting 'monoclinic'
loop_
_space_group_symop_operation_xyz
x,y,z
-x,y,-z
-x,-y,-z
x,-y,z
1/2+x,1/2+y,z
1/2-x,1/2+y,-z
1/2-x,1/2-y,-z
1/2+x,1/2-y,z
loop_
_atom_site_type_symbol
_atom_site_label
_atom_site_fract_x
_atom_site_fract_y
_atom_site_fract_z
Si Si1 0.272802 0.606190 0.149708
Si Si2 0.500000 0.082373 0.500000
Si Si3 0.388982 0.000000 0.287690
Si Si4 0.000000 0.172087 0.000000
Si Si5 0.365087 0.743365 0.691758
Si Si6 0.658654 0.819972 0.911660
Si Si7 0.768498 0.000000 0.130418
O O1 0.391759 0.638713 0.177977
O O2 0.325477 0.552968 0.098184
O O3 0.137609 0.608047 0.374932
O O4 0.225941 0.629626 0.920458
O O5 0.474140 0.047080 0.290024
O O6 0.297201 0.000000 0.570867
O O7 0.314781 0.000000 0.075908
O O8 0.066898 0.205077 0.162438
O O9 0.500000 0.759476 0.500000
O O10 0.234307 0.712735 0.675396
O O11 0.316374 0.788350 0.863021
O O12 0.500000 0.824983 0.000000
#
# Coordination Sequence:
#
# PCOD9213903 Si02
#       7
#     8   4   4   4   8   8   4
#     4  10  23  38  65  91 127 167 214 268 324 394
#     4   9  20  36  60  98 118 172 216 276 326 385
#     4   9  20  38  65  90 135 168 225 276 343 378
#     4  10  22  47  58  92 130 163 220 260 322 400
#     4  10  22  42  64  86 129 172 201 269 333 378
#     4  10  22  39  59  98 124 161 222 263 314 402
#     4  10  22  44  63  98 133 182 214 283 332 395
#
# _framework density 25.048772
#
# number of rings (size 3 to 8) (size 9 to 14) (size 15 to 20)
#    0.000    2.200    1.000    0.600    4.200    8.400 
#   10.800    0.000    0.000    4.800    0.000    0.000 
#    0.000    0.000    0.000    0.000    0.000    0.000 
#
# Total GULP energy -111488.615620 kJ/mol
# GULP energy per Si atom -5574.430781 kJ/mol
# Density = 2.499176 g / cm^3
# Si number density = 25.048772 Si / 1000 Ang^3
#
#
#
# Elastic Constant Matrix: (Units=GPa)
#
#
# Indices 1 2 3 4 5 6 
#
# 1 101.5580 13.9318 1.3931 0.0000 -25.2118 0.0000
# 2 13.9318 128.1814 -2.8732 0.0000 -16.6165 0.0000
# 3 1.3931 -2.8732 68.6669 0.0000 -13.2153 0.0000
# 4 0.0000 0.0000 0.0000 20.5033 0.0000 -14.4734
# 5 -25.2118 -16.6165 -13.2153 0.0000 35.6650 0.0000
# 6 0.0000 0.0000 0.0000 -14.4734 0.0000 37.2431
#
#
#
# Elastic Compliance Matrix: (Units=1/GPa)
#
#
# Indices 1 2 3 4 5 6 
#
# 1 0.012087 -0.000108 0.001491 0.000000 0.009047 0.000000
# 2 -0.000108 0.008393 0.001175 0.000000 0.004270 0.000000
# 3 0.001491 0.001175 0.016034 0.000000 0.007543 0.000000
# 4 0.000000 0.000000 0.000000 0.067211 0.000000 0.026119
# 5 0.009047 0.004270 0.007543 0.000000 0.039218 0.000000
# 6 0.000000 0.000000 0.000000 0.026119 0.000000 0.037001
#
#
# Mechanical properties :
#
#
# Convention : Reuss Voigt Hill
#
# Bulk Modulus (GPa) = 24.02039 35.92330 29.97184
# Shear Modulus (GPa) = 26.49673 37.74590 32.12132
#
# Velocity S-wave (km/s) = 3.25592 3.88609 3.58488
# Velocity P-wave (km/s) = 4.87288 5.87435 5.39690
#
# Compressibility (1/GPa) = 0.04163130
#
# Stress axis : x y z
#
# Youngs Moduli (GPa) = 82.73528 119.14728 62.36889
#
# Poissons Ratio (x) = 0.01281 -0.09302
# Poissons Ratio (y) = 0.00889 -0.07329
# Poissons Ratio (z) = -0.12339 -0.14001
#
# Static dielectric constant tensor:
#      x y z
#    x 2.089450 0.000000 -0.026650 
#    y 0.000000 1.995390 0.000000 
#    z -0.026650 0.000000 2.101550 
# 
# From -- ./inp_files/8390.got.cif
#   From: 2010.05.17/outbox.cif.g08.bks.cpg/sg12_5_cif.got.tgz:8390.got - 2010.06.03 13:09:07.
