data_PCOD9213534
_publ_section_title
;
Structure prediction by ZEFSAII (Michael W. Deem and Ramdas Pophale) SiO2 
 PCOD9213534
Probable space group: C 2/M
;
_chemical_formula_sum "Si O2"
_cell_formula_units_Z 50
_cell_length_a 17.046380
_cell_length_b 18.085384
_cell_length_c 9.248235
_cell_angle_alpha 90.000000
_cell_angle_beta 62.212117
_cell_angle_gamma 90.000000
_cell_volume 2522.346600
_symmetry_space_group_name_H-M "C 2/M"
_symmetry_group_IT_number 12
_symmetry_cell_setting 'monoclinic'
loop_
_space_group_symop_operation_xyz
x,y,z
-x,y,-z
-x,-y,-z
x,-y,z
1/2+x,1/2+y,z
1/2-x,1/2+y,-z
1/2-x,1/2-y,-z
1/2+x,1/2-y,z
loop_
_atom_site_type_symbol
_atom_site_label
_atom_site_fract_x
_atom_site_fract_y
_atom_site_fract_z
Si Si1 0.198336 0.673921 0.503771
Si Si2 0.510274 0.369897 0.778287
Si Si3 0.337953 0.586190 0.538987
Si Si4 0.018716 0.305124 0.820248
Si Si5 0.812360 0.854906 0.871967
Si Si6 0.000000 0.000000 0.000000
Si Si7 0.156144 0.680453 0.203271
O O1 0.250000 0.750000 0.500000
O O2 0.268076 0.609822 0.477410
O O3 0.113065 0.669651 0.679546
O O4 0.166966 0.671915 0.365129
O O5 0.568980 0.375887 0.583059
O O6 0.519312 0.285070 0.820059
O O7 0.406219 0.386704 0.845081
O O8 0.541791 0.433633 0.859702
O O9 0.352888 0.500000 0.534998
O O10 0.298595 0.614068 0.724154
O O11 0.940749 0.332401 0.780710
O O12 0.000000 0.329253 0.000000
O O13 0.826369 0.767125 0.843287
O O14 0.731284 0.864777 0.051509
#
# Coordination Sequence:
#
# PCOD9213534 Si02
#       7
#     8   8   8   8   8   2   8
#     4  12  23  39  65  93 124 165 213 266 310 373
#     4  11  23  35  59  88 134 171 211 244 309 380
#     4  12  25  40  59  91 132 174 207 256 322 385
#     4  11  22  39  66  93 124 161 213 271 317 361
#     4  10  22  38  60  88 123 162 212 257 308 373
#     4  12  24  36  50  96 136 182 204 244 304 400
#     4  10  22  39  65  91 120 156 211 269 313 361
#
# _framework density 19.822811999999999
#
# number of rings (size 3 to 8) (size 9 to 14) (size 15 to 20)
#    0.000    0.960    4.800    1.920    7.840    3.200 
#    0.000    0.800    0.000    6.240    0.000    0.000 
#    0.000    0.000    0.000    0.000    0.000    0.000 
#
# Total GULP energy -139393.906912 kJ/mol
# GULP energy per Si atom -5575.756276 kJ/mol
# Density = 1.977769 g / cm^3
# Si number density = 19.822812 Si / 1000 Ang^3
#
#
#
# Elastic Constant Matrix: (Units=GPa)
#
#
# Indices 1 2 3 4 5 6 
#
# 1 107.3994 12.5652 59.5194 0.0000 -9.9446 0.0000
# 2 12.5652 12.2833 10.6406 0.0000 -7.0538 0.0000
# 3 59.5194 10.6406 155.2717 0.0000 -10.8087 0.0000
# 4 0.0000 0.0000 0.0000 17.2100 0.0000 -1.4208
# 5 -9.9446 -7.0538 -10.8087 0.0000 37.8836 0.0000
# 6 0.0000 0.0000 0.0000 -1.4208 0.0000 5.2840
#
#
#
# Elastic Compliance Matrix: (Units=1/GPa)
#
#
# Indices 1 2 3 4 5 6 
#
# 1 0.012770 -0.009138 -0.004238 0.000000 0.000441 0.000000
# 2 -0.009138 0.101952 -0.002377 0.000000 0.015906 0.000000
# 3 -0.004238 -0.002377 0.008284 0.000000 0.000809 0.000000
# 4 0.000000 0.000000 0.000000 0.059425 0.000000 0.015978
# 5 0.000441 0.015906 0.000809 0.000000 0.029705 0.000000
# 6 0.000000 0.000000 0.000000 0.015978 0.000000 0.193545
#
#
# Mechanical properties :
#
#
# Convention : Reuss Voigt Hill
#
# Bulk Modulus (GPa) = 10.92891 48.93387 29.93139
# Shear Modulus (GPa) = 10.69094 24.89080 17.79087
#
# Velocity S-wave (km/s) = 2.32486 3.54738 2.99907
# Velocity P-wave (km/s) = 3.56818 6.44343 5.20815
#
# Compressibility (1/GPa) = 0.09150044
#
# Stress axis : x y z
#
# Youngs Moduli (GPa) = 78.31083 9.80855 120.71480
#
# Poissons Ratio (x) = 0.08963 0.51158
# Poissons Ratio (y) = 0.71560 0.28690
# Poissons Ratio (z) = 0.33188 0.02331
#
# Static dielectric constant tensor:
#      x y z
#    x 1.732000 0.000000 0.017780 
#    y 0.000000 1.671910 0.000000 
#    z 0.017780 0.000000 1.748410 
# 
# From -- ./inp_files/75760.got.cif
#   From: 2010.05.17/outbox.cif.g08.bks.cpg/sg12_38_cif.got.tgz:75760.got - 2010.06.03 13:09:07.
