data_PCOD9213652
_publ_section_title
;
Structure prediction by ZEFSAII (Michael W. Deem and Ramdas Pophale) SiO2 
 PCOD9213652
Probable space group: C 2/M
;
_chemical_formula_sum "Si O2"
_cell_formula_units_Z 56
_cell_length_a 8.868768
_cell_length_b 27.736853
_cell_length_c 17.279202
_cell_angle_alpha 90.000000
_cell_angle_beta 137.345080
_cell_angle_gamma 90.000000
_cell_volume 2880.086489
_symmetry_space_group_name_H-M "C 2/M"
_symmetry_group_IT_number 12
_symmetry_cell_setting 'monoclinic'
loop_
_space_group_symop_operation_xyz
x,y,z
-x,y,-z
-x,-y,-z
x,-y,z
1/2+x,1/2+y,z
1/2-x,1/2+y,-z
1/2-x,1/2-y,-z
1/2+x,1/2-y,z
loop_
_atom_site_type_symbol
_atom_site_label
_atom_site_fract_x
_atom_site_fract_y
_atom_site_fract_z
Si Si1 0.635744 0.805961 0.855358
Si Si2 0.493881 0.705055 0.130004
Si Si3 0.253150 0.377368 0.103947
Si Si4 0.985895 0.401921 0.720775
Si Si5 0.662540 0.055965 0.488075
Si Si6 0.473047 0.445324 0.898012
Si Si7 0.819826 0.053422 0.270618
O O1 0.511458 0.757314 0.832930
O O2 0.783896 0.798231 0.835033
O O3 0.499823 0.853292 0.778387
O O4 0.804969 0.808420 0.993067
O O5 0.431827 0.665534 0.170121
O O6 0.331484 0.414154 0.066265
O O7 0.266243 0.407452 0.186516
O O8 0.000000 0.359294 0.000000
O O9 0.877411 0.405285 0.594888
O O10 0.842237 0.438514 0.718203
O O11 0.237126 0.419305 0.798627
O O12 0.500000 0.064393 0.500000
O O13 0.921125 0.057494 0.609152
O O14 0.617129 0.000000 0.444676
O O15 0.469159 0.500000 0.865853
O O16 0.500000 0.447106 0.000000
O O17 0.781247 0.000000 0.224084
#
# Coordination Sequence:
#
# PCOD9213652 Si02
#       7
#     8   8   8   8   8   8   8
#     4  10  22  38  63  89 120 157 202 255 314 366
#     4  10  22  39  59  90 122 157 202 255 308 371
#     4  12  24  37  59  87 125 164 207 253 305 369
#     4  12  22  39  63  91 118 160 205 256 307 368
#     4  10  22  41  64  90 122 162 210 258 304 361
#     4  11  22  36  54  82 123 163 198 244 304 370
#     4  11  24  39  60  92 126 164 207 250 302 363
#
# _framework density 19.443860000000001
#
# number of rings (size 3 to 8) (size 9 to 14) (size 15 to 20)
#    0.000    1.143    1.429    5.571    6.000    4.571 
#    0.000    0.000    0.000    0.857    0.000    0.000 
#    0.000    0.000    0.000    0.000    0.000    0.000 
#
# Total GULP energy -156228.422559 kJ/mol
# GULP energy per Si atom -5579.586520 kJ/mol
# Density = 1.939960 g / cm^3
# Si number density = 19.443860 Si / 1000 Ang^3
#
#
#
# Elastic Constant Matrix: (Units=GPa)
#
#
# Indices 1 2 3 4 5 6 
#
# 1 105.3923 15.8891 2.0700 0.0000 7.4936 0.0000
# 2 15.8891 83.5695 4.4531 0.0000 -1.4816 0.0000
# 3 2.0700 4.4531 27.2154 0.0000 -1.8856 0.0000
# 4 0.0000 0.0000 0.0000 20.0947 0.0000 -5.7902
# 5 7.4936 -1.4816 -1.8856 0.0000 24.8720 0.0000
# 6 0.0000 0.0000 0.0000 -5.7902 0.0000 25.9551
#
#
#
# Elastic Compliance Matrix: (Units=1/GPa)
#
#
# Indices 1 2 3 4 5 6 
#
# 1 0.010018 -0.001926 -0.000667 0.000000 -0.003184 0.000000
# 2 -0.001926 0.012450 -0.001808 0.000000 0.001185 0.000000
# 3 -0.000667 -0.001808 0.037293 0.000000 0.002921 0.000000
# 4 0.000000 0.000000 0.000000 0.053183 0.000000 0.011864
# 5 -0.003184 0.001185 0.002921 0.000000 0.041457 0.000000
# 6 0.000000 0.000000 0.000000 0.011864 0.000000 0.041175
#
#
# Mechanical properties :
#
#
# Convention : Reuss Voigt Hill
#
# Bulk Modulus (GPa) = 19.62418 29.00015 24.31216
# Shear Modulus (GPa) = 22.58715 27.10203 24.84459
#
# Velocity S-wave (km/s) = 3.41201 3.73749 3.57846
# Velocity P-wave (km/s) = 5.06331 5.79416 5.44102
#
# Compressibility (1/GPa) = 0.05095753
#
# Stress axis : x y z
#
# Youngs Moduli (GPa) = 99.81889 80.32400 26.81468
#
# Poissons Ratio (x) = 0.15467 0.01790
# Poissons Ratio (y) = 0.19221 0.04849
# Poissons Ratio (z) = 0.06663 0.14527
#
# Static dielectric constant tensor:
#      x y z
#    x 1.673510 0.000000 -0.000350 
#    y 0.000000 1.717880 0.000000 
#    z -0.000350 0.000000 1.712570 
# 
# From -- ./inp_files/259809.got.cif
#   From: 2010.05.17/outbox.cif.g08.bks.cpg/sg12_130_cif.got.tgz:259809.got - 2010.06.03 13:09:07.
