data_PCOD9213544
_publ_section_title
;
Structure prediction by ZEFSAII (Michael W. Deem and Ramdas Pophale) SiO2 
 PCOD9213544
Probable space group: C 2/M
;
_chemical_formula_sum "Si O2"
_cell_formula_units_Z 48
_cell_length_a 28.088043
_cell_length_b 16.346659
_cell_length_c 9.670610
_cell_angle_alpha 90.000000
_cell_angle_beta 145.056012
_cell_angle_gamma 90.000000
_cell_volume 2543.247838
_symmetry_space_group_name_H-M "C 2/M"
_symmetry_group_IT_number 12
_symmetry_cell_setting 'monoclinic'
loop_
_space_group_symop_operation_xyz
x,y,z
-x,y,-z
-x,-y,-z
x,-y,z
1/2+x,1/2+y,z
1/2-x,1/2+y,-z
1/2-x,1/2-y,-z
1/2+x,1/2-y,z
loop_
_atom_site_type_symbol
_atom_site_label
_atom_site_fract_x
_atom_site_fract_y
_atom_site_fract_z
Si Si1 0.027228 0.812628 0.906803
Si Si2 0.284668 0.902242 0.734983
Si Si3 0.305829 0.687024 0.043677
Si Si4 0.365396 0.404865 0.437817
Si Si5 0.795971 0.900065 0.737815
Si Si6 0.435882 0.188917 0.233377
O O1 0.026000 0.730500 0.812377
O O2 0.955365 0.868045 0.671426
O O3 0.115781 0.859641 0.100476
O O4 0.000000 0.798902 0.000000
O O5 0.202970 0.869230 0.619376
O O6 0.271271 0.881635 0.542304
O O7 0.284545 0.000000 0.743925
O O8 0.365032 0.870196 0.005568
O O9 0.271885 0.646033 0.822448
O O10 0.250000 0.750000 0.000000
O O11 0.331343 0.614236 0.205646
O O12 0.387347 0.737850 0.195354
O O13 0.370968 0.500000 0.478819
O O14 0.803701 0.000000 0.769757
O O15 0.500000 0.154794 0.500000
#
# Coordination Sequence:
#
# PCOD9213544 Si02
#       6
#     8   8   8   8   8   8
#     4  11  22  36  60  92 126 159 191 241 304 361
#     4  10  22  40  62  86 116 158 204 250 295 350
#     4  11  22  38  59  87 123 159 200 245 300 352
#     4  11  21  36  60  90 120 158 200 240 297 364
#     4  10  22  38  60  90 124 159 196 243 300 359
#     4  11  23  40  59  86 120 158 204 247 297 352
#
# _framework density 18.873505999999999
#
# number of rings (size 3 to 8) (size 9 to 14) (size 15 to 20)
#    0.000    1.333    5.000    1.000    0.000    5.000 
#    0.000    2.500    0.000    0.500    0.000    0.000 
#    0.000    0.000    0.000    0.000    0.000    0.000 
#
# Total GULP energy -133839.141357 kJ/mol
# GULP energy per Si atom -5576.630890 kJ/mol
# Density = 1.883055 g / cm^3
# Si number density = 18.873506 Si / 1000 Ang^3
#
#
#
# Elastic Constant Matrix: (Units=GPa)
#
#
# Indices 1 2 3 4 5 6 
#
# 1 66.3762 8.8897 6.6216 0.0000 -9.9018 0.0000
# 2 8.8897 26.6587 18.2395 0.0000 4.9788 0.0000
# 3 6.6216 18.2395 109.5258 0.0000 1.5126 0.0000
# 4 0.0000 0.0000 0.0000 36.6021 0.0000 -1.8042
# 5 -9.9018 4.9788 1.5126 0.0000 23.1047 0.0000
# 6 0.0000 0.0000 0.0000 -1.8042 0.0000 28.3964
#
#
#
# Elastic Compliance Matrix: (Units=1/GPa)
#
#
# Indices 1 2 3 4 5 6 
#
# 1 0.017427 -0.007565 0.000081 0.000000 0.009094 0.000000
# 2 -0.007565 0.047427 -0.007261 0.000000 -0.012987 0.000000
# 3 0.000081 -0.007261 0.010322 0.000000 0.000924 0.000000
# 4 0.000000 0.000000 0.000000 0.027407 0.000000 0.001741
# 5 0.009094 -0.012987 0.000924 0.000000 0.049916 0.000000
# 6 0.000000 0.000000 0.000000 0.001741 0.000000 0.035326
#
#
# Mechanical properties :
#
#
# Convention : Reuss Voigt Hill
#
# Bulk Modulus (GPa) = 21.88890 30.00691 25.94791
# Shear Modulus (GPa) = 21.50114 28.87462 25.18788
#
# Velocity S-wave (km/s) = 3.37890 3.91564 3.65713
# Velocity P-wave (km/s) = 5.18126 6.03129 5.62236
#
# Compressibility (1/GPa) = 0.04568525
#
# Stress axis : x y z
#
# Youngs Moduli (GPa) = 57.38130 21.08488 96.88136
#
# Poissons Ratio (x) = 0.15950 -0.00781
# Poissons Ratio (y) = 0.43408 0.70350
# Poissons Ratio (z) = -0.00462 0.15311
#
# Static dielectric constant tensor:
#      x y z
#    x 1.711180 0.000000 -0.005450 
#    y 0.000000 1.644700 0.000000 
#    z -0.005450 0.000000 1.659730 
# 
# From -- ./inp_files/87757.got.cif
#   From: 2010.05.17/outbox.cif.g08.bks.cpg/sg12_44_cif.got.tgz:87757.got - 2010.06.03 13:09:07.
