data_PCOD9213333
_publ_section_title
;
Structure prediction by ZEFSAII (Michael W. Deem and Ramdas Pophale) SiO2 
 PCOD9213333
Probable space group: C 2/M
;
_chemical_formula_sum "Si O2"
_cell_formula_units_Z 40
_cell_length_a 19.379375
_cell_length_b 11.446369
_cell_length_c 10.638253
_cell_angle_alpha 90.000000
_cell_angle_beta 38.949213
_cell_angle_gamma 90.000000
_cell_volume 1483.453070
_symmetry_space_group_name_H-M "C 2/M"
_symmetry_group_IT_number 12
_symmetry_cell_setting 'monoclinic'
loop_
_space_group_symop_operation_xyz
x,y,z
-x,y,-z
-x,-y,-z
x,-y,z
1/2+x,1/2+y,z
1/2-x,1/2+y,-z
1/2-x,1/2-y,-z
1/2+x,1/2-y,z
loop_
_atom_site_type_symbol
_atom_site_label
_atom_site_fract_x
_atom_site_fract_y
_atom_site_fract_z
Si Si1 0.372715 0.373923 0.220150
Si Si2 0.409880 0.873502 0.475337
Si Si3 0.982855 0.126737 0.322286
Si Si4 0.765137 0.128834 0.053668
Si Si5 0.873487 0.624109 0.227090
O O1 0.324716 0.500000 0.253412
O O2 0.389608 0.373044 0.347061
O O3 0.325802 0.247514 0.250524
O O4 0.500000 0.375583 0.000000
O O5 0.473473 0.751758 0.401269
O O6 0.316601 0.870734 0.713090
O O7 0.374530 0.874808 0.377686
O O8 0.469053 0.000000 0.405517
O O9 0.971707 0.000000 0.403380
O O10 0.106160 0.127602 0.091097
O O11 0.748451 0.000000 0.012536
O O12 0.750000 0.250000 0.000000
O O13 0.826465 0.500000 0.249854
O O14 0.000000 0.625149 0.000000
#
# Coordination Sequence:
#
# PCOD9213333 Si02
#       5
#     8   8   8   8   8
#     4   8  13  23  43  69  95 126 162 198 242 299
#     4   9  18  33  53  76 103 136 173 215 264 314
#     4   9  18  33  53  76 103 136 173 215 264 314
#     4  10  22  38  54  75 104 138 178 223 267 312
#     4   8  13  23  43  69  95 126 162 198 242 299
#
# _framework density 26.964113999999999
#
# number of rings (size 3 to 8) (size 9 to 14) (size 15 to 20)
#    0.000    3.200    0.000    0.000    0.000    2.400 
#    0.000    4.000    0.000   19.200    0.000   28.000 
#    0.000    0.000    0.000    0.000    0.000    0.000 
#
# Total GULP energy -111665.147285 kJ/mol
# GULP energy per Si atom -5583.257364 kJ/mol
# Density = 2.690274 g / cm^3
# Si number density = 26.964114 Si / 1000 Ang^3
#
#
#
# Elastic Constant Matrix: (Units=GPa)
#
#
# Indices 1 2 3 4 5 6 
#
# 1 55.0686 43.9621 -3.6836 0.0000 7.1393 0.0000
# 2 43.9621 406.0104 79.4136 0.0000 1.3104 0.0000
# 3 -3.6836 79.4136 132.7742 0.0000 -9.3342 0.0000
# 4 0.0000 0.0000 0.0000 43.9739 0.0000 -11.4171
# 5 7.1393 1.3104 -9.3342 0.0000 34.8351 0.0000
# 6 0.0000 0.0000 0.0000 -11.4171 0.0000 13.3002
#
#
#
# Elastic Compliance Matrix: (Units=1/GPa)
#
#
# Indices 1 2 3 4 5 6 
#
# 1 0.020848 -0.002614 0.001884 0.000000 -0.003670 0.000000
# 2 -0.002614 0.003128 -0.001951 0.000000 -0.000105 0.000000
# 3 0.001884 -0.001951 0.008896 0.000000 0.002071 0.000000
# 4 0.000000 0.000000 0.000000 0.029263 0.000000 0.025120
# 5 -0.003670 -0.000105 0.002071 0.000000 0.030018 0.000000
# 6 0.000000 0.000000 0.000000 0.025120 0.000000 0.096750
#
#
# Mechanical properties :
#
#
# Convention : Reuss Voigt Hill
#
# Bulk Modulus (GPa) = 36.35029 92.58194 64.46612
# Shear Modulus (GPa) = 24.57800 50.03257 37.30528
#
# Velocity S-wave (km/s) = 3.02239 4.31225 3.72360
# Velocity P-wave (km/s) = 5.06854 7.69440 6.51513
#
# Compressibility (1/GPa) = 0.02751009
#
# Stress axis : x y z
#
# Youngs Moduli (GPa) = 47.96699 319.70173 112.40763
#
# Poissons Ratio (x) = 0.83569 -0.21176
# Poissons Ratio (y) = 0.12538 0.21928
# Poissons Ratio (z) = -0.09036 0.62365
#
# Static dielectric constant tensor:
#      x y z
#    x 2.078180 0.000000 0.025580 
#    y 0.000000 2.119940 0.000000 
#    z 0.025580 0.000000 2.128440 
# 
# From -- ./inp_files/182720.got.cif
#   From: 2010.05.17/outbox.cif.g08.bks.cpg/sg12_92_cif.got.tgz:182720.got - 2010.06.03 13:09:07.
